REMARK SMILES CC[C@]1(C(=O)OCCOCCOC(=O)c2ccc(-c3c4nc(c(-c5cccc(S(=O)(=O)[O-])c5F)c5ccc([nH]5)c(-c5cccc(S(=O)(=O)[O-])c5F)c5nc(c(-c6cccc(S(=O)(=O)[O-])c6F)c6ccc3[nH]6)C=C5)C=C4)cc2)CCCN(C(=O)c2csc(C)c2-c2ccccc2)C1
REMARK SMILES IDX 9 1 8 2 7 3 6 4 4 5 5 6 3 7 78 8 96 9 79 10 81 11 80 12 2 13
REMARK SMILES IDX 1 14 82 15 83 16 84 17 85 18 89 19 86 20 87 21 88 22 90 23
REMARK SMILES IDX 91 24 95 25 92 26 94 27 93 28 10 29 11 30 12 31 13 32 14 33
REMARK SMILES IDX 15 34 16 35 77 36 17 37 76 38 18 39 19 40 20 41 70 42 21 43
REMARK SMILES IDX 75 44 69 45 71 46 22 47 74 48 68 49 67 50 23 52 55 53 35 54
REMARK SMILES IDX 54 55 36 56 39 57 53 58 72 59 37 60 38 61 52 63 73 64 40 65
REMARK SMILES IDX 24 66 25 67 33 68 26 69 28 70 34 71 27 72 29 73 30 74 31 75
REMARK SMILES IDX 32 76 56 77 57 78 65 79 58 80 60 81 66 82 59 83 61 84 62 85
REMARK SMILES IDX 63 86 64 87 41 88 42 89 50 90 43 91 45 92 51 93 44 94 46 95
REMARK SMILES IDX 47 96 48 97 49 98
REMARK H PARENT 71 51 39 62
REMARK Flexibility Score: inf
ROOT
ATOM      1  O   UNL     1       2.053  -0.925  -3.580  1.00  0.00    -0.374 OA
ENDROOT
BRANCH   1   2
ATOM      2  C   UNL     1       1.891   0.074  -4.585  1.00  0.00     0.202 C 
BRANCH   2   3
ATOM      3  C   UNL     1       0.816   1.140  -4.362  1.00  0.00     0.261 C 
BRANCH   3   4
ATOM      4  O   UNL     1       1.044   1.897  -3.164  1.00  0.00    -0.463 OA
BRANCH   4   5
ATOM      5  C   UNL     1       0.158   1.659  -2.162  1.00  0.00     0.313 C 
ATOM      6  O   UNL     1      -0.811   0.914  -2.262  1.00  0.00    -0.252 OA
BRANCH   5   7
ATOM      7  C   UNL     1       0.473   2.448  -0.892  1.00  0.00     0.085 C 
ATOM      8  C   UNL     1       1.953   2.877  -0.702  1.00  0.00     0.022 C 
ATOM      9  C   UNL     1      -0.347   3.740  -1.054  1.00  0.00     0.138 C 
ATOM     10  C   UNL     1       2.128   3.858   0.470  1.00  0.00     0.023 C 
ATOM     11  N   UNL     1      -0.216   4.587   0.125  1.00  0.00    -0.337 N 
ATOM     12  C   UNL     1       1.148   5.038   0.414  1.00  0.00     0.120 C 
BRANCH   7  13
ATOM     13  C   UNL     1      -0.033   1.611   0.324  1.00  0.00     0.017 C 
ATOM     14  C   UNL     1       0.635   0.251   0.514  1.00  0.00     0.005 C 
ENDBRANCH   7  13
BRANCH  11  15
ATOM     15  C   UNL     1      -1.357   4.783   0.904  1.00  0.00     0.255 C 
ATOM     16  O   UNL     1      -2.421   4.222   0.650  1.00  0.00    -0.269 OA
BRANCH  15  17
ATOM     17  C   UNL     1      -1.265   5.653   2.069  1.00  0.00     0.058 A 
ATOM     18  C   UNL     1      -0.943   6.994   1.991  1.00  0.00     0.079 A 
ATOM     19  C   UNL     1      -1.618   5.272   3.417  1.00  0.00     0.008 A 
ATOM     20  S   UNL     1      -1.008   7.770   3.506  1.00  0.00    -0.148 S 
ATOM     21  C   UNL     1      -1.508   6.334   4.301  1.00  0.00     0.010 A 
ATOM     22  C   UNL     1      -1.758   6.393   5.772  1.00  0.00     0.057 C 
BRANCH  19  23
ATOM     23  C   UNL     1      -2.017   3.935   3.853  1.00  0.00    -0.016 A 
ATOM     24  C   UNL     1      -3.311   3.691   4.328  1.00  0.00     0.009 A 
ATOM     25  C   UNL     1      -1.106   2.876   3.771  1.00  0.00     0.009 A 
ATOM     26  C   UNL     1      -3.681   2.405   4.731  1.00  0.00     0.001 A 
ATOM     27  C   UNL     1      -1.484   1.587   4.155  1.00  0.00     0.001 A 
ATOM     28  C   UNL     1      -2.769   1.354   4.641  1.00  0.00     0.000 A 
ENDBRANCH  19  23
ENDBRANCH  15  17
ENDBRANCH  11  15
ENDBRANCH   5   7
ENDBRANCH   4   5
ENDBRANCH   3   4
ENDBRANCH   2   3
ENDBRANCH   1   2
BRANCH   1  29
ATOM     29  C   UNL     1       2.712  -0.552  -2.372  1.00  0.00     0.202 C 
BRANCH  29  30
ATOM     30  C   UNL     1       4.232  -0.351  -2.412  1.00  0.00     0.261 C 
BRANCH  30  31
ATOM     31  O   UNL     1       4.617   0.776  -3.216  1.00  0.00    -0.460 OA
BRANCH  31  32
ATOM     32  C   UNL     1       5.214   0.457  -4.388  1.00  0.00     0.338 C 
ATOM     33  O   UNL     1       5.501  -0.666  -4.790  1.00  0.00    -0.246 OA
BRANCH  32  34
ATOM     34  C   UNL     1       5.302   1.651  -5.243  1.00  0.00     0.060 A 
ATOM     35  C   UNL     1       4.761   1.573  -6.536  1.00  0.00     0.016 A 
ATOM     36  C   UNL     1       5.961   2.803  -4.813  1.00  0.00     0.016 A 
ATOM     37  C   UNL     1       4.924   2.630  -7.426  1.00  0.00     0.010 A 
ATOM     38  C   UNL     1       6.138   3.855  -5.712  1.00  0.00     0.010 A 
ATOM     39  C   UNL     1       5.657   3.754  -7.031  1.00  0.00    -0.014 A 
BRANCH  39  40
ATOM     40  C   UNL     1       6.098   4.746  -8.036  1.00  0.00     0.031 A 
ATOM     41  C   UNL     1       7.505   4.647  -8.556  1.00  0.00     0.074 A 
ATOM     42  C   UNL     1       5.285   5.739  -8.434  1.00  0.00     0.049 A 
ATOM     43  N   UNL     1       8.171   5.481  -9.308  1.00  0.00    -0.248 NA
ATOM     44  C   UNL     1       8.267   3.447  -8.164  1.00  0.00     0.031 C 
ATOM     45  C   UNL     1       3.896   5.912  -8.013  1.00  0.00     0.029 A 
ATOM     46  N   UNL     1       5.530   6.814  -9.249  1.00  0.00    -0.354 N 
ATOM     47  C   UNL     1       9.442   4.935  -9.440  1.00  0.00     0.074 A 
ATOM     48  C   UNL     1       9.454   3.696  -8.695  1.00  0.00     0.031 C 
ATOM     49  C   UNL     1       3.424   7.057  -8.535  1.00  0.00     0.029 A 
ATOM     50  C   UNL     1       4.489   7.711  -9.293  1.00  0.00     0.049 A 
ATOM     51  H   UNL     1       6.368   6.931  -9.753  1.00  0.00     0.167 HD
ATOM     52  C   UNL     1      10.502   5.423 -10.124  1.00  0.00     0.034 A 
ATOM     53  C   UNL     1       4.424   8.938  -9.848  1.00  0.00     0.034 A 
ATOM     54  C   UNL     1      10.469   6.646 -10.877  1.00  0.00     0.049 A 
ATOM     55  C   UNL     1       5.625   9.472 -10.585  1.00  0.00     0.074 A 
ATOM     56  C   UNL     1      11.474   7.213 -11.638  1.00  0.00     0.029 A 
ATOM     57  N   UNL     1       9.375   7.493 -10.957  1.00  0.00    -0.354 N 
ATOM     58  N   UNL     1       6.793   8.908 -10.778  1.00  0.00    -0.248 NA
ATOM     59  C   UNL     1       5.494  10.799 -11.206  1.00  0.00     0.031 C 
ATOM     60  C   UNL     1      10.995   8.419 -12.159  1.00  0.00     0.029 A 
ATOM     61  C   UNL     1       9.680   8.583 -11.750  1.00  0.00     0.049 A 
ATOM     62  H   UNL     1       8.509   7.341 -10.514  1.00  0.00     0.167 HD
ATOM     63  C   UNL     1       7.515   9.784 -11.581  1.00  0.00     0.074 A 
ATOM     64  C   UNL     1       6.653  10.918 -11.840  1.00  0.00     0.031 C 
ATOM     65  C   UNL     1       8.779   9.664 -12.056  1.00  0.00     0.034 A 
BRANCH  52  66
ATOM     66  C   UNL     1      11.780   4.631 -10.098  1.00  0.00     0.023 A 
ATOM     67  C   UNL     1      11.872   3.425 -10.822  1.00  0.00     0.012 A 
ATOM     68  C   UNL     1      12.906   5.106  -9.398  1.00  0.00     0.148 A 
ATOM     69  C   UNL     1      13.057   2.689 -10.826  1.00  0.00     0.002 A 
ATOM     70  C   UNL     1      14.097   4.389  -9.443  1.00  0.00     0.091 A 
ATOM     71  F   UNL     1      12.790   6.240  -8.694  1.00  0.00    -0.205 F 
ATOM     72  C   UNL     1      14.170   3.176 -10.147  1.00  0.00     0.022 A 
BRANCH  70  73
ATOM     73  S   UNL     1      15.606   4.974  -8.664  1.00  0.00     0.127 S 
ATOM     74  O   UNL     1      15.739   4.044  -7.544  1.00  0.00    -0.237 OA
ATOM     75  O   UNL     1      16.593   4.791  -9.729  1.00  0.00    -0.237 OA
ATOM     76  O   UNL     1      15.358   6.362  -8.299  1.00  0.00    -0.744 OA
ENDBRANCH  70  73
ENDBRANCH  52  66
BRANCH  53  77
ATOM     77  C   UNL     1       3.170   9.736  -9.744  1.00  0.00     0.023 A 
ATOM     78  C   UNL     1       2.394   9.962 -10.897  1.00  0.00     0.012 A 
ATOM     79  C   UNL     1       2.729  10.248  -8.508  1.00  0.00     0.148 A 
ATOM     80  C   UNL     1       1.217  10.709 -10.826  1.00  0.00     0.002 A 
ATOM     81  C   UNL     1       1.528  10.944  -8.435  1.00  0.00     0.091 A 
ATOM     82  F   UNL     1       3.490  10.036  -7.425  1.00  0.00    -0.205 F 
ATOM     83  C   UNL     1       0.779  11.190  -9.596  1.00  0.00     0.022 A 
BRANCH  81  84
ATOM     84  S   UNL     1       0.824  11.488  -6.874  1.00  0.00     0.127 S 
ATOM     85  O   UNL     1       0.991  12.936  -6.959  1.00  0.00    -0.237 OA
ATOM     86  O   UNL     1      -0.557  11.017  -6.986  1.00  0.00    -0.237 OA
ATOM     87  O   UNL     1       1.602  10.820  -5.839  1.00  0.00    -0.744 OA
ENDBRANCH  81  84
ENDBRANCH  53  77
BRANCH  65  88
ATOM     88  C   UNL     1       9.300  10.742 -12.968  1.00  0.00     0.023 A 
ATOM     89  C   UNL     1       9.696  11.985 -12.440  1.00  0.00     0.012 A 
ATOM     90  C   UNL     1       9.514  10.466 -14.334  1.00  0.00     0.148 A 
ATOM     91  C   UNL     1      10.285  12.945 -13.263  1.00  0.00     0.002 A 
ATOM     92  C   UNL     1      10.146  11.407 -15.136  1.00  0.00     0.091 A 
ATOM     93  F   UNL     1       9.113   9.280 -14.816  1.00  0.00    -0.205 F 
ATOM     94  C   UNL     1      10.523  12.651 -14.604  1.00  0.00     0.022 A 
BRANCH  92  95
ATOM     95  S   UNL     1      10.588  11.076 -16.845  1.00  0.00     0.127 S 
ATOM     96  O   UNL     1       9.681  11.970 -17.565  1.00  0.00    -0.237 OA
ATOM     97  O   UNL     1      11.995  11.475 -16.883  1.00  0.00    -0.237 OA
ATOM     98  O   UNL     1      10.355   9.654 -17.055  1.00  0.00    -0.744 OA
ENDBRANCH  92  95
ENDBRANCH  65  88
ENDBRANCH  39  40
ENDBRANCH  32  34
ENDBRANCH  31  32
ENDBRANCH  30  31
ENDBRANCH  29  30
ENDBRANCH   1  29
TORSDOF 21
