REMARK SMILES COCCN(CC(=O)OCCOCCOC(=O)c1ccc(-c2c3nc(c(-c4cccc(S(=O)(=O)[O-])c4F)c4ccc([nH]4)c(-c4cccc(S(=O)(=O)[O-])c4F)c4nc(c(-c5cccc(S(=O)(=O)[O-])c5F)c5ccc2[nH]5)C=C4)C=C3)cc1)C(=O)N[C@H]1CC[N@@H+]2CCC[C@H]12
REMARK SMILES IDX 11 1 10 2 9 3 7 4 8 5 6 6 5 7 4 8 3 9 2 10 1 11 81 12 82 13
REMARK SMILES IDX 83 14 84 16 85 17 91 18 86 19 87 20 90 21 88 22 89 24 12 25
REMARK SMILES IDX 13 26 14 27 15 28 16 29 17 30 18 31 19 32 80 33 20 34 79 35
REMARK SMILES IDX 21 36 22 37 23 38 73 39 24 40 78 41 72 42 74 43 25 44 77 45
REMARK SMILES IDX 71 46 70 47 26 49 58 50 38 51 57 52 39 53 42 54 56 55 75 56
REMARK SMILES IDX 40 57 41 58 55 60 76 61 43 62 27 63 28 64 36 65 29 66 31 67
REMARK SMILES IDX 37 68 30 69 32 70 33 71 34 72 35 73 59 74 60 75 68 76 61 77
REMARK SMILES IDX 63 78 69 79 62 80 64 81 65 82 66 83 67 84 44 85 45 86 53 87
REMARK SMILES IDX 46 88 48 89 54 90 47 91 49 92 50 93 51 94 52 95
REMARK H PARENT 83 15 87 23 74 48 42 59
REMARK Flexibility Score: inf
ROOT
ATOM      1  C   UNL     1       3.748  -4.526  -3.252  1.00  0.00     0.202 C 
ENDROOT
BRANCH   1   2
ATOM      2  C   UNL     1       3.112  -4.009  -1.956  1.00  0.00     0.261 C 
BRANCH   2   3
ATOM      3  O   UNL     1       1.795  -3.476  -2.225  1.00  0.00    -0.462 OA
BRANCH   3   4
ATOM      4  C   UNL     1       1.182  -2.894  -1.156  1.00  0.00     0.325 C 
ATOM      5  O   UNL     1       1.584  -2.985   0.001  1.00  0.00    -0.250 OA
BRANCH   4   6
ATOM      6  C   UNL     1       0.061  -1.915  -1.558  1.00  0.00     0.244 C 
BRANCH   6   7
ATOM      7  N   UNL     1      -0.401  -1.961  -2.943  1.00  0.00    -0.311 N 
BRANCH   7   8
ATOM      8  C   UNL     1      -1.595  -2.800  -3.181  1.00  0.00     0.150 C 
BRANCH   8   9
ATOM      9  C   UNL     1      -2.886  -1.972  -3.354  1.00  0.00     0.181 C 
BRANCH   9  10
ATOM     10  O   UNL     1      -3.165  -1.686  -4.725  1.00  0.00    -0.383 OA
ATOM     11  C   UNL     1      -2.788  -0.381  -5.136  1.00  0.00     0.194 C 
ENDBRANCH   9  10
ENDBRANCH   8   9
ENDBRANCH   7   8
BRANCH   7  12
ATOM     12  C   UNL     1       0.217  -1.444  -4.035  1.00  0.00     0.318 C 
ATOM     13  O   UNL     1      -0.108  -1.781  -5.179  1.00  0.00    -0.249 OA
ATOM     14  N   UNL     1       1.197  -0.533  -4.020  1.00  0.00    -0.329 N 
ATOM     15  H   UNL     1       1.604  -0.492  -4.916  1.00  0.00     0.165 HD
BRANCH  14  16
ATOM     16  C   UNL     1       1.886   0.434  -3.139  1.00  0.00     0.147 C 
ATOM     17  C   UNL     1       2.741  -0.189  -2.041  1.00  0.00     0.092 C 
ATOM     18  C   UNL     1       2.936   1.231  -3.957  1.00  0.00     0.207 C 
ATOM     19  C   UNL     1       4.203   0.033  -2.375  1.00  0.00     0.264 C 
ATOM     20  N   UNL     1       4.214   0.531  -3.748  1.00  0.00    -0.331 N 
ATOM     21  C   UNL     1       3.191   2.663  -3.502  1.00  0.00     0.073 C 
ATOM     22  C   UNL     1       5.276   1.507  -3.967  1.00  0.00     0.262 C 
ATOM     23  H   UNL     1       4.359  -0.255  -4.381  1.00  0.00     0.348 HD
ATOM     24  C   UNL     1       4.710   2.819  -3.450  1.00  0.00     0.068 C 
ENDBRANCH  14  16
ENDBRANCH   7  12
ENDBRANCH   6   7
ENDBRANCH   4   6
ENDBRANCH   3   4
ENDBRANCH   2   3
ENDBRANCH   1   2
BRANCH   1  25
ATOM     25  O   UNL     1       4.433  -3.567  -4.072  1.00  0.00    -0.374 OA
BRANCH  25  26
ATOM     26  C   UNL     1       3.625  -2.560  -4.678  1.00  0.00     0.202 C 
BRANCH  26  27
ATOM     27  C   UNL     1       3.008  -2.842  -6.052  1.00  0.00     0.261 C 
BRANCH  27  28
ATOM     28  O   UNL     1       2.520  -4.169  -6.142  1.00  0.00    -0.460 OA
BRANCH  28  29
ATOM     29  C   UNL     1       3.462  -5.024  -6.603  1.00  0.00     0.338 C 
ATOM     30  O   UNL     1       4.513  -4.764  -7.149  1.00  0.00    -0.246 OA
BRANCH  29  31
ATOM     31  C   UNL     1       3.105  -6.355  -6.104  1.00  0.00     0.060 A 
ATOM     32  C   UNL     1       4.128  -7.080  -5.485  1.00  0.00     0.016 A 
ATOM     33  C   UNL     1       1.800  -6.848  -6.199  1.00  0.00     0.016 A 
ATOM     34  C   UNL     1       3.870  -8.359  -5.035  1.00  0.00     0.010 A 
ATOM     35  C   UNL     1       1.542  -8.136  -5.754  1.00  0.00     0.010 A 
ATOM     36  C   UNL     1       2.598  -8.905  -5.239  1.00  0.00    -0.014 A 
BRANCH  36  37
ATOM     37  C   UNL     1       2.468 -10.365  -5.171  1.00  0.00     0.031 A 
ATOM     38  C   UNL     1       2.568 -11.123  -6.462  1.00  0.00     0.074 A 
ATOM     39  C   UNL     1       2.330 -10.970  -3.983  1.00  0.00     0.049 A 
ATOM     40  N   UNL     1       2.517 -12.408  -6.669  1.00  0.00    -0.248 NA
ATOM     41  C   UNL     1       2.750 -10.323  -7.689  1.00  0.00     0.031 C 
ATOM     42  C   UNL     1       2.247 -10.285  -2.692  1.00  0.00     0.029 A 
ATOM     43  N   UNL     1       2.225 -12.296  -3.674  1.00  0.00    -0.354 N 
ATOM     44  C   UNL     1       2.628 -12.568  -8.045  1.00  0.00     0.074 A 
ATOM     45  C   UNL     1       2.735 -11.253  -8.629  1.00  0.00     0.031 C 
ATOM     46  C   UNL     1       2.078 -11.203  -1.726  1.00  0.00     0.029 A 
ATOM     47  C   UNL     1       2.016 -12.527  -2.338  1.00  0.00     0.049 A 
ATOM     48  H   UNL     1       2.293 -13.015  -4.344  1.00  0.00     0.167 HD
ATOM     49  C   UNL     1       2.649 -13.719  -8.752  1.00  0.00     0.034 A 
ATOM     50  C   UNL     1       1.775 -13.687  -1.700  1.00  0.00     0.034 A 
ATOM     51  C   UNL     1       2.548 -15.011  -8.135  1.00  0.00     0.049 A 
ATOM     52  C   UNL     1       1.784 -14.953  -2.513  1.00  0.00     0.074 A 
ATOM     53  C   UNL     1       2.590 -16.256  -8.730  1.00  0.00     0.029 A 
ATOM     54  N   UNL     1       2.364 -15.216  -6.774  1.00  0.00    -0.354 N 
ATOM     55  N   UNL     1       1.987 -15.104  -3.802  1.00  0.00    -0.248 NA
ATOM     56  C   UNL     1       1.568 -16.208  -1.786  1.00  0.00     0.031 C 
ATOM     57  C   UNL     1       2.389 -17.214  -7.731  1.00  0.00     0.029 A 
ATOM     58  C   UNL     1       2.272 -16.568  -6.508  1.00  0.00     0.049 A 
ATOM     59  H   UNL     1       2.308 -14.502  -6.098  1.00  0.00     0.167 HD
ATOM     60  C   UNL     1       1.956 -16.472  -4.036  1.00  0.00     0.074 A 
ATOM     61  C   UNL     1       1.736 -17.104  -2.749  1.00  0.00     0.031 C 
ATOM     62  C   UNL     1       2.088 -17.152  -5.204  1.00  0.00     0.034 A 
BRANCH  49  63
ATOM     63  C   UNL     1       2.773 -13.623 -10.249  1.00  0.00     0.023 A 
ATOM     64  C   UNL     1       3.983 -13.199 -10.836  1.00  0.00     0.012 A 
ATOM     65  C   UNL     1       1.692 -13.979 -11.079  1.00  0.00     0.148 A 
ATOM     66  C   UNL     1       4.105 -13.100 -12.222  1.00  0.00     0.002 A 
ATOM     67  C   UNL     1       1.836 -13.926 -12.460  1.00  0.00     0.091 A 
ATOM     68  F   UNL     1       0.540 -14.348 -10.502  1.00  0.00    -0.205 F 
ATOM     69  C   UNL     1       3.036 -13.474 -13.033  1.00  0.00     0.022 A 
BRANCH  67  70
ATOM     70  S   UNL     1       0.547 -14.460 -13.590  1.00  0.00     0.127 S 
ATOM     71  O   UNL     1       0.176 -13.200 -14.233  1.00  0.00    -0.237 OA
ATOM     72  O   UNL     1       1.268 -15.396 -14.452  1.00  0.00    -0.237 OA
ATOM     73  O   UNL     1      -0.489 -15.065 -12.765  1.00  0.00    -0.744 OA
ENDBRANCH  67  70
ENDBRANCH  49  63
BRANCH  50  74
ATOM     74  C   UNL     1       1.532 -13.690  -0.233  1.00  0.00     0.023 A 
ATOM     75  C   UNL     1       2.479 -14.263   0.636  1.00  0.00     0.012 A 
ATOM     76  C   UNL     1       0.382 -13.082   0.310  1.00  0.00     0.148 A 
ATOM     77  C   UNL     1       2.272 -14.258   2.016  1.00  0.00     0.002 A 
ATOM     78  C   UNL     1       0.208 -13.030   1.687  1.00  0.00     0.091 A 
ATOM     79  F   UNL     1      -0.513 -12.550  -0.535  1.00  0.00    -0.205 F 
ATOM     80  C   UNL     1       1.143 -13.633   2.542  1.00  0.00     0.022 A 
BRANCH  78  81
ATOM     81  S   UNL     1      -1.145 -12.132   2.453  1.00  0.00     0.127 S 
ATOM     82  O   UNL     1      -1.953 -13.218   3.002  1.00  0.00    -0.237 OA
ATOM     83  O   UNL     1      -0.443 -11.321   3.449  1.00  0.00    -0.237 OA
ATOM     84  O   UNL     1      -1.764 -11.361   1.383  1.00  0.00    -0.744 OA
ENDBRANCH  78  81
ENDBRANCH  50  74
BRANCH  62  85
ATOM     85  C   UNL     1       2.038 -18.653  -5.133  1.00  0.00     0.023 A 
ATOM     86  C   UNL     1       0.816 -19.306  -4.880  1.00  0.00     0.012 A 
ATOM     87  C   UNL     1       3.193 -19.413  -5.396  1.00  0.00     0.148 A 
ATOM     88  C   UNL     1       0.754 -20.698  -4.851  1.00  0.00     0.002 A 
ATOM     89  C   UNL     1       3.111 -20.798  -5.423  1.00  0.00     0.091 A 
ATOM     90  F   UNL     1       4.347 -18.767  -5.621  1.00  0.00    -0.205 F 
ATOM     91  C   UNL     1       1.897 -21.442  -5.135  1.00  0.00     0.022 A 
BRANCH  89  92
ATOM     92  S   UNL     1       4.503 -21.833  -5.885  1.00  0.00     0.127 S 
ATOM     93  O   UNL     1       4.842 -22.461  -4.609  1.00  0.00    -0.237 OA
ATOM     94  O   UNL     1       3.904 -22.734  -6.870  1.00  0.00    -0.237 OA
ATOM     95  O   UNL     1       5.514 -20.934  -6.425  1.00  0.00    -0.744 OA
ENDBRANCH  89  92
ENDBRANCH  62  85
ENDBRANCH  36  37
ENDBRANCH  29  31
ENDBRANCH  28  29
ENDBRANCH  27  28
ENDBRANCH  26  27
ENDBRANCH  25  26
ENDBRANCH   1  25
TORSDOF 23
