REMARK SMILES Cc1c(Cl)ccc2c1C=C(C(=O)OCCOCCOC(=O)c1ccc(-c3c4nc(c(-c5cccc(S(=O)(=O)[O-])c5F)c5ccc([nH]5)c(-c5cccc(S(=O)(=O)[O-])c5F)c5nc(c(-c6cccc(S(=O)(=O)[O-])c6F)c6ccc3[nH]6)C=C5)C=C4)cc1)[C@@H](C(F)(F)F)O2
REMARK SMILES IDX 17 1 16 2 15 3 14 4 13 5 11 6 12 7 10 8 1 9 2 10 3 11 8 12
REMARK SMILES IDX 4 13 5 14 7 15 9 16 6 17 90 18 85 19 86 20 87 21 88 22 89 23
REMARK SMILES IDX 18 24 19 25 20 26 21 27 22 28 23 29 84 30 24 31 83 32 25 33
REMARK SMILES IDX 26 34 27 35 77 36 28 37 82 38 76 39 78 40 29 41 81 42 75 43
REMARK SMILES IDX 74 44 30 46 62 47 42 48 61 49 43 50 46 51 60 52 79 53 44 54
REMARK SMILES IDX 45 55 59 57 80 58 47 59 31 60 32 61 40 62 33 63 35 64 41 65
REMARK SMILES IDX 34 66 36 67 37 68 38 69 39 70 63 71 64 72 72 73 65 74 67 75
REMARK SMILES IDX 73 76 66 77 68 78 69 79 70 80 71 81 48 82 49 83 57 84 50 85
REMARK SMILES IDX 52 86 58 87 51 88 53 89 54 90 55 91 56 92
REMARK H PARENT 78 45 46 56
REMARK Flexibility Score: inf
ROOT
ATOM      1  C   UNL     1       6.173   1.906   0.878  1.00  0.00     0.202 C 
ENDROOT
BRANCH   1   2
ATOM      2  O   UNL     1       7.111   1.543  -0.139  1.00  0.00    -0.374 OA
BRANCH   2   3
ATOM      3  C   UNL     1       7.700   2.599  -0.896  1.00  0.00     0.202 C 
BRANCH   3   4
ATOM      4  C   UNL     1       6.858   3.166  -2.042  1.00  0.00     0.261 C 
BRANCH   4   5
ATOM      5  O   UNL     1       5.570   3.607  -1.587  1.00  0.00    -0.460 OA
BRANCH   5   6
ATOM      6  C   UNL     1       4.529   2.867  -2.031  1.00  0.00     0.338 C 
ATOM      7  O   UNL     1       4.566   1.966  -2.856  1.00  0.00    -0.246 OA
BRANCH   6   8
ATOM      8  C   UNL     1       3.315   3.204  -1.263  1.00  0.00     0.087 C 
ATOM      9  C   UNL     1       0.861  -0.091   0.069  1.00  0.00     0.047 C 
ATOM     10  C   UNL     1       0.448   1.354   0.212  1.00  0.00    -0.021 A 
ATOM     11  C   UNL     1      -0.831   1.690   0.699  1.00  0.00     0.044 A 
ATOM     12  C   UNL     1       1.312   2.406  -0.184  1.00  0.00     0.022 A 
ATOM     13  Cl  UNL     1      -2.016   0.488   1.083  1.00  0.00    -0.084 Cl
ATOM     14  C   UNL     1      -1.207   3.025   0.870  1.00  0.00     0.024 A 
ATOM     15  C   UNL     1       0.938   3.740   0.031  1.00  0.00     0.128 A 
ATOM     16  C   UNL     1       2.572   2.160  -0.876  1.00  0.00     0.027 C 
ATOM     17  C   UNL     1      -0.314   4.046   0.563  1.00  0.00     0.048 A 
ATOM     18  O   UNL     1       1.731   4.819  -0.238  1.00  0.00    -0.475 OA
ATOM     19  C   UNL     1       2.968   4.636  -0.978  1.00  0.00     0.316 C 
BRANCH  19  20
ATOM     20  C   UNL     1       2.894   5.487  -2.255  1.00  0.00     0.430 C 
ATOM     21  F   UNL     1       2.521   6.757  -1.976  1.00  0.00    -0.167 F 
ATOM     22  F   UNL     1       4.090   5.553  -2.883  1.00  0.00    -0.167 F 
ATOM     23  F   UNL     1       2.000   4.983  -3.137  1.00  0.00    -0.167 F 
ENDBRANCH  19  20
ENDBRANCH   6   8
ENDBRANCH   5   6
ENDBRANCH   4   5
ENDBRANCH   3   4
ENDBRANCH   2   3
ENDBRANCH   1   2
BRANCH   1  24
ATOM     24  C   UNL     1       6.731   2.599   2.127  1.00  0.00     0.261 C 
BRANCH  24  25
ATOM     25  O   UNL     1       7.116   3.961   1.857  1.00  0.00    -0.460 OA
BRANCH  25  26
ATOM     26  C   UNL     1       8.429   4.232   2.052  1.00  0.00     0.338 C 
ATOM     27  O   UNL     1       9.288   3.468   2.467  1.00  0.00    -0.246 OA
BRANCH  26  28
ATOM     28  C   UNL     1       8.751   5.562   1.511  1.00  0.00     0.060 A 
ATOM     29  C   UNL     1       9.651   5.634   0.439  1.00  0.00     0.016 A 
ATOM     30  C   UNL     1       8.274   6.722   2.122  1.00  0.00     0.016 A 
ATOM     31  C   UNL     1      10.114   6.872   0.002  1.00  0.00     0.010 A 
ATOM     32  C   UNL     1       8.756   7.962   1.695  1.00  0.00     0.010 A 
ATOM     33  C   UNL     1       9.706   8.038   0.661  1.00  0.00    -0.014 A 
BRANCH  33  34
ATOM     34  C   UNL     1      10.406   9.312   0.385  1.00  0.00     0.031 A 
ATOM     35  C   UNL     1      11.572   9.699   1.253  1.00  0.00     0.074 A 
ATOM     36  C   UNL     1      10.017  10.107  -0.626  1.00  0.00     0.049 A 
ATOM     37  N   UNL     1      12.315  10.773   1.205  1.00  0.00    -0.248 NA
ATOM     38  C   UNL     1      11.957   8.748   2.311  1.00  0.00     0.031 C 
ATOM     39  C   UNL     1       8.914   9.828  -1.544  1.00  0.00     0.029 A 
ATOM     40  N   UNL     1      10.500  11.324  -1.036  1.00  0.00    -0.354 N 
ATOM     41  C   UNL     1      13.239  10.638   2.233  1.00  0.00     0.074 A 
ATOM     42  C   UNL     1      12.967   9.381   2.892  1.00  0.00     0.031 C 
ATOM     43  C   UNL     1       8.788  10.859  -2.397  1.00  0.00     0.029 A 
ATOM     44  C   UNL     1       9.789  11.875  -2.075  1.00  0.00     0.049 A 
ATOM     45  H   UNL     1      11.281  11.760  -0.626  1.00  0.00     0.167 HD
ATOM     46  C   UNL     1      14.237  11.480   2.584  1.00  0.00     0.034 A 
ATOM     47  C   UNL     1       9.923  13.070  -2.684  1.00  0.00     0.034 A 
ATOM     48  C   UNL     1      14.522  12.719   1.917  1.00  0.00     0.049 A 
ATOM     49  C   UNL     1      11.019  14.005  -2.250  1.00  0.00     0.074 A 
ATOM     50  C   UNL     1      15.537  13.620   2.183  1.00  0.00     0.029 A 
ATOM     51  N   UNL     1      13.791  13.233   0.860  1.00  0.00    -0.354 N 
ATOM     52  N   UNL     1      11.941  13.823  -1.337  1.00  0.00    -0.248 NA
ATOM     53  C   UNL     1      11.108  15.300  -2.943  1.00  0.00     0.031 C 
ATOM     54  C   UNL     1      15.414  14.688   1.289  1.00  0.00     0.029 A 
ATOM     55  C   UNL     1      14.328  14.444   0.464  1.00  0.00     0.049 A 
ATOM     56  H   UNL     1      13.007  12.801   0.451  1.00  0.00     0.167 HD
ATOM     57  C   UNL     1      12.734  14.964  -1.361  1.00  0.00     0.074 A 
ATOM     58  C   UNL     1      12.191  15.831  -2.387  1.00  0.00     0.031 C 
ATOM     59  C   UNL     1      13.807  15.270  -0.594  1.00  0.00     0.034 A 
BRANCH  46  60
ATOM     60  C   UNL     1      15.133  11.077   3.719  1.00  0.00     0.023 A 
ATOM     61  C   UNL     1      16.180  10.168   3.474  1.00  0.00     0.012 A 
ATOM     62  C   UNL     1      15.005  11.670   4.989  1.00  0.00     0.148 A 
ATOM     63  C   UNL     1      17.089   9.850   4.482  1.00  0.00     0.002 A 
ATOM     64  C   UNL     1      15.931  11.369   5.980  1.00  0.00     0.091 A 
ATOM     65  F   UNL     1      13.990  12.521   5.196  1.00  0.00    -0.205 F 
ATOM     66  C   UNL     1      16.971  10.458   5.729  1.00  0.00     0.022 A 
BRANCH  64  67
ATOM     67  S   UNL     1      15.900  12.133   7.606  1.00  0.00     0.127 S 
ATOM     68  O   UNL     1      15.659  10.977   8.470  1.00  0.00    -0.237 OA
ATOM     69  O   UNL     1      17.245  12.698   7.703  1.00  0.00    -0.237 OA
ATOM     70  O   UNL     1      14.823  13.111   7.573  1.00  0.00    -0.744 OA
ENDBRANCH  64  67
ENDBRANCH  46  60
BRANCH  47  71
ATOM     71  C   UNL     1       9.011  13.426  -3.804  1.00  0.00     0.023 A 
ATOM     72  C   UNL     1       9.495  13.389  -5.125  1.00  0.00     0.012 A 
ATOM     73  C   UNL     1       7.661  13.751  -3.570  1.00  0.00     0.148 A 
ATOM     74  C   UNL     1       8.650  13.678  -6.197  1.00  0.00     0.002 A 
ATOM     75  C   UNL     1       6.816  14.002  -4.644  1.00  0.00     0.091 A 
ATOM     76  F   UNL     1       7.230  13.787  -2.301  1.00  0.00    -0.205 F 
ATOM     77  C   UNL     1       7.311  13.975  -5.958  1.00  0.00     0.022 A 
BRANCH  75  78
ATOM     78  S   UNL     1       5.056  14.302  -4.445  1.00  0.00     0.127 S 
ATOM     79  O   UNL     1       4.932  15.677  -4.921  1.00  0.00    -0.237 OA
ATOM     80  O   UNL     1       4.480  13.289  -5.329  1.00  0.00    -0.237 OA
ATOM     81  O   UNL     1       4.777  14.101  -3.030  1.00  0.00    -0.744 OA
ENDBRANCH  75  78
ENDBRANCH  47  71
BRANCH  59  82
ATOM     82  C   UNL     1      14.496  16.587  -0.822  1.00  0.00     0.023 A 
ATOM     83  C   UNL     1      13.945  17.757  -0.265  1.00  0.00     0.012 A 
ATOM     84  C   UNL     1      15.755  16.640  -1.452  1.00  0.00     0.148 A 
ATOM     85  C   UNL     1      14.637  18.965  -0.335  1.00  0.00     0.002 A 
ATOM     86  C   UNL     1      16.454  17.840  -1.489  1.00  0.00     0.091 A 
ATOM     87  F   UNL     1      16.252  15.511  -1.978  1.00  0.00    -0.205 F 
ATOM     88  C   UNL     1      15.895  19.004  -0.934  1.00  0.00     0.022 A 
BRANCH  86  89
ATOM     89  S   UNL     1      18.113  17.975  -2.165  1.00  0.00     0.127 S 
ATOM     90  O   UNL     1      17.888  18.818  -3.338  1.00  0.00    -0.237 OA
ATOM     91  O   UNL     1      18.838  18.627  -1.074  1.00  0.00    -0.237 OA
ATOM     92  O   UNL     1      18.544  16.614  -2.454  1.00  0.00    -0.744 OA
ENDBRANCH  86  89
ENDBRANCH  59  82
ENDBRANCH  33  34
ENDBRANCH  26  28
ENDBRANCH  25  26
ENDBRANCH  24  25
ENDBRANCH   1  24
TORSDOF 18
