REMARK SMILES O=C(OCCOCCOC(=O)c1ccc(S(=O)(=O)Cc2cccs2)c(F)c1)c1ccc(-c2c3nc(c(-c4cccc(S(=O)(=O)[O-])c4F)c4ccc([nH]4)c(-c4cccc(S(=O)(=O)[O-])c4F)c4nc(c(-c5cccc(S(=O)(=O)[O-])c5F)c5ccc2[nH]5)C=C4)C=C3)cc1
REMARK SMILES IDX 6 1 5 2 4 3 3 4 2 5 1 6 28 7 29 8 90 9 30 10 89 11 31 12
REMARK SMILES IDX 32 13 33 14 83 15 34 16 88 17 82 18 84 19 35 20 87 21 81 22
REMARK SMILES IDX 80 23 36 25 68 26 48 27 67 28 49 29 52 30 66 31 85 32 50 33
REMARK SMILES IDX 51 34 65 36 86 37 53 38 37 39 38 40 46 41 39 42 41 43 47 44
REMARK SMILES IDX 40 45 42 46 43 47 44 48 45 49 69 50 70 51 78 52 71 53 73 54
REMARK SMILES IDX 79 55 72 56 74 57 75 58 76 59 77 60 54 61 55 62 63 63 56 64
REMARK SMILES IDX 58 65 64 66 57 67 59 68 60 69 61 70 62 71 7 72 8 73 9 74
REMARK SMILES IDX 10 75 11 76 12 77 13 78 27 79 14 80 25 81 15 82 26 83 16 84
REMARK SMILES IDX 17 85 18 86 19 87 20 88 21 89 24 90 22 91 23 92
REMARK H PARENT 84 24 52 35
REMARK Flexibility Score: inf
ROOT
ATOM      1  O   UNL     1       4.104   1.809   0.163  1.00  0.00    -0.374 OA
ENDROOT
BRANCH   1   2
ATOM      2  C   UNL     1       4.199   1.411  -1.206  1.00  0.00     0.202 C 
BRANCH   2   3
ATOM      3  C   UNL     1       3.799  -0.036  -1.508  1.00  0.00     0.261 C 
BRANCH   3   4
ATOM      4  O   UNL     1       2.440  -0.275  -1.108  1.00  0.00    -0.460 OA
BRANCH   4   5
ATOM      5  C   UNL     1       1.996  -1.091  -0.121  1.00  0.00     0.338 C 
ATOM      6  O   UNL     1       0.793  -1.336  -0.057  1.00  0.00    -0.246 OA
BRANCH   5   7
ATOM      7  C   UNL     1       2.903  -1.702   0.895  1.00  0.00     0.060 A 
ATOM      8  C   UNL     1       4.119  -1.147   1.292  1.00  0.00     0.016 A 
ATOM      9  C   UNL     1       2.462  -2.862   1.552  1.00  0.00     0.016 A 
ATOM     10  C   UNL     1       4.929  -1.772   2.225  1.00  0.00     0.010 A 
ATOM     11  C   UNL     1       3.237  -3.456   2.556  1.00  0.00     0.010 A 
ATOM     12  C   UNL     1       4.489  -2.921   2.876  1.00  0.00    -0.014 A 
BRANCH  12  13
ATOM     13  C   UNL     1       5.398  -3.530   3.865  1.00  0.00     0.031 A 
ATOM     14  C   UNL     1       6.108  -4.800   3.521  1.00  0.00     0.074 A 
ATOM     15  C   UNL     1       5.679  -2.847   4.991  1.00  0.00     0.049 A 
ATOM     16  N   UNL     1       7.023  -5.436   4.199  1.00  0.00    -0.248 NA
ATOM     17  C   UNL     1       5.761  -5.430   2.236  1.00  0.00     0.031 C 
ATOM     18  C   UNL     1       5.075  -1.563   5.361  1.00  0.00     0.029 A 
ATOM     19  N   UNL     1       6.566  -3.100   6.003  1.00  0.00    -0.354 N 
ATOM     20  C   UNL     1       7.331  -6.561   3.448  1.00  0.00     0.074 A 
ATOM     21  C   UNL     1       6.516  -6.519   2.255  1.00  0.00     0.031 C 
ATOM     22  C   UNL     1       5.645  -1.118   6.489  1.00  0.00     0.029 A 
ATOM     23  C   UNL     1       6.605  -2.111   6.959  1.00  0.00     0.049 A 
ATOM     24  H   UNL     1       7.122  -3.912   6.043  1.00  0.00     0.167 HD
ATOM     25  C   UNL     1       8.220  -7.538   3.734  1.00  0.00     0.034 A 
ATOM     26  C   UNL     1       7.328  -2.025   8.092  1.00  0.00     0.034 A 
ATOM     27  C   UNL     1       9.030  -7.545   4.918  1.00  0.00     0.049 A 
ATOM     28  C   UNL     1       8.287  -3.141   8.402  1.00  0.00     0.074 A 
ATOM     29  C   UNL     1       9.944  -8.496   5.329  1.00  0.00     0.029 A 
ATOM     30  N   UNL     1       9.018  -6.549   5.886  1.00  0.00    -0.354 N 
ATOM     31  N   UNL     1       8.591  -4.186   7.669  1.00  0.00    -0.248 NA
ATOM     32  C   UNL     1       9.004  -3.073   9.681  1.00  0.00     0.031 C 
ATOM     33  C   UNL     1      10.465  -8.088   6.560  1.00  0.00     0.029 A 
ATOM     34  C   UNL     1       9.897  -6.868   6.903  1.00  0.00     0.049 A 
ATOM     35  H   UNL     1       8.464  -5.736   5.852  1.00  0.00     0.167 HD
ATOM     36  C   UNL     1       9.540  -4.898   8.389  1.00  0.00     0.074 A 
ATOM     37  C   UNL     1       9.780  -4.149   9.608  1.00  0.00     0.031 C 
ATOM     38  C   UNL     1      10.142  -6.073   8.082  1.00  0.00     0.034 A 
BRANCH  25  39
ATOM     39  C   UNL     1       8.331  -8.678   2.761  1.00  0.00     0.023 A 
ATOM     40  C   UNL     1       9.001  -8.496   1.535  1.00  0.00     0.012 A 
ATOM     41  C   UNL     1       7.769  -9.933   3.064  1.00  0.00     0.148 A 
ATOM     42  C   UNL     1       9.084  -9.539   0.612  1.00  0.00     0.002 A 
ATOM     43  C   UNL     1       7.887 -10.977   2.155  1.00  0.00     0.091 A 
ATOM     44  F   UNL     1       7.108 -10.074   4.222  1.00  0.00    -0.205 F 
ATOM     45  C   UNL     1       8.534 -10.780   0.925  1.00  0.00     0.022 A 
BRANCH  43  46
ATOM     46  S   UNL     1       7.258 -12.625   2.494  1.00  0.00     0.127 S 
ATOM     47  O   UNL     1       6.096 -12.684   1.608  1.00  0.00    -0.237 OA
ATOM     48  O   UNL     1       8.379 -13.473   2.086  1.00  0.00    -0.237 OA
ATOM     49  O   UNL     1       6.961 -12.656   3.919  1.00  0.00    -0.744 OA
ENDBRANCH  43  46
ENDBRANCH  25  39
BRANCH  26  50
ATOM     50  C   UNL     1       7.179  -0.829   8.972  1.00  0.00     0.023 A 
ATOM     51  C   UNL     1       8.241   0.087   9.094  1.00  0.00     0.012 A 
ATOM     52  C   UNL     1       5.954  -0.544   9.610  1.00  0.00     0.148 A 
ATOM     53  C   UNL     1       8.084   1.262   9.833  1.00  0.00     0.002 A 
ATOM     54  C   UNL     1       5.785   0.655  10.291  1.00  0.00     0.091 A 
ATOM     55  F   UNL     1       4.961  -1.439   9.502  1.00  0.00    -0.205 F 
ATOM     56  C   UNL     1       6.853   1.555  10.416  1.00  0.00     0.022 A 
BRANCH  54  57
ATOM     57  S   UNL     1       4.192   1.180  10.939  1.00  0.00     0.127 S 
ATOM     58  O   UNL     1       4.421   1.122  12.380  1.00  0.00    -0.237 OA
ATOM     59  O   UNL     1       4.072   2.530  10.388  1.00  0.00    -0.237 OA
ATOM     60  O   UNL     1       3.220   0.230  10.415  1.00  0.00    -0.744 OA
ENDBRANCH  54  57
ENDBRANCH  26  50
BRANCH  38  61
ATOM     61  C   UNL     1      11.124  -6.637   9.070  1.00  0.00     0.023 A 
ATOM     62  C   UNL     1      10.646  -7.288  10.223  1.00  0.00     0.012 A 
ATOM     63  C   UNL     1      12.498  -6.670   8.767  1.00  0.00     0.148 A 
ATOM     64  C   UNL     1      11.525  -7.966  11.064  1.00  0.00     0.002 A 
ATOM     65  C   UNL     1      13.361  -7.389   9.583  1.00  0.00     0.091 A 
ATOM     66  F   UNL     1      12.926  -6.027   7.671  1.00  0.00    -0.205 F 
ATOM     67  C   UNL     1      12.878  -8.032  10.735  1.00  0.00     0.022 A 
BRANCH  65  68
ATOM     68  S   UNL     1      15.094  -7.628   9.175  1.00  0.00     0.127 S 
ATOM     69  O   UNL     1      15.755  -6.829  10.206  1.00  0.00    -0.237 OA
ATOM     70  O   UNL     1      15.251  -9.075   9.329  1.00  0.00    -0.237 OA
ATOM     71  O   UNL     1      15.258  -7.143   7.811  1.00  0.00    -0.744 OA
ENDBRANCH  65  68
ENDBRANCH  38  61
ENDBRANCH  12  13
ENDBRANCH   5   7
ENDBRANCH   4   5
ENDBRANCH   3   4
ENDBRANCH   2   3
ENDBRANCH   1   2
BRANCH   1  72
ATOM     72  C   UNL     1       2.790   2.174   0.612  1.00  0.00     0.202 C 
BRANCH  72  73
ATOM     73  C   UNL     1       2.861   3.471   1.427  1.00  0.00     0.261 C 
BRANCH  73  74
ATOM     74  O   UNL     1       3.312   4.525   0.557  1.00  0.00    -0.460 OA
BRANCH  74  75
ATOM     75  C   UNL     1       4.655   4.696   0.533  1.00  0.00     0.338 C 
ATOM     76  O   UNL     1       5.477   4.359   1.367  1.00  0.00    -0.246 OA
BRANCH  75  77
ATOM     77  C   UNL     1       5.011   5.113  -0.833  1.00  0.00     0.063 A 
ATOM     78  C   UNL     1       4.387   6.188  -1.469  1.00  0.00     0.017 A 
ATOM     79  C   UNL     1       5.917   4.308  -1.526  1.00  0.00     0.056 A 
ATOM     80  C   UNL     1       4.700   6.466  -2.802  1.00  0.00     0.024 A 
ATOM     81  C   UNL     1       6.145   4.535  -2.876  1.00  0.00     0.142 A 
ATOM     82  C   UNL     1       5.586   5.633  -3.507  1.00  0.00     0.103 A 
ATOM     83  F   UNL     1       6.838   3.613  -3.547  1.00  0.00    -0.206 F 
BRANCH  82  84
ATOM     84  S   UNL     1       5.928   6.039  -5.190  1.00  0.00     0.186 S 
ATOM     85  O   UNL     1       4.710   5.699  -5.909  1.00  0.00    -0.223 OA
ATOM     86  O   UNL     1       6.375   7.423  -5.178  1.00  0.00    -0.223 OA
BRANCH  84  87
ATOM     87  C   UNL     1       7.228   5.038  -5.873  1.00  0.00     0.188 C 
BRANCH  87  88
ATOM     88  C   UNL     1       8.527   5.080  -5.123  1.00  0.00     0.020 A 
ATOM     89  C   UNL     1       9.182   6.116  -4.485  1.00  0.00     0.016 A 
ATOM     90  S   UNL     1       9.462   3.631  -5.050  1.00  0.00    -0.148 S 
ATOM     91  C   UNL     1      10.377   5.687  -3.834  1.00  0.00     0.012 A 
ATOM     92  C   UNL     1      10.627   4.350  -4.034  1.00  0.00     0.065 A 
ENDBRANCH  87  88
ENDBRANCH  84  87
ENDBRANCH  82  84
ENDBRANCH  75  77
ENDBRANCH  74  75
ENDBRANCH  73  74
ENDBRANCH  72  73
ENDBRANCH   1  72
TORSDOF 20
