REMARK SMILES C[C@@H](CC(=O)OCCOCCOC(=O)c1ccc(-c2c3nc(c(-c4cccc(S(=O)(=O)[O-])c4F)c4ccc([nH]4)c(-c4cccc(S(=O)(=O)[O-])c4F)c4nc(c(-c5cccc(S(=O)(=O)[O-])c5F)c5ccc2[nH]5)C=C4)C=C3)cc1)NC(=O)/C=C/c1cccnc1
REMARK SMILES IDX 8 1 7 2 6 3 4 4 5 5 3 6 2 7 1 8 78 9 79 10 80 12 81 13 82 14
REMARK SMILES IDX 83 15 84 16 88 17 85 18 87 19 86 20 9 21 10 22 11 23 12 24
REMARK SMILES IDX 13 25 14 26 15 27 16 28 77 29 17 30 76 31 18 32 19 33 20 34
REMARK SMILES IDX 70 35 21 36 75 37 69 38 71 39 22 40 74 41 68 42 67 43 23 45
REMARK SMILES IDX 55 46 35 47 54 48 36 49 39 50 53 51 72 52 37 53 38 54 52 56
REMARK SMILES IDX 73 57 40 58 24 59 25 60 33 61 26 62 28 63 34 64 27 65 29 66
REMARK SMILES IDX 30 67 31 68 32 69 56 70 57 71 65 72 58 73 60 74 66 75 59 76
REMARK SMILES IDX 61 77 62 78 63 79 64 80 41 81 42 82 50 83 43 84 45 85 51 86
REMARK SMILES IDX 44 87 46 88 47 89 48 90 49 91
REMARK H PARENT 78 11 71 44 39 55
REMARK Flexibility Score: inf
ROOT
ATOM      1  C   UNL     1      -0.745   2.218  -3.909  1.00  0.00     0.202 C 
ENDROOT
BRANCH   1   2
ATOM      2  C   UNL     1       0.697   2.376  -3.421  1.00  0.00     0.261 C 
BRANCH   2   3
ATOM      3  O   UNL     1       0.880   1.823  -2.103  1.00  0.00    -0.463 OA
BRANCH   3   4
ATOM      4  C   UNL     1       1.359   2.665  -1.159  1.00  0.00     0.307 C 
ATOM      5  O   UNL     1       1.617   3.850  -1.348  1.00  0.00    -0.252 OA
BRANCH   4   6
ATOM      6  C   UNL     1       1.606   2.021   0.187  1.00  0.00     0.147 C 
BRANCH   6   7
ATOM      7  C   UNL     1       0.973   0.673   0.565  1.00  0.00     0.090 C 
ATOM      8  C   UNL     1       1.251  -0.469  -0.408  1.00  0.00     0.031 C 
BRANCH   7   9
ATOM      9  N   UNL     1      -0.461   0.796   0.824  1.00  0.00    -0.350 N 
ATOM     10  C   UNL     1      -1.180   0.964   1.965  1.00  0.00     0.244 C 
ATOM     11  H   UNL     1      -1.015   0.747   0.012  1.00  0.00     0.164 HD
ATOM     12  O   UNL     1      -2.404   1.069   1.887  1.00  0.00    -0.270 OA
BRANCH  10  13
ATOM     13  C   UNL     1      -0.559   0.904   3.312  1.00  0.00     0.072 C 
ATOM     14  C   UNL     1       0.602   1.453   3.701  1.00  0.00     0.015 C 
BRANCH  14  15
ATOM     15  C   UNL     1       1.198   1.331   5.044  1.00  0.00    -0.007 A 
ATOM     16  C   UNL     1       0.805   0.378   5.989  1.00  0.00     0.011 A 
ATOM     17  C   UNL     1       2.275   2.146   5.398  1.00  0.00     0.119 A 
ATOM     18  C   UNL     1       1.475   0.283   7.209  1.00  0.00     0.021 A 
ATOM     19  N   UNL     1       2.942   2.084   6.577  1.00  0.00    -0.264 NA
ATOM     20  C   UNL     1       2.529   1.146   7.453  1.00  0.00     0.111 A 
ENDBRANCH  14  15
ENDBRANCH  10  13
ENDBRANCH   7   9
ENDBRANCH   6   7
ENDBRANCH   4   6
ENDBRANCH   3   4
ENDBRANCH   2   3
ENDBRANCH   1   2
BRANCH   1  21
ATOM     21  O   UNL     1      -1.717   3.002  -3.218  1.00  0.00    -0.374 OA
BRANCH  21  22
ATOM     22  C   UNL     1      -2.110   2.557  -1.918  1.00  0.00     0.202 C 
BRANCH  22  23
ATOM     23  C   UNL     1      -2.970   1.287  -1.897  1.00  0.00     0.261 C 
BRANCH  23  24
ATOM     24  O   UNL     1      -2.191   0.121  -2.237  1.00  0.00    -0.460 OA
BRANCH  24  25
ATOM     25  C   UNL     1      -2.796  -0.720  -3.112  1.00  0.00     0.338 C 
ATOM     26  O   UNL     1      -3.953  -0.661  -3.511  1.00  0.00    -0.246 OA
BRANCH  25  27
ATOM     27  C   UNL     1      -1.815  -1.649  -3.698  1.00  0.00     0.060 A 
ATOM     28  C   UNL     1      -1.485  -1.484  -5.050  1.00  0.00     0.016 A 
ATOM     29  C   UNL     1      -1.310  -2.730  -2.974  1.00  0.00     0.016 A 
ATOM     30  C   UNL     1      -0.665  -2.415  -5.689  1.00  0.00     0.010 A 
ATOM     31  C   UNL     1      -0.493  -3.667  -3.622  1.00  0.00     0.010 A 
ATOM     32  C   UNL     1      -0.185  -3.530  -4.988  1.00  0.00    -0.014 A 
BRANCH  32  33
ATOM     33  C   UNL     1       0.583  -4.581  -5.705  1.00  0.00     0.031 A 
ATOM     34  C   UNL     1      -0.100  -5.846  -6.145  1.00  0.00     0.074 A 
ATOM     35  C   UNL     1       1.893  -4.407  -5.963  1.00  0.00     0.049 A 
ATOM     36  N   UNL     1       0.401  -6.880  -6.772  1.00  0.00    -0.248 NA
ATOM     37  C   UNL     1      -1.536  -5.963  -5.846  1.00  0.00     0.031 C 
ATOM     38  C   UNL     1       2.673  -3.227  -5.595  1.00  0.00     0.029 A 
ATOM     39  N   UNL     1       2.801  -5.236  -6.574  1.00  0.00    -0.354 N 
ATOM     40  C   UNL     1      -0.648  -7.777  -6.928  1.00  0.00     0.074 A 
ATOM     41  C   UNL     1      -1.814  -7.170  -6.321  1.00  0.00     0.031 C 
ATOM     42  C   UNL     1       3.952  -3.421  -5.960  1.00  0.00     0.029 A 
ATOM     43  C   UNL     1       4.085  -4.745  -6.565  1.00  0.00     0.049 A 
ATOM     44  H   UNL     1       2.556  -6.099  -6.979  1.00  0.00     0.167 HD
ATOM     45  C   UNL     1      -0.647  -8.988  -7.537  1.00  0.00     0.034 A 
ATOM     46  C   UNL     1       5.241  -5.306  -6.973  1.00  0.00     0.034 A 
ATOM     47  C   UNL     1       0.503  -9.589  -8.157  1.00  0.00     0.049 A 
ATOM     48  C   UNL     1       5.224  -6.677  -7.598  1.00  0.00     0.074 A 
ATOM     49  C   UNL     1       0.578 -10.783  -8.854  1.00  0.00     0.029 A 
ATOM     50  N   UNL     1       1.783  -9.058  -8.140  1.00  0.00    -0.354 N 
ATOM     51  N   UNL     1       4.199  -7.449  -7.864  1.00  0.00    -0.248 NA
ATOM     52  C   UNL     1       6.521  -7.243  -7.999  1.00  0.00     0.031 C 
ATOM     53  C   UNL     1       1.910 -10.987  -9.235  1.00  0.00     0.029 A 
ATOM     54  C   UNL     1       2.660  -9.912  -8.789  1.00  0.00     0.049 A 
ATOM     55  H   UNL     1       2.032  -8.200  -7.726  1.00  0.00     0.167 HD
ATOM     56  C   UNL     1       4.723  -8.580  -8.483  1.00  0.00     0.074 A 
ATOM     57  C   UNL     1       6.154  -8.380  -8.577  1.00  0.00     0.031 C 
ATOM     58  C   UNL     1       4.078  -9.691  -8.916  1.00  0.00     0.034 A 
BRANCH  45  59
ATOM     59  C   UNL     1      -1.950  -9.740  -7.598  1.00  0.00     0.023 A 
ATOM     60  C   UNL     1      -2.939  -9.336  -8.517  1.00  0.00     0.012 A 
ATOM     61  C   UNL     1      -2.166 -10.884  -6.806  1.00  0.00     0.148 A 
ATOM     62  C   UNL     1      -4.133 -10.047  -8.632  1.00  0.00     0.002 A 
ATOM     63  C   UNL     1      -3.344 -11.608  -6.952  1.00  0.00     0.091 A 
ATOM     64  F   UNL     1      -1.222 -11.237  -5.922  1.00  0.00    -0.205 F 
ATOM     65  C   UNL     1      -4.330 -11.188  -7.858  1.00  0.00     0.022 A 
BRANCH  63  66
ATOM     66  S   UNL     1      -3.659 -13.129  -6.048  1.00  0.00     0.127 S 
ATOM     67  O   UNL     1      -4.643 -12.686  -5.061  1.00  0.00    -0.237 OA
ATOM     68  O   UNL     1      -4.193 -14.005  -7.091  1.00  0.00    -0.237 OA
ATOM     69  O   UNL     1      -2.372 -13.546  -5.508  1.00  0.00    -0.744 OA
ENDBRANCH  63  66
ENDBRANCH  45  59
BRANCH  46  70
ATOM     70  C   UNL     1       6.520  -4.559  -6.818  1.00  0.00     0.023 A 
ATOM     71  C   UNL     1       7.191  -4.082  -7.960  1.00  0.00     0.012 A 
ATOM     72  C   UNL     1       7.060  -4.297  -5.543  1.00  0.00     0.148 A 
ATOM     73  C   UNL     1       8.388  -3.376  -7.836  1.00  0.00     0.002 A 
ATOM     74  C   UNL     1       8.222  -3.544  -5.425  1.00  0.00     0.091 A 
ATOM     75  F   UNL     1       6.421  -4.783  -4.470  1.00  0.00    -0.205 F 
ATOM     76  C   UNL     1       8.896  -3.096  -6.570  1.00  0.00     0.022 A 
BRANCH  74  77
ATOM     77  S   UNL     1       8.862  -3.023  -3.829  1.00  0.00     0.127 S 
ATOM     78  O   UNL     1      10.024  -3.892  -3.674  1.00  0.00    -0.237 OA
ATOM     79  O   UNL     1       9.172  -1.613  -4.072  1.00  0.00    -0.237 OA
ATOM     80  O   UNL     1       7.774  -3.238  -2.884  1.00  0.00    -0.744 OA
ENDBRANCH  74  77
ENDBRANCH  46  70
BRANCH  58  81
ATOM     81  C   UNL     1       4.908 -10.788  -9.534  1.00  0.00     0.023 A 
ATOM     82  C   UNL     1       5.711 -11.597  -8.706  1.00  0.00     0.012 A 
ATOM     83  C   UNL     1       4.840 -11.065 -10.914  1.00  0.00     0.148 A 
ATOM     84  C   UNL     1       6.454 -12.648  -9.244  1.00  0.00     0.002 A 
ATOM     85  C   UNL     1       5.550 -12.141 -11.437  1.00  0.00     0.091 A 
ATOM     86  F   UNL     1       4.085 -10.274 -11.689  1.00  0.00    -0.205 F 
ATOM     87  C   UNL     1       6.365 -12.926 -10.605  1.00  0.00     0.022 A 
BRANCH  85  88
ATOM     88  S   UNL     1       5.431 -12.629 -13.163  1.00  0.00     0.127 S 
ATOM     89  O   UNL     1       6.726 -12.197 -13.684  1.00  0.00    -0.237 OA
ATOM     90  O   UNL     1       5.265 -14.079 -13.066  1.00  0.00    -0.237 OA
ATOM     91  O   UNL     1       4.274 -11.924 -13.698  1.00  0.00    -0.744 OA
ENDBRANCH  85  88
ENDBRANCH  58  81
ENDBRANCH  32  33
ENDBRANCH  25  27
ENDBRANCH  24  25
ENDBRANCH  23  24
ENDBRANCH  22  23
ENDBRANCH  21  22
ENDBRANCH   1  21
TORSDOF 21
