REMARK SMILES O=C(Cc1cccn1-c1ccc2c(c1)OCCO2)OCCOCCOC(=O)c1ccc(-c2c3nc(c(-c4cccc(S(=O)(=O)[O-])c4F)c4ccc([nH]4)c(-c4cccc(S(=O)(=O)[O-])c4F)c4nc(c(-c5cccc(S(=O)(=O)[O-])c5F)c5ccc2[nH]5)C=C4)C=C3)cc1
REMARK SMILES IDX 23 1 22 2 21 3 20 4 19 5 2 6 1 7 3 8 4 9 5 10 8 11 6 12 7 13
REMARK SMILES IDX 9 14 10 15 14 16 11 17 13 18 12 19 15 20 18 21 16 22 17 23
REMARK SMILES IDX 24 24 25 25 26 26 27 27 28 28 29 29 90 30 30 31 89 32 31 33
REMARK SMILES IDX 32 34 33 35 83 36 34 37 88 38 82 39 84 40 35 41 87 42 81 43
REMARK SMILES IDX 80 44 36 46 68 47 48 48 67 49 49 50 52 51 66 52 85 53 50 54
REMARK SMILES IDX 51 55 65 57 86 58 53 59 37 60 38 61 46 62 39 63 41 64 47 65
REMARK SMILES IDX 40 66 42 67 43 68 44 69 45 70 69 71 70 72 78 73 71 74 73 75
REMARK SMILES IDX 79 76 72 77 74 78 75 79 76 80 77 81 54 82 55 83 63 84 56 85
REMARK SMILES IDX 58 86 64 87 57 88 59 89 60 90 61 91 62 92
REMARK H PARENT 84 45 52 56
REMARK Flexibility Score: inf
ROOT
ATOM      1  C   UNL     1       2.906  -2.154   0.307  1.00  0.00     0.202 C 
ENDROOT
BRANCH   1   2
ATOM      2  O   UNL     1       4.139  -1.542  -0.090  1.00  0.00    -0.374 OA
BRANCH   2   3
ATOM      3  C   UNL     1       4.527  -0.390   0.658  1.00  0.00     0.202 C 
BRANCH   3   4
ATOM      4  C   UNL     1       4.141   0.926   0.011  1.00  0.00     0.261 C 
BRANCH   4   5
ATOM      5  O   UNL     1       2.715   1.087  -0.121  1.00  0.00    -0.463 OA
BRANCH   5   6
ATOM      6  C   UNL     1       1.948   0.718  -1.171  1.00  0.00     0.311 C 
ATOM      7  O   UNL     1       0.747   0.997  -1.161  1.00  0.00    -0.252 OA
BRANCH   6   8
ATOM      8  C   UNL     1       2.520  -0.097  -2.316  1.00  0.00     0.177 C 
BRANCH   8   9
ATOM      9  C   UNL     1       3.643   0.573  -3.036  1.00  0.00     0.034 A 
ATOM     10  C   UNL     1       3.719   1.917  -3.370  1.00  0.00     0.024 A 
ATOM     11  N   UNL     1       4.871  -0.023  -3.329  1.00  0.00    -0.320 N 
ATOM     12  C   UNL     1       5.042   2.189  -3.752  1.00  0.00     0.020 A 
ATOM     13  C   UNL     1       5.731   1.001  -3.695  1.00  0.00     0.091 A 
BRANCH  11  14
ATOM     14  C   UNL     1       5.254  -1.401  -3.274  1.00  0.00     0.049 A 
ATOM     15  C   UNL     1       6.587  -1.736  -2.978  1.00  0.00     0.031 A 
ATOM     16  C   UNL     1       4.342  -2.424  -3.570  1.00  0.00     0.077 A 
ATOM     17  C   UNL     1       7.008  -3.069  -3.002  1.00  0.00     0.052 A 
ATOM     18  C   UNL     1       4.771  -3.756  -3.594  1.00  0.00     0.163 A 
ATOM     19  C   UNL     1       6.109  -4.073  -3.341  1.00  0.00     0.161 A 
ATOM     20  O   UNL     1       3.828  -4.703  -3.913  1.00  0.00    -0.486 OA
ATOM     21  O   UNL     1       6.613  -5.347  -3.423  1.00  0.00    -0.486 OA
ATOM     22  C   UNL     1       4.299  -6.030  -3.643  1.00  0.00     0.271 C 
ATOM     23  C   UNL     1       5.724  -6.206  -4.143  1.00  0.00     0.271 C 
ENDBRANCH  11  14
ENDBRANCH   8   9
ENDBRANCH   6   8
ENDBRANCH   5   6
ENDBRANCH   4   5
ENDBRANCH   3   4
ENDBRANCH   2   3
ENDBRANCH   1   2
BRANCH   1  24
ATOM     24  C   UNL     1       3.019  -3.100   1.483  1.00  0.00     0.261 C 
BRANCH  24  25
ATOM     25  O   UNL     1       3.220  -2.350   2.665  1.00  0.00    -0.460 OA
BRANCH  25  26
ATOM     26  C   UNL     1       4.491  -2.226   3.081  1.00  0.00     0.338 C 
ATOM     27  O   UNL     1       5.518  -2.500   2.459  1.00  0.00    -0.246 OA
BRANCH  26  28
ATOM     28  C   UNL     1       4.453  -1.857   4.490  1.00  0.00     0.060 A 
ATOM     29  C   UNL     1       5.677  -1.853   5.162  1.00  0.00     0.016 A 
ATOM     30  C   UNL     1       3.222  -1.932   5.154  1.00  0.00     0.016 A 
ATOM     31  C   UNL     1       5.673  -2.169   6.498  1.00  0.00     0.010 A 
ATOM     32  C   UNL     1       3.226  -2.347   6.455  1.00  0.00     0.010 A 
ATOM     33  C   UNL     1       4.452  -2.498   7.100  1.00  0.00    -0.014 A 
BRANCH  33  34
ATOM     34  C   UNL     1       4.459  -2.919   8.495  1.00  0.00     0.031 A 
ATOM     35  C   UNL     1       4.353  -1.700   9.395  1.00  0.00     0.074 A 
ATOM     36  C   UNL     1       4.628  -4.257   8.704  1.00  0.00     0.049 A 
ATOM     37  N   UNL     1       5.010  -1.430  10.480  1.00  0.00    -0.248 NA
ATOM     38  C   UNL     1       3.557  -0.526   8.936  1.00  0.00     0.031 C 
ATOM     39  C   UNL     1       4.702  -5.279   7.633  1.00  0.00     0.029 A 
ATOM     40  N   UNL     1       4.773  -5.035   9.830  1.00  0.00    -0.354 N 
ATOM     41  C   UNL     1       4.507  -0.197  10.940  1.00  0.00     0.074 A 
ATOM     42  C   UNL     1       3.813   0.408   9.851  1.00  0.00     0.031 C 
ATOM     43  C   UNL     1       4.951  -6.501   8.149  1.00  0.00     0.029 A 
ATOM     44  C   UNL     1       5.024  -6.407   9.596  1.00  0.00     0.049 A 
ATOM     45  H   UNL     1       4.706  -4.661  10.738  1.00  0.00     0.167 HD
ATOM     46  C   UNL     1       4.485   0.139  12.258  1.00  0.00     0.034 A 
ATOM     47  C   UNL     1       5.311  -7.392  10.502  1.00  0.00     0.034 A 
ATOM     48  C   UNL     1       4.989  -0.952  13.031  1.00  0.00     0.049 A 
ATOM     49  C   UNL     1       5.179  -6.771  11.829  1.00  0.00     0.074 A 
ATOM     50  C   UNL     1       6.243  -1.464  13.231  1.00  0.00     0.029 A 
ATOM     51  N   UNL     1       4.045  -1.879  13.410  1.00  0.00    -0.354 N 
ATOM     52  N   UNL     1       4.050  -6.439  12.383  1.00  0.00    -0.248 NA
ATOM     53  C   UNL     1       6.394  -6.366  12.548  1.00  0.00     0.031 C 
ATOM     54  C   UNL     1       6.023  -2.846  13.415  1.00  0.00     0.029 A 
ATOM     55  C   UNL     1       4.647  -3.110  13.448  1.00  0.00     0.049 A 
ATOM     56  H   UNL     1       3.101  -1.690  13.619  1.00  0.00     0.167 HD
ATOM     57  C   UNL     1       4.441  -5.484  13.290  1.00  0.00     0.074 A 
ATOM     58  C   UNL     1       5.833  -5.738  13.577  1.00  0.00     0.031 C 
ATOM     59  C   UNL     1       3.808  -4.280  13.309  1.00  0.00     0.034 A 
BRANCH  46  60
ATOM     60  C   UNL     1       3.787   1.238  13.013  1.00  0.00     0.023 A 
ATOM     61  C   UNL     1       4.275   1.457  14.329  1.00  0.00     0.012 A 
ATOM     62  C   UNL     1       2.576   1.861  12.662  1.00  0.00     0.148 A 
ATOM     63  C   UNL     1       3.545   2.152  15.289  1.00  0.00     0.002 A 
ATOM     64  C   UNL     1       1.880   2.614  13.610  1.00  0.00     0.091 A 
ATOM     65  F   UNL     1       2.037   1.653  11.457  1.00  0.00    -0.205 F 
ATOM     66  C   UNL     1       2.339   2.725  14.929  1.00  0.00     0.022 A 
BRANCH  64  67
ATOM     67  S   UNL     1       0.365   3.491  13.203  1.00  0.00     0.127 S 
ATOM     68  O   UNL     1      -0.661   2.556  13.652  1.00  0.00    -0.237 OA
ATOM     69  O   UNL     1       0.481   4.703  14.019  1.00  0.00    -0.237 OA
ATOM     70  O   UNL     1       0.445   3.742  11.769  1.00  0.00    -0.744 OA
ENDBRANCH  64  67
ENDBRANCH  46  60
BRANCH  47  71
ATOM     71  C   UNL     1       5.817  -8.814  10.438  1.00  0.00     0.023 A 
ATOM     72  C   UNL     1       5.783  -9.613   9.286  1.00  0.00     0.012 A 
ATOM     73  C   UNL     1       6.439  -9.402  11.579  1.00  0.00     0.148 A 
ATOM     74  C   UNL     1       6.426 -10.867   9.241  1.00  0.00     0.002 A 
ATOM     75  C   UNL     1       7.171 -10.581  11.503  1.00  0.00     0.091 A 
ATOM     76  F   UNL     1       6.292  -8.839  12.781  1.00  0.00    -0.205 F 
ATOM     77  C   UNL     1       7.160 -11.329  10.331  1.00  0.00     0.022 A 
BRANCH  75  78
ATOM     78  S   UNL     1       8.268 -11.100  12.837  1.00  0.00     0.127 S 
ATOM     79  O   UNL     1       7.746 -12.422  13.173  1.00  0.00    -0.237 OA
ATOM     80  O   UNL     1       9.567 -11.104  12.163  1.00  0.00    -0.237 OA
ATOM     81  O   UNL     1       8.142 -10.095  13.886  1.00  0.00    -0.744 OA
ENDBRANCH  75  78
ENDBRANCH  47  71
BRANCH  59  82
ATOM     82  C   UNL     1       2.362  -4.329  12.818  1.00  0.00     0.023 A 
ATOM     83  C   UNL     1       1.464  -5.150  13.530  1.00  0.00     0.012 A 
ATOM     84  C   UNL     1       1.883  -3.727  11.632  1.00  0.00     0.148 A 
ATOM     85  C   UNL     1       0.162  -5.384  13.075  1.00  0.00     0.002 A 
ATOM     86  C   UNL     1       0.586  -3.971  11.166  1.00  0.00     0.091 A 
ATOM     87  F   UNL     1       2.700  -2.922  10.957  1.00  0.00    -0.205 F 
ATOM     88  C   UNL     1      -0.276  -4.801  11.892  1.00  0.00     0.022 A 
BRANCH  86  89
ATOM     89  S   UNL     1      -0.067  -3.322   9.615  1.00  0.00     0.127 S 
ATOM     90  O   UNL     1      -0.423  -4.542   8.886  1.00  0.00    -0.237 OA
ATOM     91  O   UNL     1      -1.216  -2.539  10.065  1.00  0.00    -0.237 OA
ATOM     92  O   UNL     1       1.008  -2.553   9.004  1.00  0.00    -0.744 OA
ENDBRANCH  86  89
ENDBRANCH  59  82
ENDBRANCH  33  34
ENDBRANCH  26  28
ENDBRANCH  25  26
ENDBRANCH  24  25
ENDBRANCH   1  24
TORSDOF 19
