REMARK SMILES CC(C)(C)N(CC(=O)OCCOCCOC(=O)c1ccc(-c2c3nc(c(-c4cccc(S(=O)(=O)[O-])c4F)c4ccc([nH]4)c(-c4cccc(S(=O)(=O)[O-])c4F)c4nc(c(-c5cccc(S(=O)(=O)[O-])c5F)c5ccc2[nH]5)C=C4)C=C3)cc1)C(=O)N1CC[C@H](C[NH3+])C1
REMARK SMILES IDX 11 1 10 2 9 3 7 4 8 5 6 6 5 7 2 8 1 9 3 10 4 11 81 12 82 13
REMARK SMILES IDX 83 14 84 15 89 16 85 17 86 18 87 19 88 20 12 24 13 25 14 26
REMARK SMILES IDX 15 27 16 28 17 29 18 30 19 31 80 32 20 33 79 34 21 35 22 36
REMARK SMILES IDX 23 37 73 38 24 39 78 40 72 41 74 42 25 43 77 44 71 45 70 46
REMARK SMILES IDX 26 48 58 49 38 50 57 51 39 52 42 53 56 54 75 55 40 56 41 57
REMARK SMILES IDX 55 59 76 60 43 61 27 62 28 63 36 64 29 65 31 66 37 67 30 68
REMARK SMILES IDX 32 69 33 70 34 71 35 72 59 73 60 74 68 75 61 76 63 77 69 78
REMARK SMILES IDX 62 79 64 80 65 81 66 82 67 83 44 84 45 85 53 86 46 87 48 88
REMARK SMILES IDX 54 89 47 90 49 91 50 92 51 93 52 94
REMARK H PARENT 88 21 88 22 88 23 74 47 42 58
REMARK Flexibility Score: inf
ROOT
ATOM      1  C   UNL     1       5.708   2.092   2.630  1.00  0.00     0.202 C 
ENDROOT
BRANCH   1   2
ATOM      2  C   UNL     1       5.092   0.719   2.354  1.00  0.00     0.261 C 
BRANCH   2   3
ATOM      3  O   UNL     1       3.644   0.744   2.404  1.00  0.00    -0.462 OA
BRANCH   3   4
ATOM      4  C   UNL     1       3.077  -0.484   2.565  1.00  0.00     0.325 C 
ATOM      5  O   UNL     1       3.723  -1.518   2.722  1.00  0.00    -0.250 OA
BRANCH   4   6
ATOM      6  C   UNL     1       1.538  -0.503   2.590  1.00  0.00     0.244 C 
BRANCH   6   7
ATOM      7  N   UNL     1       0.750   0.727   2.408  1.00  0.00    -0.309 N 
BRANCH   7   8
ATOM      8  C   UNL     1       0.393   1.126   0.976  1.00  0.00     0.037 C 
ATOM      9  C   UNL     1       0.958   0.166  -0.110  1.00  0.00     0.034 C 
ATOM     10  C   UNL     1       0.954   2.524   0.646  1.00  0.00     0.034 C 
ATOM     11  C   UNL     1      -1.144   1.116   0.753  1.00  0.00     0.034 C 
ENDBRANCH   7   8
BRANCH   7  12
ATOM     12  C   UNL     1       0.147   1.413   3.468  1.00  0.00     0.320 C 
ATOM     13  O   UNL     1      -0.708   2.280   3.266  1.00  0.00    -0.248 OA
BRANCH  12  14
ATOM     14  N   UNL     1       0.439   1.100   4.783  1.00  0.00    -0.324 N 
ATOM     15  C   UNL     1       1.687   0.710   5.400  1.00  0.00     0.122 C 
ATOM     16  C   UNL     1      -0.458   1.582   5.845  1.00  0.00     0.130 C 
ATOM     17  C   UNL     1       1.318   0.262   6.786  1.00  0.00     0.033 C 
ATOM     18  C   UNL     1       0.281   1.317   7.172  1.00  0.00     0.065 C 
BRANCH  18  19
ATOM     19  C   UNL     1      -0.610   0.858   8.319  1.00  0.00     0.264 C 
BRANCH  19  20
ATOM     20  N   UNL     1       0.181   0.602   9.524  1.00  0.00    -0.357 N 
ATOM     21  H   UNL     1       0.861  -0.135   9.334  1.00  0.00     0.344 HD
ATOM     22  H   UNL     1      -0.437   0.307  10.280  1.00  0.00     0.344 HD
ATOM     23  H   UNL     1       0.670   1.454   9.797  1.00  0.00     0.344 HD
ENDBRANCH  19  20
ENDBRANCH  18  19
ENDBRANCH  12  14
ENDBRANCH   7  12
ENDBRANCH   6   7
ENDBRANCH   4   6
ENDBRANCH   3   4
ENDBRANCH   2   3
ENDBRANCH   1   2
BRANCH   1  24
ATOM     24  O   UNL     1       5.721   2.526   3.990  1.00  0.00    -0.374 OA
BRANCH  24  25
ATOM     25  C   UNL     1       4.494   2.505   4.701  1.00  0.00     0.202 C 
BRANCH  25  26
ATOM     26  C   UNL     1       3.323   3.363   4.182  1.00  0.00     0.261 C 
BRANCH  26  27
ATOM     27  O   UNL     1       3.645   4.254   3.140  1.00  0.00    -0.460 OA
BRANCH  27  28
ATOM     28  C   UNL     1       4.459   5.277   3.479  1.00  0.00     0.338 C 
ATOM     29  O   UNL     1       4.822   5.627   4.570  1.00  0.00    -0.246 OA
BRANCH  28  30
ATOM     30  C   UNL     1       4.975   5.703   2.172  1.00  0.00     0.060 A 
ATOM     31  C   UNL     1       6.350   5.603   1.951  1.00  0.00     0.016 A 
ATOM     32  C   UNL     1       4.077   6.020   1.146  1.00  0.00     0.016 A 
ATOM     33  C   UNL     1       6.846   5.871   0.684  1.00  0.00     0.010 A 
ATOM     34  C   UNL     1       4.572   6.276  -0.120  1.00  0.00     0.010 A 
ATOM     35  C   UNL     1       5.959   6.242  -0.336  1.00  0.00    -0.014 A 
BRANCH  35  36
ATOM     36  C   UNL     1       6.480   6.835  -1.574  1.00  0.00     0.031 A 
ATOM     37  C   UNL     1       6.488   8.332  -1.654  1.00  0.00     0.074 A 
ATOM     38  C   UNL     1       6.872   6.055  -2.592  1.00  0.00     0.049 A 
ATOM     39  N   UNL     1       6.823   9.104  -2.648  1.00  0.00    -0.248 NA
ATOM     40  C   UNL     1       6.038   9.057  -0.450  1.00  0.00     0.031 C 
ATOM     41  C   UNL     1       6.883   4.592  -2.581  1.00  0.00     0.029 A 
ATOM     42  N   UNL     1       7.310   6.389  -3.843  1.00  0.00    -0.354 N 
ATOM     43  C   UNL     1       6.583  10.399  -2.206  1.00  0.00     0.074 A 
ATOM     44  C   UNL     1       6.063  10.312  -0.863  1.00  0.00     0.031 C 
ATOM     45  C   UNL     1       7.295   4.152  -3.783  1.00  0.00     0.029 A 
ATOM     46  C   UNL     1       7.543   5.301  -4.649  1.00  0.00     0.049 A 
ATOM     47  H   UNL     1       7.445   7.319  -4.138  1.00  0.00     0.167 HD
ATOM     48  C   UNL     1       6.790  11.558  -2.869  1.00  0.00     0.034 A 
ATOM     49  C   UNL     1       7.901   5.259  -5.947  1.00  0.00     0.034 A 
ATOM     50  C   UNL     1       7.319  11.608  -4.200  1.00  0.00     0.049 A 
ATOM     51  C   UNL     1       8.113   6.565  -6.668  1.00  0.00     0.074 A 
ATOM     52  C   UNL     1       7.635  12.715  -4.962  1.00  0.00     0.029 A 
ATOM     53  N   UNL     1       7.591  10.488  -4.975  1.00  0.00    -0.354 N 
ATOM     54  N   UNL     1       8.003   7.789  -6.205  1.00  0.00    -0.248 NA
ATOM     55  C   UNL     1       8.521   6.490  -8.076  1.00  0.00     0.031 C 
ATOM     56  C   UNL     1       8.062  12.264  -6.214  1.00  0.00     0.029 A 
ATOM     57  C   UNL     1       8.053  10.876  -6.216  1.00  0.00     0.049 A 
ATOM     58  H   UNL     1       7.472   9.556  -4.682  1.00  0.00     0.167 HD
ATOM     59  C   UNL     1       8.376   8.629  -7.248  1.00  0.00     0.074 A 
ATOM     60  C   UNL     1       8.713   7.771  -8.367  1.00  0.00     0.031 C 
ATOM     61  C   UNL     1       8.433   9.983  -7.283  1.00  0.00     0.034 A 
BRANCH  48  62
ATOM     62  C   UNL     1       6.437  12.837  -2.161  1.00  0.00     0.023 A 
ATOM     63  C   UNL     1       7.197  13.267  -1.052  1.00  0.00     0.012 A 
ATOM     64  C   UNL     1       5.348  13.617  -2.594  1.00  0.00     0.148 A 
ATOM     65  C   UNL     1       6.851  14.427  -0.361  1.00  0.00     0.002 A 
ATOM     66  C   UNL     1       5.041  14.799  -1.932  1.00  0.00     0.091 A 
ATOM     67  F   UNL     1       4.617  13.177  -3.628  1.00  0.00    -0.205 F 
ATOM     68  C   UNL     1       5.781  15.198  -0.806  1.00  0.00     0.022 A 
BRANCH  66  69
ATOM     69  S   UNL     1       3.731  15.899  -2.478  1.00  0.00     0.127 S 
ATOM     70  O   UNL     1       2.726  15.703  -1.435  1.00  0.00    -0.237 OA
ATOM     71  O   UNL     1       4.394  17.203  -2.450  1.00  0.00    -0.237 OA
ATOM     72  O   UNL     1       3.351  15.441  -3.807  1.00  0.00    -0.744 OA
ENDBRANCH  66  69
ENDBRANCH  48  62
BRANCH  49  73
ATOM     73  C   UNL     1       8.139   3.948  -6.614  1.00  0.00     0.023 A 
ATOM     74  C   UNL     1       9.453   3.584  -6.964  1.00  0.00     0.012 A 
ATOM     75  C   UNL     1       7.087   3.043  -6.860  1.00  0.00     0.148 A 
ATOM     76  C   UNL     1       9.714   2.353  -7.569  1.00  0.00     0.002 A 
ATOM     77  C   UNL     1       7.360   1.799  -7.417  1.00  0.00     0.091 A 
ATOM     78  F   UNL     1       5.842   3.411  -6.526  1.00  0.00    -0.205 F 
ATOM     79  C   UNL     1       8.671   1.458  -7.787  1.00  0.00     0.022 A 
BRANCH  77  80
ATOM     80  S   UNL     1       6.102   0.532  -7.623  1.00  0.00     0.127 S 
ATOM     81  O   UNL     1       6.002   0.443  -9.077  1.00  0.00    -0.237 OA
ATOM     82  O   UNL     1       6.729  -0.621  -6.976  1.00  0.00    -0.237 OA
ATOM     83  O   UNL     1       4.919   1.035  -6.939  1.00  0.00    -0.744 OA
ENDBRANCH  77  80
ENDBRANCH  49  73
BRANCH  61  84
ATOM     84  C   UNL     1       8.934  10.629  -8.545  1.00  0.00     0.023 A 
ATOM     85  C   UNL     1       8.104  10.700  -9.678  1.00  0.00     0.012 A 
ATOM     86  C   UNL     1      10.181  11.286  -8.549  1.00  0.00     0.148 A 
ATOM     87  C   UNL     1       8.516  11.404 -10.808  1.00  0.00     0.002 A 
ATOM     88  C   UNL     1      10.560  12.030  -9.656  1.00  0.00     0.091 A 
ATOM     89  F   UNL     1      10.956  11.190  -7.459  1.00  0.00    -0.205 F 
ATOM     90  C   UNL     1       9.735  12.081 -10.791  1.00  0.00     0.022 A 
BRANCH  88  91
ATOM     91  S   UNL     1      12.054  13.026  -9.681  1.00  0.00     0.127 S 
ATOM     92  O   UNL     1      12.863  12.324 -10.676  1.00  0.00    -0.237 OA
ATOM     93  O   UNL     1      11.547  14.329 -10.113  1.00  0.00    -0.237 OA
ATOM     94  O   UNL     1      12.582  12.999  -8.323  1.00  0.00    -0.744 OA
ENDBRANCH  88  91
ENDBRANCH  61  84
ENDBRANCH  35  36
ENDBRANCH  28  30
ENDBRANCH  27  28
ENDBRANCH  26  27
ENDBRANCH  25  26
ENDBRANCH  24  25
ENDBRANCH   1  24
TORSDOF 23
