REMARK SMILES O=C(OCCOCCOC(=O)c1ccccc1Nc1cccc(S(F)(F)(F)(F)F)c1)c1ccc(-c2c3nc(c(-c4cccc(S(=O)(=O)[O-])c4F)c4ccc([nH]4)c(-c4cccc(S(=O)(=O)[O-])c4F)c4nc(c(-c5cccc(S(=O)(=O)[O-])c5F)c5ccc2[nH]5)C=C4)C=C3)cc1
REMARK SMILES IDX 6 1 5 2 4 3 3 4 2 5 1 6 31 7 32 8 93 9 33 10 92 11 34 12
REMARK SMILES IDX 35 13 36 14 86 15 37 16 91 17 85 18 87 19 38 20 90 21 84 22
REMARK SMILES IDX 83 23 39 25 71 26 51 27 70 28 52 29 55 30 69 31 88 32 53 33
REMARK SMILES IDX 54 34 68 36 89 37 56 38 40 39 41 40 49 41 42 42 44 43 50 44
REMARK SMILES IDX 43 45 45 46 46 47 47 48 48 49 72 50 73 51 81 52 74 53 76 54
REMARK SMILES IDX 82 55 75 56 77 57 78 58 79 59 80 60 57 61 58 62 66 63 59 64
REMARK SMILES IDX 61 65 67 66 60 67 62 68 63 69 64 70 65 71 7 72 8 73 9 74
REMARK SMILES IDX 10 75 11 76 12 77 13 78 17 79 14 80 16 81 15 82 18 83 19 85
REMARK SMILES IDX 20 86 30 87 21 88 23 89 22 90 24 91 25 92 26 93 27 94 28 95
REMARK SMILES IDX 29 96
REMARK H PARENT 87 24 55 35 18 84
REMARK Flexibility Score: inf
ROOT
ATOM      1  O   UNL     1       4.389   0.835   1.308  1.00  0.00    -0.374 OA
ENDROOT
BRANCH   1   2
ATOM      2  C   UNL     1       4.862   1.427   0.108  1.00  0.00     0.202 C 
BRANCH   2   3
ATOM      3  C   UNL     1       4.355   0.631  -1.084  1.00  0.00     0.261 C 
BRANCH   3   4
ATOM      4  O   UNL     1       2.935   0.631  -1.084  1.00  0.00    -0.460 OA
BRANCH   4   5
ATOM      5  C   UNL     1       2.225   0.087   0.019  1.00  0.00     0.338 C 
ATOM      6  O   UNL     1       0.955   0.087   0.019  1.00  0.00    -0.246 OA
BRANCH   5   7
ATOM      7  C   UNL     1       2.985  -0.495   1.200  1.00  0.00     0.060 A 
ATOM      8  C   UNL     1       4.120   0.167   1.637  1.00  0.00     0.016 A 
ATOM      9  C   UNL     1       2.621  -1.658   1.727  1.00  0.00     0.016 A 
ATOM     10  C   UNL     1       4.972  -0.625   2.443  1.00  0.00     0.010 A 
ATOM     11  C   UNL     1       3.442  -2.312   2.613  1.00  0.00     0.010 A 
ATOM     12  C   UNL     1       4.608  -1.743   3.044  1.00  0.00    -0.014 A 
BRANCH  12  13
ATOM     13  C   UNL     1       5.440  -2.363   4.154  1.00  0.00     0.031 A 
ATOM     14  C   UNL     1       5.952  -3.652   4.000  1.00  0.00     0.074 A 
ATOM     15  C   UNL     1       5.715  -1.545   5.237  1.00  0.00     0.049 A 
ATOM     16  N   UNL     1       6.791  -4.297   4.812  1.00  0.00    -0.248 NA
ATOM     17  C   UNL     1       5.634  -4.535   2.868  1.00  0.00     0.031 C 
ATOM     18  C   UNL     1       5.209  -0.240   5.395  1.00  0.00     0.029 A 
ATOM     19  N   UNL     1       6.502  -1.828   6.331  1.00  0.00    -0.354 N 
ATOM     20  C   UNL     1       7.070  -5.506   4.321  1.00  0.00     0.074 A 
ATOM     21  C   UNL     1       6.325  -5.679   3.067  1.00  0.00     0.031 C 
ATOM     22  C   UNL     1       5.675   0.253   6.573  1.00  0.00     0.029 A 
ATOM     23  C   UNL     1       6.481  -0.736   7.170  1.00  0.00     0.049 A 
ATOM     24  H   UNL     1       6.995  -2.665   6.486  1.00  0.00     0.167 HD
ATOM     25  C   UNL     1       7.918  -6.470   4.869  1.00  0.00     0.034 A 
ATOM     26  C   UNL     1       7.119  -0.591   8.392  1.00  0.00     0.034 A 
ATOM     27  C   UNL     1       8.591  -6.309   6.070  1.00  0.00     0.049 A 
ATOM     28  C   UNL     1       7.921  -1.579   8.969  1.00  0.00     0.074 A 
ATOM     29  C   UNL     1       9.455  -7.267   6.633  1.00  0.00     0.029 A 
ATOM     30  N   UNL     1       8.549  -5.226   6.921  1.00  0.00    -0.354 N 
ATOM     31  N   UNL     1       8.231  -2.772   8.459  1.00  0.00    -0.248 NA
ATOM     32  C   UNL     1       8.575  -1.450  10.277  1.00  0.00     0.031 C 
ATOM     33  C   UNL     1       9.921  -6.774   7.811  1.00  0.00     0.029 A 
ATOM     34  C   UNL     1       9.355  -5.500   8.004  1.00  0.00     0.049 A 
ATOM     35  H   UNL     1       8.033  -4.400   6.780  1.00  0.00     0.167 HD
ATOM     36  C   UNL     1       9.037  -3.432   9.292  1.00  0.00     0.074 A 
ATOM     37  C   UNL     1       9.265  -2.594  10.477  1.00  0.00     0.031 C 
ATOM     38  C   UNL     1       9.596  -4.699   9.110  1.00  0.00     0.034 A 
BRANCH  25  39
ATOM     39  C   UNL     1       8.114  -7.770   4.106  1.00  0.00     0.023 A 
ATOM     40  C   UNL     1       8.709  -7.649   2.861  1.00  0.00     0.012 A 
ATOM     41  C   UNL     1       7.807  -8.960   4.610  1.00  0.00     0.148 A 
ATOM     42  C   UNL     1       8.677  -8.836   2.093  1.00  0.00     0.002 A 
ATOM     43  C   UNL     1       7.928 -10.095   3.846  1.00  0.00     0.091 A 
ATOM     44  F   UNL     1       7.377  -9.053   5.865  1.00  0.00    -0.205 F 
ATOM     45  C   UNL     1       8.453 -10.041   2.585  1.00  0.00     0.022 A 
BRANCH  43  46
ATOM     46  S   UNL     1       7.386 -11.685   4.519  1.00  0.00     0.127 S 
ATOM     47  O   UNL     1       6.286 -12.268   3.629  1.00  0.00    -0.237 OA
ATOM     48  O   UNL     1       8.572 -12.652   4.564  1.00  0.00    -0.237 OA
ATOM     49  O   UNL     1       6.777 -11.457   6.101  1.00  0.00    -0.744 OA
ENDBRANCH  43  46
ENDBRANCH  25  39
BRANCH  26  50
ATOM     50  C   UNL     1       6.936   0.715   9.146  1.00  0.00     0.023 A 
ATOM     51  C   UNL     1       8.024   1.474   9.546  1.00  0.00     0.012 A 
ATOM     52  C   UNL     1       5.698   1.053   9.489  1.00  0.00     0.148 A 
ATOM     53  C   UNL     1       7.724   2.419  10.556  1.00  0.00     0.002 A 
ATOM     54  C   UNL     1       5.472   2.076  10.377  1.00  0.00     0.091 A 
ATOM     55  F   UNL     1       4.667   0.394   8.967  1.00  0.00    -0.205 F 
ATOM     56  C   UNL     1       6.506   2.830  10.859  1.00  0.00     0.022 A 
BRANCH  54  57
ATOM     57  S   UNL     1       3.782   2.432  10.918  1.00  0.00     0.127 S 
ATOM     58  O   UNL     1       3.688   2.273  12.438  1.00  0.00    -0.237 OA
ATOM     59  O   UNL     1       3.414   3.866  10.532  1.00  0.00    -0.237 OA
ATOM     60  O   UNL     1       2.701   1.343  10.163  1.00  0.00    -0.744 OA
ENDBRANCH  54  57
ENDBRANCH  26  50
BRANCH  38  61
ATOM     61  C   UNL     1      10.524  -5.231  10.189  1.00  0.00     0.023 A 
ATOM     62  C   UNL     1      10.045  -5.318  11.486  1.00  0.00     0.012 A 
ATOM     63  C   UNL     1      11.783  -5.539   9.898  1.00  0.00     0.148 A 
ATOM     64  C   UNL     1      11.058  -5.465  12.463  1.00  0.00     0.002 A 
ATOM     65  C   UNL     1      12.687  -5.804  10.897  1.00  0.00     0.091 A 
ATOM     66  F   UNL     1      12.171  -5.591   8.627  1.00  0.00    -0.205 F 
ATOM     67  C   UNL     1      12.295  -5.848  12.207  1.00  0.00     0.022 A 
BRANCH  65  68
ATOM     68  S   UNL     1      14.422  -6.101  10.475  1.00  0.00     0.127 S 
ATOM     69  O   UNL     1      15.301  -5.055  11.166  1.00  0.00    -0.237 OA
ATOM     70  O   UNL     1      14.829  -7.499  10.943  1.00  0.00    -0.237 OA
ATOM     71  O   UNL     1      14.624  -5.985   8.781  1.00  0.00    -0.744 OA
ENDBRANCH  65  68
ENDBRANCH  38  61
ENDBRANCH  12  13
ENDBRANCH   5   7
ENDBRANCH   4   5
ENDBRANCH   3   4
ENDBRANCH   2   3
ENDBRANCH   1   2
BRANCH   1  72
ATOM     72  C   UNL     1       2.969   0.835   1.308  1.00  0.00     0.202 C 
BRANCH  72  73
ATOM     73  C   UNL     1       2.462   2.265   1.215  1.00  0.00     0.261 C 
BRANCH  73  74
ATOM     74  O   UNL     1       2.935   2.857   0.014  1.00  0.00    -0.460 OA
BRANCH  74  75
ATOM     75  C   UNL     1       4.332   2.972  -0.219  1.00  0.00     0.340 C 
ATOM     76  O   UNL     1       5.157   2.545   0.648  1.00  0.00    -0.246 OA
BRANCH  75  77
ATOM     77  C   UNL     1       4.838   3.606  -1.504  1.00  0.00     0.083 A 
ATOM     78  C   UNL     1       5.775   2.974  -2.305  1.00  0.00     0.018 A 
ATOM     79  C   UNL     1       4.248   4.731  -1.890  1.00  0.00     0.053 A 
ATOM     80  C   UNL     1       6.239   3.769  -3.380  1.00  0.00     0.001 A 
ATOM     81  C   UNL     1       4.662   5.383  -3.027  1.00  0.00     0.027 A 
ATOM     82  C   UNL     1       5.625   4.846  -3.834  1.00  0.00     0.002 A 
BRANCH  79  83
ATOM     83  N   UNL     1       3.142   5.283  -1.095  1.00  0.00    -0.355 N 
ATOM     84  H   UNL     1       2.841   4.819  -0.281  1.00  0.00     0.167 HD
BRANCH  83  85
ATOM     85  C   UNL     1       2.483   6.528  -1.517  1.00  0.00     0.040 A 
ATOM     86  C   UNL     1       2.551   7.596  -0.638  1.00  0.00     0.026 A 
ATOM     87  C   UNL     1       1.875   6.640  -2.692  1.00  0.00     0.050 A 
ATOM     88  C   UNL     1       1.688   8.667  -0.970  1.00  0.00     0.004 A 
ATOM     89  C   UNL     1       1.161   7.772  -3.004  1.00  0.00     0.109 A 
ATOM     90  C   UNL     1       1.135   8.844  -2.156  1.00  0.00     0.024 A 
BRANCH  89  91
ATOM     91  S   UNL     1       0.241   7.845  -4.562  1.00  0.00     0.310 S 
ATOM     92  F   UNL     1      -1.155   7.880  -3.811  1.00  0.00    -0.094 F 
ATOM     93  F   UNL     1       0.136   6.273  -4.540  1.00  0.00    -0.094 F 
ATOM     94  F   UNL     1      -0.546   7.907  -5.901  1.00  0.00    -0.094 F 
ATOM     95  F   UNL     1       0.236   9.423  -4.494  1.00  0.00    -0.094 F 
ATOM     96  F   UNL     1       0.943   7.801  -3.146  1.00  0.00    -0.094 F 
ENDBRANCH  89  91
ENDBRANCH  83  85
ENDBRANCH  79  83
ENDBRANCH  75  77
ENDBRANCH  74  75
ENDBRANCH  73  74
ENDBRANCH  72  73
ENDBRANCH   1  72
TORSDOF 20
