REMARK SMILES CCN1C(=O)/C(=C/c2ccccc2O[C@H](C)C(=O)OCCOCCOC(=O)c2ccc(-c3c4nc(c(-c5cccc(S(=O)(=O)[O-])c5F)c5ccc([nH]5)c(-c5cccc(S(=O)(=O)[O-])c5F)c5nc(c(-c6cccc(S(=O)(=O)[O-])c6F)c6ccc3[nH]6)C=C5)C=C4)cc2)S/C1=[NH+]\c1ccc(C)cc1O
REMARK SMILES IDX 21 1 20 2 19 3 17 4 18 5 15 6 16 7 14 8 13 9 8 10 9 11 10 12
REMARK SMILES IDX 12 13 11 14 7 15 3 16 4 17 92 18 5 19 6 20 91 21 93 22 2 24
REMARK SMILES IDX 1 25 94 26 95 27 100 28 96 29 99 30 97 31 98 32 101 33 22 35
REMARK SMILES IDX 23 36 24 37 25 38 26 39 27 40 28 41 29 42 90 43 30 44 89 45
REMARK SMILES IDX 31 46 32 47 33 48 83 49 34 50 88 51 82 52 84 53 35 54 87 55
REMARK SMILES IDX 81 56 80 57 36 59 68 60 48 61 67 62 49 63 52 64 66 65 85 66
REMARK SMILES IDX 50 67 51 68 65 70 86 71 53 72 37 73 38 74 46 75 39 76 41 77
REMARK SMILES IDX 47 78 40 79 42 80 43 81 44 82 45 83 69 84 70 85 78 86 71 87
REMARK SMILES IDX 73 88 79 89 72 90 74 91 75 92 76 93 77 94 54 95 55 96 63 97
REMARK SMILES IDX 56 98 58 99 64 100 57 101 59 102 60 103 61 104 62 105
REMARK H PARENT 93 23 101 34 84 58 52 69
REMARK Flexibility Score: inf
ROOT
ATOM      1  C   UNL     1       6.569   2.449  -2.611  1.00  0.00     0.202 C 
ENDROOT
BRANCH   1   2
ATOM      2  C   UNL     1       5.115   2.028  -2.391  1.00  0.00     0.261 C 
BRANCH   2   3
ATOM      3  O   UNL     1       4.287   3.169  -2.115  1.00  0.00    -0.461 OA
BRANCH   3   4
ATOM      4  C   UNL     1       3.760   3.230  -0.865  1.00  0.00     0.347 C 
ATOM      5  O   UNL     1       3.932   2.391   0.014  1.00  0.00    -0.248 OA
BRANCH   4   6
ATOM      6  C   UNL     1       2.942   4.497  -0.647  1.00  0.00     0.279 C 
ATOM      7  C   UNL     1       3.639   5.829  -0.899  1.00  0.00     0.066 C 
BRANCH   6   8
ATOM      8  O   UNL     1       1.624   4.398  -1.135  1.00  0.00    -0.478 OA
BRANCH   8   9
ATOM      9  C   UNL     1       1.223   4.500  -2.431  1.00  0.00     0.127 A 
ATOM     10  C   UNL     1      -0.156   4.241  -2.619  1.00  0.00     0.018 A 
ATOM     11  C   UNL     1      -0.715   4.311  -3.898  1.00  0.00     0.012 A 
ATOM     12  C   UNL     1       0.082   4.662  -4.987  1.00  0.00     0.001 A 
ATOM     13  C   UNL     1       2.011   4.839  -3.526  1.00  0.00     0.047 A 
ATOM     14  C   UNL     1       1.438   4.927  -4.800  1.00  0.00     0.004 A 
BRANCH  10  15
ATOM     15  C   UNL     1      -0.990   3.828  -1.473  1.00  0.00     0.036 C 
ATOM     16  N   UNL     1      -1.948   4.998   1.816  1.00  0.00    -0.186 N 
ATOM     17  C   UNL     1      -1.826   4.012   0.854  1.00  0.00     0.348 C 
ATOM     18  C   UNL     1      -1.442   6.237   1.484  1.00  0.00     0.324 C 
ATOM     19  O   UNL     1      -2.135   2.833   0.967  1.00  0.00    -0.240 OA
ATOM     20  C   UNL     1      -1.203   4.569  -0.376  1.00  0.00     0.110 C 
ATOM     21  S   UNL     1      -0.751   6.205  -0.113  1.00  0.00     0.007 SA
ATOM     22  N   UNL     1      -1.528   7.258   2.274  1.00  0.00    -0.231 N 
ATOM     23  H   UNL     1      -1.984   7.149   3.139  1.00  0.00     0.313 HD
BRANCH  16  24
ATOM     24  C   UNL     1      -2.432   4.731   3.169  1.00  0.00     0.244 C 
ATOM     25  C   UNL     1      -3.488   3.646   3.314  1.00  0.00     0.055 C 
ENDBRANCH  16  24
BRANCH  22  26
ATOM     26  C   UNL     1      -0.993   8.521   1.944  1.00  0.00     0.167 A 
ATOM     27  C   UNL     1       0.001   9.055   2.773  1.00  0.00     0.056 A 
ATOM     28  C   UNL     1      -1.471   9.328   0.899  1.00  0.00     0.162 A 
ATOM     29  C   UNL     1       0.531  10.331   2.538  1.00  0.00     0.008 A 
ATOM     30  C   UNL     1      -0.932  10.588   0.643  1.00  0.00     0.054 A 
ATOM     31  C   UNL     1       0.082  11.099   1.457  1.00  0.00    -0.047 A 
ATOM     32  C   UNL     1       0.632  12.473   1.214  1.00  0.00     0.044 C 
BRANCH  28  33
ATOM     33  O   UNL     1      -2.497   8.938   0.081  1.00  0.00    -0.504 OA
ATOM     34  H   UNL     1      -2.901   8.101   0.203  1.00  0.00     0.293 HD
ENDBRANCH  28  33
ENDBRANCH  22  26
ENDBRANCH  10  15
ENDBRANCH   8   9
ENDBRANCH   6   8
ENDBRANCH   4   6
ENDBRANCH   3   4
ENDBRANCH   2   3
ENDBRANCH   1   2
BRANCH   1  35
ATOM     35  O   UNL     1       7.277   2.910  -1.460  1.00  0.00    -0.374 OA
BRANCH  35  36
ATOM     36  C   UNL     1       6.984   4.221  -0.984  1.00  0.00     0.202 C 
BRANCH  36  37
ATOM     37  C   UNL     1       7.596   5.395  -1.756  1.00  0.00     0.261 C 
BRANCH  37  38
ATOM     38  O   UNL     1       7.087   5.500  -3.097  1.00  0.00    -0.460 OA
BRANCH  38  39
ATOM     39  C   UNL     1       7.978   5.174  -4.061  1.00  0.00     0.338 C 
ATOM     40  O   UNL     1       9.155   4.862  -3.900  1.00  0.00    -0.246 OA
BRANCH  39  41
ATOM     41  C   UNL     1       7.315   5.063  -5.371  1.00  0.00     0.060 A 
ATOM     42  C   UNL     1       7.506   3.876  -6.089  1.00  0.00     0.016 A 
ATOM     43  C   UNL     1       6.608   6.128  -5.933  1.00  0.00     0.016 A 
ATOM     44  C   UNL     1       7.047   3.771  -7.399  1.00  0.00     0.010 A 
ATOM     45  C   UNL     1       6.154   6.023  -7.253  1.00  0.00     0.010 A 
ATOM     46  C   UNL     1       6.411   4.861  -8.005  1.00  0.00    -0.014 A 
BRANCH  46  47
ATOM     47  C   UNL     1       6.155   4.831  -9.465  1.00  0.00     0.031 A 
ATOM     48  C   UNL     1       7.106   5.542 -10.389  1.00  0.00     0.074 A 
ATOM     49  C   UNL     1       5.103   4.159  -9.964  1.00  0.00     0.049 A 
ATOM     50  N   UNL     1       7.075   5.639 -11.693  1.00  0.00    -0.248 NA
ATOM     51  C   UNL     1       8.243   6.236  -9.762  1.00  0.00     0.031 C 
ATOM     52  C   UNL     1       4.117   3.427  -9.171  1.00  0.00     0.029 A 
ATOM     53  N   UNL     1       4.680   4.002 -11.260  1.00  0.00    -0.354 N 
ATOM     54  C   UNL     1       8.169   6.424 -12.041  1.00  0.00     0.074 A 
ATOM     55  C   UNL     1       8.837   6.787 -10.810  1.00  0.00     0.031 C 
ATOM     56  C   UNL     1       3.185   2.920  -9.997  1.00  0.00     0.029 A 
ATOM     57  C   UNL     1       3.499   3.308 -11.371  1.00  0.00     0.049 A 
ATOM     58  H   UNL     1       5.174   4.354 -12.035  1.00  0.00     0.167 HD
ATOM     59  C   UNL     1       8.591   6.792 -13.274  1.00  0.00     0.034 A 
ATOM     60  C   UNL     1       2.749   3.031 -12.457  1.00  0.00     0.034 A 
ATOM     61  C   UNL     1       7.941   6.409 -14.498  1.00  0.00     0.049 A 
ATOM     62  C   UNL     1       3.231   3.469 -13.816  1.00  0.00     0.074 A 
ATOM     63  C   UNL     1       8.322   6.690 -15.798  1.00  0.00     0.029 A 
ATOM     64  N   UNL     1       6.771   5.670 -14.574  1.00  0.00    -0.354 N 
ATOM     65  N   UNL     1       4.333   4.101 -14.138  1.00  0.00    -0.248 NA
ATOM     66  C   UNL     1       2.382   3.124 -14.967  1.00  0.00     0.031 C 
ATOM     67  C   UNL     1       7.368   6.140 -16.661  1.00  0.00     0.029 A 
ATOM     68  C   UNL     1       6.406   5.497 -15.898  1.00  0.00     0.049 A 
ATOM     69  H   UNL     1       6.272   5.321 -13.801  1.00  0.00     0.167 HD
ATOM     70  C   UNL     1       4.328   4.200 -15.525  1.00  0.00     0.074 A 
ATOM     71  C   UNL     1       3.121   3.544 -15.985  1.00  0.00     0.031 C 
ATOM     72  C   UNL     1       5.231   4.793 -16.345  1.00  0.00     0.034 A 
BRANCH  59  73
ATOM     73  C   UNL     1       9.837   7.632 -13.363  1.00  0.00     0.023 A 
ATOM     74  C   UNL     1      11.094   7.037 -13.135  1.00  0.00     0.012 A 
ATOM     75  C   UNL     1       9.770   8.990 -13.728  1.00  0.00     0.148 A 
ATOM     76  C   UNL     1      12.264   7.787 -13.242  1.00  0.00     0.002 A 
ATOM     77  C   UNL     1      10.943   9.722 -13.872  1.00  0.00     0.091 A 
ATOM     78  F   UNL     1       8.563   9.544 -13.916  1.00  0.00    -0.205 F 
ATOM     79  C   UNL     1      12.190   9.125 -13.620  1.00  0.00     0.022 A 
BRANCH  77  80
ATOM     80  S   UNL     1      10.954  11.431 -14.424  1.00  0.00     0.127 S 
ATOM     81  O   UNL     1      11.283  12.139 -13.188  1.00  0.00    -0.237 OA
ATOM     82  O   UNL     1      12.020  11.426 -15.427  1.00  0.00    -0.237 OA
ATOM     83  O   UNL     1       9.623  11.687 -14.957  1.00  0.00    -0.744 OA
ENDBRANCH  77  80
ENDBRANCH  59  73
BRANCH  60  84
ATOM     84  C   UNL     1       1.479   2.268 -12.304  1.00  0.00     0.023 A 
ATOM     85  C   UNL     1       1.391   0.954 -12.802  1.00  0.00     0.012 A 
ATOM     86  C   UNL     1       0.368   2.830 -11.645  1.00  0.00     0.148 A 
ATOM     87  C   UNL     1       0.210   0.222 -12.668  1.00  0.00     0.002 A 
ATOM     88  C   UNL     1      -0.785   2.075 -11.464  1.00  0.00     0.091 A 
ATOM     89  F   UNL     1       0.463   4.090 -11.199  1.00  0.00    -0.205 F 
ATOM     90  C   UNL     1      -0.873   0.777 -11.990  1.00  0.00     0.022 A 
BRANCH  88  91
ATOM     91  S   UNL     1      -2.168   2.666 -10.482  1.00  0.00     0.127 S 
ATOM     92  O   UNL     1      -3.145   3.004 -11.512  1.00  0.00    -0.237 OA
ATOM     93  O   UNL     1      -2.499   1.488  -9.680  1.00  0.00    -0.237 OA
ATOM     94  O   UNL     1      -1.644   3.784  -9.707  1.00  0.00    -0.744 OA
ENDBRANCH  88  91
ENDBRANCH  60  84
BRANCH  72  95
ATOM     95  C   UNL     1       4.975   4.740 -17.829  1.00  0.00     0.023 A 
ATOM     96  C   UNL     1       3.966   5.547 -18.392  1.00  0.00     0.012 A 
ATOM     97  C   UNL     1       5.785   3.956 -18.673  1.00  0.00     0.148 A 
ATOM     98  C   UNL     1       3.749   5.552 -19.770  1.00  0.00     0.002 A 
ATOM     99  C   UNL     1       5.594   4.001 -20.049  1.00  0.00     0.091 A 
ATOM    100  F   UNL     1       6.728   3.181 -18.117  1.00  0.00    -0.205 F 
ATOM    101  C   UNL     1       4.570   4.790 -20.598  1.00  0.00     0.022 A 
BRANCH  99 102
ATOM    102  S   UNL     1       6.663   3.126 -21.198  1.00  0.00     0.127 S 
ATOM    103  O   UNL     1       5.808   2.017 -21.616  1.00  0.00    -0.237 OA
ATOM    104  O   UNL     1       6.904   4.134 -22.231  1.00  0.00    -0.237 OA
ATOM    105  O   UNL     1       7.847   2.752 -20.435  1.00  0.00    -0.744 OA
ENDBRANCH  99 102
ENDBRANCH  72  95
ENDBRANCH  46  47
ENDBRANCH  39  41
ENDBRANCH  38  39
ENDBRANCH  37  38
ENDBRANCH  36  37
ENDBRANCH  35  36
ENDBRANCH   1  35
TORSDOF 23
