REMARK SMILES CC[C@]1(C(=O)OCCOCCOC(=O)c2ccc(-c3c4nc(c(-c5cccc(S(=O)(=O)[O-])c5F)c5ccc([nH]5)c(-c5cccc(S(=O)(=O)[O-])c5F)c5nc(c(-c6cccc(S(=O)(=O)[O-])c6F)c6ccc3[nH]6)C=C5)C=C4)cc2)CCN(C(=O)[C@]2(C)CCCO2)C1
REMARK SMILES IDX 10 1 9 2 8 3 7 4 6 5 4 6 5 7 3 8 78 9 89 10 79 11 80 12 2 13
REMARK SMILES IDX 1 14 81 15 82 16 83 17 85 18 88 19 84 20 86 21 87 22 11 23
REMARK SMILES IDX 12 24 13 25 14 26 15 27 16 28 77 29 17 30 76 31 18 32 19 33
REMARK SMILES IDX 20 34 70 35 21 36 75 37 69 38 71 39 22 40 74 41 68 42 67 43
REMARK SMILES IDX 23 45 55 46 35 47 54 48 36 49 39 50 53 51 72 52 37 53 38 54
REMARK SMILES IDX 52 56 73 57 40 58 24 59 25 60 33 61 26 62 28 63 34 64 27 65
REMARK SMILES IDX 29 66 30 67 31 68 32 69 56 70 57 71 65 72 58 73 60 74 66 75
REMARK SMILES IDX 59 76 61 77 62 78 63 79 64 80 41 81 42 82 50 83 43 84 45 85
REMARK SMILES IDX 51 86 44 87 46 88 47 89 48 90 49 91
REMARK H PARENT 71 44 39 55
REMARK Flexibility Score: inf
ROOT
ATOM      1  C   UNL     1       3.995  11.428  -4.576  1.00  0.00     0.202 C 
ENDROOT
BRANCH   1   2
ATOM      2  O   UNL     1       5.079  11.418  -5.504  1.00  0.00    -0.374 OA
BRANCH   2   3
ATOM      3  C   UNL     1       5.535  10.145  -5.973  1.00  0.00     0.202 C 
BRANCH   3   4
ATOM      4  C   UNL     1       6.351   9.322  -4.974  1.00  0.00     0.261 C 
BRANCH   4   5
ATOM      5  O   UNL     1       5.506   8.921  -3.885  1.00  0.00    -0.463 OA
BRANCH   5   6
ATOM      6  C   UNL     1       5.986   9.141  -2.637  1.00  0.00     0.314 C 
ATOM      7  O   UNL     1       7.145   9.447  -2.384  1.00  0.00    -0.252 OA
BRANCH   6   8
ATOM      8  C   UNL     1       4.910   8.991  -1.560  1.00  0.00     0.087 C 
ATOM      9  C   UNL     1       3.469   8.762  -2.081  1.00  0.00     0.042 C 
ATOM     10  C   UNL     1       5.218   7.650  -0.873  1.00  0.00     0.138 C 
ATOM     11  C   UNL     1       2.839   7.851  -1.050  1.00  0.00     0.121 C 
ATOM     12  N   UNL     1       3.932   7.009  -0.627  1.00  0.00    -0.339 N 
BRANCH   8  13
ATOM     13  C   UNL     1       4.949  10.279  -0.680  1.00  0.00     0.017 C 
ATOM     14  C   UNL     1       4.770  10.120   0.821  1.00  0.00     0.005 C 
ENDBRANCH   8  13
BRANCH  12  15
ATOM     15  C   UNL     1       3.873   5.739  -0.084  1.00  0.00     0.254 C 
ATOM     16  O   UNL     1       4.921   5.131   0.161  1.00  0.00    -0.272 OA
BRANCH  15  17
ATOM     17  C   UNL     1       2.482   5.092   0.198  1.00  0.00     0.144 C 
ATOM     18  C   UNL     1       1.723   4.697  -1.073  1.00  0.00     0.048 C 
ATOM     19  O   UNL     1       1.647   6.011   0.925  1.00  0.00    -0.365 OA
ATOM     20  C   UNL     1       2.684   3.850   1.079  1.00  0.00     0.053 C 
ATOM     21  C   UNL     1       0.350   5.320  -0.942  1.00  0.00     0.032 C 
ATOM     22  C   UNL     1       0.309   5.917   0.445  1.00  0.00     0.162 C 
ENDBRANCH  15  17
ENDBRANCH  12  15
ENDBRANCH   6   8
ENDBRANCH   5   6
ENDBRANCH   4   5
ENDBRANCH   3   4
ENDBRANCH   2   3
ENDBRANCH   1   2
BRANCH   1  23
ATOM     23  C   UNL     1       2.589  11.208  -5.148  1.00  0.00     0.261 C 
BRANCH  23  24
ATOM     24  O   UNL     1       2.444   9.935  -5.800  1.00  0.00    -0.460 OA
BRANCH  24  25
ATOM     25  C   UNL     1       2.329  10.015  -7.146  1.00  0.00     0.338 C 
ATOM     26  O   UNL     1       2.248  11.043  -7.815  1.00  0.00    -0.246 OA
BRANCH  25  27
ATOM     27  C   UNL     1       2.476   8.693  -7.778  1.00  0.00     0.060 A 
ATOM     28  C   UNL     1       3.391   8.597  -8.833  1.00  0.00     0.016 A 
ATOM     29  C   UNL     1       1.664   7.606  -7.442  1.00  0.00     0.016 A 
ATOM     30  C   UNL     1       3.435   7.447  -9.615  1.00  0.00     0.010 A 
ATOM     31  C   UNL     1       1.710   6.449  -8.232  1.00  0.00     0.010 A 
ATOM     32  C   UNL     1       2.553   6.390  -9.357  1.00  0.00    -0.014 A 
BRANCH  32  33
ATOM     33  C   UNL     1       2.401   5.334 -10.389  1.00  0.00     0.031 A 
ATOM     34  C   UNL     1       1.245   5.417 -11.353  1.00  0.00     0.074 A 
ATOM     35  C   UNL     1       3.320   4.361 -10.523  1.00  0.00     0.049 A 
ATOM     36  N   UNL     1       0.984   4.675 -12.398  1.00  0.00    -0.248 NA
ATOM     37  C   UNL     1       0.254   6.478 -11.108  1.00  0.00     0.031 C 
ATOM     38  C   UNL     1       4.479   4.167  -9.655  1.00  0.00     0.029 A 
ATOM     39  N   UNL     1       3.417   3.351 -11.447  1.00  0.00    -0.354 N 
ATOM     40  C   UNL     1      -0.204   5.167 -12.925  1.00  0.00     0.074 A 
ATOM     41  C   UNL     1      -0.628   6.254 -12.071  1.00  0.00     0.031 C 
ATOM     42  C   UNL     1       5.168   3.095 -10.082  1.00  0.00     0.029 A 
ATOM     43  C   UNL     1       4.498   2.526 -11.250  1.00  0.00     0.049 A 
ATOM     44  H   UNL     1       2.773   3.229 -12.182  1.00  0.00     0.167 HD
ATOM     45  C   UNL     1      -0.871   4.772 -14.036  1.00  0.00     0.034 A 
ATOM     46  C   UNL     1       4.903   1.440 -11.938  1.00  0.00     0.034 A 
ATOM     47  C   UNL     1      -0.438   3.712 -14.905  1.00  0.00     0.049 A 
ATOM     48  C   UNL     1       4.148   1.024 -13.174  1.00  0.00     0.074 A 
ATOM     49  C   UNL     1      -1.022   3.267 -16.078  1.00  0.00     0.029 A 
ATOM     50  N   UNL     1       0.684   2.927 -14.694  1.00  0.00    -0.354 N 
ATOM     51  N   UNL     1       3.104   1.586 -13.734  1.00  0.00    -0.248 NA
ATOM     52  C   UNL     1       4.656  -0.150 -13.899  1.00  0.00     0.031 C 
ATOM     53  C   UNL     1      -0.259   2.201 -16.569  1.00  0.00     0.029 A 
ATOM     54  C   UNL     1       0.809   1.995 -15.710  1.00  0.00     0.049 A 
ATOM     55  H   UNL     1       1.303   3.018 -13.934  1.00  0.00     0.167 HD
ATOM     56  C   UNL     1       2.851   0.857 -14.891  1.00  0.00     0.074 A 
ATOM     57  C   UNL     1       3.869  -0.171 -14.966  1.00  0.00     0.031 C 
ATOM     58  C   UNL     1       1.857   1.012 -15.802  1.00  0.00     0.034 A 
BRANCH  45  59
ATOM     59  C   UNL     1      -2.124   5.524 -14.398  1.00  0.00     0.023 A 
ATOM     60  C   UNL     1      -2.023   6.823 -14.937  1.00  0.00     0.012 A 
ATOM     61  C   UNL     1      -3.394   4.935 -14.247  1.00  0.00     0.148 A 
ATOM     62  C   UNL     1      -3.167   7.535 -15.294  1.00  0.00     0.002 A 
ATOM     63  C   UNL     1      -4.528   5.636 -14.642  1.00  0.00     0.091 A 
ATOM     64  F   UNL     1      -3.472   3.710 -13.707  1.00  0.00    -0.205 F 
ATOM     65  C   UNL     1      -4.418   6.938 -15.156  1.00  0.00     0.022 A 
BRANCH  63  66
ATOM     66  S   UNL     1      -6.176   4.926 -14.566  1.00  0.00     0.127 S 
ATOM     67  O   UNL     1      -6.754   5.642 -13.429  1.00  0.00    -0.237 OA
ATOM     68  O   UNL     1      -6.734   5.297 -15.867  1.00  0.00    -0.237 OA
ATOM     69  O   UNL     1      -5.986   3.495 -14.375  1.00  0.00    -0.744 OA
ENDBRANCH  63  66
ENDBRANCH  45  59
BRANCH  46  70
ATOM     70  C   UNL     1       6.123   0.700 -11.507  1.00  0.00     0.023 A 
ATOM     71  C   UNL     1       7.287   0.753 -12.298  1.00  0.00     0.012 A 
ATOM     72  C   UNL     1       6.138  -0.043 -10.311  1.00  0.00     0.148 A 
ATOM     73  C   UNL     1       8.435   0.055 -11.921  1.00  0.00     0.002 A 
ATOM     74  C   UNL     1       7.301  -0.692  -9.914  1.00  0.00     0.091 A 
ATOM     75  F   UNL     1       5.014  -0.099  -9.584  1.00  0.00    -0.205 F 
ATOM     76  C   UNL     1       8.446  -0.658 -10.725  1.00  0.00     0.022 A 
BRANCH  74  77
ATOM     77  S   UNL     1       7.439  -1.525  -8.329  1.00  0.00     0.127 S 
ATOM     78  O   UNL     1       7.409  -2.930  -8.726  1.00  0.00    -0.237 OA
ATOM     79  O   UNL     1       8.735  -1.048  -7.846  1.00  0.00    -0.237 OA
ATOM     80  O   UNL     1       6.301  -1.061  -7.546  1.00  0.00    -0.744 OA
ENDBRANCH  74  77
ENDBRANCH  46  70
BRANCH  58  81
ATOM     81  C   UNL     1       1.831   0.064 -16.973  1.00  0.00     0.023 A 
ATOM     82  C   UNL     1       1.450  -1.279 -16.776  1.00  0.00     0.012 A 
ATOM     83  C   UNL     1       2.125   0.513 -18.276  1.00  0.00     0.148 A 
ATOM     84  C   UNL     1       1.402  -2.168 -17.849  1.00  0.00     0.002 A 
ATOM     85  C   UNL     1       2.029  -0.368 -19.348  1.00  0.00     0.091 A 
ATOM     86  F   UNL     1       2.506   1.788 -18.445  1.00  0.00    -0.205 F 
ATOM     87  C   UNL     1       1.680  -1.711 -19.135  1.00  0.00     0.022 A 
BRANCH  85  88
ATOM     88  S   UNL     1       2.280   0.170 -21.044  1.00  0.00     0.127 S 
ATOM     89  O   UNL     1       3.657  -0.252 -21.291  1.00  0.00    -0.237 OA
ATOM     90  O   UNL     1       1.268  -0.596 -21.773  1.00  0.00    -0.237 OA
ATOM     91  O   UNL     1       2.050   1.609 -21.037  1.00  0.00    -0.744 OA
ENDBRANCH  85  88
ENDBRANCH  58  81
ENDBRANCH  32  33
ENDBRANCH  25  27
ENDBRANCH  24  25
ENDBRANCH  23  24
ENDBRANCH   1  23
TORSDOF 20
