REMARK SMILES CC[C@@](C)(NC(=O)Nc1c(C)cccc1Cl)C(=O)OCCOCCOC(=O)c1ccc(-c2c3nc(c(-c4cccc(S(=O)(=O)[O-])c4F)c4ccc([nH]4)c(-c4cccc(S(=O)(=O)[O-])c4F)c4nc(c(-c5cccc(S(=O)(=O)[O-])c5F)c5ccc2[nH]5)C=C4)C=C3)cc1
REMARK SMILES IDX 23 1 22 2 21 3 20 4 19 5 17 6 18 7 3 8 4 9 2 10 1 11 5 12
REMARK SMILES IDX 6 13 7 15 8 16 9 18 10 19 15 20 11 21 12 22 14 23 16 24
REMARK SMILES IDX 13 25 24 26 25 27 26 28 27 29 28 30 29 31 90 32 30 33 89 34
REMARK SMILES IDX 31 35 32 36 33 37 83 38 34 39 88 40 82 41 84 42 35 43 87 44
REMARK SMILES IDX 81 45 80 46 36 48 68 49 48 50 67 51 49 52 52 53 66 54 85 55
REMARK SMILES IDX 50 56 51 57 65 59 86 60 53 61 37 62 38 63 46 64 39 65 41 66
REMARK SMILES IDX 47 67 40 68 42 69 43 70 44 71 45 72 69 73 70 74 78 75 71 76
REMARK SMILES IDX 73 77 79 78 72 79 74 80 75 81 76 82 77 83 54 84 55 85 63 86
REMARK SMILES IDX 56 87 58 88 64 89 57 90 59 91 60 92 61 93 62 94
REMARK H PARENT 5 14 8 17 84 47 52 58
REMARK Flexibility Score: inf
ROOT
ATOM      1  C   UNL     1       5.258  -4.127  -0.857  1.00  0.00     0.202 C 
ENDROOT
BRANCH   1   2
ATOM      2  O   UNL     1       4.493  -4.406   0.315  1.00  0.00    -0.374 OA
BRANCH   2   3
ATOM      3  C   UNL     1       4.905  -3.860   1.560  1.00  0.00     0.202 C 
BRANCH   3   4
ATOM      4  C   UNL     1       3.830  -4.250   2.628  1.00  0.00     0.261 C 
BRANCH   4   5
ATOM      5  O   UNL     1       2.501  -3.804   2.191  1.00  0.00    -0.462 OA
BRANCH   5   6
ATOM      6  C   UNL     1       1.515  -3.091   2.840  1.00  0.00     0.331 C 
ATOM      7  O   UNL     1       1.557  -2.812   4.028  1.00  0.00    -0.249 OA
BRANCH   6   8
ATOM      8  C   UNL     1       0.296  -2.666   1.849  1.00  0.00     0.136 C 
ATOM      9  C   UNL     1      -0.970  -2.908   2.701  1.00  0.00     0.047 C 
BRANCH   8  10
ATOM     10  C   UNL     1      -0.072  -1.409   0.964  1.00  0.00     0.037 C 
ATOM     11  C   UNL     1       0.117   0.035   1.348  1.00  0.00     0.007 C 
ENDBRANCH   8  10
BRANCH   8  12
ATOM     12  N   UNL     1       0.505  -3.662   0.829  1.00  0.00    -0.322 N 
ATOM     13  C   UNL     1       1.491  -3.620  -0.095  1.00  0.00     0.320 C 
ATOM     14  H   UNL     1      -0.114  -4.428   0.803  1.00  0.00     0.166 HD
ATOM     15  O   UNL     1       1.497  -4.514  -0.916  1.00  0.00    -0.248 OA
ATOM     16  N   UNL     1       2.375  -2.594  -0.253  1.00  0.00    -0.306 N 
ATOM     17  H   UNL     1       2.763  -2.787  -1.137  1.00  0.00     0.171 HD
BRANCH  16  18
ATOM     18  C   UNL     1       3.075  -1.378   0.133  1.00  0.00     0.064 A 
ATOM     19  C   UNL     1       3.437  -0.698   1.351  1.00  0.00    -0.026 A 
ATOM     20  C   UNL     1       3.608  -0.762  -1.052  1.00  0.00     0.064 A 
ATOM     21  C   UNL     1       3.202  -0.955   2.819  1.00  0.00     0.046 C 
ATOM     22  C   UNL     1       4.254   0.478   1.282  1.00  0.00     0.005 A 
ATOM     23  C   UNL     1       4.447   0.358  -1.063  1.00  0.00     0.023 A 
ATOM     24  Cl  UNL     1       3.217  -1.376  -2.646  1.00  0.00    -0.082 Cl
ATOM     25  C   UNL     1       4.776   0.983   0.113  1.00  0.00     0.002 A 
ENDBRANCH  16  18
ENDBRANCH   8  12
ENDBRANCH   6   8
ENDBRANCH   5   6
ENDBRANCH   4   5
ENDBRANCH   3   4
ENDBRANCH   2   3
ENDBRANCH   1   2
BRANCH   1  26
ATOM     26  C   UNL     1       4.611  -4.968  -1.979  1.00  0.00     0.261 C 
BRANCH  26  27
ATOM     27  O   UNL     1       4.376  -6.301  -1.480  1.00  0.00    -0.460 OA
BRANCH  27  28
ATOM     28  C   UNL     1       5.533  -6.950  -1.278  1.00  0.00     0.338 C 
ATOM     29  O   UNL     1       6.480  -6.960  -2.072  1.00  0.00    -0.246 OA
BRANCH  28  30
ATOM     30  C   UNL     1       5.690  -7.323   0.142  1.00  0.00     0.060 A 
ATOM     31  C   UNL     1       6.904  -6.950   0.734  1.00  0.00     0.016 A 
ATOM     32  C   UNL     1       4.739  -8.035   0.877  1.00  0.00     0.016 A 
ATOM     33  C   UNL     1       7.236  -7.404   2.001  1.00  0.00     0.010 A 
ATOM     34  C   UNL     1       5.081  -8.509   2.155  1.00  0.00     0.010 A 
ATOM     35  C   UNL     1       6.365  -8.262   2.680  1.00  0.00    -0.014 A 
BRANCH  35  36
ATOM     36  C   UNL     1       6.958  -9.098   3.755  1.00  0.00     0.031 A 
ATOM     37  C   UNL     1       7.447 -10.480   3.392  1.00  0.00     0.074 A 
ATOM     38  C   UNL     1       7.213  -8.604   4.980  1.00  0.00     0.049 A 
ATOM     39  N   UNL     1       8.150 -11.324   4.102  1.00  0.00    -0.248 NA
ATOM     40  C   UNL     1       7.112 -10.967   2.042  1.00  0.00     0.031 C 
ATOM     41  C   UNL     1       6.822  -7.282   5.460  1.00  0.00     0.029 A 
ATOM     42  N   UNL     1       7.876  -9.169   6.042  1.00  0.00    -0.354 N 
ATOM     43  C   UNL     1       8.340 -12.436   3.290  1.00  0.00     0.074 A 
ATOM     44  C   UNL     1       7.651 -12.176   2.046  1.00  0.00     0.031 C 
ATOM     45  C   UNL     1       7.234  -7.144   6.734  1.00  0.00     0.029 A 
ATOM     46  C   UNL     1       7.918  -8.367   7.156  1.00  0.00     0.049 A 
ATOM     47  H   UNL     1       8.283 -10.065   6.008  1.00  0.00     0.167 HD
ATOM     48  C   UNL     1       9.050 -13.562   3.535  1.00  0.00     0.034 A 
ATOM     49  C   UNL     1       8.446  -8.594   8.377  1.00  0.00     0.034 A 
ATOM     50  C   UNL     1       9.750 -13.833   4.760  1.00  0.00     0.049 A 
ATOM     51  C   UNL     1       9.201  -9.874   8.638  1.00  0.00     0.074 A 
ATOM     52  C   UNL     1      10.504 -14.945   5.090  1.00  0.00     0.029 A 
ATOM     53  N   UNL     1       9.778 -12.990   5.858  1.00  0.00    -0.354 N 
ATOM     54  N   UNL     1       9.474 -10.859   7.817  1.00  0.00    -0.248 NA
ATOM     55  C   UNL     1       9.763 -10.050   9.987  1.00  0.00     0.031 C 
ATOM     56  C   UNL     1      10.973 -14.783   6.398  1.00  0.00     0.029 A 
ATOM     57  C   UNL     1      10.530 -13.559   6.872  1.00  0.00     0.049 A 
ATOM     58  H   UNL     1       9.328 -12.116   5.911  1.00  0.00     0.167 HD
ATOM     59  C   UNL     1      10.259 -11.754   8.540  1.00  0.00     0.074 A 
ATOM     60  C   UNL     1      10.449 -11.176   9.853  1.00  0.00     0.031 C 
ATOM     61  C   UNL     1      10.759 -12.956   8.159  1.00  0.00     0.034 A 
BRANCH  48  62
ATOM     62  C   UNL     1       9.137 -14.579   2.428  1.00  0.00     0.023 A 
ATOM     63  C   UNL     1       9.961 -14.318   1.314  1.00  0.00     0.012 A 
ATOM     64  C   UNL     1       8.454 -15.806   2.513  1.00  0.00     0.148 A 
ATOM     65  C   UNL     1      10.085 -15.254   0.289  1.00  0.00     0.002 A 
ATOM     66  C   UNL     1       8.616 -16.752   1.508  1.00  0.00     0.091 A 
ATOM     67  F   UNL     1       7.656 -16.021   3.568  1.00  0.00    -0.205 F 
ATOM     68  C   UNL     1       9.423 -16.474   0.392  1.00  0.00     0.022 A 
BRANCH  66  69
ATOM     69  S   UNL     1       7.867 -18.382   1.584  1.00  0.00     0.127 S 
ATOM     70  O   UNL     1       6.857 -18.293   0.530  1.00  0.00    -0.237 OA
ATOM     71  O   UNL     1       8.999 -19.255   1.271  1.00  0.00    -0.237 OA
ATOM     72  O   UNL     1       7.347 -18.523   2.936  1.00  0.00    -0.744 OA
ENDBRANCH  66  69
ENDBRANCH  48  62
BRANCH  49  73
ATOM     73  C   UNL     1       8.303  -7.571   9.451  1.00  0.00     0.023 A 
ATOM     74  C   UNL     1       9.438  -6.887   9.928  1.00  0.00     0.012 A 
ATOM     75  C   UNL     1       7.044  -7.288  10.014  1.00  0.00     0.148 A 
ATOM     76  C   UNL     1       9.326  -5.967  10.971  1.00  0.00     0.002 A 
ATOM     77  C   UNL     1       6.931  -6.328  11.012  1.00  0.00     0.091 A 
ATOM     78  F   UNL     1       5.979  -7.968   9.565  1.00  0.00    -0.205 F 
ATOM     79  C   UNL     1       8.072  -5.680  11.506  1.00  0.00     0.022 A 
BRANCH  77  80
ATOM     80  S   UNL     1       5.340  -5.807  11.662  1.00  0.00     0.127 S 
ATOM     81  O   UNL     1       5.341  -6.423  12.986  1.00  0.00    -0.237 OA
ATOM     82  O   UNL     1       5.475  -4.350  11.659  1.00  0.00    -0.237 OA
ATOM     83  O   UNL     1       4.350  -6.317  10.724  1.00  0.00    -0.744 OA
ENDBRANCH  77  80
ENDBRANCH  49  73
BRANCH  61  84
ATOM     84  C   UNL     1      11.580 -13.726   9.164  1.00  0.00     0.023 A 
ATOM     85  C   UNL     1      10.947 -14.310  10.280  1.00  0.00     0.012 A 
ATOM     86  C   UNL     1      12.964 -13.918   8.980  1.00  0.00     0.148 A 
ATOM     87  C   UNL     1      11.684 -15.032  11.219  1.00  0.00     0.002 A 
ATOM     88  C   UNL     1      13.684 -14.679   9.896  1.00  0.00     0.091 A 
ATOM     89  F   UNL     1      13.557 -13.344   7.923  1.00  0.00    -0.205 F 
ATOM     90  C   UNL     1      13.049 -15.225  11.022  1.00  0.00     0.022 A 
BRANCH  88  91
ATOM     91  S   UNL     1      15.428 -15.052   9.671  1.00  0.00     0.127 S 
ATOM     92  O   UNL     1      16.056 -14.118  10.604  1.00  0.00    -0.237 OA
ATOM     93  O   UNL     1      15.504 -16.457  10.072  1.00  0.00    -0.237 OA
ATOM     94  O   UNL     1      15.704 -14.816   8.260  1.00  0.00    -0.744 OA
ENDBRANCH  88  91
ENDBRANCH  61  84
ENDBRANCH  35  36
ENDBRANCH  28  30
ENDBRANCH  27  28
ENDBRANCH  26  27
ENDBRANCH   1  26
TORSDOF 20
