REMARK SMILES CCOc1ncnc(N[C@@H]2C=C[C@H](C(=O)OCCOCCOC(=O)c3ccc(-c4c5nc(c(-c6cccc(S(=O)(=O)[O-])c6F)c6ccc([nH]6)c(-c6cccc(S(=O)(=O)[O-])c6F)c6nc(c(-c7cccc(S(=O)(=O)[O-])c7F)c7ccc4[nH]7)C=C6)C=C5)cc3)C2)c1C
REMARK SMILES IDX 18 1 17 2 16 3 14 4 15 5 13 6 10 7 11 8 88 9 12 10 9 11 8 13
REMARK SMILES IDX 4 14 5 15 89 16 6 17 90 18 7 19 3 20 2 21 1 22 19 23 20 24
REMARK SMILES IDX 21 25 22 26 23 27 24 28 25 29 26 30 87 31 27 32 86 33 28 34
REMARK SMILES IDX 29 35 30 36 80 37 31 38 85 39 79 40 81 41 32 42 84 43 78 44
REMARK SMILES IDX 77 45 33 47 65 48 45 49 64 50 46 51 49 52 63 53 82 54 47 55
REMARK SMILES IDX 48 56 62 58 83 59 50 60 34 61 35 62 43 63 36 64 38 65 44 66
REMARK SMILES IDX 37 67 39 68 40 69 41 70 42 71 66 72 67 73 75 74 68 75 70 76
REMARK SMILES IDX 76 77 69 78 71 79 72 80 73 81 74 82 51 83 52 84 60 85 53 86
REMARK SMILES IDX 55 87 61 88 54 89 56 90 57 91 58 92 59 93
REMARK H PARENT 9 12 81 46 49 57
REMARK Flexibility Score: inf
ROOT
ATOM      1  C   UNL     1      12.915  -2.493  -1.679  1.00  0.00     0.202 C 
ENDROOT
BRANCH   1   2
ATOM      2  C   UNL     1      12.001  -1.398  -1.124  1.00  0.00     0.261 C 
BRANCH   2   3
ATOM      3  O   UNL     1      10.675  -1.912  -0.930  1.00  0.00    -0.463 OA
BRANCH   3   4
ATOM      4  C   UNL     1       9.663  -1.054  -1.232  1.00  0.00     0.312 C 
ATOM      5  O   UNL     1       9.820   0.130  -1.516  1.00  0.00    -0.252 OA
BRANCH   4   6
ATOM      6  C   UNL     1       8.323  -1.776  -1.401  1.00  0.00     0.124 C 
ATOM      7  C   UNL     1       6.725  -1.522   0.436  1.00  0.00     0.104 C 
ATOM      8  C   UNL     1       7.246  -2.914   0.355  1.00  0.00    -0.006 C 
ATOM      9  C   UNL     1       7.163  -0.906  -0.898  1.00  0.00     0.048 C 
ATOM     10  C   UNL     1       8.126  -3.058  -0.645  1.00  0.00    -0.014 C 
BRANCH   7  11
ATOM     11  N   UNL     1       7.214  -0.756   1.562  1.00  0.00    -0.363 N 
ATOM     12  H   UNL     1       6.551  -0.196   2.026  1.00  0.00     0.162 HD
BRANCH  11  13
ATOM     13  C   UNL     1       8.502  -0.717   2.067  1.00  0.00     0.136 A 
ATOM     14  C   UNL     1      10.242   0.358   3.212  1.00  0.00     0.221 A 
ATOM     15  N   UNL     1      11.055  -0.704   3.105  1.00  0.00    -0.201 NA
ATOM     16  C   UNL     1       8.964   0.438   2.682  1.00  0.00     0.054 A 
ATOM     17  C   UNL     1      10.513  -1.747   2.482  1.00  0.00     0.228 A 
ATOM     18  C   UNL     1       8.129   1.673   2.811  1.00  0.00     0.054 C 
ATOM     19  N   UNL     1       9.288  -1.795   1.944  1.00  0.00    -0.219 NA
BRANCH  14  20
ATOM     20  O   UNL     1      10.782   1.472   3.811  1.00  0.00    -0.478 OA
BRANCH  20  21
ATOM     21  C   UNL     1      10.978   1.248   5.214  1.00  0.00     0.228 C 
ATOM     22  C   UNL     1       9.862   1.937   5.980  1.00  0.00     0.049 C 
ENDBRANCH  20  21
ENDBRANCH  14  20
ENDBRANCH  11  13
ENDBRANCH   7  11
ENDBRANCH   4   6
ENDBRANCH   3   4
ENDBRANCH   2   3
ENDBRANCH   1   2
BRANCH   1  23
ATOM     23  O   UNL     1      12.594  -2.969  -2.989  1.00  0.00    -0.374 OA
BRANCH  23  24
ATOM     24  C   UNL     1      11.377  -3.697  -3.150  1.00  0.00     0.202 C 
BRANCH  24  25
ATOM     25  C   UNL     1      11.334  -5.119  -2.577  1.00  0.00     0.261 C 
BRANCH  25  26
ATOM     26  O   UNL     1      11.483  -5.180  -1.147  1.00  0.00    -0.460 OA
BRANCH  26  27
ATOM     27  C   UNL     1      12.614  -5.801  -0.726  1.00  0.00     0.338 C 
ATOM     28  O   UNL     1      13.489  -6.287  -1.424  1.00  0.00    -0.246 OA
BRANCH  27  29
ATOM     29  C   UNL     1      12.745  -5.729   0.741  1.00  0.00     0.060 A 
ATOM     30  C   UNL     1      13.881  -5.101   1.266  1.00  0.00     0.016 A 
ATOM     31  C   UNL     1      11.863  -6.414   1.579  1.00  0.00     0.016 A 
ATOM     32  C   UNL     1      14.167  -5.200   2.627  1.00  0.00     0.010 A 
ATOM     33  C   UNL     1      12.157  -6.518   2.944  1.00  0.00     0.010 A 
ATOM     34  C   UNL     1      13.331  -5.948   3.467  1.00  0.00    -0.014 A 
BRANCH  34  35
ATOM     35  C   UNL     1      13.749  -6.231   4.864  1.00  0.00     0.031 A 
ATOM     36  C   UNL     1      14.374  -7.560   5.197  1.00  0.00     0.074 A 
ATOM     37  C   UNL     1      13.570  -5.312   5.830  1.00  0.00     0.049 A 
ATOM     38  N   UNL     1      14.789  -8.012   6.353  1.00  0.00    -0.248 NA
ATOM     39  C   UNL     1      14.558  -8.503   4.082  1.00  0.00     0.031 C 
ATOM     40  C   UNL     1      12.973  -3.992   5.638  1.00  0.00     0.029 A 
ATOM     41  N   UNL     1      13.850  -5.365   7.173  1.00  0.00    -0.354 N 
ATOM     42  C   UNL     1      15.269  -9.294   6.110  1.00  0.00     0.074 A 
ATOM     43  C   UNL     1      15.078  -9.556   4.699  1.00  0.00     0.031 C 
ATOM     44  C   UNL     1      12.896  -3.373   6.828  1.00  0.00     0.029 A 
ATOM     45  C   UNL     1      13.426  -4.257   7.866  1.00  0.00     0.049 A 
ATOM     46  H   UNL     1      14.311  -6.124   7.599  1.00  0.00     0.167 HD
ATOM     47  C   UNL     1      15.840 -10.166   6.975  1.00  0.00     0.034 A 
ATOM     48  C   UNL     1      13.446  -3.991   9.187  1.00  0.00     0.034 A 
ATOM     49  C   UNL     1      16.050  -9.903   8.374  1.00  0.00     0.049 A 
ATOM     50  C   UNL     1      14.072  -4.984  10.133  1.00  0.00     0.074 A 
ATOM     51  C   UNL     1      16.650 -10.715   9.322  1.00  0.00     0.029 A 
ATOM     52  N   UNL     1      15.665  -8.744   9.027  1.00  0.00    -0.354 N 
ATOM     53  N   UNL     1      14.636  -6.137   9.865  1.00  0.00    -0.248 NA
ATOM     54  C   UNL     1      14.100  -4.622  11.558  1.00  0.00     0.031 C 
ATOM     55  C   UNL     1      16.620 -10.047  10.552  1.00  0.00     0.029 A 
ATOM     56  C   UNL     1      16.009  -8.818  10.367  1.00  0.00     0.049 A 
ATOM     57  H   UNL     1      15.212  -7.980   8.602  1.00  0.00     0.167 HD
ATOM     58  C   UNL     1      15.111  -6.622  11.079  1.00  0.00     0.074 A 
ATOM     59  C   UNL     1      14.789  -5.628  12.081  1.00  0.00     0.031 C 
ATOM     60  C   UNL     1      15.739  -7.795  11.344  1.00  0.00     0.034 A 
BRANCH  47  61
ATOM     61  C   UNL     1      16.335 -11.476   6.421  1.00  0.00     0.023 A 
ATOM     62  C   UNL     1      17.534 -11.496   5.680  1.00  0.00     0.012 A 
ATOM     63  C   UNL     1      15.662 -12.684   6.682  1.00  0.00     0.148 A 
ATOM     64  C   UNL     1      18.045 -12.697   5.189  1.00  0.00     0.002 A 
ATOM     65  C   UNL     1      16.195 -13.882   6.217  1.00  0.00     0.091 A 
ATOM     66  F   UNL     1      14.510 -12.641   7.368  1.00  0.00    -0.205 F 
ATOM     67  C   UNL     1      17.381 -13.889   5.465  1.00  0.00     0.022 A 
BRANCH  65  68
ATOM     68  S   UNL     1      15.447 -15.475   6.579  1.00  0.00     0.127 S 
ATOM     69  O   UNL     1      14.825 -15.807   5.298  1.00  0.00    -0.237 OA
ATOM     70  O   UNL     1      16.610 -16.295   6.923  1.00  0.00    -0.237 OA
ATOM     71  O   UNL     1      14.527 -15.241   7.683  1.00  0.00    -0.744 OA
ENDBRANCH  65  68
ENDBRANCH  47  61
BRANCH  48  72
ATOM     72  C   UNL     1      12.891  -2.703   9.688  1.00  0.00     0.023 A 
ATOM     73  C   UNL     1      13.763  -1.719  10.191  1.00  0.00     0.012 A 
ATOM     74  C   UNL     1      11.509  -2.435   9.637  1.00  0.00     0.148 A 
ATOM     75  C   UNL     1      13.267  -0.502  10.659  1.00  0.00     0.002 A 
ATOM     76  C   UNL     1      11.027  -1.199  10.053  1.00  0.00     0.091 A 
ATOM     77  F   UNL     1      10.690  -3.393   9.179  1.00  0.00    -0.205 F 
ATOM     78  C   UNL     1      11.902  -0.236  10.578  1.00  0.00     0.022 A 
BRANCH  76  79
ATOM     79  S   UNL     1       9.305  -0.731   9.849  1.00  0.00     0.127 S 
ATOM     80  O   UNL     1       8.789  -0.881  11.206  1.00  0.00    -0.237 OA
ATOM     81  O   UNL     1       9.416   0.652   9.381  1.00  0.00    -0.237 OA
ATOM     82  O   UNL     1       8.769  -1.650   8.853  1.00  0.00    -0.744 OA
ENDBRANCH  76  79
ENDBRANCH  48  72
BRANCH  60  83
ATOM     83  C   UNL     1      16.144  -8.069  12.769  1.00  0.00     0.023 A 
ATOM     84  C   UNL     1      15.161  -8.433  13.710  1.00  0.00     0.012 A 
ATOM     85  C   UNL     1      17.498  -8.046  13.157  1.00  0.00     0.148 A 
ATOM     86  C   UNL     1      15.516  -8.746  15.022  1.00  0.00     0.002 A 
ATOM     87  C   UNL     1      17.849  -8.397  14.456  1.00  0.00     0.091 A 
ATOM     88  F   UNL     1      18.418  -7.677  12.254  1.00  0.00    -0.205 F 
ATOM     89  C   UNL     1      16.859  -8.739  15.392  1.00  0.00     0.022 A 
BRANCH  87  90
ATOM     90  S   UNL     1      19.562  -8.498  14.992  1.00  0.00     0.127 S 
ATOM     91  O   UNL     1      19.712  -7.255  15.746  1.00  0.00    -0.237 OA
ATOM     92  O   UNL     1      19.566  -9.711  15.810  1.00  0.00    -0.237 OA
ATOM     93  O   UNL     1      20.352  -8.595  13.772  1.00  0.00    -0.744 OA
ENDBRANCH  87  90
ENDBRANCH  60  83
ENDBRANCH  34  35
ENDBRANCH  27  29
ENDBRANCH  26  27
ENDBRANCH  25  26
ENDBRANCH  24  25
ENDBRANCH  23  24
ENDBRANCH   1  23
TORSDOF 21
