REMARK SMILES CCCC[C@H](C(=O)OCCOCCOC(=O)c1ccc(-c2c3nc(c(-c4cccc(S(=O)(=O)[O-])c4F)c4ccc([nH]4)c(-c4cccc(S(=O)(=O)[O-])c4F)c4nc(c(-c5cccc(S(=O)(=O)[O-])c5F)c5ccc2[nH]5)C=C4)C=C3)cc1)[C@](C)(O)c1ccc(Cl)c(Cl)c1
REMARK SMILES IDX 11 1 10 2 9 3 8 4 6 5 7 6 5 7 4 8 3 9 2 10 1 11 80 12 81 13
REMARK SMILES IDX 82 14 83 16 84 17 90 18 85 19 88 20 86 21 89 22 87 23 12 24
REMARK SMILES IDX 13 25 14 26 15 27 16 28 17 29 18 30 79 31 19 32 78 33 20 34
REMARK SMILES IDX 21 35 22 36 72 37 23 38 77 39 71 40 73 41 24 42 76 43 70 44
REMARK SMILES IDX 69 45 25 47 57 48 37 49 56 50 38 51 41 52 55 53 74 54 39 55
REMARK SMILES IDX 40 56 54 58 75 59 42 60 26 61 27 62 35 63 28 64 30 65 36 66
REMARK SMILES IDX 29 67 31 68 32 69 33 70 34 71 58 72 59 73 67 74 60 75 62 76
REMARK SMILES IDX 68 77 61 78 63 79 64 80 65 81 66 82 43 83 44 84 52 85 45 86
REMARK SMILES IDX 47 87 53 88 46 89 48 90 49 91 50 92 51 93
REMARK H PARENT 82 15 73 46 41 57
REMARK Flexibility Score: inf
ROOT
ATOM      1  O   UNL     1      -3.347   0.166   5.324  1.00  0.00    -0.374 OA
ENDROOT
BRANCH   1   2
ATOM      2  C   UNL     1      -3.913  -1.025   5.876  1.00  0.00     0.202 C 
BRANCH   2   3
ATOM      3  C   UNL     1      -4.348  -2.064   4.841  1.00  0.00     0.261 C 
BRANCH   3   4
ATOM      4  O   UNL     1      -3.182  -2.716   4.314  1.00  0.00    -0.463 OA
BRANCH   4   5
ATOM      5  C   UNL     1      -2.924  -2.580   2.999  1.00  0.00     0.312 C 
ATOM      6  O   UNL     1      -3.672  -2.022   2.199  1.00  0.00    -0.252 OA
BRANCH   5   7
ATOM      7  C   UNL     1      -1.524  -3.041   2.600  1.00  0.00     0.135 C 
BRANCH   7   8
ATOM      8  C   UNL     1      -0.527  -3.506   3.708  1.00  0.00     0.019 C 
BRANCH   8   9
ATOM      9  C   UNL     1      -0.967  -4.237   4.987  1.00  0.00     0.001 C 
BRANCH   9  10
ATOM     10  C   UNL     1      -1.928  -5.412   4.842  1.00  0.00    -0.003 C 
ATOM     11  C   UNL     1      -1.222  -6.723   4.552  1.00  0.00     0.004 C 
ENDBRANCH   9  10
ENDBRANCH   8   9
ENDBRANCH   7   8
BRANCH   7  12
ATOM     12  C   UNL     1      -1.508  -3.746   1.176  1.00  0.00     0.100 C 
ATOM     13  C   UNL     1      -0.787  -2.825   0.159  1.00  0.00     0.048 C 
BRANCH  12  14
ATOM     14  O   UNL     1      -2.835  -3.860   0.623  1.00  0.00    -0.385 OA
ATOM     15  H   UNL     1      -2.788  -4.293  -0.244  1.00  0.00     0.211 HD
ENDBRANCH  12  14
BRANCH  12  16
ATOM     16  C   UNL     1      -0.902  -5.152   1.116  1.00  0.00    -0.014 A 
ATOM     17  C   UNL     1      -1.716  -6.289   0.962  1.00  0.00     0.008 A 
ATOM     18  C   UNL     1       0.488  -5.364   1.197  1.00  0.00     0.028 A 
ATOM     19  C   UNL     1      -1.172  -7.578   0.931  1.00  0.00     0.022 A 
ATOM     20  C   UNL     1       1.035  -6.654   1.209  1.00  0.00     0.060 A 
ATOM     21  C   UNL     1       0.203  -7.766   1.075  1.00  0.00     0.059 A 
ATOM     22  Cl  UNL     1       2.745  -6.790   1.429  1.00  0.00    -0.083 Cl
ATOM     23  Cl  UNL     1       0.805  -9.382   1.085  1.00  0.00    -0.083 Cl
ENDBRANCH  12  16
ENDBRANCH   7  12
ENDBRANCH   5   7
ENDBRANCH   4   5
ENDBRANCH   3   4
ENDBRANCH   2   3
ENDBRANCH   1   2
BRANCH   1  24
ATOM     24  C   UNL     1      -1.979   0.109   4.920  1.00  0.00     0.202 C 
BRANCH  24  25
ATOM     25  C   UNL     1      -0.943   0.295   6.034  1.00  0.00     0.261 C 
BRANCH  25  26
ATOM     26  O   UNL     1      -0.849  -0.864   6.879  1.00  0.00    -0.460 OA
BRANCH  26  27
ATOM     27  C   UNL     1      -1.423  -0.729   8.099  1.00  0.00     0.338 C 
ATOM     28  O   UNL     1      -1.976   0.261   8.546  1.00  0.00    -0.246 OA
BRANCH  27  29
ATOM     29  C   UNL     1      -1.445  -2.034   8.787  1.00  0.00     0.060 A 
ATOM     30  C   UNL     1      -2.668  -2.475   9.310  1.00  0.00     0.016 A 
ATOM     31  C   UNL     1      -0.277  -2.770   8.991  1.00  0.00     0.016 A 
ATOM     32  C   UNL     1      -2.719  -3.632  10.086  1.00  0.00     0.010 A 
ATOM     33  C   UNL     1      -0.329  -3.923   9.777  1.00  0.00     0.010 A 
ATOM     34  C   UNL     1      -1.541  -4.337  10.359  1.00  0.00    -0.014 A 
BRANCH  34  35
ATOM     35  C   UNL     1      -1.530  -5.413  11.378  1.00  0.00     0.031 A 
ATOM     36  C   UNL     1      -1.007  -5.098  12.752  1.00  0.00     0.074 A 
ATOM     37  C   UNL     1      -1.939  -6.657  11.073  1.00  0.00     0.049 A 
ATOM     38  N   UNL     1      -0.777  -5.903  13.755  1.00  0.00    -0.248 NA
ATOM     39  C   UNL     1      -0.693  -3.686  13.028  1.00  0.00     0.031 C 
ATOM     40  C   UNL     1      -2.486  -7.075   9.784  1.00  0.00     0.029 A 
ATOM     41  N   UNL     1      -1.918  -7.807  11.822  1.00  0.00    -0.354 N 
ATOM     42  C   UNL     1      -0.253  -5.106  14.766  1.00  0.00     0.074 A 
ATOM     43  C   UNL     1      -0.200  -3.753  14.257  1.00  0.00     0.031 C 
ATOM     44  C   UNL     1      -2.710  -8.400   9.816  1.00  0.00     0.029 A 
ATOM     45  C   UNL     1      -2.289  -8.926  11.114  1.00  0.00     0.049 A 
ATOM     46  H   UNL     1      -1.662  -7.829  12.772  1.00  0.00     0.167 HD
ATOM     47  C   UNL     1       0.140  -5.467  16.010  1.00  0.00     0.034 A 
ATOM     48  C   UNL     1      -2.256 -10.228  11.463  1.00  0.00     0.034 A 
ATOM     49  C   UNL     1       0.063  -6.809  16.519  1.00  0.00     0.049 A 
ATOM     50  C   UNL     1      -1.780 -10.610  12.841  1.00  0.00     0.074 A 
ATOM     51  C   UNL     1       0.399  -7.270  17.779  1.00  0.00     0.029 A 
ATOM     52  N   UNL     1      -0.371  -7.905  15.791  1.00  0.00    -0.354 N 
ATOM     53  N   UNL     1      -1.381  -9.835  13.821  1.00  0.00    -0.248 NA
ATOM     54  C   UNL     1      -1.773 -12.043  13.173  1.00  0.00     0.031 C 
ATOM     55  C   UNL     1       0.189  -8.652  17.806  1.00  0.00     0.029 A 
ATOM     56  C   UNL     1      -0.305  -9.045  16.572  1.00  0.00     0.049 A 
ATOM     57  H   UNL     1      -0.681  -7.877  14.857  1.00  0.00     0.167 HD
ATOM     58  C   UNL     1      -1.120 -10.679  14.896  1.00  0.00     0.074 A 
ATOM     59  C   UNL     1      -1.412 -12.025  14.450  1.00  0.00     0.031 C 
ATOM     60  C   UNL     1      -0.670 -10.369  16.136  1.00  0.00     0.034 A 
BRANCH  47  61
ATOM     61  C   UNL     1       0.672  -4.391  16.918  1.00  0.00     0.023 A 
ATOM     62  C   UNL     1      -0.217  -3.456  17.486  1.00  0.00     0.012 A 
ATOM     63  C   UNL     1       2.038  -4.342  17.255  1.00  0.00     0.148 A 
ATOM     64  C   UNL     1       0.251  -2.470  18.354  1.00  0.00     0.002 A 
ATOM     65  C   UNL     1       2.490  -3.383  18.154  1.00  0.00     0.091 A 
ATOM     66  F   UNL     1       2.870  -5.225  16.685  1.00  0.00    -0.205 F 
ATOM     67  C   UNL     1       1.601  -2.441  18.696  1.00  0.00     0.022 A 
BRANCH  65  68
ATOM     68  S   UNL     1       4.196  -3.311  18.714  1.00  0.00     0.127 S 
ATOM     69  O   UNL     1       4.681  -2.114  18.029  1.00  0.00    -0.237 OA
ATOM     70  O   UNL     1       4.040  -3.164  20.162  1.00  0.00    -0.237 OA
ATOM     71  O   UNL     1       4.808  -4.564  18.295  1.00  0.00    -0.744 OA
ENDBRANCH  65  68
ENDBRANCH  47  61
BRANCH  48  72
ATOM     72  C   UNL     1      -2.708 -11.269  10.497  1.00  0.00     0.023 A 
ATOM     73  C   UNL     1      -3.895 -11.982  10.752  1.00  0.00     0.012 A 
ATOM     74  C   UNL     1      -1.979 -11.545   9.323  1.00  0.00     0.148 A 
ATOM     75  C   UNL     1      -4.334 -12.970   9.869  1.00  0.00     0.002 A 
ATOM     76  C   UNL     1      -2.452 -12.491   8.421  1.00  0.00     0.091 A 
ATOM     77  F   UNL     1      -0.842 -10.868   9.108  1.00  0.00    -0.205 F 
ATOM     78  C   UNL     1      -3.619 -13.217   8.700  1.00  0.00     0.022 A 
BRANCH  76  79
ATOM     79  S   UNL     1      -1.667 -12.782   6.832  1.00  0.00     0.127 S 
ATOM     80  O   UNL     1      -1.087 -14.108   7.024  1.00  0.00    -0.237 OA
ATOM     81  O   UNL     1      -2.811 -12.735   5.920  1.00  0.00    -0.237 OA
ATOM     82  O   UNL     1      -0.717 -11.691   6.660  1.00  0.00    -0.744 OA
ENDBRANCH  76  79
ENDBRANCH  48  72
BRANCH  60  83
ATOM     83  C   UNL     1      -0.520 -11.483  17.138  1.00  0.00     0.023 A 
ATOM     84  C   UNL     1       0.565 -12.375  17.041  1.00  0.00     0.012 A 
ATOM     85  C   UNL     1      -1.390 -11.565  18.244  1.00  0.00     0.148 A 
ATOM     86  C   UNL     1       0.772 -13.344  18.022  1.00  0.00     0.002 A 
ATOM     87  C   UNL     1      -1.150 -12.502  19.241  1.00  0.00     0.091 A 
ATOM     88  F   UNL     1      -2.425 -10.714  18.307  1.00  0.00    -0.205 F 
ATOM     89  C   UNL     1      -0.075 -13.398  19.128  1.00  0.00     0.022 A 
BRANCH  87  90
ATOM     90  S   UNL     1      -2.125 -12.580  20.748  1.00  0.00     0.127 S 
ATOM     91  O   UNL     1      -2.835 -13.847  20.578  1.00  0.00    -0.237 OA
ATOM     92  O   UNL     1      -1.092 -12.594  21.785  1.00  0.00    -0.237 OA
ATOM     93  O   UNL     1      -2.966 -11.391  20.747  1.00  0.00    -0.744 OA
ENDBRANCH  87  90
ENDBRANCH  60  83
ENDBRANCH  34  35
ENDBRANCH  27  29
ENDBRANCH  26  27
ENDBRANCH  25  26
ENDBRANCH  24  25
ENDBRANCH   1  24
TORSDOF 23
