REMARK SMILES C[C@H](NC(=O)N1CC[C@H](C(=O)OCCOCCOC(=O)c2ccc(-c3c4nc(c(-c5cccc(S(=O)(=O)[O-])c5F)c5ccc([nH]5)c(-c5cccc(S(=O)(=O)[O-])c5F)c5nc(c(-c6cccc(S(=O)(=O)[O-])c6F)c6ccc3[nH]6)C=C5)C=C4)cc2)[C@H]1C)c1ccsc1
REMARK SMILES IDX 15 1 14 2 13 3 12 4 10 5 11 6 9 7 6 8 7 9 84 10 8 11 85 12
REMARK SMILES IDX 4 13 3 14 5 16 2 17 1 18 86 19 87 20 90 21 88 22 89 23 16 24
REMARK SMILES IDX 17 25 18 26 19 27 20 28 21 29 22 30 83 31 23 32 82 33 24 34
REMARK SMILES IDX 25 35 26 36 76 37 27 38 81 39 75 40 77 41 28 42 80 43 74 44
REMARK SMILES IDX 73 45 29 47 61 48 41 49 60 50 42 51 45 52 59 53 78 54 43 55
REMARK SMILES IDX 44 56 58 58 79 59 46 60 30 61 31 62 39 63 32 64 34 65 40 66
REMARK SMILES IDX 33 67 35 68 36 69 37 70 38 71 62 72 63 73 71 74 64 75 66 76
REMARK SMILES IDX 72 77 65 78 67 79 68 80 69 81 70 82 47 83 48 84 56 85 49 86
REMARK SMILES IDX 51 87 57 88 50 89 52 90 53 91 54 92 55 93
REMARK H PARENT 3 15 77 46 45 57
REMARK Flexibility Score: inf
ROOT
ATOM      1  O   UNL     1       7.518   3.963   4.012  1.00  0.00    -0.374 OA
ENDROOT
BRANCH   1   2
ATOM      2  C   UNL     1       8.239   3.135   3.092  1.00  0.00     0.202 C 
BRANCH   2   3
ATOM      3  C   UNL     1       7.556   1.843   2.633  1.00  0.00     0.261 C 
BRANCH   3   4
ATOM      4  O   UNL     1       6.630   2.166   1.582  1.00  0.00    -0.463 OA
BRANCH   4   5
ATOM      5  C   UNL     1       5.340   1.776   1.766  1.00  0.00     0.311 C 
ATOM      6  O   UNL     1       4.954   1.012   2.639  1.00  0.00    -0.252 OA
BRANCH   5   7
ATOM      7  C   UNL     1       4.444   2.664   0.929  1.00  0.00     0.123 C 
ATOM      8  N   UNL     1       2.769   1.453  -0.245  1.00  0.00    -0.321 N 
ATOM      9  C   UNL     1       3.980   1.491  -1.060  1.00  0.00     0.122 C 
ATOM     10  C   UNL     1       2.972   2.226   1.002  1.00  0.00     0.098 C 
ATOM     11  C   UNL     1       4.755   2.684  -0.559  1.00  0.00     0.039 C 
ATOM     12  C   UNL     1       2.132   3.505   1.143  1.00  0.00     0.032 C 
BRANCH   8  13
ATOM     13  C   UNL     1       2.046   0.284  -0.307  1.00  0.00     0.318 C 
ATOM     14  N   UNL     1       0.696   0.342  -0.208  1.00  0.00    -0.331 N 
ATOM     15  H   UNL     1       0.234  -0.518  -0.085  1.00  0.00     0.165 HD
ATOM     16  O   UNL     1       2.550  -0.807  -0.567  1.00  0.00    -0.249 OA
BRANCH  14  17
ATOM     17  C   UNL     1      -0.146   1.510  -0.263  1.00  0.00     0.112 C 
ATOM     18  C   UNL     1      -0.005   2.278  -1.578  1.00  0.00     0.036 C 
BRANCH  17  19
ATOM     19  C   UNL     1      -1.592   1.206   0.063  1.00  0.00    -0.015 A 
ATOM     20  C   UNL     1      -2.263  -0.062   0.056  1.00  0.00     0.017 A 
ATOM     21  C   UNL     1      -2.476   2.208   0.441  1.00  0.00     0.070 A 
ATOM     22  C   UNL     1      -3.592   0.035   0.412  1.00  0.00     0.065 A 
ATOM     23  S   UNL     1      -4.053   1.641   0.754  1.00  0.00    -0.152 S 
ENDBRANCH  17  19
ENDBRANCH  14  17
ENDBRANCH   8  13
ENDBRANCH   5   7
ENDBRANCH   4   5
ENDBRANCH   3   4
ENDBRANCH   2   3
ENDBRANCH   1   2
BRANCH   1  24
ATOM     24  C   UNL     1       6.274   4.514   3.597  1.00  0.00     0.202 C 
BRANCH  24  25
ATOM     25  C   UNL     1       6.306   5.714   2.637  1.00  0.00     0.261 C 
BRANCH  25  26
ATOM     26  O   UNL     1       7.067   5.485   1.442  1.00  0.00    -0.460 OA
BRANCH  26  27
ATOM     27  C   UNL     1       8.263   6.122   1.418  1.00  0.00     0.338 C 
ATOM     28  O   UNL     1       8.714   6.878   2.271  1.00  0.00    -0.246 OA
BRANCH  27  29
ATOM     29  C   UNL     1       9.069   5.667   0.275  1.00  0.00     0.060 A 
ATOM     30  C   UNL     1      10.298   5.056   0.554  1.00  0.00     0.016 A 
ATOM     31  C   UNL     1       8.684   5.924  -1.043  1.00  0.00     0.016 A 
ATOM     32  C   UNL     1      11.166   4.729  -0.483  1.00  0.00     0.010 A 
ATOM     33  C   UNL     1       9.564   5.606  -2.083  1.00  0.00     0.010 A 
ATOM     34  C   UNL     1      10.822   5.039  -1.805  1.00  0.00    -0.014 A 
BRANCH  34  35
ATOM     35  C   UNL     1      11.842   4.895  -2.870  1.00  0.00     0.031 A 
ATOM     36  C   UNL     1      12.591   6.114  -3.334  1.00  0.00     0.074 A 
ATOM     37  C   UNL     1      12.112   3.689  -3.401  1.00  0.00     0.049 A 
ATOM     38  N   UNL     1      13.521   6.215  -4.248  1.00  0.00    -0.248 NA
ATOM     39  C   UNL     1      12.248   7.388  -2.682  1.00  0.00     0.031 C 
ATOM     40  C   UNL     1      11.457   2.437  -3.027  1.00  0.00     0.029 A 
ATOM     41  N   UNL     1      12.997   3.327  -4.385  1.00  0.00    -0.354 N 
ATOM     42  C   UNL     1      13.855   7.563  -4.301  1.00  0.00     0.074 A 
ATOM     43  C   UNL     1      13.021   8.244  -3.335  1.00  0.00     0.031 C 
ATOM     44  C   UNL     1      11.944   1.446  -3.793  1.00  0.00     0.029 A 
ATOM     45  C   UNL     1      12.929   1.997  -4.723  1.00  0.00     0.049 A 
ATOM     46  H   UNL     1      13.622   3.960  -4.809  1.00  0.00     0.167 HD
ATOM     47  C   UNL     1      14.784   8.175  -5.072  1.00  0.00     0.034 A 
ATOM     48  C   UNL     1      13.574   1.308  -5.685  1.00  0.00     0.034 A 
ATOM     49  C   UNL     1      15.627   7.492  -6.014  1.00  0.00     0.049 A 
ATOM     50  C   UNL     1      14.589   2.017  -6.543  1.00  0.00     0.074 A 
ATOM     51  C   UNL     1      16.631   8.017  -6.809  1.00  0.00     0.029 A 
ATOM     52  N   UNL     1      15.559   6.137  -6.299  1.00  0.00    -0.354 N 
ATOM     53  N   UNL     1      14.978   3.268  -6.498  1.00  0.00    -0.248 NA
ATOM     54  C   UNL     1      15.280   1.211  -7.561  1.00  0.00     0.031 C 
ATOM     55  C   UNL     1      17.154   6.983  -7.592  1.00  0.00     0.029 A 
ATOM     56  C   UNL     1      16.495   5.809  -7.265  1.00  0.00     0.049 A 
ATOM     57  H   UNL     1      14.937   5.502  -5.877  1.00  0.00     0.167 HD
ATOM     58  C   UNL     1      15.985   3.391  -7.451  1.00  0.00     0.074 A 
ATOM     59  C   UNL     1      16.155   2.082  -8.047  1.00  0.00     0.031 C 
ATOM     60  C   UNL     1      16.695   4.489  -7.807  1.00  0.00     0.034 A 
BRANCH  47  61
ATOM     61  C   UNL     1      14.957   9.662  -4.910  1.00  0.00     0.023 A 
ATOM     62  C   UNL     1      15.591  10.169  -3.757  1.00  0.00     0.012 A 
ATOM     63  C   UNL     1      14.546  10.552  -5.920  1.00  0.00     0.148 A 
ATOM     64  C   UNL     1      15.786  11.541  -3.599  1.00  0.00     0.002 A 
ATOM     65  C   UNL     1      14.781  11.914  -5.775  1.00  0.00     0.091 A 
ATOM     66  F   UNL     1      13.923  10.053  -6.998  1.00  0.00    -0.205 F 
ATOM     67  C   UNL     1      15.391  12.411  -4.612  1.00  0.00     0.022 A 
BRANCH  65  68
ATOM     68  S   UNL     1      14.377  13.107  -7.056  1.00  0.00     0.127 S 
ATOM     69  O   UNL     1      13.231  13.797  -6.466  1.00  0.00    -0.237 OA
ATOM     70  O   UNL     1      15.600  13.908  -7.129  1.00  0.00    -0.237 OA
ATOM     71  O   UNL     1      14.091  12.328  -8.253  1.00  0.00    -0.744 OA
ENDBRANCH  65  68
ENDBRANCH  47  61
BRANCH  48  72
ATOM     72  C   UNL     1      13.304  -0.147  -5.864  1.00  0.00     0.023 A 
ATOM     73  C   UNL     1      14.299  -1.087  -5.532  1.00  0.00     0.012 A 
ATOM     74  C   UNL     1      12.061  -0.602  -6.344  1.00  0.00     0.148 A 
ATOM     75  C   UNL     1      14.069  -2.453  -5.700  1.00  0.00     0.002 A 
ATOM     76  C   UNL     1      11.820  -1.966  -6.457  1.00  0.00     0.091 A 
ATOM     77  F   UNL     1      11.135   0.309  -6.673  1.00  0.00    -0.205 F 
ATOM     78  C   UNL     1      12.828  -2.893  -6.151  1.00  0.00     0.022 A 
BRANCH  76  79
ATOM     79  S   UNL     1      10.210  -2.623  -6.909  1.00  0.00     0.127 S 
ATOM     80  O   UNL     1      10.461  -3.128  -8.257  1.00  0.00    -0.237 OA
ATOM     81  O   UNL     1      10.009  -3.654  -5.891  1.00  0.00    -0.237 OA
ATOM     82  O   UNL     1       9.289  -1.498  -6.815  1.00  0.00    -0.744 OA
ENDBRANCH  76  79
ENDBRANCH  48  72
BRANCH  60  83
ATOM     83  C   UNL     1      17.760   4.328  -8.861  1.00  0.00     0.023 A 
ATOM     84  C   UNL     1      17.393   4.159 -10.210  1.00  0.00     0.012 A 
ATOM     85  C   UNL     1      19.124   4.436  -8.522  1.00  0.00     0.148 A 
ATOM     86  C   UNL     1      18.368   4.071 -11.203  1.00  0.00     0.002 A 
ATOM     87  C   UNL     1      20.087   4.396  -9.523  1.00  0.00     0.091 A 
ATOM     88  F   UNL     1      19.453   4.579  -7.230  1.00  0.00    -0.205 F 
ATOM     89  C   UNL     1      19.712   4.203 -10.862  1.00  0.00     0.022 A 
BRANCH  87  90
ATOM     90  S   UNL     1      21.834   4.655  -9.188  1.00  0.00     0.127 S 
ATOM     91  O   UNL     1      22.373   3.307  -9.362  1.00  0.00    -0.237 OA
ATOM     92  O   UNL     1      22.214   5.604 -10.235  1.00  0.00    -0.237 OA
ATOM     93  O   UNL     1      21.908   5.188  -7.834  1.00  0.00    -0.744 OA
ENDBRANCH  87  90
ENDBRANCH  60  83
ENDBRANCH  34  35
ENDBRANCH  27  29
ENDBRANCH  26  27
ENDBRANCH  25  26
ENDBRANCH  24  25
ENDBRANCH   1  24
TORSDOF 20
