REMARK SMILES CC[NH+]1CCC2(CC1)OC[C@@H](C(=O)OCCOCCOC(=O)c1ccc(-c3c4nc(c(-c5cccc(S(=O)(=O)[O-])c5F)c5ccc([nH]5)c(-c5cccc(S(=O)(=O)[O-])c5F)c5nc(c(-c6cccc(S(=O)(=O)[O-])c6F)c6ccc3[nH]6)C=C5)C=C4)cc1)N2C(=O)c1ccc(Cl)c([N+](=O)[O-])c1
REMARK SMILES IDX 17 1 16 2 15 3 14 4 12 5 13 6 11 7 3 8 4 9 8 10 5 12 7 13
REMARK SMILES IDX 6 14 9 15 86 16 10 17 2 18 1 19 87 20 88 21 89 22 90 23
REMARK SMILES IDX 98 24 91 25 94 26 92 27 93 28 95 29 96 30 97 31 18 32 19 33
REMARK SMILES IDX 20 34 21 35 22 36 23 37 24 38 85 39 25 40 84 41 26 42 27 43
REMARK SMILES IDX 28 44 78 45 29 46 83 47 77 48 79 49 30 50 82 51 76 52 75 53
REMARK SMILES IDX 31 55 63 56 43 57 62 58 44 59 47 60 61 61 80 62 45 63 46 64
REMARK SMILES IDX 60 66 81 67 48 68 32 69 33 70 41 71 34 72 36 73 42 74 35 75
REMARK SMILES IDX 37 76 38 77 39 78 40 79 64 80 65 81 73 82 66 83 68 84 74 85
REMARK SMILES IDX 67 86 69 87 70 88 71 89 72 90 49 91 50 92 58 93 51 94 53 95
REMARK SMILES IDX 59 96 52 97 54 98 55 99 56 100 57 101
REMARK H PARENT 3 11 79 54 47 65
REMARK Flexibility Score: inf
ROOT
ATOM      1  O   UNL     1       7.024   5.226   6.169  1.00  0.00    -0.374 OA
ENDROOT
BRANCH   1   2
ATOM      2  C   UNL     1       7.432   3.882   6.404  1.00  0.00     0.202 C 
BRANCH   2   3
ATOM      3  C   UNL     1       6.366   2.858   6.822  1.00  0.00     0.261 C 
BRANCH   3   4
ATOM      4  O   UNL     1       5.242   2.732   5.928  1.00  0.00    -0.462 OA
BRANCH   4   5
ATOM      5  C   UNL     1       4.106   3.318   6.384  1.00  0.00     0.331 C 
ATOM      6  O   UNL     1       4.029   3.946   7.441  1.00  0.00    -0.250 OA
BRANCH   5   7
ATOM      7  C   UNL     1       2.853   3.092   5.538  1.00  0.00     0.224 C 
ATOM      8  N   UNL     1       0.343   1.025   1.492  1.00  0.00    -0.335 N 
ATOM      9  C   UNL     1      -0.188   2.218   2.132  1.00  0.00     0.267 C 
ATOM     10  C   UNL     1       1.148   0.082   2.263  1.00  0.00     0.267 C 
ATOM     11  H   UNL     1       1.073   1.432   0.907  1.00  0.00     0.348 HD
ATOM     12  C   UNL     1       0.276   2.618   3.524  1.00  0.00     0.120 C 
ATOM     13  C   UNL     1       1.339   0.333   3.743  1.00  0.00     0.120 C 
ATOM     14  C   UNL     1       1.390   1.788   4.168  1.00  0.00     0.155 C 
ATOM     15  O   UNL     1       0.949   1.748   5.567  1.00  0.00    -0.352 OA
ATOM     16  N   UNL     1       2.709   2.459   4.226  1.00  0.00    -0.293 N 
ATOM     17  C   UNL     1       2.014   2.179   6.401  1.00  0.00     0.200 C 
BRANCH   8  18
ATOM     18  C   UNL     1      -0.671   0.357   0.660  1.00  0.00     0.258 C 
ATOM     19  C   UNL     1      -0.067  -0.427  -0.497  1.00  0.00     0.071 C 
ENDBRANCH   8  18
BRANCH  16  20
ATOM     20  C   UNL     1       3.474   2.979   3.196  1.00  0.00     0.257 C 
ATOM     21  O   UNL     1       4.245   3.922   3.352  1.00  0.00    -0.269 OA
BRANCH  20  22
ATOM     22  C   UNL     1       3.394   2.498   1.815  1.00  0.00     0.047 A 
ATOM     23  C   UNL     1       4.204   1.450   1.365  1.00  0.00     0.016 A 
ATOM     24  C   UNL     1       2.657   3.253   0.905  1.00  0.00     0.101 A 
ATOM     25  C   UNL     1       4.183   1.094   0.008  1.00  0.00     0.028 A 
ATOM     26  C   UNL     1       2.600   2.853  -0.438  1.00  0.00     0.288 A 
ATOM     27  C   UNL     1       3.365   1.780  -0.902  1.00  0.00     0.118 A 
ATOM     28  Cl  UNL     1       3.426   1.283  -2.553  1.00  0.00    -0.077 Cl
BRANCH  26  29
ATOM     29  N   UNL     1       1.691   3.585  -1.305  1.00  0.00     0.064 N 
ATOM     30  O   UNL     1       0.942   2.940  -2.049  1.00  0.00    -0.258 OA
ATOM     31  O   UNL     1       1.669   4.819  -1.180  1.00  0.00    -0.258 OA
ENDBRANCH  26  29
ENDBRANCH  20  22
ENDBRANCH  16  20
ENDBRANCH   5   7
ENDBRANCH   4   5
ENDBRANCH   3   4
ENDBRANCH   2   3
ENDBRANCH   1   2
BRANCH   1  32
ATOM     32  C   UNL     1       6.303   5.486   4.963  1.00  0.00     0.202 C 
BRANCH  32  33
ATOM     33  C   UNL     1       7.054   5.272   3.640  1.00  0.00     0.261 C 
BRANCH  33  34
ATOM     34  O   UNL     1       7.375   3.887   3.401  1.00  0.00    -0.460 OA
BRANCH  34  35
ATOM     35  C   UNL     1       8.674   3.641   3.120  1.00  0.00     0.338 C 
ATOM     36  O   UNL     1       9.560   4.467   2.931  1.00  0.00    -0.246 OA
BRANCH  35  37
ATOM     37  C   UNL     1       8.961   2.202   3.264  1.00  0.00     0.060 A 
ATOM     38  C   UNL     1       9.959   1.833   4.175  1.00  0.00     0.016 A 
ATOM     39  C   UNL     1       8.339   1.239   2.466  1.00  0.00     0.016 A 
ATOM     40  C   UNL     1      10.384   0.508   4.247  1.00  0.00     0.010 A 
ATOM     41  C   UNL     1       8.771  -0.093   2.539  1.00  0.00     0.010 A 
ATOM     42  C   UNL     1       9.826  -0.457   3.396  1.00  0.00    -0.014 A 
BRANCH  42  43
ATOM     43  C   UNL     1      10.474  -1.791   3.305  1.00  0.00     0.031 A 
ATOM     44  C   UNL     1      11.416  -2.073   2.162  1.00  0.00     0.074 A 
ATOM     45  C   UNL     1      10.274  -2.727   4.251  1.00  0.00     0.049 A 
ATOM     46  N   UNL     1      12.146  -3.134   1.937  1.00  0.00    -0.248 NA
ATOM     47  C   UNL     1      11.554  -1.021   1.141  1.00  0.00     0.031 C 
ATOM     48  C   UNL     1       9.384  -2.591   5.402  1.00  0.00     0.029 A 
ATOM     49  N   UNL     1      10.805  -3.987   4.384  1.00  0.00    -0.354 N 
ATOM     50  C   UNL     1      12.816  -2.888   0.744  1.00  0.00     0.074 A 
ATOM     51  C   UNL     1      12.390  -1.585   0.281  1.00  0.00     0.031 C 
ATOM     52  C   UNL     1       9.416  -3.730   6.115  1.00  0.00     0.029 A 
ATOM     53  C   UNL     1      10.323  -4.679   5.469  1.00  0.00     0.049 A 
ATOM     54  H   UNL     1      11.470  -4.360   3.760  1.00  0.00     0.167 HD
ATOM     55  C   UNL     1      13.724  -3.661   0.104  1.00  0.00     0.034 A 
ATOM     56  C   UNL     1      10.579  -5.934   5.892  1.00  0.00     0.034 A 
ATOM     57  C   UNL     1      14.182  -4.939   0.576  1.00  0.00     0.049 A 
ATOM     58  C   UNL     1      11.593  -6.774   5.158  1.00  0.00     0.074 A 
ATOM     59  C   UNL     1      15.149  -5.761   0.024  1.00  0.00     0.029 A 
ATOM     60  N   UNL     1      13.702  -5.585   1.702  1.00  0.00    -0.354 N 
ATOM     61  N   UNL     1      12.331  -6.460   4.121  1.00  0.00    -0.248 NA
ATOM     62  C   UNL     1      11.839  -8.130   5.677  1.00  0.00     0.031 C 
ATOM     63  C   UNL     1      15.241  -6.916   0.808  1.00  0.00     0.029 A 
ATOM     64  C   UNL     1      14.342  -6.803   1.856  1.00  0.00     0.049 A 
ATOM     65  H   UNL     1      13.009  -5.231   2.305  1.00  0.00     0.167 HD
ATOM     66  C   UNL     1      13.151  -7.560   3.887  1.00  0.00     0.074 A 
ATOM     67  C   UNL     1      12.835  -8.541   4.903  1.00  0.00     0.031 C 
ATOM     68  C   UNL     1      14.069  -7.747   2.908  1.00  0.00     0.034 A 
BRANCH  55  69
ATOM     69  C   UNL     1      14.328  -3.127  -1.166  1.00  0.00     0.023 A 
ATOM     70  C   UNL     1      15.316  -2.125  -1.094  1.00  0.00     0.012 A 
ATOM     71  C   UNL     1      13.982  -3.673  -2.417  1.00  0.00     0.148 A 
ATOM     72  C   UNL     1      15.939  -1.661  -2.252  1.00  0.00     0.002 A 
ATOM     73  C   UNL     1      14.633  -3.232  -3.562  1.00  0.00     0.091 A 
ATOM     74  F   UNL     1      13.022  -4.608  -2.462  1.00  0.00    -0.205 F 
ATOM     75  C   UNL     1      15.607  -2.222  -3.482  1.00  0.00     0.022 A 
BRANCH  73  76
ATOM     76  S   UNL     1      14.327  -3.942  -5.183  1.00  0.00     0.127 S 
ATOM     77  O   UNL     1      13.614  -2.855  -5.851  1.00  0.00    -0.237 OA
ATOM     78  O   UNL     1      15.684  -4.178  -5.678  1.00  0.00    -0.237 OA
ATOM     79  O   UNL     1      13.548  -5.150  -4.951  1.00  0.00    -0.744 OA
ENDBRANCH  73  76
ENDBRANCH  55  69
BRANCH  56  80
ATOM     80  C   UNL     1       9.895  -6.466   7.105  1.00  0.00     0.023 A 
ATOM     81  C   UNL     1      10.636  -6.706   8.278  1.00  0.00     0.012 A 
ATOM     82  C   UNL     1       8.513  -6.736   7.099  1.00  0.00     0.148 A 
ATOM     83  C   UNL     1      10.019  -7.235   9.413  1.00  0.00     0.002 A 
ATOM     84  C   UNL     1       7.894  -7.210   8.250  1.00  0.00     0.091 A 
ATOM     85  F   UNL     1       7.828  -6.528   5.966  1.00  0.00    -0.205 F 
ATOM     86  C   UNL     1       8.648  -7.477   9.403  1.00  0.00     0.022 A 
BRANCH  84  87
ATOM     87  S   UNL     1       6.113  -7.418   8.352  1.00  0.00     0.127 S 
ATOM     88  O   UNL     1       5.969  -8.862   8.196  1.00  0.00    -0.237 OA
ATOM     89  O   UNL     1       5.820  -6.909   9.693  1.00  0.00    -0.237 OA
ATOM     90  O   UNL     1       5.570  -6.599   7.276  1.00  0.00    -0.744 OA
ENDBRANCH  84  87
ENDBRANCH  56  80
BRANCH  68  91
ATOM     91  C   UNL     1      14.830  -9.048   2.890  1.00  0.00     0.023 A 
ATOM     92  C   UNL     1      14.184 -10.228   2.473  1.00  0.00     0.012 A 
ATOM     93  C   UNL     1      16.205  -9.086   3.200  1.00  0.00     0.148 A 
ATOM     94  C   UNL     1      14.885 -11.430   2.391  1.00  0.00     0.002 A 
ATOM     95  C   UNL     1      16.908 -10.279   3.074  1.00  0.00     0.091 A 
ATOM     96  F   UNL     1      16.800  -7.957   3.613  1.00  0.00    -0.205 F 
ATOM     97  C   UNL     1      16.248 -11.454   2.679  1.00  0.00     0.022 A 
BRANCH  95  98
ATOM     98  S   UNL     1      18.683 -10.379   3.334  1.00  0.00     0.127 S 
ATOM     99  O   UNL     1      18.756 -11.020   4.646  1.00  0.00    -0.237 OA
ATOM    100  O   UNL     1      19.117 -11.221   2.219  1.00  0.00    -0.237 OA
ATOM    101  O   UNL     1      19.171  -9.007   3.276  1.00  0.00    -0.744 OA
ENDBRANCH  95  98
ENDBRANCH  68  91
ENDBRANCH  42  43
ENDBRANCH  35  37
ENDBRANCH  34  35
ENDBRANCH  33  34
ENDBRANCH  32  33
ENDBRANCH   1  32
TORSDOF 21
