REMARK SMILES C[C@@H]1CCCN(c2ccc(NC(=O)Cc3cccs3)c(C(=O)OCCOCCOC(=O)c3ccc(-c4c5nc(c(-c6cccc(S(=O)(=O)[O-])c6F)c6ccc([nH]6)c(-c6cccc(S(=O)(=O)[O-])c6F)c6nc(c(-c7cccc(S(=O)(=O)[O-])c7F)c7ccc4[nH]7)C=C6)C=C5)cc3)c2)C1
REMARK SMILES IDX 26 1 25 2 24 3 23 4 21 5 22 6 20 7 7 8 8 9 95 10 9 11 10 12
REMARK SMILES IDX 6 13 1 14 2 15 3 16 96 17 4 18 5 19 11 20 12 21 13 23 14 24
REMARK SMILES IDX 15 25 16 26 19 27 17 28 18 29 27 30 28 31 29 32 30 33 31 34
REMARK SMILES IDX 32 35 33 36 94 37 34 38 93 39 35 40 36 41 37 42 87 43 38 44
REMARK SMILES IDX 92 45 86 46 88 47 39 48 91 49 85 50 84 51 40 53 72 54 52 55
REMARK SMILES IDX 71 56 53 57 56 58 70 59 89 60 54 61 55 62 69 64 90 65 57 66
REMARK SMILES IDX 41 67 42 68 50 69 43 70 45 71 51 72 44 73 46 74 47 75 48 76
REMARK SMILES IDX 49 77 73 78 74 79 82 80 75 81 77 82 83 83 76 84 78 85 79 86
REMARK SMILES IDX 80 87 81 88 58 89 59 90 67 91 60 92 62 93 68 94 61 95 63 96
REMARK SMILES IDX 64 97 65 98 66 99
REMARK H PARENT 11 22 88 52 56 63
REMARK Flexibility Score: inf
ROOT
ATOM      1  O   UNL     1       3.090   2.707  -6.843  1.00  0.00    -0.374 OA
ENDROOT
BRANCH   1   2
ATOM      2  C   UNL     1       3.434   1.322  -6.794  1.00  0.00     0.202 C 
BRANCH   2   3
ATOM      3  C   UNL     1       4.447   0.930  -5.715  1.00  0.00     0.261 C 
BRANCH   3   4
ATOM      4  O   UNL     1       3.916   1.151  -4.397  1.00  0.00    -0.460 OA
BRANCH   4   5
ATOM      5  C   UNL     1       4.443   2.202  -3.726  1.00  0.00     0.340 C 
ATOM      6  O   UNL     1       5.371   2.907  -4.101  1.00  0.00    -0.246 OA
BRANCH   5   7
ATOM      7  C   UNL     1       3.647   2.526  -2.511  1.00  0.00     0.085 A 
ATOM      8  C   UNL     1       2.112   1.800  -0.754  1.00  0.00     0.038 A 
ATOM      9  C   UNL     1       2.153   3.096  -0.242  1.00  0.00     0.028 A 
ATOM     10  C   UNL     1       2.914   1.516  -1.864  1.00  0.00     0.043 A 
ATOM     11  C   UNL     1       2.887   4.109  -0.869  1.00  0.00     0.029 A 
ATOM     12  C   UNL     1       3.565   3.865  -2.061  1.00  0.00     0.055 A 
BRANCH   8  13
ATOM     13  N   UNL     1       1.296   0.834  -0.211  1.00  0.00    -0.371 N 
ATOM     14  C   UNL     1      -2.434   0.154   0.112  1.00  0.00     0.009 C 
ATOM     15  C   UNL     1      -0.983  -0.051  -0.319  1.00  0.00     0.005 C 
ATOM     16  C   UNL     1      -0.445  -1.390   0.208  1.00  0.00     0.007 C 
ATOM     17  C   UNL     1      -0.094   1.118   0.144  1.00  0.00     0.119 C 
ATOM     18  C   UNL     1       1.022  -1.585  -0.176  1.00  0.00     0.022 C 
ATOM     19  C   UNL     1       1.874  -0.410   0.290  1.00  0.00     0.116 C 
ENDBRANCH   8  13
BRANCH  12  20
ATOM     20  N   UNL     1       4.077   4.891  -2.892  1.00  0.00    -0.325 N 
ATOM     21  C   UNL     1       3.846   6.227  -3.027  1.00  0.00     0.229 C 
ATOM     22  H   UNL     1       4.760   4.561  -3.520  1.00  0.00     0.169 HD
ATOM     23  O   UNL     1       4.386   6.793  -3.988  1.00  0.00    -0.274 OA
BRANCH  21  24
ATOM     24  C   UNL     1       3.008   7.049  -2.075  1.00  0.00     0.147 C 
BRANCH  24  25
ATOM     25  C   UNL     1       1.518   6.862  -2.193  1.00  0.00     0.014 A 
ATOM     26  C   UNL     1       0.752   5.807  -2.657  1.00  0.00     0.016 A 
ATOM     27  S   UNL     1       0.506   8.129  -1.606  1.00  0.00    -0.148 S 
ATOM     28  C   UNL     1      -0.646   6.007  -2.458  1.00  0.00     0.012 A 
ATOM     29  C   UNL     1      -0.917   7.239  -1.913  1.00  0.00     0.065 A 
ENDBRANCH  24  25
ENDBRANCH  21  24
ENDBRANCH  12  20
ENDBRANCH   5   7
ENDBRANCH   4   5
ENDBRANCH   3   4
ENDBRANCH   2   3
ENDBRANCH   1   2
BRANCH   1  30
ATOM     30  C   UNL     1       2.058   3.142  -5.955  1.00  0.00     0.202 C 
BRANCH  30  31
ATOM     31  C   UNL     1       0.620   2.866  -6.411  1.00  0.00     0.261 C 
BRANCH  31  32
ATOM     32  O   UNL     1       0.311   1.461  -6.378  1.00  0.00    -0.460 OA
BRANCH  32  33
ATOM     33  C   UNL     1       0.188   0.872  -7.590  1.00  0.00     0.338 C 
ATOM     34  O   UNL     1       0.222   1.424  -8.684  1.00  0.00    -0.246 OA
BRANCH  33  35
ATOM     35  C   UNL     1       0.186  -0.596  -7.444  1.00  0.00     0.060 A 
ATOM     36  C   UNL     1       1.069  -1.328  -8.249  1.00  0.00     0.016 A 
ATOM     37  C   UNL     1      -0.701  -1.252  -6.588  1.00  0.00     0.016 A 
ATOM     38  C   UNL     1       1.031  -2.720  -8.243  1.00  0.00     0.010 A 
ATOM     39  C   UNL     1      -0.742  -2.651  -6.588  1.00  0.00     0.010 A 
ATOM     40  C   UNL     1       0.097  -3.390  -7.443  1.00  0.00    -0.014 A 
BRANCH  40  41
ATOM     41  C   UNL     1      -0.099  -4.852  -7.606  1.00  0.00     0.031 A 
ATOM     42  C   UNL     1      -1.273  -5.346  -8.407  1.00  0.00     0.074 A 
ATOM     43  C   UNL     1       0.755  -5.728  -7.048  1.00  0.00     0.049 A 
ATOM     44  N   UNL     1      -1.654  -6.574  -8.646  1.00  0.00    -0.248 NA
ATOM     45  C   UNL     1      -2.135  -4.320  -9.018  1.00  0.00     0.031 C 
ATOM     46  C   UNL     1       1.930  -5.374  -6.255  1.00  0.00     0.029 A 
ATOM     47  N   UNL     1       0.747  -7.101  -7.045  1.00  0.00    -0.354 N 
ATOM     48  C   UNL     1      -2.813  -6.470  -9.407  1.00  0.00     0.074 A 
ATOM     49  C   UNL     1      -3.080  -5.058  -9.580  1.00  0.00     0.031 C 
ATOM     50  C   UNL     1       2.515  -6.502  -5.815  1.00  0.00     0.029 A 
ATOM     51  C   UNL     1       1.743  -7.654  -6.275  1.00  0.00     0.049 A 
ATOM     52  H   UNL     1       0.091  -7.638  -7.545  1.00  0.00     0.167 HD
ATOM     53  C   UNL     1      -3.577  -7.458  -9.929  1.00  0.00     0.034 A 
ATOM     54  C   UNL     1       1.989  -8.942  -5.960  1.00  0.00     0.034 A 
ATOM     55  C   UNL     1      -3.298  -8.861  -9.776  1.00  0.00     0.049 A 
ATOM     56  C   UNL     1       1.110 -10.023  -6.536  1.00  0.00     0.074 A 
ATOM     57  C   UNL     1      -3.986  -9.937 -10.308  1.00  0.00     0.029 A 
ATOM     58  N   UNL     1      -2.254  -9.383  -9.029  1.00  0.00    -0.354 N 
ATOM     59  N   UNL     1       0.089  -9.911  -7.351  1.00  0.00    -0.248 NA
ATOM     60  C   UNL     1       1.438 -11.410  -6.175  1.00  0.00     0.031 C 
ATOM     61  C   UNL     1      -3.373 -11.112  -9.860  1.00  0.00     0.029 A 
ATOM     62  C   UNL     1      -2.285 -10.766  -9.074  1.00  0.00     0.049 A 
ATOM     63  H   UNL     1      -1.589  -8.849  -8.538  1.00  0.00     0.167 HD
ATOM     64  C   UNL     1      -0.322 -11.211  -7.630  1.00  0.00     0.074 A 
ATOM     65  C   UNL     1       0.572 -12.094  -6.911  1.00  0.00     0.031 C 
ATOM     66  C   UNL     1      -1.355 -11.635  -8.400  1.00  0.00     0.034 A 
BRANCH  53  67
ATOM     67  C   UNL     1      -4.780  -7.058 -10.741  1.00  0.00     0.023 A 
ATOM     68  C   UNL     1      -4.603  -6.520 -12.032  1.00  0.00     0.012 A 
ATOM     69  C   UNL     1      -6.085  -7.268 -10.253  1.00  0.00     0.148 A 
ATOM     70  C   UNL     1      -5.704  -6.170 -12.813  1.00  0.00     0.002 A 
ATOM     71  C   UNL     1      -7.177  -6.957 -11.053  1.00  0.00     0.091 A 
ATOM     72  F   UNL     1      -6.232  -7.759  -9.014  1.00  0.00    -0.205 F 
ATOM     73  C   UNL     1      -6.989  -6.398 -12.328  1.00  0.00     0.022 A 
BRANCH  71  74
ATOM     74  S   UNL     1      -8.870  -7.283 -10.550  1.00  0.00     0.127 S 
ATOM     75  O   UNL     1      -9.375  -5.930 -10.319  1.00  0.00    -0.237 OA
ATOM     76  O   UNL     1      -9.421  -7.946 -11.732  1.00  0.00    -0.237 OA
ATOM     77  O   UNL     1      -8.782  -8.127  -9.367  1.00  0.00    -0.744 OA
ENDBRANCH  71  74
ENDBRANCH  53  67
BRANCH  54  78
ATOM     78  C   UNL     1       3.138  -9.287  -5.076  1.00  0.00     0.023 A 
ATOM     79  C   UNL     1       4.246  -9.972  -5.611  1.00  0.00     0.012 A 
ATOM     80  C   UNL     1       3.144  -8.930  -3.713  1.00  0.00     0.148 A 
ATOM     81  C   UNL     1       5.324 -10.325  -4.798  1.00  0.00     0.002 A 
ATOM     82  C   UNL     1       4.246  -9.233  -2.922  1.00  0.00     0.091 A 
ATOM     83  F   UNL     1       2.072  -8.294  -3.218  1.00  0.00    -0.205 F 
ATOM     84  C   UNL     1       5.329  -9.947  -3.458  1.00  0.00     0.022 A 
BRANCH  82  85
ATOM     85  S   UNL     1       4.392  -8.671  -1.222  1.00  0.00     0.127 S 
ATOM     86  O   UNL     1       4.226  -9.917  -0.479  1.00  0.00    -0.237 OA
ATOM     87  O   UNL     1       5.746  -8.116  -1.203  1.00  0.00    -0.237 OA
ATOM     88  O   UNL     1       3.338  -7.681  -1.044  1.00  0.00    -0.744 OA
ENDBRANCH  82  85
ENDBRANCH  54  78
BRANCH  66  89
ATOM     89  C   UNL     1      -1.559 -13.121  -8.546  1.00  0.00     0.023 A 
ATOM     90  C   UNL     1      -2.069 -13.869  -7.467  1.00  0.00     0.012 A 
ATOM     91  C   UNL     1      -1.321 -13.761  -9.779  1.00  0.00     0.148 A 
ATOM     92  C   UNL     1      -2.308 -15.237  -7.602  1.00  0.00     0.002 A 
ATOM     93  C   UNL     1      -1.608 -15.114  -9.921  1.00  0.00     0.091 A 
ATOM     94  F   UNL     1      -0.820 -13.036 -10.790  1.00  0.00    -0.205 F 
ATOM     95  C   UNL     1      -2.090 -15.855  -8.831  1.00  0.00     0.022 A 
BRANCH  93  96
ATOM     96  S   UNL     1      -1.450 -15.972 -11.492  1.00  0.00     0.127 S 
ATOM     97  O   UNL     1      -0.263 -16.795 -11.263  1.00  0.00    -0.237 OA
ATOM     98  O   UNL     1      -2.706 -16.720 -11.565  1.00  0.00    -0.237 OA
ATOM     99  O   UNL     1      -1.306 -14.934 -12.503  1.00  0.00    -0.744 OA
ENDBRANCH  93  96
ENDBRANCH  66  89
ENDBRANCH  40  41
ENDBRANCH  33  35
ENDBRANCH  32  33
ENDBRANCH  31  32
ENDBRANCH  30  31
ENDBRANCH   1  30
TORSDOF 21
