REMARK SMILES COC(=O)NNC(=O)CCC(=O)OCCOCCOC(=O)c1ccc(-c2c3nc(c(-c4cccc(S(=O)(=O)[O-])c4F)c4ccc([nH]4)c(-c4cccc(S(=O)(=O)[O-])c4F)c4nc(c(-c5cccc(S(=O)(=O)[O-])c5F)c5ccc2[nH]5)C=C4)C=C3)cc1
REMARK SMILES IDX 15 1 14 2 13 3 11 4 12 5 10 6 9 7 7 8 6 9 8 11 5 12 3 13
REMARK SMILES IDX 4 14 2 16 1 17 16 18 17 19 18 20 19 21 20 22 21 23 22 24
REMARK SMILES IDX 23 25 84 26 24 27 83 28 25 29 26 30 27 31 77 32 28 33 82 34
REMARK SMILES IDX 76 35 78 36 29 37 81 38 75 39 74 40 30 42 62 43 42 44 61 45
REMARK SMILES IDX 43 46 46 47 60 48 79 49 44 50 45 51 59 53 80 54 47 55 31 56
REMARK SMILES IDX 32 57 40 58 33 59 35 60 41 61 34 62 36 63 37 64 38 65 39 66
REMARK SMILES IDX 63 67 64 68 72 69 65 70 67 71 73 72 66 73 68 74 69 75 70 76
REMARK SMILES IDX 71 77 48 78 49 79 57 80 50 81 52 82 58 83 51 84 53 85 54 86
REMARK SMILES IDX 55 87 56 88
REMARK H PARENT 6 10 5 15 78 41 46 52
REMARK Flexibility Score: inf
ROOT
ATOM      1  C   UNL     1       1.526  -1.773  -4.017  1.00  0.00     0.202 C 
ENDROOT
BRANCH   1   2
ATOM      2  C   UNL     1       0.005  -1.733  -4.233  1.00  0.00     0.261 C 
BRANCH   2   3
ATOM      3  O   UNL     1      -0.656  -2.803  -3.527  1.00  0.00    -0.463 OA
BRANCH   3   4
ATOM      4  C   UNL     1      -1.341  -3.715  -4.256  1.00  0.00     0.306 C 
ATOM      5  O   UNL     1      -1.487  -3.678  -5.471  1.00  0.00    -0.252 OA
BRANCH   4   6
ATOM      6  C   UNL     1      -1.945  -4.806  -3.396  1.00  0.00     0.132 C 
BRANCH   6   7
ATOM      7  C   UNL     1      -1.185  -5.183  -2.125  1.00  0.00     0.113 C 
BRANCH   7   8
ATOM      8  C   UNL     1      -1.858  -4.648  -0.874  1.00  0.00     0.239 C 
ATOM      9  N   UNL     1      -1.461  -3.441  -0.351  1.00  0.00    -0.265 N 
ATOM     10  H   UNL     1      -1.963  -3.082   0.416  1.00  0.00     0.191 HD
ATOM     11  O   UNL     1      -2.754  -5.298  -0.334  1.00  0.00    -0.273 OA
BRANCH   9  12
ATOM     12  N   UNL     1      -0.398  -2.701  -0.839  1.00  0.00    -0.232 N 
ATOM     13  C   UNL     1      -0.311  -1.329  -0.816  1.00  0.00     0.425 C 
ATOM     14  O   UNL     1       0.624  -0.747  -1.347  1.00  0.00    -0.223 OA
ATOM     15  H   UNL     1       0.356  -3.196  -1.234  1.00  0.00     0.195 HD
BRANCH  13  16
ATOM     16  O   UNL     1      -1.320  -0.699  -0.165  1.00  0.00    -0.452 OA
ATOM     17  C   UNL     1      -1.119   0.720  -0.167  1.00  0.00     0.284 C 
ENDBRANCH  13  16
ENDBRANCH   9  12
ENDBRANCH   7   8
ENDBRANCH   6   7
ENDBRANCH   4   6
ENDBRANCH   3   4
ENDBRANCH   2   3
ENDBRANCH   1   2
BRANCH   1  18
ATOM     18  O   UNL     1       2.179  -2.897  -4.606  1.00  0.00    -0.374 OA
BRANCH  18  19
ATOM     19  C   UNL     1       2.113  -4.118  -3.868  1.00  0.00     0.202 C 
BRANCH  19  20
ATOM     20  C   UNL     1       2.951  -4.185  -2.577  1.00  0.00     0.261 C 
BRANCH  20  21
ATOM     21  O   UNL     1       2.339  -3.540  -1.426  1.00  0.00    -0.460 OA
BRANCH  21  22
ATOM     22  C   UNL     1       3.223  -2.865  -0.626  1.00  0.00     0.338 C 
ATOM     23  O   UNL     1       4.417  -2.727  -0.846  1.00  0.00    -0.246 OA
BRANCH  22  24
ATOM     24  C   UNL     1       2.576  -2.218   0.548  1.00  0.00     0.060 A 
ATOM     25  C   UNL     1       2.815  -0.853   0.746  1.00  0.00     0.016 A 
ATOM     26  C   UNL     1       1.796  -2.915   1.481  1.00  0.00     0.016 A 
ATOM     27  C   UNL     1       2.268  -0.184   1.849  1.00  0.00     0.010 A 
ATOM     28  C   UNL     1       1.256  -2.241   2.600  1.00  0.00     0.010 A 
ATOM     29  C   UNL     1       1.499  -0.871   2.801  1.00  0.00    -0.014 A 
BRANCH  29  30
ATOM     30  C   UNL     1       1.136  -0.152   4.062  1.00  0.00     0.031 A 
ATOM     31  C   UNL     1       2.140  -0.115   5.180  1.00  0.00     0.074 A 
ATOM     32  C   UNL     1      -0.008   0.547   4.206  1.00  0.00     0.049 A 
ATOM     33  N   UNL     1       2.140   0.606   6.271  1.00  0.00    -0.248 NA
ATOM     34  C   UNL     1       3.295  -1.014   5.045  1.00  0.00     0.031 C 
ATOM     35  C   UNL     1      -1.099   0.568   3.246  1.00  0.00     0.029 A 
ATOM     36  N   UNL     1      -0.437   1.391   5.208  1.00  0.00    -0.354 N 
ATOM     37  C   UNL     1       3.291   0.246   6.959  1.00  0.00     0.074 A 
ATOM     38  C   UNL     1       3.957  -0.766   6.166  1.00  0.00     0.031 C 
ATOM     39  C   UNL     1      -2.047   1.425   3.663  1.00  0.00     0.029 A 
ATOM     40  C   UNL     1      -1.657   1.982   4.958  1.00  0.00     0.049 A 
ATOM     41  H   UNL     1       0.082   1.556   6.029  1.00  0.00     0.167 HD
ATOM     42  C   UNL     1       3.759   0.711   8.141  1.00  0.00     0.034 A 
ATOM     43  C   UNL     1      -2.383   2.858   5.687  1.00  0.00     0.034 A 
ATOM     44  C   UNL     1       3.089   1.681   8.964  1.00  0.00     0.049 A 
ATOM     45  C   UNL     1      -1.851   3.340   7.017  1.00  0.00     0.074 A 
ATOM     46  C   UNL     1       3.498   2.205  10.178  1.00  0.00     0.029 A 
ATOM     47  N   UNL     1       1.858   2.250   8.681  1.00  0.00    -0.354 N 
ATOM     48  N   UNL     1      -0.700   3.086   7.589  1.00  0.00    -0.248 NA
ATOM     49  C   UNL     1      -2.715   4.246   7.794  1.00  0.00     0.031 C 
ATOM     50  C   UNL     1       2.495   3.058  10.650  1.00  0.00     0.029 A 
ATOM     51  C   UNL     1       1.486   3.109   9.703  1.00  0.00     0.049 A 
ATOM     52  H   UNL     1       1.325   2.070   7.873  1.00  0.00     0.167 HD
ATOM     53  C   UNL     1      -0.686   3.825   8.769  1.00  0.00     0.074 A 
ATOM     54  C   UNL     1      -1.934   4.557   8.819  1.00  0.00     0.031 C 
ATOM     55  C   UNL     1       0.270   3.881   9.729  1.00  0.00     0.034 A 
BRANCH  42  56
ATOM     56  C   UNL     1       5.070   0.152   8.620  1.00  0.00     0.023 A 
ATOM     57  C   UNL     1       6.266   0.517   7.969  1.00  0.00     0.012 A 
ATOM     58  C   UNL     1       5.118  -0.721   9.723  1.00  0.00     0.148 A 
ATOM     59  C   UNL     1       7.487  -0.012   8.383  1.00  0.00     0.002 A 
ATOM     60  C   UNL     1       6.343  -1.206  10.160  1.00  0.00     0.091 A 
ATOM     61  F   UNL     1       3.966  -1.072  10.311  1.00  0.00    -0.205 F 
ATOM     62  C   UNL     1       7.526  -0.865   9.483  1.00  0.00     0.022 A 
BRANCH  60  63
ATOM     63  S   UNL     1       6.506  -2.251  11.610  1.00  0.00     0.127 S 
ATOM     64  O   UNL     1       6.895  -3.527  11.011  1.00  0.00    -0.237 OA
ATOM     65  O   UNL     1       7.570  -1.577  12.354  1.00  0.00    -0.237 OA
ATOM     66  O   UNL     1       5.205  -2.240  12.264  1.00  0.00    -0.744 OA
ENDBRANCH  60  63
ENDBRANCH  42  56
BRANCH  43  67
ATOM     67  C   UNL     1      -3.701   3.366   5.191  1.00  0.00     0.023 A 
ATOM     68  C   UNL     1      -3.866   4.738   4.908  1.00  0.00     0.012 A 
ATOM     69  C   UNL     1      -4.804   2.504   5.045  1.00  0.00     0.148 A 
ATOM     70  C   UNL     1      -5.112   5.245   4.530  1.00  0.00     0.002 A 
ATOM     71  C   UNL     1      -6.025   3.005   4.607  1.00  0.00     0.091 A 
ATOM     72  F   UNL     1      -4.639   1.208   5.342  1.00  0.00    -0.205 F 
ATOM     73  C   UNL     1      -6.189   4.378   4.371  1.00  0.00     0.022 A 
BRANCH  71  74
ATOM     74  S   UNL     1      -7.430   1.943   4.254  1.00  0.00     0.127 S 
ATOM     75  O   UNL     1      -8.377   2.345   5.291  1.00  0.00    -0.237 OA
ATOM     76  O   UNL     1      -7.785   2.362   2.897  1.00  0.00    -0.237 OA
ATOM     77  O   UNL     1      -6.928   0.580   4.352  1.00  0.00    -0.744 OA
ENDBRANCH  71  74
ENDBRANCH  43  67
BRANCH  55  78
ATOM     78  C   UNL     1       0.052   4.812  10.897  1.00  0.00     0.023 A 
ATOM     79  C   UNL     1      -0.932   4.529  11.865  1.00  0.00     0.012 A 
ATOM     80  C   UNL     1       0.882   5.939  11.070  1.00  0.00     0.148 A 
ATOM     81  C   UNL     1      -1.113   5.373  12.962  1.00  0.00     0.002 A 
ATOM     82  C   UNL     1       0.733   6.744  12.193  1.00  0.00     0.091 A 
ATOM     83  F   UNL     1       1.801   6.206  10.131  1.00  0.00    -0.205 F 
ATOM     84  C   UNL     1      -0.273   6.472  13.133  1.00  0.00     0.022 A 
BRANCH  82  85
ATOM     85  S   UNL     1       1.836   8.118  12.545  1.00  0.00     0.127 S 
ATOM     86  O   UNL     1       0.975   9.268  12.274  1.00  0.00    -0.237 OA
ATOM     87  O   UNL     1       2.150   7.910  13.959  1.00  0.00    -0.237 OA
ATOM     88  O   UNL     1       2.972   7.961  11.646  1.00  0.00    -0.744 OA
ENDBRANCH  82  85
ENDBRANCH  55  78
ENDBRANCH  29  30
ENDBRANCH  22  24
ENDBRANCH  21  22
ENDBRANCH  20  21
ENDBRANCH  19  20
ENDBRANCH  18  19
ENDBRANCH   1  18
TORSDOF 21
