REMARK SMILES CC(C)(C)c1cc2c(cc1Cl)C=C(C(=O)OCCOCCOC(=O)c1ccc(-c3c4nc(c(-c5cccc(S(=O)(=O)[O-])c5F)c5ccc([nH]5)c(-c5cccc(S(=O)(=O)[O-])c5F)c5nc(c(-c6cccc(S(=O)(=O)[O-])c6F)c6ccc3[nH]6)C=C5)C=C4)cc1)[C@@H](C(F)(F)F)O2
REMARK SMILES IDX 20 1 19 2 18 3 17 4 16 5 14 6 15 7 13 8 5 9 6 10 10 11 7 12
REMARK SMILES IDX 9 13 11 14 8 15 93 16 12 17 88 18 2 19 1 20 3 21 4 22 89 23
REMARK SMILES IDX 90 24 91 25 92 26 21 27 22 28 23 29 24 30 25 31 26 32 87 33
REMARK SMILES IDX 27 34 86 35 28 36 29 37 30 38 80 39 31 40 85 41 79 42 81 43
REMARK SMILES IDX 32 44 84 45 78 46 77 47 33 49 65 50 45 51 64 52 46 53 49 54
REMARK SMILES IDX 63 55 82 56 47 57 48 58 62 60 83 61 50 62 34 63 35 64 43 65
REMARK SMILES IDX 36 66 38 67 44 68 37 69 39 70 40 71 41 72 42 73 66 74 67 75
REMARK SMILES IDX 75 76 68 77 70 78 76 79 69 80 71 81 72 82 73 83 74 84 51 85
REMARK SMILES IDX 52 86 60 87 53 88 55 89 61 90 54 91 56 92 57 93 58 94 59 95
REMARK H PARENT 81 48 49 59
REMARK Flexibility Score: inf
ROOT
ATOM      1  C   UNL     1       1.013  -1.648   9.806  1.00  0.00     0.202 C 
ENDROOT
BRANCH   1   2
ATOM      2  O   UNL     1       1.969  -2.192  10.713  1.00  0.00    -0.374 OA
BRANCH   2   3
ATOM      3  C   UNL     1       2.953  -1.321  11.269  1.00  0.00     0.202 C 
BRANCH   3   4
ATOM      4  C   UNL     1       4.109  -0.885  10.363  1.00  0.00     0.261 C 
BRANCH   4   5
ATOM      5  O   UNL     1       3.643  -0.236   9.169  1.00  0.00    -0.460 OA
BRANCH   5   6
ATOM      6  C   UNL     1       3.838  -0.947   8.035  1.00  0.00     0.338 C 
ATOM      7  O   UNL     1       4.438  -2.004   7.922  1.00  0.00    -0.246 OA
BRANCH   6   8
ATOM      8  C   UNL     1       3.079  -0.336   6.927  1.00  0.00     0.087 C 
ATOM      9  C   UNL     1       0.776   0.314   2.478  1.00  0.00    -0.020 A 
ATOM     10  C   UNL     1       1.334   1.164   3.466  1.00  0.00     0.053 A 
ATOM     11  C   UNL     1       0.657  -1.050   2.832  1.00  0.00     0.045 A 
ATOM     12  C   UNL     1       1.831   0.681   4.682  1.00  0.00     0.128 A 
ATOM     13  C   UNL     1       1.167  -1.533   4.047  1.00  0.00     0.032 A 
ATOM     14  Cl  UNL     1      -0.121  -2.253   1.862  1.00  0.00    -0.084 Cl
ATOM     15  C   UNL     1       1.785  -0.677   4.954  1.00  0.00     0.019 A 
ATOM     16  O   UNL     1       2.349   1.607   5.541  1.00  0.00    -0.475 OA
ATOM     17  C   UNL     1       2.431  -1.202   6.138  1.00  0.00     0.027 C 
ATOM     18  C   UNL     1       3.086   1.153   6.715  1.00  0.00     0.316 C 
BRANCH   9  19
ATOM     19  C   UNL     1       0.343   0.904   1.112  1.00  0.00    -0.012 C 
ATOM     20  C   UNL     1       0.940   0.118  -0.081  1.00  0.00     0.016 C 
ATOM     21  C   UNL     1       0.822   2.367   0.894  1.00  0.00     0.016 C 
ATOM     22  C   UNL     1      -1.195   0.929   1.020  1.00  0.00     0.016 C 
ENDBRANCH   9  19
BRANCH  18  23
ATOM     23  C   UNL     1       4.507   1.732   6.638  1.00  0.00     0.430 C 
ATOM     24  F   UNL     1       4.479   3.065   6.398  1.00  0.00    -0.167 F 
ATOM     25  F   UNL     1       5.188   1.556   7.792  1.00  0.00    -0.167 F 
ATOM     26  F   UNL     1       5.227   1.157   5.647  1.00  0.00    -0.167 F 
ENDBRANCH  18  23
ENDBRANCH   6   8
ENDBRANCH   5   6
ENDBRANCH   4   5
ENDBRANCH   3   4
ENDBRANCH   2   3
ENDBRANCH   1   2
BRANCH   1  27
ATOM     27  C   UNL     1      -0.088  -0.732  10.355  1.00  0.00     0.261 C 
BRANCH  27  28
ATOM     28  O   UNL     1       0.419   0.476  10.940  1.00  0.00    -0.460 OA
BRANCH  28  29
ATOM     29  C   UNL     1       0.370   0.512  12.297  1.00  0.00     0.338 C 
ATOM     30  O   UNL     1      -0.059  -0.359  13.038  1.00  0.00    -0.246 OA
BRANCH  29  31
ATOM     31  C   UNL     1       1.099   1.700  12.780  1.00  0.00     0.060 A 
ATOM     32  C   UNL     1       0.825   2.969  12.270  1.00  0.00     0.016 A 
ATOM     33  C   UNL     1       2.057   1.528  13.788  1.00  0.00     0.016 A 
ATOM     34  C   UNL     1       1.501   4.073  12.792  1.00  0.00     0.010 A 
ATOM     35  C   UNL     1       2.724   2.636  14.314  1.00  0.00     0.010 A 
ATOM     36  C   UNL     1       2.441   3.919  13.829  1.00  0.00    -0.014 A 
BRANCH  36  37
ATOM     37  C   UNL     1       3.028   5.123  14.467  1.00  0.00     0.031 A 
ATOM     38  C   UNL     1       4.465   5.500  14.263  1.00  0.00     0.074 A 
ATOM     39  C   UNL     1       2.234   5.892  15.238  1.00  0.00     0.049 A 
ATOM     40  N   UNL     1       5.080   6.593  14.634  1.00  0.00    -0.248 NA
ATOM     41  C   UNL     1       5.326   4.535  13.562  1.00  0.00     0.031 C 
ATOM     42  C   UNL     1       0.841   5.588  15.572  1.00  0.00     0.029 A 
ATOM     43  N   UNL     1       2.476   7.085  15.871  1.00  0.00    -0.354 N 
ATOM     44  C   UNL     1       6.396   6.451  14.216  1.00  0.00     0.074 A 
ATOM     45  C   UNL     1       6.501   5.153  13.586  1.00  0.00     0.031 C 
ATOM     46  C   UNL     1       0.341   6.586  16.316  1.00  0.00     0.029 A 
ATOM     47  C   UNL     1       1.379   7.590  16.529  1.00  0.00     0.049 A 
ATOM     48  H   UNL     1       3.351   7.536  15.855  1.00  0.00     0.167 HD
ATOM     49  C   UNL     1       7.414   7.336  14.325  1.00  0.00     0.034 A 
ATOM     50  C   UNL     1       1.219   8.739  17.215  1.00  0.00     0.034 A 
ATOM     51  C   UNL     1       7.301   8.633  14.935  1.00  0.00     0.049 A 
ATOM     52  C   UNL     1       2.361   9.709  17.308  1.00  0.00     0.074 A 
ATOM     53  C   UNL     1       8.264   9.624  15.019  1.00  0.00     0.029 A 
ATOM     54  N   UNL     1       6.173   9.113  15.579  1.00  0.00    -0.354 N 
ATOM     55  N   UNL     1       3.551   9.626  16.767  1.00  0.00    -0.248 NA
ATOM     56  C   UNL     1       2.135  10.939  18.082  1.00  0.00     0.031 C 
ATOM     57  C   UNL     1       7.724  10.696  15.736  1.00  0.00     0.029 A 
ATOM     58  C   UNL     1       6.420  10.379  16.079  1.00  0.00     0.049 A 
ATOM     59  H   UNL     1       5.322   8.626  15.667  1.00  0.00     0.167 HD
ATOM     60  C   UNL     1       4.213  10.795  17.122  1.00  0.00     0.074 A 
ATOM     61  C   UNL     1       3.285  11.580  17.911  1.00  0.00     0.031 C 
ATOM     62  C   UNL     1       5.481  11.171  16.831  1.00  0.00     0.034 A 
BRANCH  49  63
ATOM     63  C   UNL     1       8.739   6.973  13.715  1.00  0.00     0.023 A 
ATOM     64  C   UNL     1       8.903   7.085  12.320  1.00  0.00     0.012 A 
ATOM     65  C   UNL     1       9.846   6.648  14.522  1.00  0.00     0.148 A 
ATOM     66  C   UNL     1      10.149   6.871  11.734  1.00  0.00     0.002 A 
ATOM     67  C   UNL     1      11.091   6.463  13.934  1.00  0.00     0.091 A 
ATOM     68  F   UNL     1       9.661   6.544  15.846  1.00  0.00    -0.205 F 
ATOM     69  C   UNL     1      11.244   6.571  12.541  1.00  0.00     0.022 A 
BRANCH  67  70
ATOM     70  S   UNL     1      12.577   6.118  14.883  1.00  0.00     0.127 S 
ATOM     71  O   UNL     1      12.927   4.781  14.404  1.00  0.00    -0.237 OA
ATOM     72  O   UNL     1      13.477   7.181  14.438  1.00  0.00    -0.237 OA
ATOM     73  O   UNL     1      12.187   6.188  16.284  1.00  0.00    -0.744 OA
ENDBRANCH  67  70
ENDBRANCH  49  63
BRANCH  50  74
ATOM     74  C   UNL     1      -0.111   9.050  17.804  1.00  0.00     0.023 A 
ATOM     75  C   UNL     1      -0.937  10.003  17.180  1.00  0.00     0.012 A 
ATOM     76  C   UNL     1      -0.586   8.352  18.930  1.00  0.00     0.148 A 
ATOM     77  C   UNL     1      -2.217  10.260  17.672  1.00  0.00     0.002 A 
ATOM     78  C   UNL     1      -1.874   8.586  19.393  1.00  0.00     0.091 A 
ATOM     79  F   UNL     1       0.222   7.447  19.500  1.00  0.00    -0.205 F 
ATOM     80  C   UNL     1      -2.689   9.546  18.771  1.00  0.00     0.022 A 
BRANCH  78  81
ATOM     81  S   UNL     1      -2.603   7.655  20.745  1.00  0.00     0.127 S 
ATOM     82  O   UNL     1      -2.858   8.707  21.727  1.00  0.00    -0.237 OA
ATOM     83  O   UNL     1      -3.800   7.101  20.111  1.00  0.00    -0.237 OA
ATOM     84  O   UNL     1      -1.606   6.669  21.133  1.00  0.00    -0.744 OA
ENDBRANCH  78  81
ENDBRANCH  50  74
BRANCH  62  85
ATOM     85  C   UNL     1       5.977  12.488  17.358  1.00  0.00     0.023 A 
ATOM     86  C   UNL     1       6.398  12.576  18.699  1.00  0.00     0.012 A 
ATOM     87  C   UNL     1       6.181  13.579  16.491  1.00  0.00     0.148 A 
ATOM     88  C   UNL     1       7.021  13.731  19.169  1.00  0.00     0.002 A 
ATOM     89  C   UNL     1       6.831  14.715  16.957  1.00  0.00     0.091 A 
ATOM     90  F   UNL     1       5.769  13.467  15.219  1.00  0.00    -0.205 F 
ATOM     91  C   UNL     1       7.250  14.793  18.296  1.00  0.00     0.022 A 
BRANCH  89  92
ATOM     92  S   UNL     1       7.237  16.107  15.897  1.00  0.00     0.127 S 
ATOM     93  O   UNL     1       6.463  17.186  16.513  1.00  0.00    -0.237 OA
ATOM     94  O   UNL     1       8.684  16.216  16.073  1.00  0.00    -0.237 OA
ATOM     95  O   UNL     1       6.809  15.735  14.555  1.00  0.00    -0.744 OA
ENDBRANCH  89  92
ENDBRANCH  62  85
ENDBRANCH  36  37
ENDBRANCH  29  31
ENDBRANCH  28  29
ENDBRANCH  27  28
ENDBRANCH   1  27
TORSDOF 19
