REMARK SMILES CC1=C2C(=O)N(C[C@H]3CCCO3)C(=O)N=C2S[C@@H]1C(=O)OCCOCCOC(=O)c1ccc(-c2c3nc(c(-c4cccc(S(=O)(=O)[O-])c4F)c4ccc([nH]4)c(-c4cccc(S(=O)(=O)[O-])c4F)c4nc(c(-c5cccc(S(=O)(=O)[O-])c5F)c5ccc2[nH]5)C=C4)C=C3)cc1
REMARK SMILES IDX 25 1 24 2 23 3 22 4 21 5 19 6 20 7 18 8 1 9 2 10 3 11 4 12
REMARK SMILES IDX 16 13 17 14 5 15 6 16 15 17 13 18 14 19 7 20 8 21 9 22 12 23
REMARK SMILES IDX 10 24 11 25 26 26 27 27 28 28 29 29 30 30 31 31 92 32 32 33
REMARK SMILES IDX 91 34 33 35 34 36 35 37 85 38 36 39 90 40 84 41 86 42 37 43
REMARK SMILES IDX 89 44 83 45 82 46 38 48 70 49 50 50 69 51 51 52 54 53 68 54
REMARK SMILES IDX 87 55 52 56 53 57 67 59 88 60 55 61 39 62 40 63 48 64 41 65
REMARK SMILES IDX 43 66 49 67 42 68 44 69 45 70 46 71 47 72 71 73 72 74 80 75
REMARK SMILES IDX 73 76 75 77 81 78 74 79 76 80 77 81 78 82 79 83 56 84 57 85
REMARK SMILES IDX 65 86 58 87 60 88 66 89 59 90 61 91 62 92 63 93 64 94
REMARK H PARENT 86 47 54 58
REMARK Flexibility Score: inf
ROOT
ATOM      1  C   UNL     1      -4.846  -0.095  10.400  1.00  0.00     0.202 C 
ENDROOT
BRANCH   1   2
ATOM      2  O   UNL     1      -5.112   1.268  10.064  1.00  0.00    -0.374 OA
BRANCH   2   3
ATOM      3  C   UNL     1      -5.565   1.562   8.744  1.00  0.00     0.202 C 
BRANCH   3   4
ATOM      4  C   UNL     1      -4.516   1.596   7.632  1.00  0.00     0.261 C 
BRANCH   4   5
ATOM      5  O   UNL     1      -3.873   0.327   7.466  1.00  0.00    -0.462 OA
BRANCH   5   6
ATOM      6  C   UNL     1      -2.623   0.239   7.985  1.00  0.00     0.323 C 
ATOM      7  O   UNL     1      -2.004   1.171   8.493  1.00  0.00    -0.251 OA
BRANCH   6   8
ATOM      8  C   UNL     1      -2.002  -1.136   7.830  1.00  0.00     0.189 C 
ATOM      9  C   UNL     1      -0.289  -0.213   6.136  1.00  0.00     0.042 C 
ATOM     10  C   UNL     1      -1.290  -1.257   6.516  1.00  0.00    -0.033 C 
ATOM     11  C   UNL     1      -1.556  -2.376   5.830  1.00  0.00     0.073 C 
ATOM     12  C   UNL     1      -0.953  -2.868   4.601  1.00  0.00     0.264 C 
ATOM     13  C   UNL     1      -2.409  -3.308   6.534  1.00  0.00     0.116 C 
ATOM     14  S   UNL     1      -3.185  -2.536   7.880  1.00  0.00    -0.086 SA
ATOM     15  O   UNL     1      -0.664  -2.123   3.679  1.00  0.00    -0.268 OA
ATOM     16  N   UNL     1      -0.722  -4.219   4.693  1.00  0.00    -0.256 N 
ATOM     17  N   UNL     1      -2.507  -4.556   6.269  1.00  0.00    -0.186 NA
ATOM     18  C   UNL     1      -1.633  -5.075   5.334  1.00  0.00     0.351 C 
ATOM     19  O   UNL     1      -1.601  -6.288   5.136  1.00  0.00    -0.246 OA
BRANCH  16  20
ATOM     20  C   UNL     1       0.548  -4.794   4.256  1.00  0.00     0.163 C 
BRANCH  20  21
ATOM     21  C   UNL     1       1.421  -4.100   3.192  1.00  0.00     0.138 C 
ATOM     22  C   UNL     1       2.046  -2.755   3.559  1.00  0.00     0.036 C 
ATOM     23  O   UNL     1       2.551  -4.986   2.958  1.00  0.00    -0.376 OA
ATOM     24  C   UNL     1       3.420  -3.092   4.061  1.00  0.00     0.031 C 
ATOM     25  C   UNL     1       3.773  -4.285   3.216  1.00  0.00     0.160 C 
ENDBRANCH  20  21
ENDBRANCH  16  20
ENDBRANCH   6   8
ENDBRANCH   5   6
ENDBRANCH   4   5
ENDBRANCH   3   4
ENDBRANCH   2   3
ENDBRANCH   1   2
BRANCH   1  26
ATOM     26  C   UNL     1      -6.035  -1.056  10.525  1.00  0.00     0.261 C 
BRANCH  26  27
ATOM     27  O   UNL     1      -6.706  -1.278   9.273  1.00  0.00    -0.460 OA
BRANCH  27  28
ATOM     28  C   UNL     1      -7.973  -0.798   9.220  1.00  0.00     0.338 C 
ATOM     29  O   UNL     1      -8.592  -0.258  10.123  1.00  0.00    -0.246 OA
BRANCH  28  30
ATOM     30  C   UNL     1      -8.472  -0.824   7.833  1.00  0.00     0.060 A 
ATOM     31  C   UNL     1      -8.922   0.386   7.290  1.00  0.00     0.016 A 
ATOM     32  C   UNL     1      -8.591  -2.014   7.114  1.00  0.00     0.016 A 
ATOM     33  C   UNL     1      -9.548   0.404   6.046  1.00  0.00     0.010 A 
ATOM     34  C   UNL     1      -9.229  -1.996   5.869  1.00  0.00     0.010 A 
ATOM     35  C   UNL     1      -9.747  -0.795   5.350  1.00  0.00    -0.014 A 
BRANCH  35  36
ATOM     36  C   UNL     1     -10.624  -0.802   4.154  1.00  0.00     0.031 A 
ATOM     37  C   UNL     1     -12.048  -1.267   4.296  1.00  0.00     0.074 A 
ATOM     38  C   UNL     1     -10.162  -0.384   2.962  1.00  0.00     0.049 A 
ATOM     39  N   UNL     1     -12.981  -1.363   3.385  1.00  0.00    -0.248 NA
ATOM     40  C   UNL     1     -12.480  -1.677   5.643  1.00  0.00     0.031 C 
ATOM     41  C   UNL     1      -8.805   0.093   2.702  1.00  0.00     0.029 A 
ATOM     42  N   UNL     1     -10.783  -0.318   1.739  1.00  0.00    -0.354 N 
ATOM     43  C   UNL     1     -14.098  -1.872   4.037  1.00  0.00     0.074 A 
ATOM     44  C   UNL     1     -13.727  -2.070   5.421  1.00  0.00     0.031 C 
ATOM     45  C   UNL     1      -8.685   0.373   1.392  1.00  0.00     0.029 A 
ATOM     46  C   UNL     1      -9.948   0.075   0.720  1.00  0.00     0.049 A 
ATOM     47  H   UNL     1     -11.735  -0.532   1.605  1.00  0.00     0.167 HD
ATOM     48  C   UNL     1     -15.326  -2.136   3.533  1.00  0.00     0.034 A 
ATOM     49  C   UNL     1     -10.173   0.161  -0.606  1.00  0.00     0.034 A 
ATOM     50  C   UNL     1     -15.702  -1.912   2.163  1.00  0.00     0.049 A 
ATOM     51  C   UNL     1     -11.546  -0.157  -1.142  1.00  0.00     0.074 A 
ATOM     52  C   UNL     1     -16.939  -2.095   1.571  1.00  0.00     0.029 A 
ATOM     53  N   UNL     1     -14.844  -1.468   1.170  1.00  0.00    -0.354 N 
ATOM     54  N   UNL     1     -12.627  -0.508  -0.489  1.00  0.00    -0.248 NA
ATOM     55  C   UNL     1     -11.739  -0.032  -2.595  1.00  0.00     0.031 C 
ATOM     56  C   UNL     1     -16.822  -1.786   0.212  1.00  0.00     0.029 A 
ATOM     57  C   UNL     1     -15.519  -1.384  -0.035  1.00  0.00     0.049 A 
ATOM     58  H   UNL     1     -13.894  -1.245   1.302  1.00  0.00     0.167 HD
ATOM     59  C   UNL     1     -13.634  -0.610  -1.443  1.00  0.00     0.074 A 
ATOM     60  C   UNL     1     -13.040  -0.261  -2.716  1.00  0.00     0.031 C 
ATOM     61  C   UNL     1     -14.931  -0.974  -1.284  1.00  0.00     0.034 A 
BRANCH  48  62
ATOM     62  C   UNL     1     -16.374  -2.672   4.471  1.00  0.00     0.023 A 
ATOM     63  C   UNL     1     -16.982  -1.808   5.403  1.00  0.00     0.012 A 
ATOM     64  C   UNL     1     -16.814  -4.007   4.373  1.00  0.00     0.148 A 
ATOM     65  C   UNL     1     -18.000  -2.268   6.237  1.00  0.00     0.002 A 
ATOM     66  C   UNL     1     -17.856  -4.448   5.180  1.00  0.00     0.091 A 
ATOM     67  F   UNL     1     -16.206  -4.817   3.494  1.00  0.00    -0.205 F 
ATOM     68  C   UNL     1     -18.444  -3.583   6.118  1.00  0.00     0.022 A 
BRANCH  66  69
ATOM     69  S   UNL     1     -18.553  -6.098   5.050  1.00  0.00     0.127 S 
ATOM     70  O   UNL     1     -18.134  -6.696   6.317  1.00  0.00    -0.237 OA
ATOM     71  O   UNL     1     -19.986  -5.819   4.952  1.00  0.00    -0.237 OA
ATOM     72  O   UNL     1     -17.965  -6.692   3.857  1.00  0.00    -0.744 OA
ENDBRANCH  66  69
ENDBRANCH  48  62
BRANCH  49  73
ATOM     73  C   UNL     1      -9.081   0.591  -1.525  1.00  0.00     0.023 A 
ATOM     74  C   UNL     1      -9.176   1.829  -2.190  1.00  0.00     0.012 A 
ATOM     75  C   UNL     1      -7.952  -0.221  -1.746  1.00  0.00     0.148 A 
ATOM     76  C   UNL     1      -8.185   2.233  -3.085  1.00  0.00     0.002 A 
ATOM     77  C   UNL     1      -6.941   0.213  -2.595  1.00  0.00     0.091 A 
ATOM     78  F   UNL     1      -7.889  -1.406  -1.123  1.00  0.00    -0.205 F 
ATOM     79  C   UNL     1      -7.064   1.431  -3.280  1.00  0.00     0.022 A 
BRANCH  77  80
ATOM     80  S   UNL     1      -5.407  -0.697  -2.799  1.00  0.00     0.127 S 
ATOM     81  O   UNL     1      -5.584  -1.292  -4.120  1.00  0.00    -0.237 OA
ATOM     82  O   UNL     1      -4.408   0.371  -2.731  1.00  0.00    -0.237 OA
ATOM     83  O   UNL     1      -5.359  -1.630  -1.680  1.00  0.00    -0.744 OA
ENDBRANCH  77  80
ENDBRANCH  49  73
BRANCH  61  84
ATOM     84  C   UNL     1     -15.815  -0.978  -2.503  1.00  0.00     0.023 A 
ATOM     85  C   UNL     1     -15.664  -1.985  -3.476  1.00  0.00     0.012 A 
ATOM     86  C   UNL     1     -16.848  -0.030  -2.645  1.00  0.00     0.148 A 
ATOM     87  C   UNL     1     -16.506  -2.030  -4.587  1.00  0.00     0.002 A 
ATOM     88  C   UNL     1     -17.714  -0.110  -3.729  1.00  0.00     0.091 A 
ATOM     89  F   UNL     1     -16.965   0.932  -1.717  1.00  0.00    -0.205 F 
ATOM     90  C   UNL     1     -17.537  -1.102  -4.707  1.00  0.00     0.022 A 
BRANCH  88  91
ATOM     91  S   UNL     1     -19.128   0.983  -3.913  1.00  0.00     0.127 S 
ATOM     92  O   UNL     1     -18.686   1.862  -4.995  1.00  0.00    -0.237 OA
ATOM     93  O   UNL     1     -20.196   0.053  -4.282  1.00  0.00    -0.237 OA
ATOM     94  O   UNL     1     -19.309   1.626  -2.619  1.00  0.00    -0.744 OA
ENDBRANCH  88  91
ENDBRANCH  61  84
ENDBRANCH  35  36
ENDBRANCH  28  30
ENDBRANCH  27  28
ENDBRANCH  26  27
ENDBRANCH   1  26
TORSDOF 19
