REMARK SMILES C[C@@]1(CN2C(=O)c3ccc(C(=O)OCCOCCOC(=O)c4ccc(-c5c6nc(c(-c7cccc(S(=O)(=O)[O-])c7F)c7ccc([nH]7)c(-c7cccc(S(=O)(=O)[O-])c7F)c7nc(c(-c8cccc(S(=O)(=O)[O-])c8F)c8ccc5[nH]8)C=C7)C=C6)cc4)cc3C2=O)CCCO1
REMARK SMILES IDX 17 1 16 2 15 3 14 4 13 5 11 6 12 7 10 8 4 9 5 10 87 11 6 12
REMARK SMILES IDX 7 13 86 14 88 15 8 16 85 17 9 18 3 19 2 20 1 21 89 22 92 23
REMARK SMILES IDX 90 24 91 25 18 26 19 27 20 28 21 29 22 30 23 31 84 32 24 33
REMARK SMILES IDX 83 34 25 35 26 36 27 37 77 38 28 39 82 40 76 41 78 42 29 43
REMARK SMILES IDX 81 44 75 45 74 46 30 48 62 49 42 50 61 51 43 52 46 53 60 54
REMARK SMILES IDX 79 55 44 56 45 57 59 59 80 60 47 61 31 62 32 63 40 64 33 65
REMARK SMILES IDX 35 66 41 67 34 68 36 69 37 70 38 71 39 72 63 73 64 74 72 75
REMARK SMILES IDX 65 76 67 77 73 78 66 79 68 80 69 81 70 82 71 83 48 84 49 85
REMARK SMILES IDX 57 86 50 87 52 88 58 89 51 90 53 91 54 92 55 93 56 94
REMARK H PARENT 78 47 46 58
REMARK Flexibility Score: inf
ROOT
ATOM      1  C   UNL     1      -4.542   3.483   6.777  1.00  0.00     0.202 C 
ENDROOT
BRANCH   1   2
ATOM      2  O   UNL     1      -4.330   3.692   8.173  1.00  0.00    -0.374 OA
BRANCH   2   3
ATOM      3  C   UNL     1      -3.478   4.767   8.565  1.00  0.00     0.202 C 
BRANCH   3   4
ATOM      4  C   UNL     1      -1.965   4.558   8.441  1.00  0.00     0.261 C 
BRANCH   4   5
ATOM      5  O   UNL     1      -1.577   4.283   7.088  1.00  0.00    -0.460 OA
BRANCH   5   6
ATOM      6  C   UNL     1      -1.185   3.008   6.860  1.00  0.00     0.338 C 
ATOM      7  O   UNL     1      -1.023   2.128   7.689  1.00  0.00    -0.246 OA
BRANCH   6   8
ATOM      8  C   UNL     1      -1.152   2.739   5.402  1.00  0.00     0.060 A 
ATOM      9  N   UNL     1      -1.223   0.127   1.647  1.00  0.00    -0.271 N 
ATOM     10  C   UNL     1      -1.024   1.462   1.413  1.00  0.00     0.261 C 
ATOM     11  C   UNL     1      -1.536  -0.119   2.953  1.00  0.00     0.261 C 
ATOM     12  O   UNL     1      -0.818   2.031   0.362  1.00  0.00    -0.269 OA
ATOM     13  C   UNL     1      -1.079   2.121   2.718  1.00  0.00     0.053 A 
ATOM     14  C   UNL     1      -1.387   1.151   3.654  1.00  0.00     0.054 A 
ATOM     15  O   UNL     1      -1.901  -1.154   3.484  1.00  0.00    -0.269 OA
ATOM     16  C   UNL     1      -0.816   3.430   3.079  1.00  0.00     0.015 A 
ATOM     17  C   UNL     1      -1.444   1.426   5.002  1.00  0.00     0.030 A 
ATOM     18  C   UNL     1      -0.856   3.740   4.446  1.00  0.00     0.016 A 
BRANCH   9  19
ATOM     19  C   UNL     1      -1.048  -0.914   0.648  1.00  0.00     0.164 C 
BRANCH  19  20
ATOM     20  C   UNL     1       0.436  -1.367   0.504  1.00  0.00     0.084 C 
ATOM     21  C   UNL     1       1.359  -0.226   0.075  1.00  0.00     0.044 C 
ATOM     22  C   UNL     1       0.557  -2.549  -0.463  1.00  0.00     0.039 C 
ATOM     23  O   UNL     1       0.908  -1.863   1.776  1.00  0.00    -0.373 OA
ATOM     24  C   UNL     1       0.365  -3.745   0.436  1.00  0.00     0.031 C 
ATOM     25  C   UNL     1       1.007  -3.291   1.728  1.00  0.00     0.161 C 
ENDBRANCH  19  20
ENDBRANCH   9  19
ENDBRANCH   6   8
ENDBRANCH   5   6
ENDBRANCH   4   5
ENDBRANCH   3   4
ENDBRANCH   2   3
ENDBRANCH   1   2
BRANCH   1  26
ATOM     26  C   UNL     1      -5.453   4.462   6.025  1.00  0.00     0.261 C 
BRANCH  26  27
ATOM     27  O   UNL     1      -4.955   5.809   6.021  1.00  0.00    -0.460 OA
BRANCH  27  28
ATOM     28  C   UNL     1      -5.632   6.659   6.833  1.00  0.00     0.338 C 
ATOM     29  O   UNL     1      -6.620   6.407   7.502  1.00  0.00    -0.246 OA
BRANCH  28  30
ATOM     30  C   UNL     1      -4.892   7.928   6.960  1.00  0.00     0.060 A 
ATOM     31  C   UNL     1      -4.551   8.354   8.250  1.00  0.00     0.016 A 
ATOM     32  C   UNL     1      -4.602   8.720   5.848  1.00  0.00     0.016 A 
ATOM     33  C   UNL     1      -3.962   9.601   8.440  1.00  0.00     0.010 A 
ATOM     34  C   UNL     1      -4.015   9.974   6.042  1.00  0.00     0.010 A 
ATOM     35  C   UNL     1      -3.728  10.436   7.340  1.00  0.00    -0.014 A 
BRANCH  35  36
ATOM     36  C   UNL     1      -3.305  11.840   7.561  1.00  0.00     0.031 A 
ATOM     37  C   UNL     1      -4.314  12.944   7.394  1.00  0.00     0.074 A 
ATOM     38  C   UNL     1      -2.039  12.129   7.910  1.00  0.00     0.049 A 
ATOM     39  N   UNL     1      -4.151  14.237   7.497  1.00  0.00    -0.248 NA
ATOM     40  C   UNL     1      -5.689  12.536   7.061  1.00  0.00     0.031 C 
ATOM     41  C   UNL     1      -0.974  11.147   8.111  1.00  0.00     0.029 A 
ATOM     42  N   UNL     1      -1.429  13.338   8.130  1.00  0.00    -0.354 N 
ATOM     43  C   UNL     1      -5.388  14.800   7.207  1.00  0.00     0.074 A 
ATOM     44  C   UNL     1      -6.291  13.708   6.913  1.00  0.00     0.031 C 
ATOM     45  C   UNL     1       0.167  11.796   8.399  1.00  0.00     0.029 A 
ATOM     46  C   UNL     1      -0.080  13.236   8.371  1.00  0.00     0.049 A 
ATOM     47  H   UNL     1      -1.911  14.197   8.118  1.00  0.00     0.167 HD
ATOM     48  C   UNL     1      -5.745  16.106   7.200  1.00  0.00     0.034 A 
ATOM     49  C   UNL     1       0.855  14.195   8.522  1.00  0.00     0.034 A 
ATOM     50  C   UNL     1      -4.849  17.188   7.509  1.00  0.00     0.049 A 
ATOM     51  C   UNL     1       0.439  15.642   8.477  1.00  0.00     0.074 A 
ATOM     52  C   UNL     1      -5.128  18.541   7.579  1.00  0.00     0.029 A 
ATOM     53  N   UNL     1      -3.498  17.044   7.781  1.00  0.00    -0.354 N 
ATOM     54  N   UNL     1      -0.757  16.154   8.313  1.00  0.00    -0.248 NA
ATOM     55  C   UNL     1       1.497  16.645   8.670  1.00  0.00     0.031 C 
ATOM     56  C   UNL     1      -3.936  19.219   7.851  1.00  0.00     0.029 A 
ATOM     57  C   UNL     1      -2.924  18.285   8.000  1.00  0.00     0.049 A 
ATOM     58  H   UNL     1      -3.016  16.186   7.814  1.00  0.00     0.167 HD
ATOM     59  C   UNL     1      -0.602  17.532   8.423  1.00  0.00     0.074 A 
ATOM     60  C   UNL     1       0.802  17.773   8.686  1.00  0.00     0.031 C 
ATOM     61  C   UNL     1      -1.534  18.510   8.308  1.00  0.00     0.034 A 
BRANCH  48  62
ATOM     62  C   UNL     1      -7.173  16.442   6.853  1.00  0.00     0.023 A 
ATOM     63  C   UNL     1      -8.208  16.137   7.760  1.00  0.00     0.012 A 
ATOM     64  C   UNL     1      -7.482  17.111   5.653  1.00  0.00     0.148 A 
ATOM     65  C   UNL     1      -9.532  16.461   7.462  1.00  0.00     0.002 A 
ATOM     66  C   UNL     1      -8.796  17.475   5.385  1.00  0.00     0.091 A 
ATOM     67  F   UNL     1      -6.487  17.375   4.794  1.00  0.00    -0.205 F 
ATOM     68  C   UNL     1      -9.823  17.139   6.282  1.00  0.00     0.022 A 
BRANCH  66  69
ATOM     69  S   UNL     1      -9.263  18.421   3.932  1.00  0.00     0.127 S 
ATOM     70  O   UNL     1     -10.028  17.434   3.171  1.00  0.00    -0.237 OA
ATOM     71  O   UNL     1     -10.066  19.498   4.513  1.00  0.00    -0.237 OA
ATOM     72  O   UNL     1      -8.018  18.855   3.315  1.00  0.00    -0.744 OA
ENDBRANCH  66  69
ENDBRANCH  48  62
BRANCH  49  73
ATOM     73  C   UNL     1       2.279  13.820   8.749  1.00  0.00     0.023 A 
ATOM     74  C   UNL     1       2.883  14.088   9.992  1.00  0.00     0.012 A 
ATOM     75  C   UNL     1       3.035  13.193   7.739  1.00  0.00     0.148 A 
ATOM     76  C   UNL     1       4.224  13.771  10.214  1.00  0.00     0.002 A 
ATOM     77  C   UNL     1       4.352  12.827   7.986  1.00  0.00     0.091 A 
ATOM     78  F   UNL     1       2.446  12.959   6.558  1.00  0.00    -0.205 F 
ATOM     79  C   UNL     1       4.955  13.133   9.216  1.00  0.00     0.022 A 
BRANCH  77  80
ATOM     80  S   UNL     1       5.330  11.888   6.808  1.00  0.00     0.127 S 
ATOM     81  O   UNL     1       6.346  12.862   6.419  1.00  0.00    -0.237 OA
ATOM     82  O   UNL     1       5.816  10.784   7.636  1.00  0.00    -0.237 OA
ATOM     83  O   UNL     1       4.404  11.488   5.757  1.00  0.00    -0.744 OA
ENDBRANCH  77  80
ENDBRANCH  49  73
BRANCH  61  84
ATOM     84  C   UNL     1      -1.088  19.936   8.516  1.00  0.00     0.023 A 
ATOM     85  C   UNL     1      -0.280  20.573   7.553  1.00  0.00     0.012 A 
ATOM     86  C   UNL     1      -1.534  20.666   9.636  1.00  0.00     0.148 A 
ATOM     87  C   UNL     1       0.109  21.902   7.722  1.00  0.00     0.002 A 
ATOM     88  C   UNL     1      -1.188  22.006   9.769  1.00  0.00     0.091 A 
ATOM     89  F   UNL     1      -2.290  20.039  10.548  1.00  0.00    -0.205 F 
ATOM     90  C   UNL     1      -0.355  22.621   8.821  1.00  0.00     0.022 A 
BRANCH  88  91
ATOM     91  S   UNL     1      -1.818  23.038  11.097  1.00  0.00     0.127 S 
ATOM     92  O   UNL     1      -0.613  23.267  11.893  1.00  0.00    -0.237 OA
ATOM     93  O   UNL     1      -2.303  24.213  10.371  1.00  0.00    -0.237 OA
ATOM     94  O   UNL     1      -2.859  22.260  11.754  1.00  0.00    -0.744 OA
ENDBRANCH  88  91
ENDBRANCH  61  84
ENDBRANCH  35  36
ENDBRANCH  28  30
ENDBRANCH  27  28
ENDBRANCH  26  27
ENDBRANCH   1  26
TORSDOF 19
