REMARK SMILES O=C(CCCNC(=O)N1CC[C@@H](C(=O)OCCOCCOC(=O)c2ccc(-c3c4nc(c(-c5cccc(S(=O)(=O)[O-])c5F)c5ccc([nH]5)c(-c5cccc(S(=O)(=O)[O-])c5F)c5nc(c(-c6cccc(S(=O)(=O)[O-])c6F)c6ccc3[nH]6)C=C5)C=C4)cc2)C1)NC1CC1
REMARK SMILES IDX 16 1 15 2 13 3 14 4 12 5 9 6 10 7 87 8 11 9 7 10 6 11 8 13
REMARK SMILES IDX 5 14 4 15 3 16 2 17 1 18 88 19 89 21 90 22 91 23 17 24 18 25
REMARK SMILES IDX 19 26 20 27 21 28 22 29 23 30 24 31 25 32 86 33 26 34 85 35
REMARK SMILES IDX 27 36 28 37 29 38 79 39 30 40 84 41 78 42 80 43 31 44 83 45
REMARK SMILES IDX 77 46 76 47 32 49 64 50 44 51 63 52 45 53 48 54 62 55 81 56
REMARK SMILES IDX 46 57 47 58 61 60 82 61 49 62 33 63 34 64 42 65 35 66 37 67
REMARK SMILES IDX 43 68 36 69 38 70 39 71 40 72 41 73 65 74 66 75 74 76 67 77
REMARK SMILES IDX 69 78 75 79 68 80 70 81 71 82 72 83 73 84 50 85 51 86 59 87
REMARK SMILES IDX 52 88 54 89 60 90 53 91 55 92 56 93 57 94 58 95
REMARK H PARENT 6 12 88 20 80 48 48 59
REMARK Flexibility Score: inf
ROOT
ATOM      1  C   UNL     1      11.727  -4.345   3.161  1.00  0.00     0.261 C 
ENDROOT
BRANCH   1   2
ATOM      2  O   UNL     1      10.329  -4.004   3.095  1.00  0.00    -0.463 OA
BRANCH   2   3
ATOM      3  C   UNL     1       9.914  -2.986   3.887  1.00  0.00     0.310 C 
ATOM      4  O   UNL     1      10.616  -2.381   4.688  1.00  0.00    -0.252 OA
BRANCH   3   5
ATOM      5  C   UNL     1       8.475  -2.602   3.636  1.00  0.00     0.120 C 
ATOM      6  N   UNL     1       7.600  -1.390   1.808  1.00  0.00    -0.324 N 
ATOM      7  C   UNL     1       7.563  -2.782   1.402  1.00  0.00     0.122 C 
ATOM      8  C   UNL     1       8.438  -1.222   2.975  1.00  0.00     0.136 C 
ATOM      9  C   UNL     1       7.638  -3.519   2.724  1.00  0.00     0.039 C 
BRANCH   6  10
ATOM     10  C   UNL     1       7.162  -0.329   1.083  1.00  0.00     0.317 C 
ATOM     11  N   UNL     1       5.915  -0.406   0.547  1.00  0.00    -0.338 N 
ATOM     12  H   UNL     1       5.748   0.115  -0.272  1.00  0.00     0.165 HD
ATOM     13  O   UNL     1       7.799   0.714   0.959  1.00  0.00    -0.249 OA
BRANCH  11  14
ATOM     14  C   UNL     1       4.803  -1.187   1.070  1.00  0.00     0.118 C 
BRANCH  14  15
ATOM     15  C   UNL     1       3.768  -0.316   1.785  1.00  0.00     0.031 C 
BRANCH  15  16
ATOM     16  C   UNL     1       3.032   0.678   0.890  1.00  0.00     0.102 C 
BRANCH  16  17
ATOM     17  C   UNL     1       2.156  -0.026  -0.124  1.00  0.00     0.220 C 
ATOM     18  O   UNL     1       0.985  -0.307   0.112  1.00  0.00    -0.275 OA
ATOM     19  N   UNL     1       2.813  -0.343  -1.294  1.00  0.00    -0.353 N 
ATOM     20  H   UNL     1       3.743  -0.040  -1.410  1.00  0.00     0.163 HD
BRANCH  19  21
ATOM     21  C   UNL     1       2.203  -1.091  -2.344  1.00  0.00     0.082 C 
ATOM     22  C   UNL     1       3.026  -1.551  -3.517  1.00  0.00     0.027 C 
ATOM     23  C   UNL     1       2.512  -2.551  -2.525  1.00  0.00     0.027 C 
ENDBRANCH  19  21
ENDBRANCH  16  17
ENDBRANCH  15  16
ENDBRANCH  14  15
ENDBRANCH  11  14
ENDBRANCH   6  10
ENDBRANCH   3   5
ENDBRANCH   2   3
ENDBRANCH   1   2
BRANCH   1  24
ATOM     24  C   UNL     1      12.405  -4.092   1.812  1.00  0.00     0.202 C 
BRANCH  24  25
ATOM     25  O   UNL     1      12.569  -2.712   1.468  1.00  0.00    -0.374 OA
BRANCH  25  26
ATOM     26  C   UNL     1      11.427  -2.071   0.900  1.00  0.00     0.202 C 
BRANCH  26  27
ATOM     27  C   UNL     1      11.281  -2.203  -0.619  1.00  0.00     0.261 C 
BRANCH  27  28
ATOM     28  O   UNL     1      11.130  -3.578  -1.011  1.00  0.00    -0.460 OA
BRANCH  28  29
ATOM     29  C   UNL     1      12.234  -4.121  -1.572  1.00  0.00     0.338 C 
ATOM     30  O   UNL     1      13.262  -3.534  -1.894  1.00  0.00    -0.246 OA
BRANCH  29  31
ATOM     31  C   UNL     1      12.127  -5.591  -1.603  1.00  0.00     0.060 A 
ATOM     32  C   UNL     1      13.237  -6.317  -1.152  1.00  0.00     0.016 A 
ATOM     33  C   UNL     1      11.006  -6.252  -2.111  1.00  0.00     0.016 A 
ATOM     34  C   UNL     1      13.259  -7.703  -1.272  1.00  0.00     0.010 A 
ATOM     35  C   UNL     1      11.031  -7.646  -2.232  1.00  0.00     0.010 A 
ATOM     36  C   UNL     1      12.176  -8.372  -1.855  1.00  0.00    -0.014 A 
BRANCH  36  37
ATOM     37  C   UNL     1      12.316  -9.809  -2.192  1.00  0.00     0.031 A 
ATOM     38  C   UNL     1      12.623 -10.202  -3.612  1.00  0.00     0.074 A 
ATOM     39  C   UNL     1      12.204 -10.752  -1.240  1.00  0.00     0.049 A 
ATOM     40  N   UNL     1      12.822 -11.392  -4.116  1.00  0.00    -0.248 NA
ATOM     41  C   UNL     1      12.717  -9.110  -4.595  1.00  0.00     0.031 C 
ATOM     42  C   UNL     1      11.903 -10.496   0.168  1.00  0.00     0.029 A 
ATOM     43  N   UNL     1      12.314 -12.117  -1.320  1.00  0.00    -0.354 N 
ATOM     44  C   UNL     1      13.039 -11.197  -5.474  1.00  0.00     0.074 A 
ATOM     45  C   UNL     1      12.933  -9.775  -5.720  1.00  0.00     0.031 C 
ATOM     46  C   UNL     1      11.826 -11.670   0.816  1.00  0.00     0.029 A 
ATOM     47  C   UNL     1      12.056 -12.759  -0.132  1.00  0.00     0.049 A 
ATOM     48  H   UNL     1      12.554 -12.591  -2.148  1.00  0.00     0.167 HD
ATOM     49  C   UNL     1      13.320 -12.115  -6.429  1.00  0.00     0.034 A 
ATOM     50  C   UNL     1      11.998 -14.075   0.153  1.00  0.00     0.034 A 
ATOM     51  C   UNL     1      13.453 -13.525  -6.179  1.00  0.00     0.049 A 
ATOM     52  C   UNL     1      12.309 -15.078  -0.927  1.00  0.00     0.074 A 
ATOM     53  C   UNL     1      13.801 -14.527  -7.067  1.00  0.00     0.029 A 
ATOM     54  N   UNL     1      13.227 -14.136  -4.955  1.00  0.00    -0.354 N 
ATOM     55  N   UNL     1      12.652 -14.867  -2.175  1.00  0.00    -0.248 NA
ATOM     56  C   UNL     1      12.261 -16.498  -0.551  1.00  0.00     0.031 C 
ATOM     57  C   UNL     1      13.758 -15.748  -6.386  1.00  0.00     0.029 A 
ATOM     58  C   UNL     1      13.410 -15.504  -5.067  1.00  0.00     0.049 A 
ATOM     59  H   UNL     1      12.975 -13.666  -4.128  1.00  0.00     0.167 HD
ATOM     60  C   UNL     1      12.889 -16.122  -2.725  1.00  0.00     0.074 A 
ATOM     61  C   UNL     1      12.674 -17.087  -1.666  1.00  0.00     0.031 C 
ATOM     62  C   UNL     1      13.237 -16.449  -3.994  1.00  0.00     0.034 A 
BRANCH  49  63
ATOM     63  C   UNL     1      13.530 -11.619  -7.835  1.00  0.00     0.023 A 
ATOM     64  C   UNL     1      14.714 -10.930  -8.164  1.00  0.00     0.012 A 
ATOM     65  C   UNL     1      12.580 -11.882  -8.841  1.00  0.00     0.148 A 
ATOM     66  C   UNL     1      14.937 -10.482  -9.466  1.00  0.00     0.002 A 
ATOM     67  C   UNL     1      12.828 -11.469 -10.146  1.00  0.00     0.091 A 
ATOM     68  F   UNL     1      11.448 -12.515  -8.503  1.00  0.00    -0.205 F 
ATOM     69  C   UNL     1      14.001 -10.761 -10.457  1.00  0.00     0.022 A 
BRANCH  67  70
ATOM     70  S   UNL     1      11.716 -11.846 -11.505  1.00  0.00     0.127 S 
ATOM     71  O   UNL     1      11.117 -10.538 -11.767  1.00  0.00    -0.237 OA
ATOM     72  O   UNL     1      12.639 -12.312 -12.540  1.00  0.00    -0.237 OA
ATOM     73  O   UNL     1      10.803 -12.864 -11.005  1.00  0.00    -0.744 OA
ENDBRANCH  67  70
ENDBRANCH  49  63
BRANCH  50  74
ATOM     74  C   UNL     1      11.661 -14.517   1.536  1.00  0.00     0.023 A 
ATOM     75  C   UNL     1      12.647 -15.121   2.338  1.00  0.00     0.012 A 
ATOM     76  C   UNL     1      10.373 -14.311   2.068  1.00  0.00     0.148 A 
ATOM     77  C   UNL     1      12.349 -15.536   3.637  1.00  0.00     0.002 A 
ATOM     78  C   UNL     1      10.099 -14.673   3.381  1.00  0.00     0.091 A 
ATOM     79  F   UNL     1       9.442 -13.752   1.281  1.00  0.00    -0.205 F 
ATOM     80  C   UNL     1      11.081 -15.302   4.162  1.00  0.00     0.022 A 
BRANCH  78  81
ATOM     81  S   UNL     1       8.538 -14.282   4.179  1.00  0.00     0.127 S 
ATOM     82  O   UNL     1       7.916 -15.599   4.283  1.00  0.00    -0.237 OA
ATOM     83  O   UNL     1       8.984 -13.708   5.449  1.00  0.00    -0.237 OA
ATOM     84  O   UNL     1       7.873 -13.334   3.296  1.00  0.00    -0.744 OA
ENDBRANCH  78  81
ENDBRANCH  50  74
BRANCH  62  85
ATOM     85  C   UNL     1      13.431 -17.910  -4.313  1.00  0.00     0.023 A 
ATOM     86  C   UNL     1      12.310 -18.759  -4.404  1.00  0.00     0.012 A 
ATOM     87  C   UNL     1      14.712 -18.424  -4.594  1.00  0.00     0.148 A 
ATOM     88  C   UNL     1      12.465 -20.105  -4.737  1.00  0.00     0.002 A 
ATOM     89  C   UNL     1      14.854 -19.754  -4.972  1.00  0.00     0.091 A 
ATOM     90  F   UNL     1      15.769 -17.605  -4.484  1.00  0.00    -0.205 F 
ATOM     91  C   UNL     1      13.733 -20.599  -5.032  1.00  0.00     0.022 A 
BRANCH  89  92
ATOM     92  S   UNL     1      16.436 -20.451  -5.462  1.00  0.00     0.127 S 
ATOM     93  O   UNL     1      16.777 -21.264  -4.296  1.00  0.00    -0.237 OA
ATOM     94  O   UNL     1      16.084 -21.216  -6.658  1.00  0.00    -0.237 OA
ATOM     95  O   UNL     1      17.312 -19.314  -5.711  1.00  0.00    -0.744 OA
ENDBRANCH  89  92
ENDBRANCH  62  85
ENDBRANCH  36  37
ENDBRANCH  29  31
ENDBRANCH  28  29
ENDBRANCH  27  28
ENDBRANCH  26  27
ENDBRANCH  25  26
ENDBRANCH  24  25
ENDBRANCH   1  24
TORSDOF 23
