REMARK SMILES Cc1ccc(S(=O)(=O)n2cc(C(=O)C(=O)N[C@@H](Cc3cnc[nH]3)C(=O)OCCOCCOC(=O)c3ccc(-c4c5nc(c(-c6cccc(S(=O)(=O)[O-])c6F)c6ccc([nH]6)c(-c6cccc(S(=O)(=O)[O-])c6F)c6nc(c(-c7cccc(S(=O)(=O)[O-])c7F)c7ccc4[nH]7)C=C6)C=C5)cc3)c3ccccc32)cc1
REMARK SMILES IDX 28 1 27 2 26 3 24 4 25 5 17 6 16 7 14 8 15 9 12 11 13 12
REMARK SMILES IDX 11 13 9 14 10 15 103 16 98 17 102 18 99 19 101 20 100 21
REMARK SMILES IDX 6 22 7 23 8 24 5 25 1 26 2 27 3 28 105 29 4 30 104 31 18 32
REMARK SMILES IDX 19 33 20 34 23 35 21 36 22 37 29 39 30 40 31 41 32 42 33 43
REMARK SMILES IDX 34 44 35 45 36 46 97 47 37 48 96 49 38 50 39 51 40 52 90 53
REMARK SMILES IDX 41 54 95 55 89 56 91 57 42 58 94 59 88 60 87 61 43 63 75 64
REMARK SMILES IDX 55 65 74 66 56 67 59 68 73 69 92 70 57 71 58 72 72 74 93 75
REMARK SMILES IDX 60 76 44 77 45 78 53 79 46 80 48 81 54 82 47 83 49 84 50 85
REMARK SMILES IDX 51 86 52 87 76 88 77 89 85 90 78 91 80 92 86 93 79 94 81 95
REMARK SMILES IDX 82 96 83 97 84 98 61 99 62 100 70 101 63 102 65 103 71 104
REMARK SMILES IDX 64 105 66 106 67 107 68 108 69 109
REMARK H PARENT 16 10 23 38 91 62 59 73
REMARK Flexibility Score: inf
ROOT
ATOM      1  C   UNL     1      -5.895   5.724   5.478  1.00  0.00     0.202 C 
ENDROOT
BRANCH   1   2
ATOM      2  C   UNL     1      -7.172   6.493   5.401  1.00  0.00     0.261 C 
BRANCH   2   3
ATOM      3  O   UNL     1      -8.000   5.970   4.355  1.00  0.00    -0.462 OA
BRANCH   3   4
ATOM      4  C   UNL     1      -7.946   6.581   3.127  1.00  0.00     0.329 C 
ATOM      5  O   UNL     1      -7.726   7.763   2.926  1.00  0.00    -0.250 OA
BRANCH   4   6
ATOM      6  C   UNL     1      -8.386   5.589   2.060  1.00  0.00     0.198 C 
BRANCH   6   7
ATOM      7  N   UNL     1      -7.911   4.274   2.520  1.00  0.00    -0.335 N 
ATOM      8  C   UNL     1      -6.646   3.768   2.380  1.00  0.00     0.293 C 
ATOM      9  O   UNL     1      -6.239   2.891   3.134  1.00  0.00    -0.265 OA
ATOM     10  H   UNL     1      -8.569   3.700   2.975  1.00  0.00     0.164 HD
BRANCH   8  11
ATOM     11  C   UNL     1      -5.758   4.283   1.242  1.00  0.00     0.252 C 
ATOM     12  O   UNL     1      -5.668   5.492   1.063  1.00  0.00    -0.283 OA
BRANCH  11  13
ATOM     13  C   UNL     1      -5.057   3.328   0.393  1.00  0.00     0.054 A 
ATOM     14  N   UNL     1      -4.110   1.459  -0.350  1.00  0.00    -0.240 N 
ATOM     15  C   UNL     1      -4.856   1.988   0.665  1.00  0.00     0.117 A 
ATOM     16  C   UNL     1      -3.839   2.403  -1.317  1.00  0.00     0.065 A 
ATOM     17  C   UNL     1      -4.422   3.595  -0.863  1.00  0.00     0.012 A 
ATOM     18  C   UNL     1      -3.110   2.350  -2.518  1.00  0.00     0.028 A 
ATOM     19  C   UNL     1      -4.286   4.760  -1.648  1.00  0.00     0.011 A 
ATOM     20  C   UNL     1      -2.973   3.527  -3.260  1.00  0.00     0.002 A 
ATOM     21  C   UNL     1      -3.557   4.715  -2.837  1.00  0.00     0.001 A 
BRANCH  14  22
ATOM     22  S   UNL     1      -3.496  -0.124  -0.308  1.00  0.00     0.268 S 
ATOM     23  O   UNL     1      -3.737  -0.661  -1.641  1.00  0.00    -0.201 OA
ATOM     24  O   UNL     1      -4.050  -0.745   0.874  1.00  0.00    -0.201 OA
BRANCH  22  25
ATOM     25  C   UNL     1      -1.742  -0.023  -0.081  1.00  0.00     0.088 A 
ATOM     26  C   UNL     1       2.553  -0.028   0.043  1.00  0.00     0.044 C 
ATOM     27  C   UNL     1       1.053  -0.021   0.041  1.00  0.00    -0.051 A 
ATOM     28  C   UNL     1       0.352  -1.230  -0.047  1.00  0.00     0.005 A 
ATOM     29  C   UNL     1       0.339   1.181   0.119  1.00  0.00     0.005 A 
ATOM     30  C   UNL     1      -1.040  -1.233  -0.112  1.00  0.00     0.022 A 
ATOM     31  C   UNL     1      -1.058   1.184   0.072  1.00  0.00     0.022 A 
ENDBRANCH  22  25
ENDBRANCH  14  22
ENDBRANCH  11  13
ENDBRANCH   8  11
ENDBRANCH   6   7
BRANCH   6  32
ATOM     32  C   UNL     1      -9.913   5.653   1.896  1.00  0.00     0.092 C 
BRANCH  32  33
ATOM     33  C   UNL     1     -10.661   4.872   2.930  1.00  0.00     0.037 A 
ATOM     34  C   UNL     1     -10.941   3.525   3.030  1.00  0.00     0.134 A 
ATOM     35  N   UNL     1     -11.185   5.420   4.072  1.00  0.00    -0.348 N 
ATOM     36  N   UNL     1     -11.611   3.247   4.189  1.00  0.00    -0.245 NA
ATOM     37  C   UNL     1     -11.762   4.407   4.784  1.00  0.00     0.196 A 
ATOM     38  H   UNL     1     -11.152   6.370   4.332  1.00  0.00     0.167 HD
ENDBRANCH  32  33
ENDBRANCH   6  32
ENDBRANCH   4   6
ENDBRANCH   3   4
ENDBRANCH   2   3
ENDBRANCH   1   2
BRANCH   1  39
ATOM     39  O   UNL     1      -5.156   6.121   4.329  1.00  0.00    -0.374 OA
BRANCH  39  40
ATOM     40  C   UNL     1      -3.880   5.526   4.183  1.00  0.00     0.202 C 
BRANCH  40  41
ATOM     41  C   UNL     1      -3.003   5.533   5.442  1.00  0.00     0.261 C 
BRANCH  41  42
ATOM     42  O   UNL     1      -2.564   6.878   5.707  1.00  0.00    -0.460 OA
BRANCH  42  43
ATOM     43  C   UNL     1      -3.043   7.426   6.860  1.00  0.00     0.338 C 
ATOM     44  O   UNL     1      -2.881   6.937   7.963  1.00  0.00    -0.246 OA
BRANCH  43  45
ATOM     45  C   UNL     1      -3.967   8.546   6.522  1.00  0.00     0.060 A 
ATOM     46  C   UNL     1      -4.797   9.095   7.511  1.00  0.00     0.016 A 
ATOM     47  C   UNL     1      -4.199   8.843   5.177  1.00  0.00     0.016 A 
ATOM     48  C   UNL     1      -5.960   9.779   7.146  1.00  0.00     0.010 A 
ATOM     49  C   UNL     1      -5.383   9.449   4.818  1.00  0.00     0.010 A 
ATOM     50  C   UNL     1      -6.294   9.863   5.801  1.00  0.00    -0.014 A 
BRANCH  50  51
ATOM     51  C   UNL     1      -7.514  10.464   5.284  1.00  0.00     0.031 A 
ATOM     52  C   UNL     1      -7.386  11.849   4.820  1.00  0.00     0.074 A 
ATOM     53  C   UNL     1      -8.639   9.752   5.045  1.00  0.00     0.049 A 
ATOM     54  N   UNL     1      -8.380  12.641   4.645  1.00  0.00    -0.248 NA
ATOM     55  C   UNL     1      -6.089  12.485   4.600  1.00  0.00     0.031 C 
ATOM     56  C   UNL     1      -9.724  10.039   4.108  1.00  0.00     0.029 A 
ATOM     57  N   UNL     1      -9.050   8.539   5.607  1.00  0.00    -0.354 N 
ATOM     58  C   UNL     1      -7.890  13.711   3.937  1.00  0.00     0.074 A 
ATOM     59  C   UNL     1      -6.471  13.682   4.159  1.00  0.00     0.031 C 
ATOM     60  C   UNL     1     -10.771   9.233   4.379  1.00  0.00     0.029 A 
ATOM     61  C   UNL     1     -10.442   8.515   5.606  1.00  0.00     0.049 A 
ATOM     62  H   UNL     1      -8.459   7.827   5.944  1.00  0.00     0.167 HD
ATOM     63  C   UNL     1      -8.722  14.325   3.051  1.00  0.00     0.034 A 
ATOM     64  C   UNL     1     -11.150   8.442   6.766  1.00  0.00     0.034 A 
ATOM     65  C   UNL     1     -10.086  13.740   3.143  1.00  0.00     0.049 A 
ATOM     66  C   UNL     1     -12.012   9.666   6.841  1.00  0.00     0.074 A 
ATOM     67  C   UNL     1     -10.834  12.923   2.307  1.00  0.00     0.029 A 
ATOM     68  N   UNL     1     -10.743  13.714   4.379  1.00  0.00    -0.354 N 
ATOM     69  N   UNL     1     -11.718  10.756   6.188  1.00  0.00    -0.248 NA
ATOM     70  C   UNL     1     -13.315   9.726   7.483  1.00  0.00     0.031 C 
ATOM     71  C   UNL     1     -11.921  12.386   3.062  1.00  0.00     0.029 A 
ATOM     72  C   UNL     1     -11.849  12.878   4.358  1.00  0.00     0.049 A 
ATOM     73  H   UNL     1     -10.454  14.227   5.168  1.00  0.00     0.167 HD
ATOM     74  C   UNL     1     -12.772  11.609   6.208  1.00  0.00     0.074 A 
ATOM     75  C   UNL     1     -13.744  10.929   7.057  1.00  0.00     0.031 C 
ATOM     76  C   UNL     1     -12.748  12.788   5.516  1.00  0.00     0.034 A 
BRANCH  63  77
ATOM     77  C   UNL     1      -8.257  15.226   1.903  1.00  0.00     0.023 A 
ATOM     78  C   UNL     1      -9.204  15.524   0.900  1.00  0.00     0.012 A 
ATOM     79  C   UNL     1      -6.969  15.793   1.698  1.00  0.00     0.148 A 
ATOM     80  C   UNL     1      -8.895  16.282  -0.239  1.00  0.00     0.002 A 
ATOM     81  C   UNL     1      -6.650  16.537   0.556  1.00  0.00     0.091 A 
ATOM     82  F   UNL     1      -6.022  15.680   2.622  1.00  0.00    -0.205 F 
ATOM     83  C   UNL     1      -7.614  16.781  -0.418  1.00  0.00     0.022 A 
BRANCH  81  84
ATOM     84  S   UNL     1      -4.999  17.213   0.264  1.00  0.00     0.127 S 
ATOM     85  O   UNL     1      -4.707  16.740  -1.091  1.00  0.00    -0.237 OA
ATOM     86  O   UNL     1      -5.230  18.653   0.367  1.00  0.00    -0.237 OA
ATOM     87  O   UNL     1      -4.129  16.649   1.289  1.00  0.00    -0.744 OA
ENDBRANCH  81  84
ENDBRANCH  63  77
BRANCH  64  88
ATOM     88  C   UNL     1     -10.434   7.719   7.868  1.00  0.00     0.023 A 
ATOM     89  C   UNL     1     -10.207   6.327   7.695  1.00  0.00     0.012 A 
ATOM     90  C   UNL     1      -9.658   8.394   8.822  1.00  0.00     0.148 A 
ATOM     91  C   UNL     1      -9.148   5.666   8.327  1.00  0.00     0.002 A 
ATOM     92  C   UNL     1      -8.594   7.732   9.445  1.00  0.00     0.091 A 
ATOM     93  F   UNL     1      -9.939   9.677   9.079  1.00  0.00    -0.205 F 
ATOM     94  C   UNL     1      -8.306   6.386   9.161  1.00  0.00     0.022 A 
BRANCH  92  95
ATOM     95  S   UNL     1      -7.470   8.582  10.559  1.00  0.00     0.127 S 
ATOM     96  O   UNL     1      -8.019   8.217  11.861  1.00  0.00    -0.237 OA
ATOM     97  O   UNL     1      -6.184   7.960  10.245  1.00  0.00    -0.237 OA
ATOM     98  O   UNL     1      -7.560   9.988  10.195  1.00  0.00    -0.744 OA
ENDBRANCH  92  95
ENDBRANCH  64  88
BRANCH  76  99
ATOM     99  C   UNL     1     -13.578  13.992   5.895  1.00  0.00     0.023 A 
ATOM    100  C   UNL     1     -14.326  14.042   7.086  1.00  0.00     0.012 A 
ATOM    101  C   UNL     1     -13.461  15.203   5.167  1.00  0.00     0.148 A 
ATOM    102  C   UNL     1     -14.950  15.210   7.522  1.00  0.00     0.002 A 
ATOM    103  C   UNL     1     -13.969  16.390   5.673  1.00  0.00     0.091 A 
ATOM    104  F   UNL     1     -12.864  15.219   3.968  1.00  0.00    -0.205 F 
ATOM    105  C   UNL     1     -14.741  16.393   6.835  1.00  0.00     0.022 A 
BRANCH 103 106
ATOM    106  S   UNL     1     -13.535  17.977   4.955  1.00  0.00     0.127 S 
ATOM    107  O   UNL     1     -14.772  18.332   4.263  1.00  0.00    -0.237 OA
ATOM    108  O   UNL     1     -13.247  18.777   6.146  1.00  0.00    -0.237 OA
ATOM    109  O   UNL     1     -12.379  17.727   4.105  1.00  0.00    -0.744 OA
ENDBRANCH 103 106
ENDBRANCH  76  99
ENDBRANCH  50  51
ENDBRANCH  43  45
ENDBRANCH  42  43
ENDBRANCH  41  42
ENDBRANCH  40  41
ENDBRANCH  39  40
ENDBRANCH   1  39
TORSDOF 24
