REMARK SMILES CN(CCCC(=O)OCCOCCOC(=O)c1ccc(-c2c3nc(c(-c4cccc(S(=O)(=O)[O-])c4F)c4ccc([nH]4)c(-c4cccc(S(=O)(=O)[O-])c4F)c4nc(c(-c5cccc(S(=O)(=O)[O-])c5F)c5ccc2[nH]5)C=C4)C=C3)cc1)C(=O)c1ccc(Br)o1
REMARK SMILES IDX 10 1 9 2 8 3 6 4 7 5 5 6 4 7 3 8 2 9 1 10 80 11 81 12 82 13
REMARK SMILES IDX 83 14 87 15 84 16 85 17 86 18 11 19 12 20 13 21 14 22 15 23
REMARK SMILES IDX 16 24 17 25 18 26 79 27 19 28 78 29 20 30 21 31 22 32 72 33
REMARK SMILES IDX 23 34 77 35 71 36 73 37 24 38 76 39 70 40 69 41 25 43 57 44
REMARK SMILES IDX 37 45 56 46 38 47 41 48 55 49 74 50 39 51 40 52 54 54 75 55
REMARK SMILES IDX 42 56 26 57 27 58 35 59 28 60 30 61 36 62 29 63 31 64 32 65
REMARK SMILES IDX 33 66 34 67 58 68 59 69 67 70 60 71 62 72 68 73 61 74 63 75
REMARK SMILES IDX 64 76 65 77 66 78 43 79 44 80 52 81 45 82 47 83 53 84 46 85
REMARK SMILES IDX 48 86 49 87 50 88 51 89
REMARK H PARENT 73 42 41 53
REMARK Flexibility Score: inf
ROOT
ATOM      1  C   UNL     1      -0.031  -3.171   6.444  1.00  0.00     0.202 C 
ENDROOT
BRANCH   1   2
ATOM      2  C   UNL     1       0.104  -3.740   5.034  1.00  0.00     0.261 C 
BRANCH   2   3
ATOM      3  O   UNL     1      -0.466  -2.860   4.052  1.00  0.00    -0.463 OA
BRANCH   3   4
ATOM      4  C   UNL     1      -1.441  -3.366   3.258  1.00  0.00     0.305 C 
ATOM      5  O   UNL     1      -1.968  -4.464   3.401  1.00  0.00    -0.252 OA
BRANCH   4   6
ATOM      6  C   UNL     1      -1.899  -2.383   2.202  1.00  0.00     0.124 C 
BRANCH   6   7
ATOM      7  C   UNL     1      -1.101  -1.089   2.055  1.00  0.00     0.033 C 
BRANCH   7   8
ATOM      8  C   UNL     1       0.414  -1.219   1.823  1.00  0.00     0.120 C 
BRANCH   8   9
ATOM      9  N   UNL     1       0.807  -1.551   0.455  1.00  0.00    -0.339 N 
ATOM     10  C   UNL     1       1.206  -0.432  -0.387  1.00  0.00     0.147 C 
BRANCH   9  11
ATOM     11  C   UNL     1       1.086  -2.836  -0.039  1.00  0.00     0.289 C 
ATOM     12  O   UNL     1       1.558  -2.986  -1.166  1.00  0.00    -0.265 OA
BRANCH  11  13
ATOM     13  C   UNL     1       0.709  -4.000   0.734  1.00  0.00     0.193 A 
ATOM     14  C   UNL     1      -0.280  -4.933   0.475  1.00  0.00     0.057 A 
ATOM     15  O   UNL     1       1.487  -4.435   1.773  1.00  0.00    -0.444 OA
ATOM     16  C   UNL     1      -0.100  -5.989   1.394  1.00  0.00     0.059 A 
ATOM     17  C   UNL     1       1.012  -5.662   2.136  1.00  0.00     0.170 A 
ATOM     18  Br  UNL     1       1.772  -6.762   3.440  1.00  0.00    -0.008 Br
ENDBRANCH  11  13
ENDBRANCH   9  11
ENDBRANCH   8   9
ENDBRANCH   7   8
ENDBRANCH   6   7
ENDBRANCH   4   6
ENDBRANCH   3   4
ENDBRANCH   2   3
ENDBRANCH   1   2
BRANCH   1  19
ATOM     19  O   UNL     1      -1.347  -3.065   6.985  1.00  0.00    -0.374 OA
BRANCH  19  20
ATOM     20  C   UNL     1      -2.293  -2.240   6.314  1.00  0.00     0.202 C 
BRANCH  20  21
ATOM     21  C   UNL     1      -2.111  -0.717   6.373  1.00  0.00     0.261 C 
BRANCH  21  22
ATOM     22  O   UNL     1      -0.801  -0.250   6.016  1.00  0.00    -0.460 OA
BRANCH  22  23
ATOM     23  C   UNL     1      -0.050   0.132   7.077  1.00  0.00     0.338 C 
ATOM     24  O   UNL     1      -0.386   0.117   8.259  1.00  0.00    -0.246 OA
BRANCH  23  25
ATOM     25  C   UNL     1       1.325   0.457   6.669  1.00  0.00     0.060 A 
ATOM     26  C   UNL     1       2.367  -0.201   7.334  1.00  0.00     0.016 A 
ATOM     27  C   UNL     1       1.594   1.485   5.762  1.00  0.00     0.016 A 
ATOM     28  C   UNL     1       3.682   0.214   7.149  1.00  0.00     0.010 A 
ATOM     29  C   UNL     1       2.917   1.904   5.583  1.00  0.00     0.010 A 
ATOM     30  C   UNL     1       3.958   1.304   6.315  1.00  0.00    -0.014 A 
BRANCH  30  31
ATOM     31  C   UNL     1       5.304   1.923   6.360  1.00  0.00     0.031 A 
ATOM     32  C   UNL     1       5.513   3.151   7.204  1.00  0.00     0.074 A 
ATOM     33  C   UNL     1       6.334   1.378   5.690  1.00  0.00     0.049 A 
ATOM     34  N   UNL     1       6.604   3.841   7.409  1.00  0.00    -0.248 NA
ATOM     35  C   UNL     1       4.331   3.670   7.912  1.00  0.00     0.031 C 
ATOM     36  C   UNL     1       6.261   0.177   4.861  1.00  0.00     0.029 A 
ATOM     37  N   UNL     1       7.644   1.775   5.598  1.00  0.00    -0.354 N 
ATOM     38  C   UNL     1       6.238   4.887   8.249  1.00  0.00     0.074 A 
ATOM     39  C   UNL     1       4.819   4.753   8.498  1.00  0.00     0.031 C 
ATOM     40  C   UNL     1       7.474  -0.062   4.335  1.00  0.00     0.029 A 
ATOM     41  C   UNL     1       8.401   0.980   4.772  1.00  0.00     0.049 A 
ATOM     42  H   UNL     1       8.007   2.554   6.079  1.00  0.00     0.167 HD
ATOM     43  C   UNL     1       7.015   5.861   8.782  1.00  0.00     0.034 A 
ATOM     44  C   UNL     1       9.694   1.089   4.407  1.00  0.00     0.034 A 
ATOM     45  C   UNL     1       8.428   5.982   8.545  1.00  0.00     0.049 A 
ATOM     46  C   UNL     1      10.526   2.209   4.972  1.00  0.00     0.074 A 
ATOM     47  C   UNL     1       9.314   6.907   9.069  1.00  0.00     0.029 A 
ATOM     48  N   UNL     1       9.161   5.159   7.702  1.00  0.00    -0.354 N 
ATOM     49  N   UNL     1      10.194   3.126   5.848  1.00  0.00    -0.248 NA
ATOM     50  C   UNL     1      11.922   2.292   4.518  1.00  0.00     0.031 C 
ATOM     51  C   UNL     1      10.578   6.659   8.520  1.00  0.00     0.029 A 
ATOM     52  C   UNL     1      10.484   5.564   7.675  1.00  0.00     0.049 A 
ATOM     53  H   UNL     1       8.793   4.399   7.197  1.00  0.00     0.167 HD
ATOM     54  C   UNL     1      11.345   3.871   6.079  1.00  0.00     0.074 A 
ATOM     55  C   UNL     1      12.389   3.288   5.259  1.00  0.00     0.031 C 
ATOM     56  C   UNL     1      11.522   4.946   6.889  1.00  0.00     0.034 A 
BRANCH  43  57
ATOM     57  C   UNL     1       6.343   6.859   9.690  1.00  0.00     0.023 A 
ATOM     58  C   UNL     1       5.916   6.458  10.973  1.00  0.00     0.012 A 
ATOM     59  C   UNL     1       6.143   8.191   9.282  1.00  0.00     0.148 A 
ATOM     60  C   UNL     1       5.261   7.355  11.817  1.00  0.00     0.002 A 
ATOM     61  C   UNL     1       5.528   9.091  10.145  1.00  0.00     0.091 A 
ATOM     62  F   UNL     1       6.528   8.549   8.049  1.00  0.00    -0.205 F 
ATOM     63  C   UNL     1       5.075   8.672  11.407  1.00  0.00     0.022 A 
BRANCH  61  64
ATOM     64  S   UNL     1       5.311  10.824   9.726  1.00  0.00     0.127 S 
ATOM     65  O   UNL     1       3.900  10.863   9.347  1.00  0.00    -0.237 OA
ATOM     66  O   UNL     1       5.621  11.493  10.990  1.00  0.00    -0.237 OA
ATOM     67  O   UNL     1       6.261  11.093   8.655  1.00  0.00    -0.744 OA
ENDBRANCH  61  64
ENDBRANCH  43  57
BRANCH  44  68
ATOM     68  C   UNL     1      10.293   0.071   3.500  1.00  0.00     0.023 A 
ATOM     69  C   UNL     1      11.232  -0.843   4.015  1.00  0.00     0.012 A 
ATOM     70  C   UNL     1       9.912  -0.022   2.147  1.00  0.00     0.148 A 
ATOM     71  C   UNL     1      11.794  -1.822   3.195  1.00  0.00     0.002 A 
ATOM     72  C   UNL     1      10.439  -1.029   1.349  1.00  0.00     0.091 A 
ATOM     73  F   UNL     1       9.027   0.868   1.676  1.00  0.00    -0.205 F 
ATOM     74  C   UNL     1      11.390  -1.922   1.867  1.00  0.00     0.022 A 
BRANCH  72  75
ATOM     75  S   UNL     1       9.896  -1.308  -0.341  1.00  0.00     0.127 S 
ATOM     76  O   UNL     1      11.103  -0.987  -1.099  1.00  0.00    -0.237 OA
ATOM     77  O   UNL     1       9.546  -2.729  -0.310  1.00  0.00    -0.237 OA
ATOM     78  O   UNL     1       8.768  -0.411  -0.546  1.00  0.00    -0.744 OA
ENDBRANCH  72  75
ENDBRANCH  44  68
BRANCH  56  79
ATOM     79  C   UNL     1      12.901   5.551   6.955  1.00  0.00     0.023 A 
ATOM     80  C   UNL     1      13.389   6.303   5.868  1.00  0.00     0.012 A 
ATOM     81  C   UNL     1      13.681   5.439   8.123  1.00  0.00     0.148 A 
ATOM     82  C   UNL     1      14.644   6.907   5.931  1.00  0.00     0.002 A 
ATOM     83  C   UNL     1      14.911   6.083   8.197  1.00  0.00     0.091 A 
ATOM     84  F   UNL     1      13.209   4.703   9.140  1.00  0.00    -0.205 F 
ATOM     85  C   UNL     1      15.399   6.808   7.097  1.00  0.00     0.022 A 
BRANCH  83  86
ATOM     86  S   UNL     1      15.906   6.090   9.692  1.00  0.00     0.127 S 
ATOM     87  O   UNL     1      16.992   5.180   9.332  1.00  0.00    -0.237 OA
ATOM     88  O   UNL     1      16.298   7.496   9.799  1.00  0.00    -0.237 OA
ATOM     89  O   UNL     1      15.029   5.627  10.759  1.00  0.00    -0.744 OA
ENDBRANCH  83  86
ENDBRANCH  56  79
ENDBRANCH  30  31
ENDBRANCH  23  25
ENDBRANCH  22  23
ENDBRANCH  21  22
ENDBRANCH  20  21
ENDBRANCH  19  20
ENDBRANCH   1  19
TORSDOF 22
