REMARK SMILES C[C@@H]1[C@@H](C(=O)OCCOCCOC(=O)c2ccc(-c3c4nc(c(-c5cccc(S(=O)(=O)[O-])c5F)c5ccc([nH]5)c(-c5cccc(S(=O)(=O)[O-])c5F)c5nc(c(-c6cccc(S(=O)(=O)[O-])c6F)c6ccc3[nH]6)C=C5)C=C4)cc2)CCN1c1ccc(C(F)(F)F)cc1C#N
REMARK SMILES IDX 10 1 9 2 8 3 7 4 6 5 4 6 5 7 3 8 1 9 2 10 80 11 78 12 79 13
REMARK SMILES IDX 81 14 82 15 90 16 83 17 89 18 84 19 91 20 92 21 85 22 86 23
REMARK SMILES IDX 87 24 88 25 11 26 12 27 13 28 14 29 15 30 16 31 77 32 17 33
REMARK SMILES IDX 76 34 18 35 19 36 20 37 70 38 21 39 75 40 69 41 71 42 22 43
REMARK SMILES IDX 74 44 68 45 67 46 23 48 55 49 35 50 54 51 36 52 39 53 53 54
REMARK SMILES IDX 72 55 37 56 38 57 52 59 73 60 40 61 24 62 25 63 33 64 26 65
REMARK SMILES IDX 28 66 34 67 27 68 29 69 30 70 31 71 32 72 56 73 57 74 65 75
REMARK SMILES IDX 58 76 60 77 66 78 59 79 61 80 62 81 63 82 64 83 41 84 42 85
REMARK SMILES IDX 50 86 43 87 45 88 51 89 44 90 46 91 47 92 48 93 49 94
REMARK H PARENT 71 47 39 58
REMARK Flexibility Score: inf
ROOT
ATOM      1  C   UNL     1       0.653   2.811  -3.428  1.00  0.00     0.202 C 
ENDROOT
BRANCH   1   2
ATOM      2  O   UNL     1      -0.098   2.351  -4.547  1.00  0.00    -0.374 OA
BRANCH   2   3
ATOM      3  C   UNL     1      -1.521   2.397  -4.506  1.00  0.00     0.202 C 
BRANCH   3   4
ATOM      4  C   UNL     1      -2.286   1.407  -3.624  1.00  0.00     0.261 C 
BRANCH   4   5
ATOM      5  O   UNL     1      -1.868   1.465  -2.256  1.00  0.00    -0.463 OA
BRANCH   5   6
ATOM      6  C   UNL     1      -1.023   0.460  -1.899  1.00  0.00     0.311 C 
ATOM      7  O   UNL     1      -0.712  -0.472  -2.628  1.00  0.00    -0.252 OA
BRANCH   6   8
ATOM      8  C   UNL     1      -0.418   0.742  -0.537  1.00  0.00     0.123 C 
ATOM      9  C   UNL     1       1.766   0.284   0.647  1.00  0.00     0.032 C 
ATOM     10  C   UNL     1       0.681  -0.296  -0.259  1.00  0.00     0.093 C 
ATOM     11  N   UNL     1      -0.048  -1.389   0.423  1.00  0.00    -0.367 N 
ATOM     12  C   UNL     1      -1.409   0.535   0.597  1.00  0.00     0.039 C 
ATOM     13  C   UNL     1      -1.429  -0.981   0.739  1.00  0.00     0.118 C 
BRANCH  11  14
ATOM     14  C   UNL     1       0.181  -2.696  -0.001  1.00  0.00     0.055 A 
ATOM     15  C   UNL     1      -0.618  -3.287  -0.998  1.00  0.00     0.028 A 
ATOM     16  C   UNL     1       1.210  -3.481   0.547  1.00  0.00     0.076 A 
ATOM     17  C   UNL     1      -0.451  -4.619  -1.389  1.00  0.00     0.015 A 
ATOM     18  C   UNL     1       1.383  -4.819   0.149  1.00  0.00     0.034 A 
ATOM     19  C   UNL     1       0.540  -5.408  -0.804  1.00  0.00     0.057 A 
BRANCH  16  20
ATOM     20  C   UNL     1       2.097  -2.969   1.558  1.00  0.00     0.101 C 
ATOM     21  N   UNL     1       2.857  -2.618   2.358  1.00  0.00    -0.192 NA
ENDBRANCH  16  20
BRANCH  19  22
ATOM     22  C   UNL     1       0.670  -6.863  -1.173  1.00  0.00     0.416 C 
ATOM     23  F   UNL     1      -0.432  -7.585  -0.832  1.00  0.00    -0.166 F 
ATOM     24  F   UNL     1       0.847  -7.057  -2.509  1.00  0.00    -0.166 F 
ATOM     25  F   UNL     1       1.721  -7.483  -0.565  1.00  0.00    -0.166 F 
ENDBRANCH  19  22
ENDBRANCH  11  14
ENDBRANCH   6   8
ENDBRANCH   5   6
ENDBRANCH   4   5
ENDBRANCH   3   4
ENDBRANCH   2   3
ENDBRANCH   1   2
BRANCH   1  26
ATOM     26  C   UNL     1       0.600   4.287  -3.003  1.00  0.00     0.261 C 
BRANCH  26  27
ATOM     27  O   UNL     1      -0.718   4.776  -2.719  1.00  0.00    -0.460 OA
BRANCH  27  28
ATOM     28  C   UNL     1      -1.219   5.598  -3.677  1.00  0.00     0.338 C 
ATOM     29  O   UNL     1      -0.666   5.952  -4.705  1.00  0.00    -0.246 OA
BRANCH  28  30
ATOM     30  C   UNL     1      -2.645   5.860  -3.419  1.00  0.00     0.060 A 
ATOM     31  C   UNL     1      -3.568   5.462  -4.396  1.00  0.00     0.016 A 
ATOM     32  C   UNL     1      -3.059   6.566  -2.290  1.00  0.00     0.016 A 
ATOM     33  C   UNL     1      -4.908   5.807  -4.269  1.00  0.00     0.010 A 
ATOM     34  C   UNL     1      -4.405   6.921  -2.171  1.00  0.00     0.010 A 
ATOM     35  C   UNL     1      -5.327   6.577  -3.177  1.00  0.00    -0.014 A 
BRANCH  35  36
ATOM     36  C   UNL     1      -6.699   7.136  -3.164  1.00  0.00     0.031 A 
ATOM     37  C   UNL     1      -6.898   8.595  -3.467  1.00  0.00     0.074 A 
ATOM     38  C   UNL     1      -7.754   6.346  -2.898  1.00  0.00     0.049 A 
ATOM     39  N   UNL     1      -8.002   9.295  -3.470  1.00  0.00    -0.248 NA
ATOM     40  C   UNL     1      -5.694   9.370  -3.809  1.00  0.00     0.031 C 
ATOM     41  C   UNL     1      -7.684   4.914  -2.607  1.00  0.00     0.029 A 
ATOM     42  N   UNL     1      -9.089   6.645  -2.807  1.00  0.00    -0.354 N 
ATOM     43  C   UNL     1      -7.624  10.597  -3.775  1.00  0.00     0.074 A 
ATOM     44  C   UNL     1      -6.187  10.593  -3.940  1.00  0.00     0.031 C 
ATOM     45  C   UNL     1      -8.921   4.464  -2.342  1.00  0.00     0.029 A 
ATOM     46  C   UNL     1      -9.862   5.580  -2.409  1.00  0.00     0.049 A 
ATOM     47  H   UNL     1      -9.458   7.535  -3.006  1.00  0.00     0.167 HD
ATOM     48  C   UNL     1      -8.405  11.694  -3.913  1.00  0.00     0.034 A 
ATOM     49  C   UNL     1     -11.172   5.522  -2.101  1.00  0.00     0.034 A 
ATOM     50  C   UNL     1      -9.835  11.689  -3.758  1.00  0.00     0.049 A 
ATOM     51  C   UNL     1     -12.011   6.766  -2.224  1.00  0.00     0.074 A 
ATOM     52  C   UNL     1     -10.721  12.738  -3.924  1.00  0.00     0.029 A 
ATOM     53  N   UNL     1     -10.586  10.587  -3.379  1.00  0.00    -0.354 N 
ATOM     54  N   UNL     1     -11.657   7.968  -2.611  1.00  0.00    -0.248 NA
ATOM     55  C   UNL     1     -13.439   6.639  -1.898  1.00  0.00     0.031 C 
ATOM     56  C   UNL     1     -12.002  12.284  -3.596  1.00  0.00     0.029 A 
ATOM     57  C   UNL     1     -11.923  10.936  -3.285  1.00  0.00     0.049 A 
ATOM     58  H   UNL     1     -10.223   9.689  -3.203  1.00  0.00     0.167 HD
ATOM     59  C   UNL     1     -12.822   8.727  -2.616  1.00  0.00     0.074 A 
ATOM     60  C   UNL     1     -13.896   7.843  -2.211  1.00  0.00     0.031 C 
ATOM     61  C   UNL     1     -12.989  10.037  -2.922  1.00  0.00     0.034 A 
BRANCH  48  62
ATOM     62  C   UNL     1      -7.730  12.999  -4.248  1.00  0.00     0.023 A 
ATOM     63  C   UNL     1      -7.166  13.197  -5.525  1.00  0.00     0.012 A 
ATOM     64  C   UNL     1      -7.706  14.053  -3.313  1.00  0.00     0.148 A 
ATOM     65  C   UNL     1      -6.558  14.409  -5.853  1.00  0.00     0.002 A 
ATOM     66  C   UNL     1      -7.144  15.274  -3.664  1.00  0.00     0.091 A 
ATOM     67  F   UNL     1      -8.229  13.840  -2.097  1.00  0.00    -0.205 F 
ATOM     68  C   UNL     1      -6.558  15.450  -4.928  1.00  0.00     0.022 A 
BRANCH  66  69
ATOM     69  S   UNL     1      -7.167  16.701  -2.575  1.00  0.00     0.127 S 
ATOM     70  O   UNL     1      -5.747  16.858  -2.265  1.00  0.00    -0.237 OA
ATOM     71  O   UNL     1      -7.720  17.740  -3.444  1.00  0.00    -0.237 OA
ATOM     72  O   UNL     1      -8.012  16.335  -1.447  1.00  0.00    -0.744 OA
ENDBRANCH  66  69
ENDBRANCH  48  62
BRANCH  49  73
ATOM     73  C   UNL     1     -11.777   4.236  -1.654  1.00  0.00     0.023 A 
ATOM     74  C   UNL     1     -12.722   3.586  -2.470  1.00  0.00     0.012 A 
ATOM     75  C   UNL     1     -11.415   3.654  -0.423  1.00  0.00     0.148 A 
ATOM     76  C   UNL     1     -13.325   2.399  -2.052  1.00  0.00     0.002 A 
ATOM     77  C   UNL     1     -11.974   2.442  -0.040  1.00  0.00     0.091 A 
ATOM     78  F   UNL     1     -10.521   4.294   0.343  1.00  0.00    -0.205 F 
ATOM     79  C   UNL     1     -12.945   1.823  -0.842  1.00  0.00     0.022 A 
BRANCH  77  80
ATOM     80  S   UNL     1     -11.450   1.562   1.435  1.00  0.00     0.127 S 
ATOM     81  O   UNL     1     -12.650   1.625   2.264  1.00  0.00    -0.237 OA
ATOM     82  O   UNL     1     -11.139   0.237   0.897  1.00  0.00    -0.237 OA
ATOM     83  O   UNL     1     -10.295   2.291   1.941  1.00  0.00    -0.744 OA
ENDBRANCH  77  80
ENDBRANCH  49  73
BRANCH  61  84
ATOM     84  C   UNL     1     -14.391  10.592  -2.892  1.00  0.00     0.023 A 
ATOM     85  C   UNL     1     -15.062  10.767  -1.666  1.00  0.00     0.012 A 
ATOM     86  C   UNL     1     -15.017  11.003  -4.087  1.00  0.00     0.148 A 
ATOM     87  C   UNL     1     -16.350  11.303  -1.634  1.00  0.00     0.002 A 
ATOM     88  C   UNL     1     -16.275  11.588  -4.041  1.00  0.00     0.091 A 
ATOM     89  F   UNL     1     -14.368  10.816  -5.245  1.00  0.00    -0.205 F 
ATOM     90  C   UNL     1     -16.951  11.724  -2.818  1.00  0.00     0.022 A 
BRANCH  88  91
ATOM     91  S   UNL     1     -17.085  12.252  -5.501  1.00  0.00     0.127 S 
ATOM     92  O   UNL     1     -18.200  11.321  -5.671  1.00  0.00    -0.237 OA
ATOM     93  O   UNL     1     -17.470  13.591  -5.057  1.00  0.00    -0.237 OA
ATOM     94  O   UNL     1     -16.088  12.227  -6.563  1.00  0.00    -0.744 OA
ENDBRANCH  88  91
ENDBRANCH  61  84
ENDBRANCH  35  36
ENDBRANCH  28  30
ENDBRANCH  27  28
ENDBRANCH  26  27
ENDBRANCH   1  26
TORSDOF 20
