REMARK SMILES CC[C@@](C)(NC(=O)N1CCCC[C@@H]1C)C(=O)OCCOCCOC(=O)c1ccc(-c2c3nc(c(-c4cccc(S(=O)(=O)[O-])c4F)c4ccc([nH]4)c(-c4cccc(S(=O)(=O)[O-])c4F)c4nc(c(-c5cccc(S(=O)(=O)[O-])c5F)c5ccc2[nH]5)C=C4)C=C3)cc1
REMARK SMILES IDX 21 1 20 2 19 3 18 4 17 5 15 6 16 7 3 8 4 9 2 10 1 11 5 12
REMARK SMILES IDX 6 13 7 15 8 16 9 17 13 18 10 19 12 20 14 21 11 22 22 23
REMARK SMILES IDX 23 24 24 25 25 26 26 27 27 28 88 29 28 30 87 31 29 32 30 33
REMARK SMILES IDX 31 34 81 35 32 36 86 37 80 38 82 39 33 40 85 41 79 42 78 43
REMARK SMILES IDX 34 45 66 46 46 47 65 48 47 49 50 50 64 51 83 52 48 53 49 54
REMARK SMILES IDX 63 56 84 57 51 58 35 59 36 60 44 61 37 62 39 63 45 64 38 65
REMARK SMILES IDX 40 66 41 67 42 68 43 69 67 70 68 71 76 72 69 73 71 74 77 75
REMARK SMILES IDX 70 76 72 77 73 78 74 79 75 80 52 81 53 82 61 83 54 84 56 85
REMARK SMILES IDX 62 86 55 87 57 88 58 89 59 90 60 91
REMARK H PARENT 5 14 82 44 50 55
REMARK Flexibility Score: inf
ROOT
ATOM      1  C   UNL     1       2.785  -1.759   3.626  1.00  0.00     0.202 C 
ENDROOT
BRANCH   1   2
ATOM      2  O   UNL     1       3.930  -2.114   2.800  1.00  0.00    -0.374 OA
BRANCH   2   3
ATOM      3  C   UNL     1       4.874  -1.309   2.050  1.00  0.00     0.202 C 
BRANCH   3   4
ATOM      4  C   UNL     1       4.695  -0.224   0.935  1.00  0.00     0.261 C 
BRANCH   4   5
ATOM      5  O   UNL     1       3.628   0.679   1.096  1.00  0.00    -0.462 OA
BRANCH   5   6
ATOM      6  C   UNL     1       2.463   0.197   0.626  1.00  0.00     0.331 C 
ATOM      7  O   UNL     1       2.395  -0.699  -0.189  1.00  0.00    -0.249 OA
BRANCH   6   8
ATOM      8  C   UNL     1       1.279   0.924   1.288  1.00  0.00     0.136 C 
ATOM      9  C   UNL     1       0.958   2.308   0.723  1.00  0.00     0.047 C 
BRANCH   8  10
ATOM     10  C   UNL     1       0.051  -0.030   1.013  1.00  0.00     0.037 C 
ATOM     11  C   UNL     1      -0.415  -0.124  -0.452  1.00  0.00     0.007 C 
ENDBRANCH   8  10
BRANCH   8  12
ATOM     12  N   UNL     1       1.466   1.045   2.777  1.00  0.00    -0.322 N 
ATOM     13  C   UNL     1       2.394   1.327   3.724  1.00  0.00     0.318 C 
ATOM     14  H   UNL     1       0.610   0.850   3.222  1.00  0.00     0.166 HD
ATOM     15  O   UNL     1       1.919   1.396   4.858  1.00  0.00    -0.249 OA
BRANCH  13  16
ATOM     16  N   UNL     1       3.759   1.471   3.497  1.00  0.00    -0.322 N 
ATOM     17  C   UNL     1       4.694   0.648   4.294  1.00  0.00     0.121 C 
ATOM     18  C   UNL     1       4.214   2.828   3.176  1.00  0.00     0.083 C 
ATOM     19  C   UNL     1       6.189   0.886   4.423  1.00  0.00     0.022 C 
ATOM     20  C   UNL     1       5.633   3.187   3.679  1.00  0.00     0.025 C 
ATOM     21  C   UNL     1       3.250   3.905   3.705  1.00  0.00     0.031 C 
ATOM     22  C   UNL     1       6.663   2.074   3.648  1.00  0.00     0.004 C 
ENDBRANCH  13  16
ENDBRANCH   8  12
ENDBRANCH   6   8
ENDBRANCH   5   6
ENDBRANCH   4   5
ENDBRANCH   3   4
ENDBRANCH   2   3
ENDBRANCH   1   2
BRANCH   1  23
ATOM     23  C   UNL     1       2.660  -1.681   5.303  1.00  0.00     0.261 C 
BRANCH  23  24
ATOM     24  O   UNL     1       3.233  -0.581   6.156  1.00  0.00    -0.460 OA
BRANCH  24  25
ATOM     25  C   UNL     1       2.574   0.164   7.143  1.00  0.00     0.338 C 
ATOM     26  O   UNL     1       1.454  -0.112   7.554  1.00  0.00    -0.246 OA
BRANCH  25  27
ATOM     27  C   UNL     1       3.415   1.345   7.772  1.00  0.00     0.060 A 
ATOM     28  C   UNL     1       4.300   2.141   7.043  1.00  0.00     0.016 A 
ATOM     29  C   UNL     1       3.300   1.772   9.098  1.00  0.00     0.016 A 
ATOM     30  C   UNL     1       5.274   3.005   7.575  1.00  0.00     0.010 A 
ATOM     31  C   UNL     1       4.165   2.794   9.639  1.00  0.00     0.010 A 
ATOM     32  C   UNL     1       5.225   3.371   8.899  1.00  0.00    -0.014 A 
BRANCH  32  33
ATOM     33  C   UNL     1       6.310   4.240   9.492  1.00  0.00     0.031 A 
ATOM     34  C   UNL     1       7.038   3.704  10.699  1.00  0.00     0.074 A 
ATOM     35  C   UNL     1       6.742   5.422   8.983  1.00  0.00     0.049 A 
ATOM     36  N   UNL     1       7.742   4.327  11.605  1.00  0.00    -0.248 NA
ATOM     37  C   UNL     1       6.939   2.251  10.908  1.00  0.00     0.031 C 
ATOM     38  C   UNL     1       6.319   6.033   7.721  1.00  0.00     0.029 A 
ATOM     39  N   UNL     1       7.643   6.346   9.489  1.00  0.00    -0.354 N 
ATOM     40  C   UNL     1       8.033   3.371  12.572  1.00  0.00     0.074 A 
ATOM     41  C   UNL     1       7.489   2.115  12.104  1.00  0.00     0.031 C 
ATOM     42  C   UNL     1       6.940   7.216   7.559  1.00  0.00     0.029 A 
ATOM     43  C   UNL     1       7.732   7.510   8.748  1.00  0.00     0.049 A 
ATOM     44  H   UNL     1       8.173   6.187  10.304  1.00  0.00     0.167 HD
ATOM     45  C   UNL     1       8.666   3.535  13.759  1.00  0.00     0.034 A 
ATOM     46  C   UNL     1       8.321   8.698   9.020  1.00  0.00     0.034 A 
ATOM     47  C   UNL     1       9.284   4.767  14.167  1.00  0.00     0.049 A 
ATOM     48  C   UNL     1       9.014   8.877  10.354  1.00  0.00     0.074 A 
ATOM     49  C   UNL     1       9.928   5.062  15.355  1.00  0.00     0.029 A 
ATOM     50  N   UNL     1       9.359   5.905  13.378  1.00  0.00    -0.354 N 
ATOM     51  N   UNL     1       9.193   8.004  11.317  1.00  0.00    -0.248 NA
ATOM     52  C   UNL     1       9.586  10.203  10.642  1.00  0.00     0.031 C 
ATOM     53  C   UNL     1      10.374   6.387  15.291  1.00  0.00     0.029 A 
ATOM     54  C   UNL     1      10.049   6.900  14.045  1.00  0.00     0.049 A 
ATOM     55  H   UNL     1       8.977   5.992  12.475  1.00  0.00     0.167 HD
ATOM     56  C   UNL     1       9.930   8.659  12.300  1.00  0.00     0.074 A 
ATOM     57  C   UNL     1      10.179   9.998  11.810  1.00  0.00     0.031 C 
ATOM     58  C   UNL     1      10.349   8.201  13.506  1.00  0.00     0.034 A 
BRANCH  45  59
ATOM     59  C   UNL     1       8.641   2.373  14.718  1.00  0.00     0.023 A 
ATOM     60  C   UNL     1       9.390   1.207  14.466  1.00  0.00     0.012 A 
ATOM     61  C   UNL     1       7.832   2.437  15.872  1.00  0.00     0.148 A 
ATOM     62  C   UNL     1       9.283   0.100  15.310  1.00  0.00     0.002 A 
ATOM     63  C   UNL     1       7.774   1.352  16.737  1.00  0.00     0.091 A 
ATOM     64  F   UNL     1       7.114   3.548  16.088  1.00  0.00    -0.205 F 
ATOM     65  C   UNL     1       8.481   0.175  16.447  1.00  0.00     0.022 A 
BRANCH  63  66
ATOM     66  S   UNL     1       6.833   1.381  18.267  1.00  0.00     0.127 S 
ATOM     67  O   UNL     1       5.776   0.411  17.982  1.00  0.00    -0.237 OA
ATOM     68  O   UNL     1       7.826   0.931  19.243  1.00  0.00    -0.237 OA
ATOM     69  O   UNL     1       6.386   2.755  18.442  1.00  0.00    -0.744 OA
ENDBRANCH  63  66
ENDBRANCH  45  59
BRANCH  46  70
ATOM     70  C   UNL     1       8.268   9.845   8.049  1.00  0.00     0.023 A 
ATOM     71  C   UNL     1       9.465  10.348   7.495  1.00  0.00     0.012 A 
ATOM     72  C   UNL     1       7.053  10.470   7.700  1.00  0.00     0.148 A 
ATOM     73  C   UNL     1       9.457  11.461   6.647  1.00  0.00     0.002 A 
ATOM     74  C   UNL     1       7.045  11.538   6.805  1.00  0.00     0.091 A 
ATOM     75  F   UNL     1       5.922  10.014   8.256  1.00  0.00    -0.205 F 
ATOM     76  C   UNL     1       8.247  12.049   6.293  1.00  0.00     0.022 A 
BRANCH  74  77
ATOM     77  S   UNL     1       5.526  12.281   6.192  1.00  0.00     0.127 S 
ATOM     78  O   UNL     1       5.573  13.609   6.799  1.00  0.00    -0.237 OA
ATOM     79  O   UNL     1       5.744  12.257   4.745  1.00  0.00    -0.237 OA
ATOM     80  O   UNL     1       4.451  11.413   6.652  1.00  0.00    -0.744 OA
ENDBRANCH  74  77
ENDBRANCH  46  70
BRANCH  58  81
ATOM     81  C   UNL     1      11.203   9.114  14.347  1.00  0.00     0.023 A 
ATOM     82  C   UNL     1      10.637  10.225  15.000  1.00  0.00     0.012 A 
ATOM     83  C   UNL     1      12.564   8.810  14.552  1.00  0.00     0.148 A 
ATOM     84  C   UNL     1      11.421  11.040  15.818  1.00  0.00     0.002 A 
ATOM     85  C   UNL     1      13.325   9.593  15.410  1.00  0.00     0.091 A 
ATOM     86  F   UNL     1      13.091   7.761  13.903  1.00  0.00    -0.205 F 
ATOM     87  C   UNL     1      12.759  10.716  16.034  1.00  0.00     0.022 A 
BRANCH  85  88
ATOM     88  S   UNL     1      15.023   9.180  15.825  1.00  0.00     0.127 S 
ATOM     89  O   UNL     1      15.769  10.164  15.043  1.00  0.00    -0.237 OA
ATOM     90  O   UNL     1      15.053   9.401  17.272  1.00  0.00    -0.237 OA
ATOM     91  O   UNL     1      15.205   7.791  15.426  1.00  0.00    -0.744 OA
ENDBRANCH  85  88
ENDBRANCH  58  81
ENDBRANCH  32  33
ENDBRANCH  25  27
ENDBRANCH  24  25
ENDBRANCH  23  24
ENDBRANCH   1  23
TORSDOF 20
