REMARK SMILES CNC(=O)c1cc(S(=O)(=O)N2CCC(C(=O)OCCOCCOC(=O)c3ccc(-c4c5nc(c(-c6cccc(S(=O)(=O)[O-])c6F)c6ccc([nH]6)c(-c6cccc(S(=O)(=O)[O-])c6F)c6nc(c(-c7cccc(S(=O)(=O)[O-])c7F)c7ccc4[nH]7)C=C6)C=C5)cc3)CC2)ccc1OC
REMARK SMILES IDX 20 1 19 2 18 3 17 4 15 5 16 6 14 7 11 8 12 9 90 10 13 11
REMARK SMILES IDX 89 12 8 13 9 14 10 15 7 16 5 17 6 18 93 19 92 20 91 21 3 22
REMARK SMILES IDX 1 23 2 24 4 26 94 27 95 28 21 29 22 30 23 31 24 32 25 33
REMARK SMILES IDX 26 34 27 35 88 36 28 37 87 38 29 39 30 40 31 41 81 42 32 43
REMARK SMILES IDX 86 44 80 45 82 46 33 47 85 48 79 49 78 50 34 52 66 53 46 54
REMARK SMILES IDX 65 55 47 56 50 57 64 58 83 59 48 60 49 61 63 63 84 64 51 65
REMARK SMILES IDX 35 66 36 67 44 68 37 69 39 70 45 71 38 72 40 73 41 74 42 75
REMARK SMILES IDX 43 76 67 77 68 78 76 79 69 80 71 81 77 82 70 83 72 84 73 85
REMARK SMILES IDX 74 86 75 87 52 88 53 89 61 90 54 91 56 92 62 93 55 94 57 95
REMARK SMILES IDX 58 96 59 97 60 98
REMARK H PARENT 2 25 82 51 50 62
REMARK Flexibility Score: inf
ROOT
ATOM      1  O   UNL     1      -3.443  11.702  -2.046  1.00  0.00    -0.374 OA
ENDROOT
BRANCH   1   2
ATOM      2  C   UNL     1      -4.147  12.221  -0.916  1.00  0.00     0.202 C 
BRANCH   2   3
ATOM      3  C   UNL     1      -5.051  11.232  -0.177  1.00  0.00     0.261 C 
BRANCH   3   4
ATOM      4  O   UNL     1      -4.275  10.241   0.522  1.00  0.00    -0.463 OA
BRANCH   4   5
ATOM      5  C   UNL     1      -4.473   8.957   0.139  1.00  0.00     0.309 C 
ATOM      6  O   UNL     1      -5.291   8.581  -0.693  1.00  0.00    -0.252 OA
BRANCH   5   7
ATOM      7  C   UNL     1      -3.564   7.981   0.848  1.00  0.00     0.102 C 
ATOM      8  N   UNL     1      -2.080   6.425   2.735  1.00  0.00    -0.198 NA
ATOM      9  C   UNL     1      -1.361   7.378   1.857  1.00  0.00     0.103 C 
ATOM     10  C   UNL     1      -3.519   6.143   2.519  1.00  0.00     0.103 C 
ATOM     11  C   UNL     1      -2.237   8.524   1.365  1.00  0.00     0.032 C 
ATOM     12  C   UNL     1      -4.294   7.351   2.022  1.00  0.00     0.032 C 
BRANCH   8  13
ATOM     13  S   UNL     1      -1.156   5.133   3.361  1.00  0.00     0.243 S 
ATOM     14  O   UNL     1      -1.915   4.540   4.441  1.00  0.00    -0.207 OA
ATOM     15  O   UNL     1       0.204   5.594   3.545  1.00  0.00    -0.207 OA
BRANCH  13  16
ATOM     16  C   UNL     1      -1.065   3.872   2.094  1.00  0.00     0.083 A 
ATOM     17  C   UNL     1      -0.485   1.572   1.563  1.00  0.00     0.083 A 
ATOM     18  C   UNL     1      -0.579   2.619   2.491  1.00  0.00     0.039 A 
ATOM     19  C   UNL     1      -0.941   1.757   0.252  1.00  0.00     0.131 A 
ATOM     20  C   UNL     1      -1.393   3.018  -0.145  1.00  0.00     0.048 A 
ATOM     21  C   UNL     1      -1.458   4.074   0.770  1.00  0.00     0.025 A 
BRANCH  17  22
ATOM     22  C   UNL     1       0.098   0.307   2.052  1.00  0.00     0.254 C 
ATOM     23  C   UNL     1       1.988   0.320   0.358  1.00  0.00     0.143 C 
ATOM     24  N   UNL     1       1.218  -0.214   1.457  1.00  0.00    -0.355 N 
ATOM     25  H   UNL     1       1.540  -1.066   1.830  1.00  0.00     0.163 HD
ATOM     26  O   UNL     1      -0.417  -0.261   3.010  1.00  0.00    -0.269 OA
ENDBRANCH  17  22
BRANCH  19  27
ATOM     27  O   UNL     1      -0.943   0.803  -0.731  1.00  0.00    -0.496 OA
ATOM     28  C   UNL     1      -1.679  -0.369  -0.375  1.00  0.00     0.278 C 
ENDBRANCH  19  27
ENDBRANCH  13  16
ENDBRANCH   8  13
ENDBRANCH   5   7
ENDBRANCH   4   5
ENDBRANCH   3   4
ENDBRANCH   2   3
ENDBRANCH   1   2
BRANCH   1  29
ATOM     29  C   UNL     1      -2.304  10.884  -1.789  1.00  0.00     0.202 C 
BRANCH  29  30
ATOM     30  C   UNL     1      -1.017  11.608  -1.371  1.00  0.00     0.261 C 
BRANCH  30  31
ATOM     31  O   UNL     1      -1.143  12.272  -0.102  1.00  0.00    -0.460 OA
BRANCH  31  32
ATOM     32  C   UNL     1      -1.126  13.627  -0.177  1.00  0.00     0.338 C 
ATOM     33  O   UNL     1      -0.944  14.301  -1.178  1.00  0.00    -0.246 OA
BRANCH  32  34
ATOM     34  C   UNL     1      -1.536  14.229   1.107  1.00  0.00     0.060 A 
ATOM     35  C   UNL     1      -2.541  15.204   1.060  1.00  0.00     0.016 A 
ATOM     36  C   UNL     1      -0.893  13.932   2.311  1.00  0.00     0.016 A 
ATOM     37  C   UNL     1      -2.857  15.938   2.200  1.00  0.00     0.010 A 
ATOM     38  C   UNL     1      -1.210  14.674   3.456  1.00  0.00     0.010 A 
ATOM     39  C   UNL     1      -2.158  15.712   3.393  1.00  0.00    -0.014 A 
BRANCH  39  40
ATOM     40  C   UNL     1      -2.312  16.676   4.510  1.00  0.00     0.031 A 
ATOM     41  C   UNL     1      -1.271  17.747   4.700  1.00  0.00     0.074 A 
ATOM     42  C   UNL     1      -3.383  16.626   5.323  1.00  0.00     0.049 A 
ATOM     43  N   UNL     1      -1.227  18.712   5.582  1.00  0.00    -0.248 NA
ATOM     44  C   UNL     1      -0.126  17.729   3.773  1.00  0.00     0.031 C 
ATOM     45  C   UNL     1      -4.457  15.638   5.244  1.00  0.00     0.029 A 
ATOM     46  N   UNL     1      -3.732  17.420   6.387  1.00  0.00    -0.354 N 
ATOM     47  C   UNL     1      -0.044  19.399   5.334  1.00  0.00     0.074 A 
ATOM     48  C   UNL     1       0.609  18.734   4.228  1.00  0.00     0.031 C 
ATOM     49  C   UNL     1      -5.336  15.870   6.234  1.00  0.00     0.029 A 
ATOM     50  C   UNL     1      -4.880  17.013   7.024  1.00  0.00     0.049 A 
ATOM     51  H   UNL     1      -3.209  18.205   6.668  1.00  0.00     0.167 HD
ATOM     52  C   UNL     1       0.445  20.498   5.955  1.00  0.00     0.034 A 
ATOM     53  C   UNL     1      -5.489  17.503   8.123  1.00  0.00     0.034 A 
ATOM     54  C   UNL     1      -0.217  21.179   7.034  1.00  0.00     0.049 A 
ATOM     55  C   UNL     1      -4.924  18.727   8.795  1.00  0.00     0.074 A 
ATOM     56  C   UNL     1       0.176  22.329   7.696  1.00  0.00     0.029 A 
ATOM     57  N   UNL     1      -1.406  20.770   7.616  1.00  0.00    -0.354 N 
ATOM     58  N   UNL     1      -3.876  19.442   8.464  1.00  0.00    -0.248 NA
ATOM     59  C   UNL     1      -5.649  19.237   9.969  1.00  0.00     0.031 C 
ATOM     60  C   UNL     1      -0.769  22.606   8.690  1.00  0.00     0.029 A 
ATOM     61  C   UNL     1      -1.760  21.640   8.633  1.00  0.00     0.049 A 
ATOM     62  H   UNL     1      -1.923  19.977   7.346  1.00  0.00     0.167 HD
ATOM     63  C   UNL     1      -3.838  20.505   9.361  1.00  0.00     0.074 A 
ATOM     64  C   UNL     1      -4.979  20.350  10.239  1.00  0.00     0.031 C 
ATOM     65  C   UNL     1      -2.933  21.511   9.457  1.00  0.00     0.034 A 
BRANCH  52  66
ATOM     66  C   UNL     1       1.750  21.060   5.457  1.00  0.00     0.023 A 
ATOM     67  C   UNL     1       1.780  21.768   4.238  1.00  0.00     0.012 A 
ATOM     68  C   UNL     1       2.928  20.942   6.219  1.00  0.00     0.148 A 
ATOM     69  C   UNL     1       2.969  22.328   3.773  1.00  0.00     0.002 A 
ATOM     70  C   UNL     1       4.101  21.537   5.767  1.00  0.00     0.091 A 
ATOM     71  F   UNL     1       2.884  20.243   7.362  1.00  0.00    -0.205 F 
ATOM     72  C   UNL     1       4.126  22.222   4.542  1.00  0.00     0.022 A 
BRANCH  70  73
ATOM     73  S   UNL     1       5.623  21.516   6.721  1.00  0.00     0.127 S 
ATOM     74  O   UNL     1       6.432  20.561   5.966  1.00  0.00    -0.237 OA
ATOM     75  O   UNL     1       6.070  22.906   6.622  1.00  0.00    -0.237 OA
ATOM     76  O   UNL     1       5.247  21.097   8.064  1.00  0.00    -0.744 OA
ENDBRANCH  70  73
ENDBRANCH  52  66
BRANCH  53  77
ATOM     77  C   UNL     1      -6.736  16.862   8.627  1.00  0.00     0.023 A 
ATOM     78  C   UNL     1      -7.964  17.543   8.517  1.00  0.00     0.012 A 
ATOM     79  C   UNL     1      -6.715  15.574   9.196  1.00  0.00     0.148 A 
ATOM     80  C   UNL     1      -9.143  16.964   8.988  1.00  0.00     0.002 A 
ATOM     81  C   UNL     1      -7.900  14.980   9.613  1.00  0.00     0.091 A 
ATOM     82  F   UNL     1      -5.534  14.950   9.313  1.00  0.00    -0.205 F 
ATOM     83  C   UNL     1      -9.113  15.680   9.525  1.00  0.00     0.022 A 
BRANCH  81  84
ATOM     84  S   UNL     1      -7.969  13.281  10.190  1.00  0.00     0.127 S 
ATOM     85  O   UNL     1      -8.153  13.460  11.627  1.00  0.00    -0.237 OA
ATOM     86  O   UNL     1      -9.139  12.765   9.477  1.00  0.00    -0.237 OA
ATOM     87  O   UNL     1      -6.707  12.680   9.779  1.00  0.00    -0.744 OA
ENDBRANCH  81  84
ENDBRANCH  53  77
BRANCH  65  88
ATOM     88  C   UNL     1      -3.152  22.555  10.521  1.00  0.00     0.023 A 
ATOM     89  C   UNL     1      -2.905  22.240  11.872  1.00  0.00     0.012 A 
ATOM     90  C   UNL     1      -3.522  23.869  10.173  1.00  0.00     0.148 A 
ATOM     91  C   UNL     1      -3.051  23.210  12.863  1.00  0.00     0.002 A 
ATOM     92  C   UNL     1      -3.622  24.842  11.162  1.00  0.00     0.091 A 
ATOM     93  F   UNL     1      -3.773  24.145   8.885  1.00  0.00    -0.205 F 
ATOM     94  C   UNL     1      -3.397  24.512  12.508  1.00  0.00     0.022 A 
BRANCH  92  95
ATOM     95  S   UNL     1      -3.969  26.563  10.778  1.00  0.00     0.127 S 
ATOM     96  O   UNL     1      -5.378  26.674  11.150  1.00  0.00    -0.237 OA
ATOM     97  O   UNL     1      -3.046  27.275  11.663  1.00  0.00    -0.237 OA
ATOM     98  O   UNL     1      -3.678  26.719   9.359  1.00  0.00    -0.744 OA
ENDBRANCH  92  95
ENDBRANCH  65  88
ENDBRANCH  39  40
ENDBRANCH  32  34
ENDBRANCH  31  32
ENDBRANCH  30  31
ENDBRANCH  29  30
ENDBRANCH   1  29
TORSDOF 21
