REMARK SMILES CCOc1ccc2c(c1)=N[C@H](SCC(=O)OCCOCCOC(=O)c1ccc(-c3c4nc(c(-c5cccc(S(=O)(=O)[O-])c5F)c5ccc([nH]5)c(-c5cccc(S(=O)(=O)[O-])c5F)c5nc(c(-c6cccc(S(=O)(=O)[O-])c6F)c6ccc3[nH]6)C=C5)C=C4)cc1)N=2
REMARK SMILES IDX 18 1 17 2 16 3 14 4 15 5 13 6 12 7 11 8 4 9 5 10 9 11 6 12
REMARK SMILES IDX 8 13 7 14 10 15 88 16 3 17 2 18 1 19 19 20 20 21 21 22 22 23
REMARK SMILES IDX 23 24 24 25 25 26 26 27 87 28 27 29 86 30 28 31 29 32 30 33
REMARK SMILES IDX 80 34 31 35 85 36 79 37 81 38 32 39 84 40 78 41 77 42 33 44
REMARK SMILES IDX 65 45 45 46 64 47 46 48 49 49 63 50 82 51 47 52 48 53 62 55
REMARK SMILES IDX 83 56 50 57 34 58 35 59 43 60 36 61 38 62 44 63 37 64 39 65
REMARK SMILES IDX 40 66 41 67 42 68 66 69 67 70 75 71 68 72 70 73 76 74 69 75
REMARK SMILES IDX 71 76 72 77 73 78 74 79 51 80 52 81 60 82 53 83 55 84 61 85
REMARK SMILES IDX 54 86 56 87 57 88 58 89 59 90
REMARK H PARENT 81 43 49 54
REMARK Flexibility Score: inf
ROOT
ATOM      1  C   UNL     1       9.350   8.250  -2.200  1.00  0.00     0.202 C 
ENDROOT
BRANCH   1   2
ATOM      2  C   UNL     1       9.531   7.728  -3.634  1.00  0.00     0.261 C 
BRANCH   2   3
ATOM      3  O   UNL     1       8.717   6.582  -3.964  1.00  0.00    -0.463 OA
BRANCH   3   4
ATOM      4  C   UNL     1       9.395   5.464  -4.339  1.00  0.00     0.316 C 
ATOM      5  O   UNL     1      10.623   5.382  -4.357  1.00  0.00    -0.251 OA
BRANCH   4   6
ATOM      6  C   UNL     1       8.551   4.253  -4.689  1.00  0.00     0.196 C 
BRANCH   6   7
ATOM      7  S   UNL     1       6.756   4.476  -4.805  1.00  0.00    -0.100 SA
BRANCH   7   8
ATOM      8  C   UNL     1       6.252   3.809  -3.179  1.00  0.00     0.282 C 
ATOM      9  C   UNL     1       2.465   1.944  -1.558  1.00  0.00     0.121 A 
ATOM     10  C   UNL     1       3.313   0.765  -1.612  1.00  0.00     0.049 A 
ATOM     11  C   UNL     1       2.904   3.163  -1.907  1.00  0.00     0.076 A 
ATOM     12  C   UNL     1       4.574   0.781  -2.070  1.00  0.00     0.034 A 
ATOM     13  C   UNL     1       4.291   3.280  -2.373  1.00  0.00     0.090 A 
ATOM     14  C   UNL     1       5.118   2.067  -2.521  1.00  0.00     0.087 A 
ATOM     15  N   UNL     1       4.933   4.335  -2.726  1.00  0.00    -0.246 NA
ATOM     16  N   UNL     1       6.270   2.321  -3.041  1.00  0.00    -0.246 NA
BRANCH   9  17
ATOM     17  O   UNL     1       1.122   1.708  -1.366  1.00  0.00    -0.494 OA
BRANCH  17  18
ATOM     18  C   UNL     1       0.694   1.554  -0.009  1.00  0.00     0.226 C 
ATOM     19  C   UNL     1       0.671   0.088   0.394  1.00  0.00     0.049 C 
ENDBRANCH  17  18
ENDBRANCH   9  17
ENDBRANCH   7   8
ENDBRANCH   6   7
ENDBRANCH   4   6
ENDBRANCH   3   4
ENDBRANCH   2   3
ENDBRANCH   1   2
BRANCH   1  20
ATOM     20  O   UNL     1       9.509   7.337  -1.117  1.00  0.00    -0.374 OA
BRANCH  20  21
ATOM     21  C   UNL     1       8.609   6.239  -1.028  1.00  0.00     0.202 C 
BRANCH  21  22
ATOM     22  C   UNL     1       7.120   6.524  -0.785  1.00  0.00     0.261 C 
BRANCH  22  23
ATOM     23  O   UNL     1       6.537   7.442  -1.714  1.00  0.00    -0.460 OA
BRANCH  23  24
ATOM     24  C   UNL     1       6.077   8.592  -1.160  1.00  0.00     0.338 C 
ATOM     25  O   UNL     1       6.091   8.905   0.020  1.00  0.00    -0.246 OA
BRANCH  24  26
ATOM     26  C   UNL     1       5.680   9.513  -2.235  1.00  0.00     0.060 A 
ATOM     27  C   UNL     1       4.627   9.190  -3.093  1.00  0.00     0.016 A 
ATOM     28  C   UNL     1       6.359  10.731  -2.356  1.00  0.00     0.016 A 
ATOM     29  C   UNL     1       4.250  10.102  -4.080  1.00  0.00     0.010 A 
ATOM     30  C   UNL     1       5.982  11.637  -3.345  1.00  0.00     0.010 A 
ATOM     31  C   UNL     1       4.919  11.333  -4.207  1.00  0.00    -0.014 A 
BRANCH  31  32
ATOM     32  C   UNL     1       4.445  12.349  -5.176  1.00  0.00     0.031 A 
ATOM     33  C   UNL     1       5.229  12.661  -6.416  1.00  0.00     0.074 A 
ATOM     34  C   UNL     1       3.317  13.028  -4.893  1.00  0.00     0.049 A 
ATOM     35  N   UNL     1       4.961  13.531  -7.354  1.00  0.00    -0.248 NA
ATOM     36  C   UNL     1       6.473  11.905  -6.633  1.00  0.00     0.031 C 
ATOM     37  C   UNL     1       2.503  12.838  -3.690  1.00  0.00     0.029 A 
ATOM     38  N   UNL     1       2.671  14.021  -5.581  1.00  0.00    -0.354 N 
ATOM     39  C   UNL     1       6.006  13.444  -8.264  1.00  0.00     0.074 A 
ATOM     40  C   UNL     1       6.922  12.443  -7.762  1.00  0.00     0.031 C 
ATOM     41  C   UNL     1       1.461  13.683  -3.729  1.00  0.00     0.029 A 
ATOM     42  C   UNL     1       1.550  14.492  -4.940  1.00  0.00     0.049 A 
ATOM     43  H   UNL     1       2.979  14.364  -6.451  1.00  0.00     0.167 HD
ATOM     44  C   UNL     1       6.170  14.125  -9.422  1.00  0.00     0.034 A 
ATOM     45  C   UNL     1       0.691  15.472  -5.284  1.00  0.00     0.034 A 
ATOM     46  C   UNL     1       5.242  15.102  -9.926  1.00  0.00     0.049 A 
ATOM     47  C   UNL     1       0.900  16.211  -6.573  1.00  0.00     0.074 A 
ATOM     48  C   UNL     1       5.298  15.799 -11.120  1.00  0.00     0.029 A 
ATOM     49  N   UNL     1       4.101  15.528  -9.265  1.00  0.00    -0.354 N 
ATOM     50  N   UNL     1       1.833  16.036  -7.476  1.00  0.00    -0.248 NA
ATOM     51  C   UNL     1      -0.070  17.265  -6.905  1.00  0.00     0.031 C 
ATOM     52  C   UNL     1       4.201  16.662 -11.173  1.00  0.00     0.029 A 
ATOM     53  C   UNL     1       3.450  16.486 -10.022  1.00  0.00     0.049 A 
ATOM     54  H   UNL     1       3.799  15.199  -8.388  1.00  0.00     0.167 HD
ATOM     55  C   UNL     1       1.553  16.939  -8.493  1.00  0.00     0.074 A 
ATOM     56  C   UNL     1       0.355  17.653  -8.101  1.00  0.00     0.031 C 
ATOM     57  C   UNL     1       2.236  17.160  -9.642  1.00  0.00     0.034 A 
BRANCH  44  58
ATOM     58  C   UNL     1       7.370  13.810 -10.273  1.00  0.00     0.023 A 
ATOM     59  C   UNL     1       7.357  12.651 -11.073  1.00  0.00     0.012 A 
ATOM     60  C   UNL     1       8.439  14.720 -10.382  1.00  0.00     0.148 A 
ATOM     61  C   UNL     1       8.394  12.399 -11.970  1.00  0.00     0.002 A 
ATOM     62  C   UNL     1       9.456  14.475 -11.298  1.00  0.00     0.091 A 
ATOM     63  F   UNL     1       8.429  15.812  -9.605  1.00  0.00    -0.205 F 
ATOM     64  C   UNL     1       9.435  13.315 -12.090  1.00  0.00     0.022 A 
BRANCH  62  65
ATOM     65  S   UNL     1      10.819  15.614 -11.569  1.00  0.00     0.127 S 
ATOM     66  O   UNL     1      11.965  14.803 -11.159  1.00  0.00    -0.237 OA
ATOM     67  O   UNL     1      10.729  15.860 -13.008  1.00  0.00    -0.237 OA
ATOM     68  O   UNL     1      10.553  16.773 -10.729  1.00  0.00    -0.744 OA
ENDBRANCH  62  65
ENDBRANCH  44  58
BRANCH  45  69
ATOM     69  C   UNL     1      -0.476  15.755  -4.407  1.00  0.00     0.023 A 
ATOM     70  C   UNL     1      -1.752  15.310  -4.799  1.00  0.00     0.012 A 
ATOM     71  C   UNL     1      -0.314  16.388  -3.159  1.00  0.00     0.148 A 
ATOM     72  C   UNL     1      -2.854  15.498  -3.964  1.00  0.00     0.002 A 
ATOM     73  C   UNL     1      -1.409  16.539  -2.317  1.00  0.00     0.091 A 
ATOM     74  F   UNL     1       0.913  16.797  -2.812  1.00  0.00    -0.205 F 
ATOM     75  C   UNL     1      -2.681  16.103  -2.721  1.00  0.00     0.022 A 
BRANCH  73  76
ATOM     76  S   UNL     1      -1.274  17.223  -0.662  1.00  0.00     0.127 S 
ATOM     77  O   UNL     1      -2.102  18.422  -0.767  1.00  0.00    -0.237 OA
ATOM     78  O   UNL     1      -1.844  16.149   0.151  1.00  0.00    -0.237 OA
ATOM     79  O   UNL     1       0.146  17.463  -0.445  1.00  0.00    -0.744 OA
ENDBRANCH  73  76
ENDBRANCH  45  69
BRANCH  57  80
ATOM     80  C   UNL     1       1.714  18.206 -10.586  1.00  0.00     0.023 A 
ATOM     81  C   UNL     1       1.954  19.566 -10.314  1.00  0.00     0.012 A 
ATOM     82  C   UNL     1       1.113  17.834 -11.805  1.00  0.00     0.148 A 
ATOM     83  C   UNL     1       1.599  20.544 -11.242  1.00  0.00     0.002 A 
ATOM     84  C   UNL     1       0.794  18.811 -12.739  1.00  0.00     0.091 A 
ATOM     85  F   UNL     1       0.893  16.531 -12.035  1.00  0.00    -0.205 F 
ATOM     86  C   UNL     1       1.033  20.166 -12.458  1.00  0.00     0.022 A 
BRANCH  84  87
ATOM     87  S   UNL     1       0.126  18.421 -14.361  1.00  0.00     0.127 S 
ATOM     88  O   UNL     1      -1.201  19.031 -14.290  1.00  0.00    -0.237 OA
ATOM     89  O   UNL     1       1.064  19.103 -15.252  1.00  0.00    -0.237 OA
ATOM     90  O   UNL     1       0.131  16.968 -14.464  1.00  0.00    -0.744 OA
ENDBRANCH  84  87
ENDBRANCH  57  80
ENDBRANCH  31  32
ENDBRANCH  24  26
ENDBRANCH  23  24
ENDBRANCH  22  23
ENDBRANCH  21  22
ENDBRANCH  20  21
ENDBRANCH   1  20
TORSDOF 21
