REMARK SMILES O=C(OCCOCCOC(=O)c1ccc(-c2ccn(C(F)F)c(=O)c2)cc1O)c1ccc(-c2c3nc(c(-c4cccc(S(=O)(=O)[O-])c4F)c4ccc([nH]4)c(-c4cccc(S(=O)(=O)[O-])c4F)c4nc(c(-c5cccc(S(=O)(=O)[O-])c5F)c5ccc2[nH]5)C=C4)C=C3)cc1
REMARK SMILES IDX 5 1 4 2 3 3 2 4 1 5 29 6 30 7 91 8 31 9 90 10 32 11 33 12
REMARK SMILES IDX 34 13 84 14 35 15 89 16 83 17 85 18 36 19 88 20 82 21 81 22
REMARK SMILES IDX 37 24 69 25 49 26 68 27 50 28 53 29 67 30 86 31 51 32 52 33
REMARK SMILES IDX 66 35 87 36 54 37 38 38 39 39 47 40 40 41 42 42 48 43 41 44
REMARK SMILES IDX 43 45 44 46 45 47 46 48 70 49 71 50 79 51 72 52 74 53 80 54
REMARK SMILES IDX 73 55 75 56 76 57 77 58 78 59 55 60 56 61 64 62 57 63 59 64
REMARK SMILES IDX 65 65 58 66 60 67 61 68 62 69 63 70 6 71 7 72 8 73 9 74
REMARK SMILES IDX 10 75 11 76 12 77 13 78 27 79 14 80 26 81 15 82 28 83 16 85
REMARK SMILES IDX 17 86 25 87 18 88 23 89 19 90 24 91 20 92 21 93 22 94
REMARK H PARENT 85 23 53 34 28 84
REMARK Flexibility Score: inf
ROOT
ATOM      1  C   UNL     1       4.462   0.502   1.296  1.00  0.00     0.202 C 
ENDROOT
BRANCH   1   2
ATOM      2  C   UNL     1       4.333   1.248  -0.033  1.00  0.00     0.261 C 
BRANCH   2   3
ATOM      3  O   UNL     1       2.979   1.240  -0.503  1.00  0.00    -0.460 OA
BRANCH   3   4
ATOM      4  C   UNL     1       2.367   0.368  -1.336  1.00  0.00     0.338 C 
ATOM      5  O   UNL     1       1.184   0.586  -1.604  1.00  0.00    -0.246 OA
BRANCH   4   6
ATOM      6  C   UNL     1       2.989  -0.874  -1.915  1.00  0.00     0.060 A 
ATOM      7  C   UNL     1       2.213  -1.573  -2.861  1.00  0.00     0.016 A 
ATOM      8  C   UNL     1       4.206  -1.450  -1.540  1.00  0.00     0.016 A 
ATOM      9  C   UNL     1       2.622  -2.808  -3.374  1.00  0.00     0.010 A 
ATOM     10  C   UNL     1       4.608  -2.692  -2.018  1.00  0.00     0.010 A 
ATOM     11  C   UNL     1       3.821  -3.376  -2.938  1.00  0.00    -0.014 A 
BRANCH  11  12
ATOM     12  C   UNL     1       4.399  -4.580  -3.551  1.00  0.00     0.031 A 
ATOM     13  C   UNL     1       4.362  -5.902  -2.848  1.00  0.00     0.074 A 
ATOM     14  C   UNL     1       5.122  -4.384  -4.668  1.00  0.00     0.049 A 
ATOM     15  N   UNL     1       4.876  -7.039  -3.231  1.00  0.00    -0.248 NA
ATOM     16  C   UNL     1       3.681  -5.960  -1.542  1.00  0.00     0.031 C 
ATOM     17  C   UNL     1       5.303  -3.086  -5.331  1.00  0.00     0.029 A 
ATOM     18  N   UNL     1       5.879  -5.245  -5.412  1.00  0.00    -0.354 N 
ATOM     19  C   UNL     1       4.580  -7.951  -2.225  1.00  0.00     0.074 A 
ATOM     20  C   UNL     1       3.859  -7.231  -1.198  1.00  0.00     0.031 C 
ATOM     21  C   UNL     1       6.133  -3.235  -6.373  1.00  0.00     0.029 A 
ATOM     22  C   UNL     1       6.535  -4.632  -6.452  1.00  0.00     0.049 A 
ATOM     23  H   UNL     1       5.947  -6.208  -5.221  1.00  0.00     0.167 HD
ATOM     24  C   UNL     1       4.873  -9.271  -2.193  1.00  0.00     0.034 A 
ATOM     25  C   UNL     1       7.359  -5.151  -7.379  1.00  0.00     0.034 A 
ATOM     26  C   UNL     1       5.596  -9.944  -3.240  1.00  0.00     0.049 A 
ATOM     27  C   UNL     1       7.610  -6.627  -7.347  1.00  0.00     0.074 A 
ATOM     28  C   UNL     1       5.880 -11.293  -3.358  1.00  0.00     0.029 A 
ATOM     29  N   UNL     1       6.155  -9.316  -4.342  1.00  0.00    -0.354 N 
ATOM     30  N   UNL     1       7.192  -7.508  -6.471  1.00  0.00    -0.248 NA
ATOM     31  C   UNL     1       8.395  -7.192  -8.450  1.00  0.00     0.031 C 
ATOM     32  C   UNL     1       6.618 -11.479  -4.530  1.00  0.00     0.029 A 
ATOM     33  C   UNL     1       6.772 -10.250  -5.153  1.00  0.00     0.049 A 
ATOM     34  H   UNL     1       6.117  -8.349  -4.521  1.00  0.00     0.167 HD
ATOM     35  C   UNL     1       7.618  -8.740  -6.940  1.00  0.00     0.074 A 
ATOM     36  C   UNL     1       8.334  -8.489  -8.177  1.00  0.00     0.031 C 
ATOM     37  C   UNL     1       7.433  -9.967  -6.400  1.00  0.00     0.034 A 
BRANCH  24  38
ATOM     38  C   UNL     1       4.345 -10.119  -1.065  1.00  0.00     0.023 A 
ATOM     39  C   UNL     1       2.995 -10.522  -1.106  1.00  0.00     0.012 A 
ATOM     40  C   UNL     1       5.206 -10.676  -0.098  1.00  0.00     0.148 A 
ATOM     41  C   UNL     1       2.511 -11.476  -0.212  1.00  0.00     0.002 A 
ATOM     42  C   UNL     1       4.722 -11.647   0.774  1.00  0.00     0.091 A 
ATOM     43  F   UNL     1       6.486 -10.281  -0.081  1.00  0.00    -0.205 F 
ATOM     44  C   UNL     1       3.376 -12.048   0.717  1.00  0.00     0.022 A 
BRANCH  42  45
ATOM     45  S   UNL     1       5.760 -12.497   1.970  1.00  0.00     0.127 S 
ATOM     46  O   UNL     1       5.080 -12.185   3.228  1.00  0.00    -0.237 OA
ATOM     47  O   UNL     1       5.640 -13.890   1.544  1.00  0.00    -0.237 OA
ATOM     48  O   UNL     1       7.090 -11.920   1.836  1.00  0.00    -0.744 OA
ENDBRANCH  42  45
ENDBRANCH  24  38
BRANCH  25  49
ATOM     49  C   UNL     1       7.852  -4.283  -8.477  1.00  0.00     0.023 A 
ATOM     50  C   UNL     1       7.221  -4.363  -9.734  1.00  0.00     0.012 A 
ATOM     51  C   UNL     1       8.853  -3.317  -8.265  1.00  0.00     0.148 A 
ATOM     52  C   UNL     1       7.590  -3.505 -10.768  1.00  0.00     0.002 A 
ATOM     53  C   UNL     1       9.193  -2.442  -9.291  1.00  0.00     0.091 A 
ATOM     54  F   UNL     1       9.430  -3.255  -7.057  1.00  0.00    -0.205 F 
ATOM     55  C   UNL     1       8.568  -2.540 -10.545  1.00  0.00     0.022 A 
BRANCH  53  56
ATOM     56  S   UNL     1      10.367  -1.100  -9.069  1.00  0.00     0.127 S 
ATOM     57  O   UNL     1      11.499  -1.561  -9.869  1.00  0.00    -0.237 OA
ATOM     58  O   UNL     1       9.638   0.037  -9.631  1.00  0.00    -0.237 OA
ATOM     59  O   UNL     1      10.600  -1.014  -7.634  1.00  0.00    -0.744 OA
ENDBRANCH  53  56
ENDBRANCH  25  49
BRANCH  37  60
ATOM     60  C   UNL     1       7.966 -11.143  -7.161  1.00  0.00     0.023 A 
ATOM     61  C   UNL     1       9.340 -11.441  -7.114  1.00  0.00     0.012 A 
ATOM     62  C   UNL     1       7.080 -12.009  -7.831  1.00  0.00     0.148 A 
ATOM     63  C   UNL     1       9.830 -12.585  -7.740  1.00  0.00     0.002 A 
ATOM     64  C   UNL     1       7.571 -13.165  -8.419  1.00  0.00     0.091 A 
ATOM     65  F   UNL     1       5.779 -11.689  -7.866  1.00  0.00    -0.205 F 
ATOM     66  C   UNL     1       8.946 -13.451  -8.381  1.00  0.00     0.022 A 
BRANCH  64  67
ATOM     67  S   UNL     1       6.501 -14.376  -9.201  1.00  0.00     0.127 S 
ATOM     68  O   UNL     1       6.890 -14.252 -10.605  1.00  0.00    -0.237 OA
ATOM     69  O   UNL     1       6.924 -15.620  -8.558  1.00  0.00    -0.237 OA
ATOM     70  O   UNL     1       5.136 -13.968  -8.899  1.00  0.00    -0.744 OA
ENDBRANCH  64  67
ENDBRANCH  37  60
ENDBRANCH  11  12
ENDBRANCH   4   6
ENDBRANCH   3   4
ENDBRANCH   2   3
ENDBRANCH   1   2
BRANCH   1  71
ATOM     71  O   UNL     1       4.076  -0.868   1.231  1.00  0.00    -0.374 OA
BRANCH  71  72
ATOM     72  C   UNL     1       2.716  -1.159   1.568  1.00  0.00     0.202 C 
BRANCH  72  73
ATOM     73  C   UNL     1       2.679  -2.094   2.773  1.00  0.00     0.261 C 
BRANCH  73  74
ATOM     74  O   UNL     1       3.183  -1.365   3.896  1.00  0.00    -0.460 OA
BRANCH  74  75
ATOM     75  C   UNL     1       4.518  -1.461   4.094  1.00  0.00     0.341 C 
ATOM     76  O   UNL     1       5.290  -2.272   3.610  1.00  0.00    -0.246 OA
BRANCH  75  77
ATOM     77  C   UNL     1       4.970  -0.260   4.819  1.00  0.00     0.101 A 
ATOM     78  C   UNL     1       6.157   0.349   4.378  1.00  0.00     0.020 A 
ATOM     79  C   UNL     1       4.269   0.279   5.900  1.00  0.00     0.130 A 
ATOM     80  C   UNL     1       6.665   1.466   5.038  1.00  0.00     0.010 A 
ATOM     81  C   UNL     1       4.776   1.389   6.565  1.00  0.00     0.055 A 
ATOM     82  C   UNL     1       5.996   1.955   6.161  1.00  0.00    -0.014 A 
BRANCH  79  83
ATOM     83  O   UNL     1       3.132  -0.314   6.369  1.00  0.00    -0.507 OA
ATOM     84  H   UNL     1       2.780  -1.064   5.931  1.00  0.00     0.293 HD
ENDBRANCH  79  83
BRANCH  82  85
ATOM     85  C   UNL     1       6.673   2.856   7.103  1.00  0.00    -0.011 A 
ATOM     86  C   UNL     1       7.256   2.293   8.304  1.00  0.00     0.027 A 
ATOM     87  C   UNL     1       6.731   4.180   6.891  1.00  0.00     0.080 A 
ATOM     88  C   UNL     1       7.784   3.084   9.238  1.00  0.00     0.095 A 
ATOM     89  C   UNL     1       7.339   5.075   7.922  1.00  0.00     0.255 A 
ATOM     90  N   UNL     1       7.814   4.452   9.068  1.00  0.00    -0.258 N 
ATOM     91  O   UNL     1       7.360   6.284   7.711  1.00  0.00    -0.269 OA
BRANCH  90  92
ATOM     92  C   UNL     1       8.333   5.290  10.115  1.00  0.00     0.451 C 
ATOM     93  F   UNL     1       9.372   6.042   9.681  1.00  0.00    -0.185 F 
ATOM     94  F   UNL     1       7.374   6.124  10.587  1.00  0.00    -0.185 F 
ENDBRANCH  90  92
ENDBRANCH  82  85
ENDBRANCH  75  77
ENDBRANCH  74  75
ENDBRANCH  73  74
ENDBRANCH  72  73
ENDBRANCH  71  72
ENDBRANCH   1  71
TORSDOF 20
