REMARK SMILES C[C@H]1[C@H](C(=O)OCCOCCOC(=O)c2ccc(-c3c4nc(c(-c5cccc(S(=O)(=O)[O-])c5F)c5ccc([nH]5)c(-c5cccc(S(=O)(=O)[O-])c5F)c5nc(c(-c6cccc(S(=O)(=O)[O-])c6F)c6ccc3[nH]6)C=C5)C=C4)cc2)CC[N@@H+]1CC(=O)N1CCCC1
REMARK SMILES IDX 10 1 9 2 8 3 7 4 6 5 4 6 5 7 3 8 1 9 2 10 80 11 78 12 79 13
REMARK SMILES IDX 81 15 82 16 83 17 84 18 85 19 88 20 86 21 87 22 11 23 12 24
REMARK SMILES IDX 13 25 14 26 15 27 16 28 77 29 17 30 76 31 18 32 19 33 20 34
REMARK SMILES IDX 70 35 21 36 75 37 69 38 71 39 22 40 74 41 68 42 67 43 23 45
REMARK SMILES IDX 55 46 35 47 54 48 36 49 39 50 53 51 72 52 37 53 38 54 52 56
REMARK SMILES IDX 73 57 40 58 24 59 25 60 33 61 26 62 28 63 34 64 27 65 29 66
REMARK SMILES IDX 30 67 31 68 32 69 56 70 57 71 65 72 58 73 60 74 66 75 59 76
REMARK SMILES IDX 61 77 62 78 63 79 64 80 41 81 42 82 50 83 43 84 45 85 51 86
REMARK SMILES IDX 44 87 46 88 47 89 48 90 49 91
REMARK H PARENT 80 14 71 44 39 55
REMARK Flexibility Score: inf
ROOT
ATOM      1  C   UNL     1       2.541   2.990   1.695  1.00  0.00     0.202 C 
ENDROOT
BRANCH   1   2
ATOM      2  O   UNL     1       2.227   4.357   1.954  1.00  0.00    -0.374 OA
BRANCH   2   3
ATOM      3  C   UNL     1       0.938   4.580   2.525  1.00  0.00     0.202 C 
BRANCH   3   4
ATOM      4  C   UNL     1      -0.254   4.426   1.557  1.00  0.00     0.261 C 
BRANCH   4   5
ATOM      5  O   UNL     1      -0.477   3.077   1.081  1.00  0.00    -0.463 OA
BRANCH   5   6
ATOM      6  C   UNL     1      -0.138   2.809  -0.208  1.00  0.00     0.315 C 
ATOM      7  O   UNL     1       0.445   3.597  -0.945  1.00  0.00    -0.252 OA
BRANCH   6   8
ATOM      8  C   UNL     1      -0.513   1.410  -0.665  1.00  0.00     0.162 C 
ATOM      9  C   UNL     1       1.515  -0.016  -1.216  1.00  0.00     0.076 C 
ATOM     10  C   UNL     1       0.430   0.297  -0.185  1.00  0.00     0.195 C 
ATOM     11  N   UNL     1      -0.418  -0.890   0.013  1.00  0.00    -0.324 N 
ATOM     12  C   UNL     1      -1.895   0.925  -0.251  1.00  0.00     0.083 C 
ATOM     13  C   UNL     1      -1.773  -0.578  -0.437  1.00  0.00     0.264 C 
ATOM     14  H   UNL     1      -0.040  -1.631  -0.577  1.00  0.00     0.348 HD
BRANCH  11  15
ATOM     15  C   UNL     1      -0.313  -1.586   1.314  1.00  0.00     0.364 C 
BRANCH  15  16
ATOM     16  C   UNL     1      -1.375  -1.272   2.395  1.00  0.00     0.277 C 
ATOM     17  O   UNL     1      -2.440  -1.893   2.419  1.00  0.00    -0.268 OA
ATOM     18  N   UNL     1      -1.075  -0.335   3.358  1.00  0.00    -0.338 N 
ATOM     19  C   UNL     1      -0.011   0.618   3.311  1.00  0.00     0.119 C 
ATOM     20  C   UNL     1      -1.831  -0.192   4.588  1.00  0.00     0.119 C 
ATOM     21  C   UNL     1      -0.440   1.753   4.209  1.00  0.00     0.023 C 
ATOM     22  C   UNL     1      -1.590   1.237   5.044  1.00  0.00     0.023 C 
ENDBRANCH  15  16
ENDBRANCH  11  15
ENDBRANCH   6   8
ENDBRANCH   5   6
ENDBRANCH   4   5
ENDBRANCH   3   4
ENDBRANCH   2   3
ENDBRANCH   1   2
BRANCH   1  23
ATOM     23  C   UNL     1       3.645   2.436   2.597  1.00  0.00     0.261 C 
BRANCH  23  24
ATOM     24  O   UNL     1       3.058   1.784   3.749  1.00  0.00    -0.460 OA
BRANCH  24  25
ATOM     25  C   UNL     1       3.396   2.280   4.963  1.00  0.00     0.338 C 
ATOM     26  O   UNL     1       4.148   3.218   5.179  1.00  0.00    -0.246 OA
BRANCH  25  27
ATOM     27  C   UNL     1       2.618   1.605   6.035  1.00  0.00     0.060 A 
ATOM     28  C   UNL     1       2.101   2.411   7.055  1.00  0.00     0.016 A 
ATOM     29  C   UNL     1       2.379   0.224   6.056  1.00  0.00     0.016 A 
ATOM     30  C   UNL     1       1.378   1.843   8.108  1.00  0.00     0.010 A 
ATOM     31  C   UNL     1       1.648  -0.346   7.115  1.00  0.00     0.010 A 
ATOM     32  C   UNL     1       1.178   0.457   8.170  1.00  0.00    -0.014 A 
BRANCH  32  33
ATOM     33  C   UNL     1       0.707  -0.133   9.456  1.00  0.00     0.031 A 
ATOM     34  C   UNL     1       1.749  -0.592  10.443  1.00  0.00     0.074 A 
ATOM     35  C   UNL     1      -0.594  -0.197   9.803  1.00  0.00     0.049 A 
ATOM     36  N   UNL     1       1.603  -0.972  11.686  1.00  0.00    -0.248 NA
ATOM     37  C   UNL     1       3.142  -0.615   9.966  1.00  0.00     0.031 C 
ATOM     38  C   UNL     1      -1.717   0.191   8.959  1.00  0.00     0.029 A 
ATOM     39  N   UNL     1      -1.190  -0.617  10.969  1.00  0.00    -0.354 N 
ATOM     40  C   UNL     1       2.881  -1.273  12.140  1.00  0.00     0.074 A 
ATOM     41  C   UNL     1       3.785  -1.068  11.030  1.00  0.00     0.031 C 
ATOM     42  C   UNL     1      -2.867  -0.016   9.623  1.00  0.00     0.029 A 
ATOM     43  C   UNL     1      -2.565  -0.548  10.950  1.00  0.00     0.049 A 
ATOM     44  H   UNL     1      -0.680  -0.938  11.748  1.00  0.00     0.167 HD
ATOM     45  C   UNL     1       3.279  -1.658  13.375  1.00  0.00     0.034 A 
ATOM     46  C   UNL     1      -3.476  -0.865  11.893  1.00  0.00     0.034 A 
ATOM     47  C   UNL     1       2.394  -1.875  14.484  1.00  0.00     0.049 A 
ATOM     48  C   UNL     1      -3.009  -1.322  13.253  1.00  0.00     0.074 A 
ATOM     49  C   UNL     1       2.715  -2.241  15.780  1.00  0.00     0.029 A 
ATOM     50  N   UNL     1       1.014  -1.771  14.428  1.00  0.00    -0.354 N 
ATOM     51  N   UNL     1      -1.787  -1.441  13.711  1.00  0.00    -0.248 NA
ATOM     52  C   UNL     1      -4.051  -1.641  14.242  1.00  0.00     0.031 C 
ATOM     53  C   UNL     1       1.525  -2.385  16.500  1.00  0.00     0.029 A 
ATOM     54  C   UNL     1       0.466  -2.077  15.661  1.00  0.00     0.049 A 
ATOM     55  H   UNL     1       0.500  -1.517  13.628  1.00  0.00     0.167 HD
ATOM     56  C   UNL     1      -1.914  -1.805  15.049  1.00  0.00     0.074 A 
ATOM     57  C   UNL     1      -3.332  -1.866  15.333  1.00  0.00     0.031 C 
ATOM     58  C   UNL     1      -0.943  -2.076  15.957  1.00  0.00     0.034 A 
BRANCH  45  59
ATOM     59  C   UNL     1       4.756  -1.841  13.589  1.00  0.00     0.023 A 
ATOM     60  C   UNL     1       5.593  -0.707  13.655  1.00  0.00     0.012 A 
ATOM     61  C   UNL     1       5.312  -3.124  13.745  1.00  0.00     0.148 A 
ATOM     62  C   UNL     1       6.967  -0.851  13.838  1.00  0.00     0.002 A 
ATOM     63  C   UNL     1       6.676  -3.256  13.970  1.00  0.00     0.091 A 
ATOM     64  F   UNL     1       4.501  -4.187  13.650  1.00  0.00    -0.205 F 
ATOM     65  C   UNL     1       7.506  -2.123  14.004  1.00  0.00     0.022 A 
BRANCH  63  66
ATOM     66  S   UNL     1       7.456  -4.846  14.263  1.00  0.00     0.127 S 
ATOM     67  O   UNL     1       8.213  -5.035  13.027  1.00  0.00    -0.237 OA
ATOM     68  O   UNL     1       8.274  -4.574  15.445  1.00  0.00    -0.237 OA
ATOM     69  O   UNL     1       6.370  -5.792  14.481  1.00  0.00    -0.744 OA
ENDBRANCH  63  66
ENDBRANCH  45  59
BRANCH  46  70
ATOM     70  C   UNL     1      -4.936  -0.711  11.619  1.00  0.00     0.023 A 
ATOM     71  C   UNL     1      -5.676   0.274  12.305  1.00  0.00     0.012 A 
ATOM     72  C   UNL     1      -5.601  -1.555  10.708  1.00  0.00     0.148 A 
ATOM     73  C   UNL     1      -7.055   0.385  12.123  1.00  0.00     0.002 A 
ATOM     74  C   UNL     1      -6.966  -1.404  10.493  1.00  0.00     0.091 A 
ATOM     75  F   UNL     1      -4.884  -2.495  10.076  1.00  0.00    -0.205 F 
ATOM     76  C   UNL     1      -7.699  -0.448  11.214  1.00  0.00     0.022 A 
BRANCH  74  77
ATOM     77  S   UNL     1      -7.862  -2.357   9.263  1.00  0.00     0.127 S 
ATOM     78  O   UNL     1      -8.712  -3.201  10.099  1.00  0.00    -0.237 OA
ATOM     79  O   UNL     1      -8.568  -1.307   8.527  1.00  0.00    -0.237 OA
ATOM     80  O   UNL     1      -6.844  -3.055   8.489  1.00  0.00    -0.744 OA
ENDBRANCH  74  77
ENDBRANCH  46  70
BRANCH  58  81
ATOM     81  C   UNL     1      -1.364  -2.421  17.364  1.00  0.00     0.023 A 
ATOM     82  C   UNL     1      -1.980  -3.659  17.633  1.00  0.00     0.012 A 
ATOM     83  C   UNL     1      -1.079  -1.547  18.433  1.00  0.00     0.148 A 
ATOM     84  C   UNL     1      -2.337  -4.006  18.936  1.00  0.00     0.002 A 
ATOM     85  C   UNL     1      -1.391  -1.921  19.735  1.00  0.00     0.091 A 
ATOM     86  F   UNL     1      -0.511  -0.363  18.159  1.00  0.00    -0.205 F 
ATOM     87  C   UNL     1      -2.032  -3.145  19.987  1.00  0.00     0.022 A 
BRANCH  85  88
ATOM     88  S   UNL     1      -0.941  -0.917  21.155  1.00  0.00     0.127 S 
ATOM     89  O   UNL     1      -2.224  -0.314  21.512  1.00  0.00    -0.237 OA
ATOM     90  O   UNL     1      -0.452  -1.917  22.104  1.00  0.00    -0.237 OA
ATOM     91  O   UNL     1       0.078   0.009  20.679  1.00  0.00    -0.744 OA
ENDBRANCH  85  88
ENDBRANCH  58  81
ENDBRANCH  32  33
ENDBRANCH  25  27
ENDBRANCH  24  25
ENDBRANCH  23  24
ENDBRANCH   1  23
TORSDOF 19
