REMARK SMILES CCCC(=O)Nc1cccc(C(=O)N[C@@H](C(=O)OCCOCCOC(=O)c2ccc(-c3c4nc(c(-c5cccc(S(=O)(=O)[O-])c5F)c5ccc([nH]5)c(-c5cccc(S(=O)(=O)[O-])c5F)c5nc(c(-c6cccc(S(=O)(=O)[O-])c6F)c6ccc3[nH]6)C=C5)C=C4)cc2)c2c(C)n[nH]c2C)c1
REMARK SMILES IDX 20 1 19 2 18 3 16 4 17 5 15 6 14 7 12 8 13 9 11 11 7 12 8 13
REMARK SMILES IDX 97 14 9 15 10 16 6 17 4 18 5 19 3 21 2 22 1 23 90 24 91 25
REMARK SMILES IDX 95 26 92 27 93 28 94 29 96 30 21 32 22 33 23 34 24 35 25 36
REMARK SMILES IDX 26 37 27 38 28 39 89 40 29 41 88 42 30 43 31 44 32 45 82 46
REMARK SMILES IDX 33 47 87 48 81 49 83 50 34 51 86 52 80 53 79 54 35 56 67 57
REMARK SMILES IDX 47 58 66 59 48 60 51 61 65 62 84 63 49 64 50 65 64 67 85 68
REMARK SMILES IDX 52 69 36 70 37 71 45 72 38 73 40 74 46 75 39 76 41 77 42 78
REMARK SMILES IDX 43 79 44 80 68 81 69 82 77 83 70 84 72 85 78 86 71 87 73 88
REMARK SMILES IDX 74 89 75 90 76 91 53 92 54 93 62 94 55 95 57 96 63 97 56 98
REMARK SMILES IDX 58 99 59 100 60 101 61 102
REMARK H PARENT 14 10 6 20 94 31 83 55 51 66
REMARK Flexibility Score: inf
ROOT
ATOM      1  C   UNL     1      -4.426  -0.397   2.358  1.00  0.00     0.202 C 
ENDROOT
BRANCH   1   2
ATOM      2  C   UNL     1      -3.587  -0.802   1.138  1.00  0.00     0.261 C 
BRANCH   2   3
ATOM      3  O   UNL     1      -2.179  -0.685   1.373  1.00  0.00    -0.461 OA
BRANCH   3   4
ATOM      4  C   UNL     1      -1.545   0.290   0.658  1.00  0.00     0.333 C 
ATOM      5  O   UNL     1      -2.075   0.926  -0.246  1.00  0.00    -0.249 OA
BRANCH   4   6
ATOM      6  C   UNL     1      -0.102   0.545   1.151  1.00  0.00     0.227 C 
BRANCH   6   7
ATOM      7  N   UNL     1       0.401  -0.586   1.927  1.00  0.00    -0.335 N 
ATOM      8  C   UNL     1       1.135  -1.683   1.534  1.00  0.00     0.252 C 
ATOM      9  O   UNL     1       1.436  -2.501   2.402  1.00  0.00    -0.269 OA
ATOM     10  H   UNL     1       0.179  -0.559   2.886  1.00  0.00     0.165 HD
BRANCH   8  11
ATOM     11  C   UNL     1       1.662  -1.863   0.142  1.00  0.00     0.041 A 
ATOM     12  C   UNL     1       1.748  -1.310  -2.224  1.00  0.00     0.041 A 
ATOM     13  C   UNL     1       2.915  -2.045  -2.381  1.00  0.00     0.026 A 
ATOM     14  C   UNL     1       1.069  -1.322  -1.003  1.00  0.00     0.040 A 
ATOM     15  C   UNL     1       3.455  -2.707  -1.277  1.00  0.00     0.003 A 
ATOM     16  C   UNL     1       2.850  -2.592  -0.018  1.00  0.00     0.014 A 
BRANCH  12  17
ATOM     17  N   UNL     1       1.193  -0.620  -3.312  1.00  0.00    -0.326 N 
ATOM     18  C   UNL     1       0.936   0.732  -3.326  1.00  0.00     0.224 C 
ATOM     19  O   UNL     1      -0.103   1.153  -3.838  1.00  0.00    -0.275 OA
ATOM     20  H   UNL     1       0.973  -1.138  -4.119  1.00  0.00     0.169 HD
BRANCH  18  21
ATOM     21  C   UNL     1       2.020   1.697  -2.847  1.00  0.00     0.100 C 
BRANCH  21  22
ATOM     22  C   UNL     1       1.891   2.228  -1.425  1.00  0.00     0.006 C 
ATOM     23  C   UNL     1       2.958   1.675  -0.488  1.00  0.00     0.004 C 
ENDBRANCH  21  22
ENDBRANCH  18  21
ENDBRANCH  12  17
ENDBRANCH   8  11
ENDBRANCH   6   7
BRANCH   6  24
ATOM     24  C   UNL     1       0.114   1.872   1.866  1.00  0.00     0.029 A 
ATOM     25  C   UNL     1      -0.465   3.157   1.551  1.00  0.00     0.065 A 
ATOM     26  C   UNL     1       1.042   2.184   2.860  1.00  0.00     0.038 A 
ATOM     27  C   UNL     1      -1.462   3.546   0.516  1.00  0.00     0.069 C 
ATOM     28  N   UNL     1       0.034   4.133   2.317  1.00  0.00    -0.180 NA
ATOM     29  N   UNL     1       0.946   3.529   3.073  1.00  0.00    -0.282 N 
ATOM     30  C   UNL     1       2.057   1.386   3.592  1.00  0.00     0.066 C 
ATOM     31  H   UNL     1       1.503   4.009   3.728  1.00  0.00     0.190 HD
ENDBRANCH   6  24
ENDBRANCH   4   6
ENDBRANCH   3   4
ENDBRANCH   2   3
ENDBRANCH   1   2
BRANCH   1  32
ATOM     32  O   UNL     1      -4.079   0.791   3.060  1.00  0.00    -0.374 OA
BRANCH  32  33
ATOM     33  C   UNL     1      -2.836   0.841   3.758  1.00  0.00     0.202 C 
BRANCH  33  34
ATOM     34  C   UNL     1      -2.508  -0.216   4.821  1.00  0.00     0.261 C 
BRANCH  34  35
ATOM     35  O   UNL     1      -2.453  -1.555   4.298  1.00  0.00    -0.460 OA
BRANCH  35  36
ATOM     36  C   UNL     1      -3.350  -2.409   4.841  1.00  0.00     0.338 C 
ATOM     37  O   UNL     1      -4.157  -2.159   5.738  1.00  0.00    -0.246 OA
BRANCH  36  38
ATOM     38  C   UNL     1      -3.402  -3.667   4.088  1.00  0.00     0.060 A 
ATOM     39  C   UNL     1      -4.600  -3.987   3.433  1.00  0.00     0.016 A 
ATOM     40  C   UNL     1      -2.353  -4.585   4.148  1.00  0.00     0.016 A 
ATOM     41  C   UNL     1      -4.774  -5.249   2.875  1.00  0.00     0.010 A 
ATOM     42  C   UNL     1      -2.538  -5.859   3.604  1.00  0.00     0.010 A 
ATOM     43  C   UNL     1      -3.764  -6.208   3.007  1.00  0.00    -0.014 A 
BRANCH  43  44
ATOM     44  C   UNL     1      -4.066  -7.622   2.693  1.00  0.00     0.031 A 
ATOM     45  C   UNL     1      -4.415  -8.551   3.823  1.00  0.00     0.074 A 
ATOM     46  C   UNL     1      -4.043  -8.066   1.425  1.00  0.00     0.049 A 
ATOM     47  N   UNL     1      -4.662  -9.834   3.796  1.00  0.00    -0.248 NA
ATOM     48  C   UNL     1      -4.496  -7.951   5.166  1.00  0.00     0.031 C 
ATOM     49  C   UNL     1      -3.746  -7.248   0.252  1.00  0.00     0.029 A 
ATOM     50  N   UNL     1      -4.247  -9.325   0.920  1.00  0.00    -0.354 N 
ATOM     51  C   UNL     1      -4.888 -10.203   5.116  1.00  0.00     0.074 A 
ATOM     52  C   UNL     1      -4.748  -9.010   5.921  1.00  0.00     0.031 C 
ATOM     53  C   UNL     1      -3.750  -8.035  -0.838  1.00  0.00     0.029 A 
ATOM     54  C   UNL     1      -4.018  -9.413  -0.431  1.00  0.00     0.049 A 
ATOM     55  H   UNL     1      -4.530 -10.089   1.472  1.00  0.00     0.167 HD
ATOM     56  C   UNL     1      -5.194 -11.425   5.612  1.00  0.00     0.034 A 
ATOM     57  C   UNL     1      -3.995 -10.491  -1.240  1.00  0.00     0.034 A 
ATOM     58  C   UNL     1      -5.346 -12.603   4.802  1.00  0.00     0.049 A 
ATOM     59  C   UNL     1      -4.307 -11.846  -0.661  1.00  0.00     0.074 A 
ATOM     60  C   UNL     1      -5.694 -13.882   5.198  1.00  0.00     0.029 A 
ATOM     61  N   UNL     1      -5.145 -12.649   3.430  1.00  0.00    -0.354 N 
ATOM     62  N   UNL     1      -4.616 -12.166   0.573  1.00  0.00    -0.248 NA
ATOM     63  C   UNL     1      -4.298 -12.985  -1.590  1.00  0.00     0.031 C 
ATOM     64  C   UNL     1      -5.671 -14.708   4.069  1.00  0.00     0.029 A 
ATOM     65  C   UNL     1      -5.346 -13.936   2.965  1.00  0.00     0.049 A 
ATOM     66  H   UNL     1      -4.895 -11.878   2.870  1.00  0.00     0.167 HD
ATOM     67  C   UNL     1      -4.876 -13.533   0.562  1.00  0.00     0.074 A 
ATOM     68  C   UNL     1      -4.701 -13.976  -0.807  1.00  0.00     0.031 C 
ATOM     69  C   UNL     1      -5.218 -14.349   1.590  1.00  0.00     0.034 A 
BRANCH  56  70
ATOM     70  C   UNL     1      -5.387 -11.546   7.101  1.00  0.00     0.023 A 
ATOM     71  C   UNL     1      -6.533 -10.993   7.709  1.00  0.00     0.012 A 
ATOM     72  C   UNL     1      -4.451 -12.238   7.894  1.00  0.00     0.148 A 
ATOM     73  C   UNL     1      -6.725 -11.095   9.087  1.00  0.00     0.002 A 
ATOM     74  C   UNL     1      -4.673 -12.376   9.259  1.00  0.00     0.091 A 
ATOM     75  F   UNL     1      -3.356 -12.735   7.303  1.00  0.00    -0.205 F 
ATOM     76  C   UNL     1      -5.802 -11.794   9.859  1.00  0.00     0.022 A 
BRANCH  74  77
ATOM     77  S   UNL     1      -3.582 -13.325  10.325  1.00  0.00     0.127 S 
ATOM     78  O   UNL     1      -2.935 -12.268  11.101  1.00  0.00    -0.237 OA
ATOM     79  O   UNL     1      -4.528 -14.145  11.083  1.00  0.00    -0.237 OA
ATOM     80  O   UNL     1      -2.706 -14.075   9.437  1.00  0.00    -0.744 OA
ENDBRANCH  74  77
ENDBRANCH  56  70
BRANCH  57  81
ATOM     81  C   UNL     1      -3.686 -10.324  -2.688  1.00  0.00     0.023 A 
ATOM     82  C   UNL     1      -4.699 -10.529  -3.644  1.00  0.00     0.012 A 
ATOM     83  C   UNL     1      -2.403  -9.931  -3.118  1.00  0.00     0.148 A 
ATOM     84  C   UNL     1      -4.432 -10.371  -5.005  1.00  0.00     0.002 A 
ATOM     85  C   UNL     1      -2.160  -9.721  -4.470  1.00  0.00     0.091 A 
ATOM     86  F   UNL     1      -1.450  -9.755  -2.192  1.00  0.00    -0.205 F 
ATOM     87  C   UNL     1      -3.168  -9.958  -5.417  1.00  0.00     0.022 A 
BRANCH  85  88
ATOM     88  S   UNL     1      -0.603  -9.064  -5.080  1.00  0.00     0.127 S 
ATOM     89  O   UNL     1      -0.065 -10.205  -5.818  1.00  0.00    -0.237 OA
ATOM     90  O   UNL     1      -1.054  -7.949  -5.913  1.00  0.00    -0.237 OA
ATOM     91  O   UNL     1       0.150  -8.665  -3.899  1.00  0.00    -0.744 OA
ENDBRANCH  85  88
ENDBRANCH  57  81
BRANCH  69  92
ATOM     92  C   UNL     1      -5.475 -15.800   1.277  1.00  0.00     0.023 A 
ATOM     93  C   UNL     1      -4.401 -16.657   0.968  1.00  0.00     0.012 A 
ATOM     94  C   UNL     1      -6.777 -16.331   1.373  1.00  0.00     0.148 A 
ATOM     95  C   UNL     1      -4.622 -18.012   0.728  1.00  0.00     0.002 A 
ATOM     96  C   UNL     1      -6.983 -17.692   1.183  1.00  0.00     0.091 A 
ATOM     97  F   UNL     1      -7.789 -15.497   1.652  1.00  0.00    -0.205 F 
ATOM     98  C   UNL     1      -5.909 -18.532   0.848  1.00  0.00     0.022 A 
BRANCH  96  99
ATOM     99  S   UNL     1      -8.588 -18.465   1.417  1.00  0.00     0.127 S 
ATOM    100  O   UNL     1      -8.968 -18.782   0.041  1.00  0.00    -0.237 OA
ATOM    101  O   UNL     1      -8.255 -19.628   2.241  1.00  0.00    -0.237 OA
ATOM    102  O   UNL     1      -9.420 -17.472   2.081  1.00  0.00    -0.744 OA
ENDBRANCH  96  99
ENDBRANCH  69  92
ENDBRANCH  43  44
ENDBRANCH  36  38
ENDBRANCH  35  36
ENDBRANCH  34  35
ENDBRANCH  33  34
ENDBRANCH  32  33
ENDBRANCH   1  32
TORSDOF 23
