REMARK SMILES CCc1cccc2c3c([nH]c12)[C@](CC)(CC(=O)OCCOCCOC(=O)c1ccc(-c2c4nc(c(-c5cccc(S(=O)(=O)[O-])c5F)c5ccc([nH]5)c(-c5cccc(S(=O)(=O)[O-])c5F)c5nc(c(-c6cccc(S(=O)(=O)[O-])c6F)c6ccc2[nH]6)C=C5)C=C4)cc1)OCC3
REMARK SMILES IDX 22 1 21 2 20 3 19 4 18 5 16 6 17 7 15 8 12 9 3 10 4 11 11 12
REMARK SMILES IDX 5 13 7 14 10 15 6 16 8 17 9 18 92 20 91 21 90 22 2 23 1 24
REMARK SMILES IDX 13 25 14 26 23 27 24 28 25 29 26 30 27 31 28 32 89 33 29 34
REMARK SMILES IDX 88 35 30 36 31 37 32 38 82 39 33 40 87 41 81 42 83 43 34 44
REMARK SMILES IDX 86 45 80 46 79 47 35 49 67 50 47 51 66 52 48 53 51 54 65 55
REMARK SMILES IDX 84 56 49 57 50 58 64 60 85 61 52 62 36 63 37 64 45 65 38 66
REMARK SMILES IDX 40 67 46 68 39 69 41 70 42 71 43 72 44 73 68 74 69 75 77 76
REMARK SMILES IDX 70 77 72 78 78 79 71 80 73 81 74 82 75 83 76 84 53 85 54 86
REMARK SMILES IDX 62 87 55 88 57 89 63 90 56 91 58 92 59 93 60 94 61 95
REMARK H PARENT 10 19 83 48 51 59
REMARK Flexibility Score: inf
ROOT
ATOM      1  C   UNL     1      -1.541  -3.496   5.380  1.00  0.00     0.202 C 
ENDROOT
BRANCH   1   2
ATOM      2  O   UNL     1      -2.455  -4.032   6.324  1.00  0.00    -0.374 OA
BRANCH   2   3
ATOM      3  C   UNL     1      -1.933  -4.935   7.284  1.00  0.00     0.202 C 
BRANCH   3   4
ATOM      4  C   UNL     1      -1.486  -6.325   6.801  1.00  0.00     0.261 C 
BRANCH   4   5
ATOM      5  O   UNL     1      -0.606  -6.319   5.652  1.00  0.00    -0.463 OA
BRANCH   5   6
ATOM      6  C   UNL     1      -1.182  -6.738   4.510  1.00  0.00     0.309 C 
ATOM      7  O   UNL     1      -2.368  -7.064   4.426  1.00  0.00    -0.252 OA
BRANCH   6   8
ATOM      8  C   UNL     1      -0.330  -6.850   3.269  1.00  0.00     0.164 C 
BRANCH   8   9
ATOM      9  C   UNL     1       1.122  -6.434   2.961  1.00  0.00     0.118 C 
ATOM     10  C   UNL     1       1.029  -1.476   1.868  1.00  0.00    -0.024 A 
ATOM     11  C   UNL     1       1.430  -0.362   2.634  1.00  0.00     0.006 A 
ATOM     12  C   UNL     1       1.339  -2.739   2.423  1.00  0.00     0.049 A 
ATOM     13  C   UNL     1       2.231  -0.490   3.765  1.00  0.00     0.001 A 
ATOM     14  C   UNL     1       2.199  -2.894   3.515  1.00  0.00     0.003 A 
ATOM     15  N   UNL     1       0.900  -4.009   2.083  1.00  0.00    -0.356 N 
ATOM     16  C   UNL     1       2.687  -1.745   4.168  1.00  0.00     0.010 A 
ATOM     17  C   UNL     1       2.335  -4.290   3.737  1.00  0.00    -0.014 A 
ATOM     18  C   UNL     1       1.408  -4.945   2.953  1.00  0.00     0.052 A 
ATOM     19  H   UNL     1       0.307  -4.213   1.324  1.00  0.00     0.166 HD
ATOM     20  C   UNL     1       3.206  -5.052   4.660  1.00  0.00     0.066 C 
ATOM     21  C   UNL     1       2.544  -6.403   4.960  1.00  0.00     0.166 C 
ATOM     22  O   UNL     1       2.103  -7.098   3.791  1.00  0.00    -0.368 OA
BRANCH  10  23
ATOM     23  C   UNL     1       0.289  -1.298   0.564  1.00  0.00     0.034 C 
ATOM     24  C   UNL     1       0.766  -0.104  -0.264  1.00  0.00     0.009 C 
ENDBRANCH  10  23
BRANCH   9  25
ATOM     25  C   UNL     1       1.448  -6.974   1.522  1.00  0.00     0.039 C 
ATOM     26  C   UNL     1       1.395  -8.496   1.370  1.00  0.00     0.007 C 
ENDBRANCH   9  25
ENDBRANCH   8   9
ENDBRANCH   6   8
ENDBRANCH   5   6
ENDBRANCH   4   5
ENDBRANCH   3   4
ENDBRANCH   2   3
ENDBRANCH   1   2
BRANCH   1  27
ATOM     27  C   UNL     1      -0.242  -2.886   5.922  1.00  0.00     0.261 C 
BRANCH  27  28
ATOM     28  O   UNL     1       0.630  -3.881   6.482  1.00  0.00    -0.460 OA
BRANCH  28  29
ATOM     29  C   UNL     1       1.562  -3.416   7.355  1.00  0.00     0.338 C 
ATOM     30  O   UNL     1       2.084  -2.315   7.374  1.00  0.00    -0.246 OA
BRANCH  29  31
ATOM     31  C   UNL     1       1.505  -4.346   8.493  1.00  0.00     0.060 A 
ATOM     32  C   UNL     1       1.865  -5.691   8.366  1.00  0.00     0.016 A 
ATOM     33  C   UNL     1       0.739  -3.898   9.572  1.00  0.00     0.016 A 
ATOM     34  C   UNL     1       1.303  -6.622   9.227  1.00  0.00     0.010 A 
ATOM     35  C   UNL     1       0.161  -4.829  10.414  1.00  0.00     0.010 A 
ATOM     36  C   UNL     1       0.390  -6.191  10.196  1.00  0.00    -0.014 A 
BRANCH  36  37
ATOM     37  C   UNL     1      -0.201  -7.173  11.104  1.00  0.00     0.031 A 
ATOM     38  C   UNL     1       0.765  -7.680  12.109  1.00  0.00     0.074 A 
ATOM     39  C   UNL     1      -1.524  -7.436  11.151  1.00  0.00     0.049 A 
ATOM     40  N   UNL     1       1.111  -8.905  12.336  1.00  0.00    -0.248 NA
ATOM     41  C   UNL     1       1.551  -6.680  12.852  1.00  0.00     0.031 C 
ATOM     42  C   UNL     1      -2.568  -6.796  10.362  1.00  0.00     0.029 A 
ATOM     43  N   UNL     1      -2.247  -8.211  12.009  1.00  0.00    -0.354 N 
ATOM     44  C   UNL     1       1.986  -8.833  13.415  1.00  0.00     0.074 A 
ATOM     45  C   UNL     1       2.371  -7.454  13.558  1.00  0.00     0.031 C 
ATOM     46  C   UNL     1      -3.775  -6.992  10.927  1.00  0.00     0.029 A 
ATOM     47  C   UNL     1      -3.604  -7.867  12.064  1.00  0.00     0.049 A 
ATOM     48  H   UNL     1      -1.854  -8.942  12.538  1.00  0.00     0.167 HD
ATOM     49  C   UNL     1       2.119  -9.850  14.305  1.00  0.00     0.034 A 
ATOM     50  C   UNL     1      -4.492  -8.198  13.035  1.00  0.00     0.034 A 
ATOM     51  C   UNL     1       1.616 -11.094  13.801  1.00  0.00     0.049 A 
ATOM     52  C   UNL     1      -3.927  -9.382  13.716  1.00  0.00     0.074 A 
ATOM     53  C   UNL     1       1.937 -11.932  12.755  1.00  0.00     0.029 A 
ATOM     54  N   UNL     1       0.354 -11.447  14.205  1.00  0.00    -0.354 N 
ATOM     55  N   UNL     1      -3.760 -10.540  13.145  1.00  0.00    -0.248 NA
ATOM     56  C   UNL     1      -3.172  -9.165  14.938  1.00  0.00     0.031 C 
ATOM     57  C   UNL     1       0.692 -12.462  12.304  1.00  0.00     0.029 A 
ATOM     58  C   UNL     1      -0.317 -11.952  13.123  1.00  0.00     0.049 A 
ATOM     59  H   UNL     1      -0.007 -11.355  15.116  1.00  0.00     0.167 HD
ATOM     60  C   UNL     1      -2.561 -11.005  13.665  1.00  0.00     0.074 A 
ATOM     61  C   UNL     1      -2.318 -10.186  14.849  1.00  0.00     0.031 C 
ATOM     62  C   UNL     1      -1.742 -11.803  12.921  1.00  0.00     0.034 A 
BRANCH  49  63
ATOM     63  C   UNL     1       2.369  -9.605  15.767  1.00  0.00     0.023 A 
ATOM     64  C   UNL     1       2.885 -10.653  16.549  1.00  0.00     0.012 A 
ATOM     65  C   UNL     1       1.905  -8.452  16.447  1.00  0.00     0.148 A 
ATOM     66  C   UNL     1       2.960 -10.547  17.943  1.00  0.00     0.002 A 
ATOM     67  C   UNL     1       2.063  -8.315  17.819  1.00  0.00     0.091 A 
ATOM     68  F   UNL     1       1.190  -7.535  15.784  1.00  0.00    -0.205 F 
ATOM     69  C   UNL     1       2.573  -9.369  18.576  1.00  0.00     0.022 A 
BRANCH  67  70
ATOM     70  S   UNL     1       1.632  -6.789  18.662  1.00  0.00     0.127 S 
ATOM     71  O   UNL     1       0.380  -7.158  19.313  1.00  0.00    -0.237 OA
ATOM     72  O   UNL     1       2.772  -6.611  19.563  1.00  0.00    -0.237 OA
ATOM     73  O   UNL     1       1.544  -5.783  17.611  1.00  0.00    -0.744 OA
ENDBRANCH  67  70
ENDBRANCH  49  63
BRANCH  50  74
ATOM     74  C   UNL     1      -5.567  -7.380  13.669  1.00  0.00     0.023 A 
ATOM     75  C   UNL     1      -6.403  -8.001  14.625  1.00  0.00     0.012 A 
ATOM     76  C   UNL     1      -5.574  -5.968  13.616  1.00  0.00     0.148 A 
ATOM     77  C   UNL     1      -7.131  -7.250  15.557  1.00  0.00     0.002 A 
ATOM     78  C   UNL     1      -6.309  -5.225  14.538  1.00  0.00     0.091 A 
ATOM     79  F   UNL     1      -4.786  -5.341  12.734  1.00  0.00    -0.205 F 
ATOM     80  C   UNL     1      -7.068  -5.862  15.526  1.00  0.00     0.022 A 
BRANCH  78  81
ATOM     81  S   UNL     1      -6.262  -3.426  14.556  1.00  0.00     0.127 S 
ATOM     82  O   UNL     1      -7.659  -3.083  14.830  1.00  0.00    -0.237 OA
ATOM     83  O   UNL     1      -5.340  -3.159  15.655  1.00  0.00    -0.237 OA
ATOM     84  O   UNL     1      -5.803  -3.034  13.229  1.00  0.00    -0.744 OA
ENDBRANCH  78  81
ENDBRANCH  50  74
BRANCH  62  85
ATOM     85  C   UNL     1      -2.309 -12.388  11.649  1.00  0.00     0.023 A 
ATOM     86  C   UNL     1      -2.602 -11.601  10.514  1.00  0.00     0.012 A 
ATOM     87  C   UNL     1      -2.408 -13.784  11.551  1.00  0.00     0.148 A 
ATOM     88  C   UNL     1      -2.996 -12.197   9.312  1.00  0.00     0.002 A 
ATOM     89  C   UNL     1      -2.767 -14.375  10.345  1.00  0.00     0.091 A 
ATOM     90  F   UNL     1      -2.117 -14.514  12.638  1.00  0.00    -0.205 F 
ATOM     91  C   UNL     1      -3.067 -13.585   9.224  1.00  0.00     0.022 A 
BRANCH  89  92
ATOM     92  S   UNL     1      -2.786 -16.157  10.137  1.00  0.00     0.127 S 
ATOM     93  O   UNL     1      -4.216 -16.436  10.016  1.00  0.00    -0.237 OA
ATOM     94  O   UNL     1      -2.021 -16.334   8.902  1.00  0.00    -0.237 OA
ATOM     95  O   UNL     1      -2.142 -16.709  11.322  1.00  0.00    -0.744 OA
ENDBRANCH  89  92
ENDBRANCH  62  85
ENDBRANCH  36  37
ENDBRANCH  29  31
ENDBRANCH  28  29
ENDBRANCH  27  28
ENDBRANCH   1  27
TORSDOF 20
