REMARK SMILES Cc1cc(C)c2c(c1)C=C(C(=O)OCCOCCOC(=O)c1ccc(-c3c4nc(c(-c5cccc(S(=O)(=O)[O-])c5F)c5ccc([nH]5)c(-c5cccc(S(=O)(=O)[O-])c5F)c5nc(c(-c6cccc(S(=O)(=O)[O-])c6F)c6ccc3[nH]6)C=C5)C=C4)cc1)[C@@H](C(F)(F)F)O2
REMARK SMILES IDX 17 1 16 2 15 3 14 4 13 5 11 6 12 7 10 8 1 9 2 10 3 11 8 12
REMARK SMILES IDX 4 13 7 14 5 15 6 16 9 17 90 18 85 19 86 20 87 21 88 22 89 23
REMARK SMILES IDX 18 24 19 25 20 26 21 27 22 28 23 29 84 30 24 31 83 32 25 33
REMARK SMILES IDX 26 34 27 35 77 36 28 37 82 38 76 39 78 40 29 41 81 42 75 43
REMARK SMILES IDX 74 44 30 46 62 47 42 48 61 49 43 50 46 51 60 52 79 53 44 54
REMARK SMILES IDX 45 55 59 57 80 58 47 59 31 60 32 61 40 62 33 63 35 64 41 65
REMARK SMILES IDX 34 66 36 67 37 68 38 69 39 70 63 71 64 72 72 73 65 74 67 75
REMARK SMILES IDX 73 76 66 77 68 78 69 79 70 80 71 81 48 82 49 83 57 84 50 85
REMARK SMILES IDX 52 86 58 87 51 88 53 89 54 90 55 91 56 92
REMARK H PARENT 78 45 46 56
REMARK Flexibility Score: inf
ROOT
ATOM      1  C   UNL     1       3.831   7.521   0.330  1.00  0.00     0.202 C 
ENDROOT
BRANCH   1   2
ATOM      2  O   UNL     1       3.769   8.606  -0.596  1.00  0.00    -0.374 OA
BRANCH   2   3
ATOM      3  C   UNL     1       2.887   9.688  -0.304  1.00  0.00     0.202 C 
BRANCH   3   4
ATOM      4  C   UNL     1       1.388   9.467  -0.532  1.00  0.00     0.261 C 
BRANCH   4   5
ATOM      5  O   UNL     1       0.892   8.338   0.202  1.00  0.00    -0.460 OA
BRANCH   5   6
ATOM      6  C   UNL     1       0.553   7.277  -0.565  1.00  0.00     0.338 C 
ATOM      7  O   UNL     1       0.549   7.225  -1.786  1.00  0.00    -0.246 OA
BRANCH   6   8
ATOM      8  C   UNL     1       0.326   6.096   0.288  1.00  0.00     0.087 C 
ATOM      9  C   UNL     1       0.923  -0.007   0.011  1.00  0.00     0.044 C 
ATOM     10  C   UNL     1       0.523   1.303   0.621  1.00  0.00    -0.050 A 
ATOM     11  C   UNL     1      -0.278   1.359   1.768  1.00  0.00     0.010 A 
ATOM     12  C   UNL     1       0.922   2.496   0.013  1.00  0.00     0.015 A 
ATOM     13  C   UNL     1      -0.667   2.592   2.318  1.00  0.00    -0.008 A 
ATOM     14  C   UNL     1       0.520   3.729   0.537  1.00  0.00     0.018 A 
ATOM     15  C   UNL     1      -1.554   2.628   3.530  1.00  0.00     0.048 C 
ATOM     16  C   UNL     1      -0.247   3.781   1.702  1.00  0.00     0.130 A 
ATOM     17  C   UNL     1       0.832   4.949  -0.180  1.00  0.00     0.027 C 
ATOM     18  O   UNL     1      -0.619   4.956   2.294  1.00  0.00    -0.475 OA
ATOM     19  C   UNL     1      -0.450   6.209   1.571  1.00  0.00     0.316 C 
BRANCH  19  20
ATOM     20  C   UNL     1      -1.836   6.840   1.369  1.00  0.00     0.430 C 
ATOM     21  F   UNL     1      -2.534   6.863   2.527  1.00  0.00    -0.167 F 
ATOM     22  F   UNL     1      -1.742   8.116   0.933  1.00  0.00    -0.167 F 
ATOM     23  F   UNL     1      -2.568   6.152   0.462  1.00  0.00    -0.167 F 
ENDBRANCH  19  20
ENDBRANCH   6   8
ENDBRANCH   5   6
ENDBRANCH   4   5
ENDBRANCH   3   4
ENDBRANCH   2   3
ENDBRANCH   1   2
BRANCH   1  24
ATOM     24  C   UNL     1       4.498   7.761   1.690  1.00  0.00     0.261 C 
BRANCH  24  25
ATOM     25  O   UNL     1       3.786   8.703   2.510  1.00  0.00    -0.460 OA
BRANCH  25  26
ATOM     26  C   UNL     1       4.423   9.882   2.710  1.00  0.00     0.338 C 
ATOM     27  O   UNL     1       5.529  10.205   2.296  1.00  0.00    -0.246 OA
BRANCH  26  28
ATOM     28  C   UNL     1       3.506  10.834   3.358  1.00  0.00     0.060 A 
ATOM     29  C   UNL     1       3.192  12.014   2.673  1.00  0.00     0.016 A 
ATOM     30  C   UNL     1       3.006  10.598   4.639  1.00  0.00     0.016 A 
ATOM     31  C   UNL     1       2.387  12.976   3.280  1.00  0.00     0.010 A 
ATOM     32  C   UNL     1       2.205  11.569   5.249  1.00  0.00     0.010 A 
ATOM     33  C   UNL     1       1.911  12.772   4.582  1.00  0.00    -0.014 A 
BRANCH  33  34
ATOM     34  C   UNL     1       1.174  13.860   5.268  1.00  0.00     0.031 A 
ATOM     35  C   UNL     1       1.876  14.696   6.301  1.00  0.00     0.074 A 
ATOM     36  C   UNL     1      -0.108  14.113   4.946  1.00  0.00     0.049 A 
ATOM     37  N   UNL     1       1.425  15.718   6.979  1.00  0.00    -0.248 NA
ATOM     38  C   UNL     1       3.270  14.337   6.613  1.00  0.00     0.031 C 
ATOM     39  C   UNL     1      -0.891  13.365   3.962  1.00  0.00     0.029 A 
ATOM     40  N   UNL     1      -0.979  15.064   5.416  1.00  0.00    -0.354 N 
ATOM     41  C   UNL     1       2.468  16.118   7.804  1.00  0.00     0.074 A 
ATOM     42  C   UNL     1       3.569  15.211   7.564  1.00  0.00     0.031 C 
ATOM     43  C   UNL     1      -2.128  13.885   3.903  1.00  0.00     0.029 A 
ATOM     44  C   UNL     1      -2.234  14.987   4.857  1.00  0.00     0.049 A 
ATOM     45  H   UNL     1      -0.730  15.738   6.089  1.00  0.00     0.167 HD
ATOM     46  C   UNL     1       2.513  17.164   8.662  1.00  0.00     0.034 A 
ATOM     47  C   UNL     1      -3.342  15.720   5.090  1.00  0.00     0.034 A 
ATOM     48  C   UNL     1       1.420  18.072   8.880  1.00  0.00     0.049 A 
ATOM     49  C   UNL     1      -3.274  16.859   6.074  1.00  0.00     0.074 A 
ATOM     50  C   UNL     1       1.383  19.184   9.701  1.00  0.00     0.029 A 
ATOM     51  N   UNL     1       0.173  17.972   8.283  1.00  0.00    -0.354 N 
ATOM     52  N   UNL     1      -2.244  17.294   6.760  1.00  0.00    -0.248 NA
ATOM     53  C   UNL     1      -4.507  17.631   6.294  1.00  0.00     0.031 C 
ATOM     54  C   UNL     1       0.104  19.738   9.627  1.00  0.00     0.029 A 
ATOM     55  C   UNL     1      -0.645  18.996   8.727  1.00  0.00     0.049 A 
ATOM     56  H   UNL     1      -0.091  17.277   7.638  1.00  0.00     0.167 HD
ATOM     57  C   UNL     1      -2.692  18.410   7.459  1.00  0.00     0.074 A 
ATOM     58  C   UNL     1      -4.085  18.593   7.106  1.00  0.00     0.031 C 
ATOM     59  C   UNL     1      -2.012  19.204   8.322  1.00  0.00     0.034 A 
BRANCH  46  60
ATOM     60  C   UNL     1       3.800  17.424   9.401  1.00  0.00     0.023 A 
ATOM     61  C   UNL     1       4.908  17.941   8.699  1.00  0.00     0.012 A 
ATOM     62  C   UNL     1       3.881  17.264  10.799  1.00  0.00     0.148 A 
ATOM     63  C   UNL     1       6.082  18.276   9.371  1.00  0.00     0.002 A 
ATOM     64  C   UNL     1       5.038  17.645  11.468  1.00  0.00     0.091 A 
ATOM     65  F   UNL     1       2.823  16.755  11.446  1.00  0.00    -0.205 F 
ATOM     66  C   UNL     1       6.142  18.141  10.756  1.00  0.00     0.022 A 
BRANCH  64  67
ATOM     67  S   UNL     1       5.187  17.597  13.258  1.00  0.00     0.127 S 
ATOM     68  O   UNL     1       6.197  16.555  13.442  1.00  0.00    -0.237 OA
ATOM     69  O   UNL     1       5.646  18.951  13.564  1.00  0.00    -0.237 OA
ATOM     70  O   UNL     1       3.861  17.271  13.765  1.00  0.00    -0.744 OA
ENDBRANCH  64  67
ENDBRANCH  46  60
BRANCH  47  71
ATOM     71  C   UNL     1      -4.588  15.439   4.322  1.00  0.00     0.023 A 
ATOM     72  C   UNL     1      -5.038  16.373   3.368  1.00  0.00     0.012 A 
ATOM     73  C   UNL     1      -5.300  14.235   4.492  1.00  0.00     0.148 A 
ATOM     74  C   UNL     1      -6.184  16.122   2.612  1.00  0.00     0.002 A 
ATOM     75  C   UNL     1      -6.407  13.966   3.695  1.00  0.00     0.091 A 
ATOM     76  F   UNL     1      -4.864  13.366   5.414  1.00  0.00    -0.205 F 
ATOM     77  C   UNL     1      -6.860  14.915   2.765  1.00  0.00     0.022 A 
BRANCH  75  78
ATOM     78  S   UNL     1      -7.258  12.384   3.725  1.00  0.00     0.127 S 
ATOM     79  O   UNL     1      -8.561  12.757   4.272  1.00  0.00    -0.237 OA
ATOM     80  O   UNL     1      -7.265  12.022   2.308  1.00  0.00    -0.237 OA
ATOM     81  O   UNL     1      -6.447  11.516   4.567  1.00  0.00    -0.744 OA
ENDBRANCH  75  78
ENDBRANCH  47  71
BRANCH  59  82
ATOM     82  C   UNL     1      -2.728  20.379   8.938  1.00  0.00     0.023 A 
ATOM     83  C   UNL     1      -3.675  20.164   9.958  1.00  0.00     0.012 A 
ATOM     84  C   UNL     1      -2.338  21.697   8.620  1.00  0.00     0.148 A 
ATOM     85  C   UNL     1      -4.230  21.243  10.646  1.00  0.00     0.002 A 
ATOM     86  C   UNL     1      -2.856  22.763   9.346  1.00  0.00     0.091 A 
ATOM     87  F   UNL     1      -1.444  21.878   7.638  1.00  0.00    -0.205 F 
ATOM     88  C   UNL     1      -3.808  22.538  10.353  1.00  0.00     0.022 A 
BRANCH  86  89
ATOM     89  S   UNL     1      -2.289  24.454   9.123  1.00  0.00     0.127 S 
ATOM     90  O   UNL     1      -3.492  25.104   8.607  1.00  0.00    -0.237 OA
ATOM     91  O   UNL     1      -1.926  24.838  10.487  1.00  0.00    -0.237 OA
ATOM     92  O   UNL     1      -1.173  24.388   8.190  1.00  0.00    -0.744 OA
ENDBRANCH  86  89
ENDBRANCH  59  82
ENDBRANCH  33  34
ENDBRANCH  26  28
ENDBRANCH  25  26
ENDBRANCH  24  25
ENDBRANCH   1  24
TORSDOF 18
