REMARK SMILES CC(C)(C)OC(=O)[C@H]1CC[C@]1([NH3+])C(=O)OCCOCCOC(=O)c1ccc(-c2c3nc(c(-c4cccc(S(=O)(=O)[O-])c4F)c4ccc([nH]4)c(-c4cccc(S(=O)(=O)[O-])c4F)c4nc(c(-c5cccc(S(=O)(=O)[O-])c5F)c5ccc2[nH]5)C=C4)C=C3)cc1
REMARK SMILES IDX 18 1 17 2 16 3 15 4 13 5 14 6 11 7 8 8 9 9 10 10 6 11 7 12
REMARK SMILES IDX 5 13 2 14 1 15 3 16 4 17 12 18 19 22 20 23 21 24 22 25 23 26
REMARK SMILES IDX 24 27 25 28 86 29 26 30 85 31 27 32 28 33 29 34 79 35 30 36
REMARK SMILES IDX 84 37 78 38 80 39 31 40 83 41 77 42 76 43 32 45 64 46 44 47
REMARK SMILES IDX 63 48 45 49 48 50 62 51 81 52 46 53 47 54 61 56 82 57 49 58
REMARK SMILES IDX 33 59 34 60 42 61 35 62 37 63 43 64 36 65 38 66 39 67 40 68
REMARK SMILES IDX 41 69 65 70 66 71 74 72 67 73 69 74 75 75 68 76 70 77 71 78
REMARK SMILES IDX 72 79 73 80 50 81 51 82 59 83 52 84 54 85 60 86 53 87 55 88
REMARK SMILES IDX 56 89 57 90 58 91
REMARK H PARENT 12 19 12 20 12 21 80 44 48 55
REMARK Flexibility Score: inf
ROOT
ATOM      1  O   UNL     1       2.180  -5.298   3.530  1.00  0.00    -0.374 OA
ENDROOT
BRANCH   1   2
ATOM      2  C   UNL     1       3.189  -4.296   3.381  1.00  0.00     0.202 C 
BRANCH   2   3
ATOM      3  C   UNL     1       4.210  -4.525   2.262  1.00  0.00     0.261 C 
BRANCH   3   4
ATOM      4  O   UNL     1       3.588  -4.461   0.963  1.00  0.00    -0.459 OA
BRANCH   4   5
ATOM      5  C   UNL     1       3.762  -5.556   0.162  1.00  0.00     0.368 C 
ATOM      6  O   UNL     1       4.469  -6.515   0.479  1.00  0.00    -0.245 OA
BRANCH   5   7
ATOM      7  C   UNL     1       2.967  -5.478  -1.204  1.00  0.00     0.206 C 
ATOM      8  C   UNL     1       1.565  -4.785  -1.319  1.00  0.00     0.172 C 
ATOM      9  C   UNL     1       0.947  -6.199  -1.071  1.00  0.00     0.030 C 
ATOM     10  C   UNL     1       2.255  -6.806  -1.613  1.00  0.00     0.083 C 
BRANCH   8  11
ATOM     11  C   UNL     1       1.130  -4.157  -2.678  1.00  0.00     0.316 C 
ATOM     12  O   UNL     1       0.964  -4.808  -3.712  1.00  0.00    -0.252 OA
BRANCH  11  13
ATOM     13  O   UNL     1       0.919  -2.811  -2.593  1.00  0.00    -0.460 OA
BRANCH  13  14
ATOM     14  C   UNL     1       0.574  -2.051  -3.784  1.00  0.00     0.104 C 
ATOM     15  C   UNL     1       0.510  -0.586  -3.328  1.00  0.00     0.056 C 
ATOM     16  C   UNL     1      -0.808  -2.453  -4.317  1.00  0.00     0.056 C 
ATOM     17  C   UNL     1       1.661  -2.174  -4.861  1.00  0.00     0.056 C 
ENDBRANCH  13  14
ENDBRANCH  11  13
ENDBRANCH   8  11
BRANCH   7  18
ATOM     18  N   UNL     1       3.829  -5.052  -2.327  1.00  0.00    -0.343 N 
ATOM     19  H   UNL     1       3.277  -5.015  -3.184  1.00  0.00     0.345 HD
ATOM     20  H   UNL     1       4.592  -5.719  -2.442  1.00  0.00     0.345 HD
ATOM     21  H   UNL     1       4.212  -4.127  -2.129  1.00  0.00     0.345 HD
ENDBRANCH   7  18
ENDBRANCH   5   7
ENDBRANCH   4   5
ENDBRANCH   3   4
ENDBRANCH   2   3
ENDBRANCH   1   2
BRANCH   1  22
ATOM     22  C   UNL     1       1.137  -5.303   2.559  1.00  0.00     0.202 C 
BRANCH  22  23
ATOM     23  C   UNL     1       0.012  -4.280   2.746  1.00  0.00     0.261 C 
BRANCH  23  24
ATOM     24  O   UNL     1       0.487  -2.929   2.630  1.00  0.00    -0.460 OA
BRANCH  24  25
ATOM     25  C   UNL     1       0.509  -2.241   3.796  1.00  0.00     0.338 C 
ATOM     26  O   UNL     1       0.075  -2.617   4.878  1.00  0.00    -0.246 OA
BRANCH  25  27
ATOM     27  C   UNL     1       1.310  -1.012   3.654  1.00  0.00     0.060 A 
ATOM     28  C   UNL     1       2.310  -0.790   4.609  1.00  0.00     0.016 A 
ATOM     29  C   UNL     1       1.047  -0.061   2.665  1.00  0.00     0.016 A 
ATOM     30  C   UNL     1       3.005   0.415   4.624  1.00  0.00     0.010 A 
ATOM     31  C   UNL     1       1.742   1.154   2.687  1.00  0.00     0.010 A 
ATOM     32  C   UNL     1       2.688   1.414   3.695  1.00  0.00    -0.014 A 
BRANCH  32  33
ATOM     33  C   UNL     1       3.223   2.782   3.899  1.00  0.00     0.031 A 
ATOM     34  C   UNL     1       2.345   3.812   4.558  1.00  0.00     0.074 A 
ATOM     35  C   UNL     1       4.479   3.095   3.537  1.00  0.00     0.049 A 
ATOM     36  N   UNL     1       2.607   5.058   4.851  1.00  0.00    -0.248 NA
ATOM     37  C   UNL     1       0.990   3.377   4.939  1.00  0.00     0.031 C 
ATOM     38  C   UNL     1       5.427   2.182   2.901  1.00  0.00     0.029 A 
ATOM     39  N   UNL     1       5.167   4.278   3.641  1.00  0.00    -0.354 N 
ATOM     40  C   UNL     1       1.446   5.564   5.425  1.00  0.00     0.074 A 
ATOM     41  C   UNL     1       0.472   4.495   5.426  1.00  0.00     0.031 C 
ATOM     42  C   UNL     1       6.567   2.847   2.648  1.00  0.00     0.029 A 
ATOM     43  C   UNL     1       6.424   4.233   3.088  1.00  0.00     0.049 A 
ATOM     44  H   UNL     1       4.795   5.082   4.071  1.00  0.00     0.167 HD
ATOM     45  C   UNL     1       1.216   6.801   5.925  1.00  0.00     0.034 A 
ATOM     46  C   UNL     1       7.346   5.206   2.943  1.00  0.00     0.034 A 
ATOM     47  C   UNL     1       2.193   7.856   5.945  1.00  0.00     0.049 A 
ATOM     48  C   UNL     1       7.059   6.580   3.490  1.00  0.00     0.074 A 
ATOM     49  C   UNL     1       2.071   9.131   6.468  1.00  0.00     0.029 A 
ATOM     50  N   UNL     1       3.468   7.762   5.412  1.00  0.00    -0.354 N 
ATOM     51  N   UNL     1       6.002   7.008   4.137  1.00  0.00    -0.248 NA
ATOM     52  C   UNL     1       8.108   7.597   3.320  1.00  0.00     0.031 C 
ATOM     53  C   UNL     1       3.267   9.816   6.231  1.00  0.00     0.029 A 
ATOM     54  C   UNL     1       4.142   8.959   5.582  1.00  0.00     0.049 A 
ATOM     55  H   UNL     1       3.840   6.962   4.975  1.00  0.00     0.167 HD
ATOM     56  C   UNL     1       6.272   8.328   4.482  1.00  0.00     0.074 A 
ATOM     57  C   UNL     1       7.601   8.624   3.989  1.00  0.00     0.031 C 
ATOM     58  C   UNL     1       5.487   9.220   5.137  1.00  0.00     0.034 A 
BRANCH  45  59
ATOM     59  C   UNL     1      -0.140   7.072   6.519  1.00  0.00     0.023 A 
ATOM     60  C   UNL     1      -0.477   6.514   7.769  1.00  0.00     0.012 A 
ATOM     61  C   UNL     1      -1.062   7.913   5.866  1.00  0.00     0.148 A 
ATOM     62  C   UNL     1      -1.721   6.765   8.346  1.00  0.00     0.002 A 
ATOM     63  C   UNL     1      -2.284   8.191   6.467  1.00  0.00     0.091 A 
ATOM     64  F   UNL     1      -0.734   8.412   4.666  1.00  0.00    -0.205 F 
ATOM     65  C   UNL     1      -2.619   7.611   7.701  1.00  0.00     0.022 A 
BRANCH  63  66
ATOM     66  S   UNL     1      -3.477   9.326   5.748  1.00  0.00     0.127 S 
ATOM     67  O   UNL     1      -4.513   8.407   5.279  1.00  0.00    -0.237 OA
ATOM     68  O   UNL     1      -3.862  10.141   6.901  1.00  0.00    -0.237 OA
ATOM     69  O   UNL     1      -2.763  10.050   4.706  1.00  0.00    -0.744 OA
ENDBRANCH  63  66
ENDBRANCH  45  59
BRANCH  46  70
ATOM     70  C   UNL     1       8.648   4.902   2.284  1.00  0.00     0.023 A 
ATOM     71  C   UNL     1       9.830   4.891   3.050  1.00  0.00     0.012 A 
ATOM     72  C   UNL     1       8.718   4.605   0.909  1.00  0.00     0.148 A 
ATOM     73  C   UNL     1      11.061   4.617   2.453  1.00  0.00     0.002 A 
ATOM     74  C   UNL     1       9.940   4.280   0.332  1.00  0.00     0.091 A 
ATOM     75  F   UNL     1       7.585   4.640   0.193  1.00  0.00    -0.205 F 
ATOM     76  C   UNL     1      11.115   4.301   1.098  1.00  0.00     0.022 A 
BRANCH  74  77
ATOM     77  S   UNL     1      10.083   3.737  -1.375  1.00  0.00     0.127 S 
ATOM     78  O   UNL     1      10.735   4.885  -2.000  1.00  0.00    -0.237 OA
ATOM     79  O   UNL     1      10.923   2.546  -1.243  1.00  0.00    -0.237 OA
ATOM     80  O   UNL     1       8.721   3.464  -1.815  1.00  0.00    -0.744 OA
ENDBRANCH  74  77
ENDBRANCH  46  70
BRANCH  58  81
ATOM     81  C   UNL     1       6.050  10.594   5.396  1.00  0.00     0.023 A 
ATOM     82  C   UNL     1       6.175  11.511   4.334  1.00  0.00     0.012 A 
ATOM     83  C   UNL     1       6.376  11.002   6.705  1.00  0.00     0.148 A 
ATOM     84  C   UNL     1       6.645  12.803   4.566  1.00  0.00     0.002 A 
ATOM     85  C   UNL     1       6.799  12.306   6.935  1.00  0.00     0.091 A 
ATOM     86  F   UNL     1       6.269  10.109   7.699  1.00  0.00    -0.205 F 
ATOM     87  C   UNL     1       6.945  13.204   5.866  1.00  0.00     0.022 A 
BRANCH  85  88
ATOM     88  S   UNL     1       7.114  12.935   8.588  1.00  0.00     0.127 S 
ATOM     89  O   UNL     1       8.575  12.982   8.616  1.00  0.00    -0.237 OA
ATOM     90  O   UNL     1       6.463  14.245   8.554  1.00  0.00    -0.237 OA
ATOM     91  O   UNL     1       6.500  11.981   9.502  1.00  0.00    -0.744 OA
ENDBRANCH  85  88
ENDBRANCH  58  81
ENDBRANCH  32  33
ENDBRANCH  25  27
ENDBRANCH  24  25
ENDBRANCH  23  24
ENDBRANCH  22  23
ENDBRANCH   1  22
TORSDOF 21
