REMARK SMILES CCOc1ccc(NC(=O)CC2(CC(=O)OCCOCCOC(=O)c3ccc(-c4c5nc(c(-c6cccc(S(=O)(=O)[O-])c6F)c6ccc([nH]6)c(-c6cccc(S(=O)(=O)[O-])c6F)c6nc(c(-c7cccc(S(=O)(=O)[O-])c7F)c7ccc4[nH]7)C=C6)C=C5)cc3)CCCCC2)cc1
REMARK SMILES IDX 17 1 16 2 14 3 15 4 13 5 12 6 88 7 92 8 89 9 91 10 90 11
REMARK SMILES IDX 11 12 9 13 8 14 10 16 7 17 4 18 5 19 94 20 6 21 93 22 3 23
REMARK SMILES IDX 2 24 1 25 18 26 19 27 20 28 21 29 22 30 23 31 24 32 25 33
REMARK SMILES IDX 26 34 87 35 27 36 86 37 28 38 29 39 30 40 80 41 31 42 85 43
REMARK SMILES IDX 79 44 81 45 32 46 84 47 78 48 77 49 33 51 65 52 45 53 64 54
REMARK SMILES IDX 46 55 49 56 63 57 82 58 47 59 48 60 62 62 83 63 50 64 34 65
REMARK SMILES IDX 35 66 43 67 36 68 38 69 44 70 37 71 39 72 40 73 41 74 42 75
REMARK SMILES IDX 66 76 67 77 75 78 68 79 70 80 76 81 69 82 71 83 72 84 73 85
REMARK SMILES IDX 74 86 51 87 52 88 60 89 53 90 55 91 61 92 54 93 56 94 57 95
REMARK SMILES IDX 58 96 59 97
REMARK H PARENT 8 15 81 50 49 61
REMARK Flexibility Score: inf
ROOT
ATOM      1  C   UNL     1       8.009   8.639  -2.802  1.00  0.00     0.261 C 
ENDROOT
BRANCH   1   2
ATOM      2  O   UNL     1       6.908   7.864  -2.284  1.00  0.00    -0.463 OA
BRANCH   2   3
ATOM      3  C   UNL     1       6.837   6.570  -2.672  1.00  0.00     0.306 C 
ATOM      4  O   UNL     1       7.653   6.011  -3.398  1.00  0.00    -0.252 OA
BRANCH   3   5
ATOM      5  C   UNL     1       5.552   5.889  -2.252  1.00  0.00     0.130 C 
BRANCH   5   6
ATOM      6  C   UNL     1       4.888   6.090  -0.857  1.00  0.00    -0.011 C 
ATOM      7  C   UNL     1       3.536   5.315  -0.893  1.00  0.00     0.008 C 
ATOM      8  C   UNL     1       4.526   7.571  -0.534  1.00  0.00     0.008 C 
ATOM      9  C   UNL     1       2.454   5.913  -1.793  1.00  0.00     0.001 C 
ATOM     10  C   UNL     1       3.489   8.182  -1.474  1.00  0.00     0.001 C 
ATOM     11  C   UNL     1       2.197   7.375  -1.469  1.00  0.00     0.000 C 
BRANCH   6  12
ATOM     12  C   UNL     1       5.763   5.577   0.341  1.00  0.00     0.108 C 
BRANCH  12  13
ATOM     13  C   UNL     1       6.625   4.326   0.186  1.00  0.00     0.224 C 
ATOM     14  N   UNL     1       6.131   3.060   0.166  1.00  0.00    -0.326 N 
ATOM     15  H   UNL     1       6.798   2.367  -0.042  1.00  0.00     0.169 HD
ATOM     16  O   UNL     1       7.844   4.442   0.014  1.00  0.00    -0.275 OA
BRANCH  14  17
ATOM     17  C   UNL     1       4.844   2.570   0.387  1.00  0.00     0.041 A 
ATOM     18  C   UNL     1       2.169   1.826   0.395  1.00  0.00     0.119 A 
ATOM     19  C   UNL     1       2.643   2.691   1.377  1.00  0.00     0.048 A 
ATOM     20  C   UNL     1       3.039   1.258  -0.531  1.00  0.00     0.048 A 
ATOM     21  C   UNL     1       3.992   3.056   1.381  1.00  0.00     0.030 A 
ATOM     22  C   UNL     1       4.390   1.595  -0.506  1.00  0.00     0.030 A 
BRANCH  18  23
ATOM     23  O   UNL     1       0.826   1.659   0.220  1.00  0.00    -0.494 OA
BRANCH  23  24
ATOM     24  C   UNL     1       0.291   0.620   1.040  1.00  0.00     0.226 C 
ATOM     25  C   UNL     1       0.419  -0.726   0.346  1.00  0.00     0.049 C 
ENDBRANCH  23  24
ENDBRANCH  18  23
ENDBRANCH  14  17
ENDBRANCH  12  13
ENDBRANCH   6  12
ENDBRANCH   5   6
ENDBRANCH   3   5
ENDBRANCH   2   3
ENDBRANCH   1   2
BRANCH   1  26
ATOM     26  C   UNL     1       9.003   9.028  -1.706  1.00  0.00     0.202 C 
BRANCH  26  27
ATOM     27  O   UNL     1       9.889   7.989  -1.283  1.00  0.00    -0.374 OA
BRANCH  27  28
ATOM     28  C   UNL     1       9.329   7.003  -0.416  1.00  0.00     0.202 C 
BRANCH  28  29
ATOM     29  C   UNL     1       9.303   7.393   1.063  1.00  0.00     0.261 C 
BRANCH  29  30
ATOM     30  O   UNL     1       8.393   8.491   1.279  1.00  0.00    -0.460 OA
BRANCH  30  31
ATOM     31  C   UNL     1       8.947   9.573   1.864  1.00  0.00     0.338 C 
ATOM     32  O   UNL     1      10.049   9.645   2.398  1.00  0.00    -0.246 OA
BRANCH  31  33
ATOM     33  C   UNL     1       8.117  10.763   1.617  1.00  0.00     0.060 A 
ATOM     34  C   UNL     1       8.721  11.828   0.937  1.00  0.00     0.016 A 
ATOM     35  C   UNL     1       6.815  10.879   2.112  1.00  0.00     0.016 A 
ATOM     36  C   UNL     1       8.051  13.041   0.813  1.00  0.00     0.010 A 
ATOM     37  C   UNL     1       6.147  12.104   1.988  1.00  0.00     0.010 A 
ATOM     38  C   UNL     1       6.781  13.203   1.381  1.00  0.00    -0.014 A 
BRANCH  38  39
ATOM     39  C   UNL     1       6.209  14.570   1.468  1.00  0.00     0.031 A 
ATOM     40  C   UNL     1       6.347  15.342   2.754  1.00  0.00     0.074 A 
ATOM     41  C   UNL     1       5.630  15.143   0.398  1.00  0.00     0.049 A 
ATOM     42  N   UNL     1       6.003  16.575   3.018  1.00  0.00    -0.248 NA
ATOM     43  C   UNL     1       6.955  14.631   3.891  1.00  0.00     0.031 C 
ATOM     44  C   UNL     1       5.434  14.502  -0.900  1.00  0.00     0.029 A 
ATOM     45  N   UNL     1       5.093  16.397   0.240  1.00  0.00    -0.354 N 
ATOM     46  C   UNL     1       6.339  16.786   4.350  1.00  0.00     0.074 A 
ATOM     47  C   UNL     1       6.895  15.546   4.848  1.00  0.00     0.031 C 
ATOM     48  C   UNL     1       4.807  15.362  -1.721  1.00  0.00     0.029 A 
ATOM     49  C   UNL     1       4.549  16.610  -1.004  1.00  0.00     0.049 A 
ATOM     50  H   UNL     1       5.097  17.078   0.950  1.00  0.00     0.167 HD
ATOM     51  C   UNL     1       6.221  17.915   5.088  1.00  0.00     0.034 A 
ATOM     52  C   UNL     1       3.913  17.688  -1.506  1.00  0.00     0.034 A 
ATOM     53  C   UNL     1       5.693  19.156   4.589  1.00  0.00     0.049 A 
ATOM     54  C   UNL     1       3.782  18.928  -0.660  1.00  0.00     0.074 A 
ATOM     55  C   UNL     1       5.581  20.368   5.246  1.00  0.00     0.029 A 
ATOM     56  N   UNL     1       5.181  19.342   3.315  1.00  0.00    -0.354 N 
ATOM     57  N   UNL     1       4.232  19.153   0.550  1.00  0.00    -0.248 NA
ATOM     58  C   UNL     1       3.090  20.077  -1.264  1.00  0.00     0.031 C 
ATOM     59  C   UNL     1       4.981  21.283   4.374  1.00  0.00     0.029 A 
ATOM     60  C   UNL     1       4.737  20.645   3.169  1.00  0.00     0.049 A 
ATOM     61  H   UNL     1       5.138  18.649   2.617  1.00  0.00     0.167 HD
ATOM     62  C   UNL     1       3.907  20.474   0.841  1.00  0.00     0.074 A 
ATOM     63  C   UNL     1       3.240  21.007  -0.330  1.00  0.00     0.031 C 
ATOM     64  C   UNL     1       4.125  21.178   1.979  1.00  0.00     0.034 A 
BRANCH  51  65
ATOM     65  C   UNL     1       6.712  17.873   6.510  1.00  0.00     0.023 A 
ATOM     66  C   UNL     1       8.098  17.888   6.765  1.00  0.00     0.012 A 
ATOM     67  C   UNL     1       5.809  17.877   7.591  1.00  0.00     0.148 A 
ATOM     68  C   UNL     1       8.579  17.882   8.074  1.00  0.00     0.002 A 
ATOM     69  C   UNL     1       6.296  17.909   8.893  1.00  0.00     0.091 A 
ATOM     70  F   UNL     1       4.495  17.836   7.327  1.00  0.00    -0.205 F 
ATOM     71  C   UNL     1       7.679  17.903   9.136  1.00  0.00     0.022 A 
BRANCH  69  72
ATOM     72  S   UNL     1       5.214  18.006  10.324  1.00  0.00     0.127 S 
ATOM     73  O   UNL     1       5.305  16.648  10.856  1.00  0.00    -0.237 OA
ATOM     74  O   UNL     1       5.872  19.026  11.142  1.00  0.00    -0.237 OA
ATOM     75  O   UNL     1       3.908  18.394   9.811  1.00  0.00    -0.744 OA
ENDBRANCH  69  72
ENDBRANCH  51  65
BRANCH  52  76
ATOM     76  C   UNL     1       3.395  17.657  -2.903  1.00  0.00     0.023 A 
ATOM     77  C   UNL     1       4.010  18.448  -3.893  1.00  0.00     0.012 A 
ATOM     78  C   UNL     1       2.314  16.828  -3.260  1.00  0.00     0.148 A 
ATOM     79  C   UNL     1       3.542  18.431  -5.207  1.00  0.00     0.002 A 
ATOM     80  C   UNL     1       1.888  16.775  -4.582  1.00  0.00     0.091 A 
ATOM     81  F   UNL     1       1.725  16.102  -2.299  1.00  0.00    -0.205 F 
ATOM     82  C   UNL     1       2.491  17.587  -5.555  1.00  0.00     0.022 A 
BRANCH  80  83
ATOM     83  S   UNL     1       0.630  15.618  -5.136  1.00  0.00     0.127 S 
ATOM     84  O   UNL     1      -0.519  16.496  -5.333  1.00  0.00    -0.237 OA
ATOM     85  O   UNL     1       1.222  15.090  -6.366  1.00  0.00    -0.237 OA
ATOM     86  O   UNL     1       0.507  14.637  -4.065  1.00  0.00    -0.744 OA
ENDBRANCH  80  83
ENDBRANCH  52  76
BRANCH  64  87
ATOM     87  C   UNL     1       3.661  22.611   2.019  1.00  0.00     0.023 A 
ATOM     88  C   UNL     1       2.286  22.894   2.139  1.00  0.00     0.012 A 
ATOM     89  C   UNL     1       4.588  23.672   2.024  1.00  0.00     0.148 A 
ATOM     90  C   UNL     1       1.838  24.211   2.235  1.00  0.00     0.002 A 
ATOM     91  C   UNL     1       4.137  24.980   2.164  1.00  0.00     0.091 A 
ATOM     92  F   UNL     1       5.891  23.385   1.890  1.00  0.00    -0.205 F 
ATOM     93  C   UNL     1       2.763  25.252   2.260  1.00  0.00     0.022 A 
BRANCH  91  94
ATOM     94  S   UNL     1       5.264  26.374   2.297  1.00  0.00     0.127 S 
ATOM     95  O   UNL     1       5.149  26.978   0.971  1.00  0.00    -0.237 OA
ATOM     96  O   UNL     1       4.666  27.159   3.378  1.00  0.00    -0.237 OA
ATOM     97  O   UNL     1       6.566  25.804   2.618  1.00  0.00    -0.744 OA
ENDBRANCH  91  94
ENDBRANCH  64  87
ENDBRANCH  38  39
ENDBRANCH  31  33
ENDBRANCH  30  31
ENDBRANCH  29  30
ENDBRANCH  28  29
ENDBRANCH  27  28
ENDBRANCH  26  27
ENDBRANCH   1  26
TORSDOF 23
