REMARK SMILES Cc1sc(NC(=O)C[C@@H]2CCCCO2)c(C(=O)OCCOCCOC(=O)c2ccc(-c3c4nc(c(-c5cccc(S(=O)(=O)[O-])c5F)c5ccc([nH]5)c(-c5cccc(S(=O)(=O)[O-])c5F)c5nc(c(-c6cccc(S(=O)(=O)[O-])c6F)c6ccc3[nH]6)C=C5)C=C4)cc2)c1C
REMARK SMILES IDX 21 1 20 2 19 3 18 4 16 5 17 6 15 7 1 8 2 9 3 10 90 11 4 12
REMARK SMILES IDX 91 13 5 14 6 15 7 17 8 18 9 19 10 20 14 21 11 22 13 23 12 24
REMARK SMILES IDX 22 25 23 26 24 27 25 28 26 29 27 30 28 31 89 32 29 33 88 34
REMARK SMILES IDX 30 35 31 36 32 37 82 38 33 39 87 40 81 41 83 42 34 43 86 44
REMARK SMILES IDX 80 45 79 46 35 48 67 49 47 50 66 51 48 52 51 53 65 54 84 55
REMARK SMILES IDX 49 56 50 57 64 59 85 60 52 61 36 62 37 63 45 64 38 65 40 66
REMARK SMILES IDX 46 67 39 68 41 69 42 70 43 71 44 72 68 73 69 74 77 75 70 76
REMARK SMILES IDX 72 77 78 78 71 79 73 80 74 81 75 82 76 83 53 84 54 85 62 86
REMARK SMILES IDX 55 87 57 88 63 89 56 90 58 91 59 92 60 93 61 94
REMARK H PARENT 5 16 83 47 51 58
REMARK Flexibility Score: inf
ROOT
ATOM      1  O   UNL     1      -3.228  -4.918   1.452  1.00  0.00    -0.374 OA
ENDROOT
BRANCH   1   2
ATOM      2  C   UNL     1      -2.299  -5.550   0.565  1.00  0.00     0.202 C 
BRANCH   2   3
ATOM      3  C   UNL     1      -2.180  -4.807  -0.767  1.00  0.00     0.261 C 
BRANCH   3   4
ATOM      4  O   UNL     1      -1.469  -3.572  -0.566  1.00  0.00    -0.460 OA
BRANCH   4   5
ATOM      5  C   UNL     1      -1.317  -2.810  -1.681  1.00  0.00     0.341 C 
ATOM      6  O   UNL     1      -1.795  -3.079  -2.776  1.00  0.00    -0.246 OA
BRANCH   5   7
ATOM      7  C   UNL     1      -0.637  -1.554  -1.402  1.00  0.00     0.098 A 
ATOM      8  C   UNL     1      -0.760   2.150  -0.486  1.00  0.00     0.057 C 
ATOM      9  C   UNL     1      -0.486   0.751  -0.930  1.00  0.00     0.007 A 
ATOM     10  S   UNL     1       1.066   0.359  -1.507  1.00  0.00    -0.122 S 
ATOM     11  C   UNL     1      -1.340  -0.339  -0.988  1.00  0.00    -0.021 A 
ATOM     12  C   UNL     1       0.719  -1.314  -1.502  1.00  0.00     0.110 A 
ATOM     13  C   UNL     1      -2.796  -0.302  -0.640  1.00  0.00     0.046 C 
BRANCH  12  14
ATOM     14  N   UNL     1       1.896  -2.011  -1.627  1.00  0.00    -0.317 N 
ATOM     15  C   UNL     1       2.428  -2.935  -0.776  1.00  0.00     0.227 C 
ATOM     16  H   UNL     1       2.425  -1.819  -2.436  1.00  0.00     0.170 HD
ATOM     17  O   UNL     1       3.661  -2.963  -0.706  1.00  0.00    -0.275 OA
BRANCH  15  18
ATOM     18  C   UNL     1       1.611  -3.906   0.028  1.00  0.00     0.132 C 
BRANCH  18  19
ATOM     19  C   UNL     1       1.186  -3.546   1.457  1.00  0.00     0.127 C 
ATOM     20  C   UNL     1       0.675  -2.150   1.803  1.00  0.00     0.033 C 
ATOM     21  O   UNL     1       2.123  -3.986   2.446  1.00  0.00    -0.378 OA
ATOM     22  C   UNL     1       1.791  -1.157   2.078  1.00  0.00     0.005 C 
ATOM     23  C   UNL     1       3.217  -3.109   2.691  1.00  0.00     0.160 C 
ATOM     24  C   UNL     1       2.732  -1.733   3.123  1.00  0.00     0.029 C 
ENDBRANCH  18  19
ENDBRANCH  15  18
ENDBRANCH  12  14
ENDBRANCH   5   7
ENDBRANCH   4   5
ENDBRANCH   3   4
ENDBRANCH   2   3
ENDBRANCH   1   2
BRANCH   1  25
ATOM     25  C   UNL     1      -2.681  -3.880   2.267  1.00  0.00     0.202 C 
BRANCH  25  26
ATOM     26  C   UNL     1      -2.190  -4.368   3.635  1.00  0.00     0.261 C 
BRANCH  26  27
ATOM     27  O   UNL     1      -0.962  -5.112   3.533  1.00  0.00    -0.460 OA
BRANCH  27  28
ATOM     28  C   UNL     1      -1.081  -6.461   3.585  1.00  0.00     0.338 C 
ATOM     29  O   UNL     1      -2.116  -7.088   3.750  1.00  0.00    -0.246 OA
BRANCH  28  30
ATOM     30  C   UNL     1       0.212  -7.120   3.280  1.00  0.00     0.060 A 
ATOM     31  C   UNL     1       0.174  -8.304   2.536  1.00  0.00     0.016 A 
ATOM     32  C   UNL     1       1.437  -6.636   3.746  1.00  0.00     0.016 A 
ATOM     33  C   UNL     1       1.345  -9.030   2.306  1.00  0.00     0.010 A 
ATOM     34  C   UNL     1       2.617  -7.351   3.490  1.00  0.00     0.010 A 
ATOM     35  C   UNL     1       2.574  -8.580   2.810  1.00  0.00    -0.014 A 
BRANCH  35  36
ATOM     36  C   UNL     1       3.765  -9.471   2.738  1.00  0.00     0.031 A 
ATOM     37  C   UNL     1       4.241 -10.177   3.983  1.00  0.00     0.074 A 
ATOM     38  C   UNL     1       4.399  -9.697   1.572  1.00  0.00     0.049 A 
ATOM     39  N   UNL     1       5.185 -11.073   4.117  1.00  0.00    -0.248 NA
ATOM     40  C   UNL     1       3.568  -9.825   5.244  1.00  0.00     0.031 C 
ATOM     41  C   UNL     1       4.077  -9.060   0.296  1.00  0.00     0.029 A 
ATOM     42  N   UNL     1       5.455 -10.526   1.276  1.00  0.00    -0.354 N 
ATOM     43  C   UNL     1       5.232 -11.378   5.472  1.00  0.00     0.074 A 
ATOM     44  C   UNL     1       4.244 -10.548   6.125  1.00  0.00     0.031 C 
ATOM     45  C   UNL     1       4.919  -9.519  -0.646  1.00  0.00     0.029 A 
ATOM     46  C   UNL     1       5.844 -10.478  -0.042  1.00  0.00     0.049 A 
ATOM     47  H   UNL     1       5.892 -11.100   1.945  1.00  0.00     0.167 HD
ATOM     48  C   UNL     1       6.000 -12.288   6.118  1.00  0.00     0.034 A 
ATOM     49  C   UNL     1       6.829 -11.134  -0.692  1.00  0.00     0.034 A 
ATOM     50  C   UNL     1       6.959 -13.147   5.478  1.00  0.00     0.049 A 
ATOM     51  C   UNL     1       7.665 -12.149   0.046  1.00  0.00     0.074 A 
ATOM     52  C   UNL     1       7.726 -14.150   6.043  1.00  0.00     0.029 A 
ATOM     53  N   UNL     1       7.291 -13.100   4.134  1.00  0.00    -0.354 N 
ATOM     54  N   UNL     1       7.577 -12.545   1.292  1.00  0.00    -0.248 NA
ATOM     55  C   UNL     1       8.712 -12.838  -0.726  1.00  0.00     0.031 C 
ATOM     56  C   UNL     1       8.536 -14.699   5.043  1.00  0.00     0.029 A 
ATOM     57  C   UNL     1       8.261 -14.047   3.852  1.00  0.00     0.049 A 
ATOM     58  H   UNL     1       6.895 -12.483   3.476  1.00  0.00     0.167 HD
ATOM     59  C   UNL     1       8.530 -13.548   1.445  1.00  0.00     0.074 A 
ATOM     60  C   UNL     1       9.170 -13.716   0.157  1.00  0.00     0.031 C 
ATOM     61  C   UNL     1       8.855 -14.254   2.556  1.00  0.00     0.034 A 
BRANCH  48  62
ATOM     62  C   UNL     1       5.790 -12.442   7.601  1.00  0.00     0.023 A 
ATOM     63  C   UNL     1       4.631 -13.094   8.069  1.00  0.00     0.012 A 
ATOM     64  C   UNL     1       6.750 -11.988   8.524  1.00  0.00     0.148 A 
ATOM     65  C   UNL     1       4.413 -13.261   9.435  1.00  0.00     0.002 A 
ATOM     66  C   UNL     1       6.545 -12.194   9.884  1.00  0.00     0.091 A 
ATOM     67  F   UNL     1       7.833 -11.348   8.062  1.00  0.00    -0.205 F 
ATOM     68  C   UNL     1       5.374 -12.820  10.341  1.00  0.00     0.022 A 
BRANCH  66  69
ATOM     69  S   UNL     1       7.761 -11.724  11.120  1.00  0.00     0.127 S 
ATOM     70  O   UNL     1       7.175 -10.500  11.662  1.00  0.00    -0.237 OA
ATOM     71  O   UNL     1       7.737 -12.868  12.033  1.00  0.00    -0.237 OA
ATOM     72  O   UNL     1       9.015 -11.558  10.398  1.00  0.00    -0.744 OA
ENDBRANCH  66  69
ENDBRANCH  48  62
BRANCH  49  73
ATOM     73  C   UNL     1       7.037 -10.901  -2.150  1.00  0.00     0.023 A 
ATOM     74  C   UNL     1       6.700 -11.915  -3.068  1.00  0.00     0.012 A 
ATOM     75  C   UNL     1       7.551  -9.681  -2.630  1.00  0.00     0.148 A 
ATOM     76  C   UNL     1       6.894 -11.728  -4.437  1.00  0.00     0.002 A 
ATOM     77  C   UNL     1       7.694  -9.483  -3.999  1.00  0.00     0.091 A 
ATOM     78  F   UNL     1       7.882  -8.738  -1.738  1.00  0.00    -0.205 F 
ATOM     79  C   UNL     1       7.381 -10.510  -4.903  1.00  0.00     0.022 A 
BRANCH  77  80
ATOM     80  S   UNL     1       8.206  -7.911  -4.700  1.00  0.00     0.127 S 
ATOM     81  O   UNL     1       9.525  -8.237  -5.236  1.00  0.00    -0.237 OA
ATOM     82  O   UNL     1       7.171  -7.681  -5.709  1.00  0.00    -0.237 OA
ATOM     83  O   UNL     1       8.191  -6.962  -3.596  1.00  0.00    -0.744 OA
ENDBRANCH  77  80
ENDBRANCH  49  73
BRANCH  61  84
ATOM     84  C   UNL     1       9.938 -15.297   2.444  1.00  0.00     0.023 A 
ATOM     85  C   UNL     1      11.284 -14.894   2.337  1.00  0.00     0.012 A 
ATOM     86  C   UNL     1       9.634 -16.671   2.536  1.00  0.00     0.148 A 
ATOM     87  C   UNL     1      12.308 -15.841   2.297  1.00  0.00     0.002 A 
ATOM     88  C   UNL     1      10.664 -17.607   2.539  1.00  0.00     0.091 A 
ATOM     89  F   UNL     1       8.348 -17.038   2.618  1.00  0.00    -0.205 F 
ATOM     90  C   UNL     1      11.999 -17.194   2.411  1.00  0.00     0.022 A 
BRANCH  88  91
ATOM     91  S   UNL     1      10.364 -19.364   2.774  1.00  0.00     0.127 S 
ATOM     92  O   UNL     1      10.539 -19.881   1.418  1.00  0.00    -0.237 OA
ATOM     93  O   UNL     1      11.424 -19.740   3.711  1.00  0.00    -0.237 OA
ATOM     94  O   UNL     1       9.017 -19.469   3.318  1.00  0.00    -0.744 OA
ENDBRANCH  88  91
ENDBRANCH  61  84
ENDBRANCH  35  36
ENDBRANCH  28  30
ENDBRANCH  27  28
ENDBRANCH  26  27
ENDBRANCH  25  26
ENDBRANCH   1  25
TORSDOF 20
