REMARK SMILES Cc1nn([C@H]2CCS(=O)(=O)C2)c(C)c1/C=C(\CC(=O)OCCOCCOC(=O)c1ccc(-c2c3nc(c(-c4cccc(S(=O)(=O)[O-])c4F)c4ccc([nH]4)c(-c4cccc(S(=O)(=O)[O-])c4F)c4nc(c(-c5cccc(S(=O)(=O)[O-])c5F)c5ccc2[nH]5)C=C4)C=C3)cc1)c1nc2ccccc2s1
REMARK SMILES IDX 23 1 22 2 21 3 20 4 18 5 19 6 17 7 16 8 15 9 14 10 1 11 2 12
REMARK SMILES IDX 3 13 4 14 12 15 13 16 5 17 6 18 11 19 7 20 8 21 9 22 10 23
REMARK SMILES IDX 92 24 93 25 100 26 94 27 99 28 95 29 98 30 96 31 97 32 24 33
REMARK SMILES IDX 25 34 26 35 27 36 28 37 29 38 30 39 91 40 31 41 90 42 32 43
REMARK SMILES IDX 33 44 34 45 84 46 35 47 89 48 83 49 85 50 36 51 88 52 82 53
REMARK SMILES IDX 81 54 37 56 69 57 49 58 68 59 50 60 53 61 67 62 86 63 51 64
REMARK SMILES IDX 52 65 66 67 87 68 54 69 38 70 39 71 47 72 40 73 42 74 48 75
REMARK SMILES IDX 41 76 43 77 44 78 45 79 46 80 70 81 71 82 79 83 72 84 74 85
REMARK SMILES IDX 80 86 73 87 75 88 76 89 77 90 78 91 55 92 56 93 64 94 57 95
REMARK SMILES IDX 59 96 65 97 58 98 60 99 61 100 62 101 63 102
REMARK H PARENT 85 55 53 66
REMARK Flexibility Score: inf
ROOT
ATOM      1  O   UNL     1       5.165  -0.966  10.443  1.00  0.00    -0.374 OA
ENDROOT
BRANCH   1   2
ATOM      2  C   UNL     1       4.011  -1.588  10.998  1.00  0.00     0.202 C 
BRANCH   2   3
ATOM      3  C   UNL     1       2.686  -1.548  10.226  1.00  0.00     0.261 C 
BRANCH   3   4
ATOM      4  O   UNL     1       2.727  -2.248   8.960  1.00  0.00    -0.463 OA
BRANCH   4   5
ATOM      5  C   UNL     1       2.720  -1.429   7.897  1.00  0.00     0.310 C 
ATOM      6  O   UNL     1       2.577  -0.203   7.990  1.00  0.00    -0.252 OA
BRANCH   5   7
ATOM      7  C   UNL     1       3.011  -1.991   6.516  1.00  0.00     0.161 C 
BRANCH   7   8
ATOM      8  C   UNL     1       2.901  -3.301   5.742  1.00  0.00    -0.000 C 
ATOM      9  C   UNL     1       1.840  -3.559   4.921  1.00  0.00     0.019 C 
BRANCH   9  10
ATOM     10  C   UNL     1       0.700  -2.694   4.744  1.00  0.00     0.019 A 
ATOM     11  C   UNL     1      -1.321  -4.341   4.610  1.00  0.00     0.069 C 
ATOM     12  C   UNL     1      -0.686  -3.002   4.736  1.00  0.00     0.067 A 
ATOM     13  N   UNL     1      -1.430  -1.882   4.851  1.00  0.00    -0.177 NA
ATOM     14  N   UNL     1      -0.522  -0.892   4.821  1.00  0.00    -0.265 N 
ATOM     15  C   UNL     1       0.729  -1.337   4.454  1.00  0.00     0.043 A 
ATOM     16  C   UNL     1       1.826  -0.414   4.017  1.00  0.00     0.067 C 
BRANCH  14  17
ATOM     17  C   UNL     1      -0.855   0.492   5.052  1.00  0.00     0.123 C 
ATOM     18  C   UNL     1      -2.318   0.927   5.239  1.00  0.00     0.044 C 
ATOM     19  C   UNL     1      -0.164   1.094   6.282  1.00  0.00     0.164 C 
ATOM     20  C   UNL     1      -2.244   2.456   5.386  1.00  0.00     0.139 C 
ATOM     21  S   UNL     1      -0.659   2.795   6.157  1.00  0.00     0.152 S 
ATOM     22  O   UNL     1       0.200   3.427   5.162  1.00  0.00    -0.229 OA
ATOM     23  O   UNL     1      -0.857   3.357   7.465  1.00  0.00    -0.229 OA
ENDBRANCH  14  17
ENDBRANCH   9  10
BRANCH   8  24
ATOM     24  C   UNL     1       4.083  -4.121   5.567  1.00  0.00     0.121 A 
ATOM     25  N   UNL     1       4.610  -4.912   6.468  1.00  0.00    -0.236 NA
ATOM     26  S   UNL     1       5.128  -3.888   4.194  1.00  0.00    -0.114 S 
ATOM     27  C   UNL     1       5.961  -5.118   6.253  1.00  0.00     0.082 A 
ATOM     28  C   UNL     1       6.451  -4.571   5.072  1.00  0.00     0.055 A 
ATOM     29  C   UNL     1       6.869  -5.692   7.170  1.00  0.00     0.030 A 
ATOM     30  C   UNL     1       7.825  -4.582   4.778  1.00  0.00     0.021 A 
ATOM     31  C   UNL     1       8.241  -5.599   6.944  1.00  0.00     0.002 A 
ATOM     32  C   UNL     1       8.711  -5.053   5.758  1.00  0.00     0.002 A 
ENDBRANCH   8  24
ENDBRANCH   7   8
ENDBRANCH   5   7
ENDBRANCH   4   5
ENDBRANCH   3   4
ENDBRANCH   2   3
ENDBRANCH   1   2
BRANCH   1  33
ATOM     33  C   UNL     1       5.625  -1.333   9.154  1.00  0.00     0.202 C 
BRANCH  33  34
ATOM     34  C   UNL     1       5.916  -2.796   8.826  1.00  0.00     0.261 C 
BRANCH  34  35
ATOM     35  O   UNL     1       4.865  -3.729   9.088  1.00  0.00    -0.460 OA
BRANCH  35  36
ATOM     36  C   UNL     1       5.072  -4.518  10.168  1.00  0.00     0.338 C 
ATOM     37  O   UNL     1       5.843  -4.269  11.085  1.00  0.00    -0.246 OA
BRANCH  36  38
ATOM     38  C   UNL     1       4.435  -5.844  10.023  1.00  0.00     0.060 A 
ATOM     39  C   UNL     1       4.810  -6.795  10.970  1.00  0.00     0.016 A 
ATOM     40  C   UNL     1       3.793  -6.239   8.847  1.00  0.00     0.016 A 
ATOM     41  C   UNL     1       4.770  -8.132  10.629  1.00  0.00     0.010 A 
ATOM     42  C   UNL     1       3.834  -7.570   8.461  1.00  0.00     0.010 A 
ATOM     43  C   UNL     1       4.374  -8.506   9.339  1.00  0.00    -0.014 A 
BRANCH  43  44
ATOM     44  C   UNL     1       4.240  -9.931   9.077  1.00  0.00     0.031 A 
ATOM     45  C   UNL     1       3.039 -10.460   9.766  1.00  0.00     0.074 A 
ATOM     46  C   UNL     1       5.052 -10.667   8.292  1.00  0.00     0.049 A 
ATOM     47  N   UNL     1       3.012 -11.192  10.831  1.00  0.00    -0.248 NA
ATOM     48  C   UNL     1       1.728  -9.905   9.387  1.00  0.00     0.031 C 
ATOM     49  C   UNL     1       6.091 -10.177   7.383  1.00  0.00     0.029 A 
ATOM     50  N   UNL     1       5.040 -12.014   8.046  1.00  0.00    -0.354 N 
ATOM     51  C   UNL     1       1.659 -11.416  11.068  1.00  0.00     0.074 A 
ATOM     52  C   UNL     1       0.946 -10.405  10.344  1.00  0.00     0.031 C 
ATOM     53  C   UNL     1       6.428 -11.164   6.521  1.00  0.00     0.029 A 
ATOM     54  C   UNL     1       5.722 -12.381   6.885  1.00  0.00     0.049 A 
ATOM     55  H   UNL     1       4.592 -12.664   8.635  1.00  0.00     0.167 HD
ATOM     56  C   UNL     1       1.244 -12.632  11.512  1.00  0.00     0.034 A 
ATOM     57  C   UNL     1       5.638 -13.570   6.231  1.00  0.00     0.034 A 
ATOM     58  C   UNL     1       2.340 -13.361  12.104  1.00  0.00     0.049 A 
ATOM     59  C   UNL     1       5.126 -14.567   7.193  1.00  0.00     0.074 A 
ATOM     60  C   UNL     1       3.205 -13.181  13.162  1.00  0.00     0.029 A 
ATOM     61  N   UNL     1       2.907 -14.293  11.276  1.00  0.00    -0.354 N 
ATOM     62  N   UNL     1       5.807 -15.001   8.214  1.00  0.00    -0.248 NA
ATOM     63  C   UNL     1       3.698 -14.837   7.229  1.00  0.00     0.031 C 
ATOM     64  C   UNL     1       4.429 -13.799  12.764  1.00  0.00     0.029 A 
ATOM     65  C   UNL     1       4.247 -14.385  11.510  1.00  0.00     0.049 A 
ATOM     66  H   UNL     1       2.416 -14.822  10.607  1.00  0.00     0.167 HD
ATOM     67  C   UNL     1       4.856 -15.139   9.211  1.00  0.00     0.074 A 
ATOM     68  C   UNL     1       3.579 -15.202   8.507  1.00  0.00     0.031 C 
ATOM     69  C   UNL     1       5.177 -14.864  10.509  1.00  0.00     0.034 A 
BRANCH  56  70
ATOM     70  C   UNL     1       0.042 -13.370  10.931  1.00  0.00     0.023 A 
ATOM     71  C   UNL     1      -0.256 -14.633  11.493  1.00  0.00     0.012 A 
ATOM     72  C   UNL     1      -0.592 -13.065   9.701  1.00  0.00     0.148 A 
ATOM     73  C   UNL     1      -1.071 -15.561  10.834  1.00  0.00     0.002 A 
ATOM     74  C   UNL     1      -1.462 -13.958   9.087  1.00  0.00     0.091 A 
ATOM     75  F   UNL     1      -0.272 -11.962   9.025  1.00  0.00    -0.205 F 
ATOM     76  C   UNL     1      -1.678 -15.223   9.631  1.00  0.00     0.022 A 
BRANCH  74  77
ATOM     77  S   UNL     1      -2.296 -13.553   7.544  1.00  0.00     0.127 S 
ATOM     78  O   UNL     1      -1.642 -14.466   6.612  1.00  0.00    -0.237 OA
ATOM     79  O   UNL     1      -3.684 -13.881   7.868  1.00  0.00    -0.237 OA
ATOM     80  O   UNL     1      -2.055 -12.133   7.320  1.00  0.00    -0.744 OA
ENDBRANCH  74  77
ENDBRANCH  56  70
BRANCH  57  81
ATOM     81  C   UNL     1       5.728 -13.895   4.784  1.00  0.00     0.023 A 
ATOM     82  C   UNL     1       5.909 -15.236   4.375  1.00  0.00     0.012 A 
ATOM     83  C   UNL     1       5.329 -12.958   3.808  1.00  0.00     0.148 A 
ATOM     84  C   UNL     1       5.654 -15.636   3.056  1.00  0.00     0.002 A 
ATOM     85  C   UNL     1       5.084 -13.357   2.496  1.00  0.00     0.091 A 
ATOM     86  F   UNL     1       5.095 -11.695   4.184  1.00  0.00    -0.205 F 
ATOM     87  C   UNL     1       5.230 -14.698   2.119  1.00  0.00     0.022 A 
BRANCH  85  88
ATOM     88  S   UNL     1       4.507 -12.207   1.240  1.00  0.00     0.127 S 
ATOM     89  O   UNL     1       5.420 -12.487   0.131  1.00  0.00    -0.237 OA
ATOM     90  O   UNL     1       3.133 -12.651   1.029  1.00  0.00    -0.237 OA
ATOM     91  O   UNL     1       4.660 -10.877   1.817  1.00  0.00    -0.744 OA
ENDBRANCH  85  88
ENDBRANCH  57  81
BRANCH  69  92
ATOM     92  C   UNL     1       6.634 -14.887  10.886  1.00  0.00     0.023 A 
ATOM     93  C   UNL     1       7.595 -14.013  10.339  1.00  0.00     0.012 A 
ATOM     94  C   UNL     1       7.021 -15.772  11.907  1.00  0.00     0.148 A 
ATOM     95  C   UNL     1       8.921 -14.047  10.782  1.00  0.00     0.002 A 
ATOM     96  C   UNL     1       8.324 -15.767  12.379  1.00  0.00     0.091 A 
ATOM     97  F   UNL     1       6.095 -16.604  12.409  1.00  0.00    -0.205 F 
ATOM     98  C   UNL     1       9.283 -14.915  11.811  1.00  0.00     0.022 A 
BRANCH  96  99
ATOM     99  S   UNL     1       8.807 -16.784  13.775  1.00  0.00     0.127 S 
ATOM    100  O   UNL     1       9.518 -17.881  13.122  1.00  0.00    -0.237 OA
ATOM    101  O   UNL     1       9.656 -15.876  14.547  1.00  0.00    -0.237 OA
ATOM    102  O   UNL     1       7.567 -17.149  14.449  1.00  0.00    -0.744 OA
ENDBRANCH  96  99
ENDBRANCH  69  92
ENDBRANCH  43  44
ENDBRANCH  36  38
ENDBRANCH  35  36
ENDBRANCH  34  35
ENDBRANCH  33  34
ENDBRANCH   1  33
TORSDOF 21
