REMARK SMILES COc1ccc(-n2c(SCc3cn(-c4ccc(C(=O)OCCOCCOC(=O)c5ccc(-c6c7nc(c(-c8cccc(S(=O)(=O)[O-])c8F)c8ccc([nH]8)c(-c8cccc(S(=O)(=O)[O-])c8F)c8nc(c(-c9cccc(S(=O)(=O)[O-])c9F)c9ccc6[nH]9)C=C8)C=C7)cc5)cc4)nn3)nc3ccccc3c2=O)cc1
REMARK SMILES IDX 21 1 20 2 18 3 19 4 17 5 14 6 15 7 93 8 16 9 92 10 13 11
REMARK SMILES IDX 11 12 12 13 95 14 94 15 10 16 9 17 8 18 7 19 103 20 96 21
REMARK SMILES IDX 102 22 104 23 97 24 101 25 98 26 100 27 99 28 6 29 3 30 4 31
REMARK SMILES IDX 106 32 5 33 105 34 2 35 1 36 22 37 23 38 24 39 25 40 26 41
REMARK SMILES IDX 27 42 28 43 29 44 30 45 91 46 31 47 90 48 32 49 33 50 34 51
REMARK SMILES IDX 84 52 35 53 89 54 83 55 85 56 36 57 88 58 82 59 81 60 37 62
REMARK SMILES IDX 69 63 49 64 68 65 50 66 53 67 67 68 86 69 51 70 52 71 66 73
REMARK SMILES IDX 87 74 54 75 38 76 39 77 47 78 40 79 42 80 48 81 41 82 43 83
REMARK SMILES IDX 44 84 45 85 46 86 70 87 71 88 79 89 72 90 74 91 80 92 73 93
REMARK SMILES IDX 75 94 76 95 77 96 78 97 55 98 56 99 64 100 57 101 59 102
REMARK SMILES IDX 65 103 58 104 60 105 61 106 62 107 63 108
REMARK H PARENT 85 61 53 72
REMARK Flexibility Score: inf
ROOT
ATOM      1  C   UNL     1      -4.796   0.331   4.388  1.00  0.00     0.261 C 
ENDROOT
BRANCH   1   2
ATOM      2  O   UNL     1      -3.546   0.692   3.790  1.00  0.00    -0.460 OA
BRANCH   2   3
ATOM      3  C   UNL     1      -3.596   0.897   2.454  1.00  0.00     0.338 C 
ATOM      4  O   UNL     1      -4.543   0.717   1.709  1.00  0.00    -0.246 OA
BRANCH   3   5
ATOM      5  C   UNL     1      -2.359   1.578   2.032  1.00  0.00     0.060 A 
ATOM      6  C   UNL     1      -0.095   2.863   1.107  1.00  0.00     0.066 A 
ATOM      7  C   UNL     1      -1.350   3.254   0.624  1.00  0.00     0.029 A 
ATOM      8  C   UNL     1       0.027   1.884   2.102  1.00  0.00     0.029 A 
ATOM      9  C   UNL     1      -2.481   2.590   1.071  1.00  0.00     0.018 A 
ATOM     10  C   UNL     1      -1.115   1.250   2.578  1.00  0.00     0.018 A 
BRANCH   6  11
ATOM     11  N   UNL     1       1.052   3.401   0.502  1.00  0.00    -0.220 N 
ATOM     12  C   UNL     1       2.972   3.626  -0.469  1.00  0.00     0.093 A 
ATOM     13  C   UNL     1       2.291   2.824   0.412  1.00  0.00     0.141 A 
ATOM     14  N   UNL     1       2.181   4.690  -0.804  1.00  0.00    -0.134 NA
ATOM     15  N   UNL     1       0.998   4.518  -0.250  1.00  0.00    -0.062 NA
BRANCH  12  16
ATOM     16  C   UNL     1       4.292   3.390  -1.076  1.00  0.00     0.138 C 
BRANCH  16  17
ATOM     17  S   UNL     1       4.878   4.710  -2.119  1.00  0.00    -0.081 SA
BRANCH  17  18
ATOM     18  C   UNL     1       3.469   5.117  -3.180  1.00  0.00     0.176 A 
ATOM     19  N   UNL     1       3.256   4.170  -4.166  1.00  0.00    -0.255 N 
ATOM     20  C   UNL     1       3.890   4.394  -5.384  1.00  0.00     0.266 A 
ATOM     21  N   UNL     1       3.388   6.373  -3.510  1.00  0.00    -0.223 NA
ATOM     22  C   UNL     1       4.715   5.645  -5.407  1.00  0.00     0.066 A 
ATOM     23  O   UNL     1       3.857   3.664  -6.371  1.00  0.00    -0.268 OA
ATOM     24  C   UNL     1       4.364   6.650  -4.485  1.00  0.00     0.079 A 
ATOM     25  C   UNL     1       5.925   5.710  -6.090  1.00  0.00     0.016 A 
ATOM     26  C   UNL     1       5.186   7.759  -4.302  1.00  0.00     0.029 A 
ATOM     27  C   UNL     1       6.787   6.781  -5.833  1.00  0.00     0.001 A 
ATOM     28  C   UNL     1       6.412   7.810  -4.960  1.00  0.00     0.002 A 
BRANCH  19  29
ATOM     29  C   UNL     1       2.406   3.065  -3.918  1.00  0.00     0.052 A 
ATOM     30  C   UNL     1       0.900   0.959  -2.860  1.00  0.00     0.119 A 
ATOM     31  C   UNL     1       0.306   2.204  -3.039  1.00  0.00     0.048 A 
ATOM     32  C   UNL     1       2.200   0.731  -3.312  1.00  0.00     0.048 A 
ATOM     33  C   UNL     1       1.070   3.266  -3.537  1.00  0.00     0.030 A 
ATOM     34  C   UNL     1       2.943   1.776  -3.873  1.00  0.00     0.030 A 
BRANCH  30  35
ATOM     35  O   UNL     1       0.161  -0.045  -2.296  1.00  0.00    -0.497 OA
ATOM     36  C   UNL     1       0.675  -0.429  -1.018  1.00  0.00     0.278 C 
ENDBRANCH  30  35
ENDBRANCH  19  29
ENDBRANCH  17  18
ENDBRANCH  16  17
ENDBRANCH  12  16
ENDBRANCH   6  11
ENDBRANCH   3   5
ENDBRANCH   2   3
ENDBRANCH   1   2
BRANCH   1  37
ATOM     37  C   UNL     1      -5.340   1.448   5.277  1.00  0.00     0.202 C 
BRANCH  37  38
ATOM     38  O   UNL     1      -5.737   2.674   4.660  1.00  0.00    -0.374 OA
BRANCH  38  39
ATOM     39  C   UNL     1      -4.758   3.554   4.115  1.00  0.00     0.202 C 
BRANCH  39  40
ATOM     40  C   UNL     1      -3.836   4.308   5.062  1.00  0.00     0.261 C 
BRANCH  40  41
ATOM     41  O   UNL     1      -3.072   3.429   5.868  1.00  0.00    -0.460 OA
BRANCH  41  42
ATOM     42  C   UNL     1      -3.565   3.293   7.124  1.00  0.00     0.338 C 
ATOM     43  O   UNL     1      -4.671   3.594   7.517  1.00  0.00    -0.246 OA
BRANCH  42  44
ATOM     44  C   UNL     1      -2.465   2.876   7.997  1.00  0.00     0.060 A 
ATOM     45  C   UNL     1      -2.741   2.957   9.361  1.00  0.00     0.016 A 
ATOM     46  C   UNL     1      -1.158   2.797   7.490  1.00  0.00     0.016 A 
ATOM     47  C   UNL     1      -1.699   3.249  10.200  1.00  0.00     0.010 A 
ATOM     48  C   UNL     1      -0.118   3.099   8.331  1.00  0.00     0.010 A 
ATOM     49  C   UNL     1      -0.423   3.417   9.650  1.00  0.00    -0.014 A 
BRANCH  49  50
ATOM     50  C   UNL     1       0.625   3.821  10.551  1.00  0.00     0.031 A 
ATOM     51  C   UNL     1       0.992   2.725  11.467  1.00  0.00     0.074 A 
ATOM     52  C   UNL     1       1.200   5.034  10.500  1.00  0.00     0.049 A 
ATOM     53  N   UNL     1       0.709   2.635  12.723  1.00  0.00    -0.248 NA
ATOM     54  C   UNL     1       1.504   1.483  10.868  1.00  0.00     0.031 C 
ATOM     55  C   UNL     1       1.064   6.058   9.461  1.00  0.00     0.029 A 
ATOM     56  N   UNL     1       2.154   5.549  11.318  1.00  0.00    -0.354 N 
ATOM     57  C   UNL     1       1.268   1.429  13.121  1.00  0.00     0.074 A 
ATOM     58  C   UNL     1       1.491   0.668  11.922  1.00  0.00     0.031 C 
ATOM     59  C   UNL     1       2.090   6.934   9.574  1.00  0.00     0.029 A 
ATOM     60  C   UNL     1       2.867   6.600  10.755  1.00  0.00     0.049 A 
ATOM     61  H   UNL     1       2.324   5.209  12.226  1.00  0.00     0.167 HD
ATOM     62  C   UNL     1       1.815   1.304  14.359  1.00  0.00     0.034 A 
ATOM     63  C   UNL     1       4.065   7.068  11.186  1.00  0.00     0.034 A 
ATOM     64  C   UNL     1       1.336   2.335  15.249  1.00  0.00     0.049 A 
ATOM     65  C   UNL     1       4.234   6.624  12.591  1.00  0.00     0.074 A 
ATOM     66  C   UNL     1       0.091   2.751  15.680  1.00  0.00     0.029 A 
ATOM     67  N   UNL     1       2.197   3.371  15.517  1.00  0.00    -0.354 N 
ATOM     68  N   UNL     1       3.499   7.061  13.575  1.00  0.00    -0.248 NA
ATOM     69  C   UNL     1       4.915   5.361  12.834  1.00  0.00     0.031 C 
ATOM     70  C   UNL     1       0.184   4.171  15.764  1.00  0.00     0.029 A 
ATOM     71  C   UNL     1       1.491   4.541  15.443  1.00  0.00     0.049 A 
ATOM     72  H   UNL     1       3.155   3.287  15.727  1.00  0.00     0.167 HD
ATOM     73  C   UNL     1       3.244   5.930  14.341  1.00  0.00     0.074 A 
ATOM     74  C   UNL     1       4.234   4.946  13.906  1.00  0.00     0.031 C 
ATOM     75  C   UNL     1       2.071   5.800  15.030  1.00  0.00     0.034 A 
BRANCH  62  76
ATOM     76  C   UNL     1       3.099   0.551  14.631  1.00  0.00     0.023 A 
ATOM     77  C   UNL     1       3.491   0.436  15.982  1.00  0.00     0.012 A 
ATOM     78  C   UNL     1       4.069   0.220  13.654  1.00  0.00     0.148 A 
ATOM     79  C   UNL     1       4.798   0.088  16.336  1.00  0.00     0.002 A 
ATOM     80  C   UNL     1       5.340  -0.205  14.011  1.00  0.00     0.091 A 
ATOM     81  F   UNL     1       3.833   0.440  12.360  1.00  0.00    -0.205 F 
ATOM     82  C   UNL     1       5.723  -0.237  15.351  1.00  0.00     0.022 A 
BRANCH  80  83
ATOM     83  S   UNL     1       6.554  -0.673  12.770  1.00  0.00     0.127 S 
ATOM     84  O   UNL     1       7.474   0.458  12.822  1.00  0.00    -0.237 OA
ATOM     85  O   UNL     1       7.073  -1.925  13.322  1.00  0.00    -0.237 OA
ATOM     86  O   UNL     1       5.808  -0.836  11.528  1.00  0.00    -0.744 OA
ENDBRANCH  80  83
ENDBRANCH  62  76
BRANCH  63  87
ATOM     87  C   UNL     1       5.200   7.602  10.398  1.00  0.00     0.023 A 
ATOM     88  C   UNL     1       6.210   8.342  11.046  1.00  0.00     0.012 A 
ATOM     89  C   UNL     1       5.447   7.153   9.081  1.00  0.00     0.148 A 
ATOM     90  C   UNL     1       7.435   8.596  10.417  1.00  0.00     0.002 A 
ATOM     91  C   UNL     1       6.662   7.414   8.457  1.00  0.00     0.091 A 
ATOM     92  F   UNL     1       4.530   6.386   8.476  1.00  0.00    -0.205 F 
ATOM     93  C   UNL     1       7.665   8.125   9.127  1.00  0.00     0.022 A 
BRANCH  91  94
ATOM     94  S   UNL     1       7.037   6.811   6.805  1.00  0.00     0.127 S 
ATOM     95  O   UNL     1       7.543   8.017   6.149  1.00  0.00    -0.237 OA
ATOM     96  O   UNL     1       8.047   5.791   7.075  1.00  0.00    -0.237 OA
ATOM     97  O   UNL     1       5.777   6.318   6.262  1.00  0.00    -0.744 OA
ENDBRANCH  91  94
ENDBRANCH  63  87
BRANCH  75  98
ATOM     98  C   UNL     1       1.191   7.019  15.160  1.00  0.00     0.023 A 
ATOM     99  C   UNL     1       0.614   7.665  14.046  1.00  0.00     0.012 A 
ATOM    100  C   UNL     1       0.818   7.431  16.449  1.00  0.00     0.148 A 
ATOM    101  C   UNL     1      -0.290   8.718  14.216  1.00  0.00     0.002 A 
ATOM    102  C   UNL     1      -0.116   8.446  16.615  1.00  0.00     0.091 A 
ATOM    103  F   UNL     1       1.369   6.804  17.500  1.00  0.00    -0.205 F 
ATOM    104  C   UNL     1      -0.665   9.100  15.501  1.00  0.00     0.022 A 
BRANCH 102 105
ATOM    105  S   UNL     1      -0.724   8.898  18.241  1.00  0.00     0.127 S 
ATOM    106  O   UNL     1      -0.014  10.149  18.496  1.00  0.00    -0.237 OA
ATOM    107  O   UNL     1      -2.162   9.046  18.010  1.00  0.00    -0.237 OA
ATOM    108  O   UNL     1      -0.377   7.787  19.120  1.00  0.00    -0.744 OA
ENDBRANCH 102 105
ENDBRANCH  75  98
ENDBRANCH  49  50
ENDBRANCH  42  44
ENDBRANCH  41  42
ENDBRANCH  40  41
ENDBRANCH  39  40
ENDBRANCH  38  39
ENDBRANCH  37  38
ENDBRANCH   1  37
TORSDOF 23
