REMARK SMILES C[C@H](NC(=O)N(CC(=O)OCCOCCOC(=O)c1ccc(-c2c3nc(c(-c4cccc(S(=O)(=O)[O-])c4F)c4ccc([nH]4)c(-c4cccc(S(=O)(=O)[O-])c4F)c4nc(c(-c5cccc(S(=O)(=O)[O-])c5F)c5ccc2[nH]5)C=C4)C=C3)cc1)C(C)(C)C)c1nncn1C
REMARK SMILES IDX 12 1 11 2 10 3 8 4 9 5 7 6 6 7 4 8 3 9 5 11 2 12 1 13 86 14
REMARK SMILES IDX 87 15 90 16 88 17 89 18 91 19 82 20 83 21 84 22 85 23 13 24
REMARK SMILES IDX 14 25 15 26 16 27 17 28 18 29 19 30 20 31 81 32 21 33 80 34
REMARK SMILES IDX 22 35 23 36 24 37 74 38 25 39 79 40 73 41 75 42 26 43 78 44
REMARK SMILES IDX 72 45 71 46 27 48 59 49 39 50 58 51 40 52 43 53 57 54 76 55
REMARK SMILES IDX 41 56 42 57 56 59 77 60 44 61 28 62 29 63 37 64 30 65 32 66
REMARK SMILES IDX 38 67 31 68 33 69 34 70 35 71 36 72 60 73 61 74 69 75 62 76
REMARK SMILES IDX 64 77 70 78 63 79 65 80 66 81 67 82 68 83 45 84 46 85 54 86
REMARK SMILES IDX 47 87 49 88 55 89 48 90 50 91 51 92 52 93 53 94
REMARK H PARENT 3 10 75 47 43 58
REMARK Flexibility Score: inf
ROOT
ATOM      1  C   UNL     1       4.902  -3.317  -4.511  1.00  0.00     0.202 C 
ENDROOT
BRANCH   1   2
ATOM      2  C   UNL     1       3.511  -2.900  -4.000  1.00  0.00     0.261 C 
BRANCH   2   3
ATOM      3  O   UNL     1       3.452  -2.463  -2.625  1.00  0.00    -0.462 OA
BRANCH   3   4
ATOM      4  C   UNL     1       2.838  -3.338  -1.786  1.00  0.00     0.325 C 
ATOM      5  O   UNL     1       2.439  -4.453  -2.120  1.00  0.00    -0.250 OA
BRANCH   4   6
ATOM      6  C   UNL     1       2.760  -2.911  -0.318  1.00  0.00     0.244 C 
BRANCH   6   7
ATOM      7  N   UNL     1       3.052  -1.547   0.167  1.00  0.00    -0.309 N 
BRANCH   7   8
ATOM      8  C   UNL     1       2.171  -0.495   0.081  1.00  0.00     0.318 C 
ATOM      9  N   UNL     1       0.841  -0.614  -0.049  1.00  0.00    -0.328 N 
ATOM     10  H   UNL     1       0.419   0.260  -0.214  1.00  0.00     0.166 HD
ATOM     11  O   UNL     1       2.528   0.681   0.205  1.00  0.00    -0.249 OA
BRANCH   9  12
ATOM     12  C   UNL     1      -0.148  -1.678  -0.013  1.00  0.00     0.149 C 
ATOM     13  C   UNL     1      -0.177  -2.339   1.376  1.00  0.00     0.040 C 
BRANCH  12  14
ATOM     14  C   UNL     1      -1.565  -1.262  -0.356  1.00  0.00     0.154 A 
ATOM     15  N   UNL     1      -2.560  -2.140  -0.327  1.00  0.00    -0.133 NA
ATOM     16  N   UNL     1      -2.102  -0.042  -0.705  1.00  0.00    -0.319 N 
ATOM     17  N   UNL     1      -3.732  -1.506  -0.629  1.00  0.00    -0.139 NA
ATOM     18  C   UNL     1      -3.444  -0.252  -0.868  1.00  0.00     0.225 A 
ATOM     19  C   UNL     1      -1.491   1.251  -0.866  1.00  0.00     0.152 C 
ENDBRANCH  12  14
ENDBRANCH   9  12
ENDBRANCH   7   8
BRANCH   7  20
ATOM     20  C   UNL     1       4.416  -1.252   0.777  1.00  0.00     0.037 C 
ATOM     21  C   UNL     1       5.225  -0.280  -0.109  1.00  0.00     0.034 C 
ATOM     22  C   UNL     1       4.245  -0.644   2.196  1.00  0.00     0.034 C 
ATOM     23  C   UNL     1       5.301  -2.501   1.013  1.00  0.00     0.034 C 
ENDBRANCH   7  20
ENDBRANCH   6   7
ENDBRANCH   4   6
ENDBRANCH   3   4
ENDBRANCH   2   3
ENDBRANCH   1   2
BRANCH   1  24
ATOM     24  O   UNL     1       5.653  -4.263  -3.756  1.00  0.00    -0.374 OA
BRANCH  24  25
ATOM     25  C   UNL     1       6.159  -3.836  -2.494  1.00  0.00     0.202 C 
BRANCH  25  26
ATOM     26  C   UNL     1       7.217  -2.725  -2.494  1.00  0.00     0.261 C 
BRANCH  26  27
ATOM     27  O   UNL     1       6.707  -1.499  -3.042  1.00  0.00    -0.460 OA
BRANCH  27  28
ATOM     28  C   UNL     1       7.530  -0.896  -3.932  1.00  0.00     0.338 C 
ATOM     29  O   UNL     1       8.693  -1.189  -4.175  1.00  0.00    -0.246 OA
BRANCH  28  30
ATOM     30  C   UNL     1       6.766   0.061  -4.747  1.00  0.00     0.060 A 
ATOM     31  C   UNL     1       6.591  -0.241  -6.104  1.00  0.00     0.016 A 
ATOM     32  C   UNL     1       6.304   1.268  -4.220  1.00  0.00     0.016 A 
ATOM     33  C   UNL     1       5.990   0.685  -6.951  1.00  0.00     0.010 A 
ATOM     34  C   UNL     1       5.713   2.203  -5.077  1.00  0.00     0.010 A 
ATOM     35  C   UNL     1       5.586   1.930  -6.450  1.00  0.00    -0.014 A 
BRANCH  35  36
ATOM     36  C   UNL     1       5.149   2.980  -7.400  1.00  0.00     0.031 A 
ATOM     37  C   UNL     1       6.146   3.996  -7.881  1.00  0.00     0.074 A 
ATOM     38  C   UNL     1       3.879   3.014  -7.841  1.00  0.00     0.049 A 
ATOM     39  N   UNL     1       5.989   4.959  -8.751  1.00  0.00    -0.248 NA
ATOM     40  C   UNL     1       7.499   3.916  -7.308  1.00  0.00     0.031 C 
ATOM     41  C   UNL     1       2.822   2.092  -7.430  1.00  0.00     0.029 A 
ATOM     42  N   UNL     1       3.260   3.873  -8.714  1.00  0.00    -0.354 N 
ATOM     43  C   UNL     1       7.214   5.610  -8.820  1.00  0.00     0.074 A 
ATOM     44  C   UNL     1       8.102   4.941  -7.894  1.00  0.00     0.031 C 
ATOM     45  C   UNL     1       1.673   2.458  -8.023  1.00  0.00     0.029 A 
ATOM     46  C   UNL     1       1.912   3.643  -8.847  1.00  0.00     0.049 A 
ATOM     47  H   UNL     1       3.736   4.585  -9.198  1.00  0.00     0.167 HD
ATOM     48  C   UNL     1       7.573   6.658  -9.598  1.00  0.00     0.034 A 
ATOM     49  C   UNL     1       0.976   4.321  -9.540  1.00  0.00     0.034 A 
ATOM     50  C   UNL     1       6.691   7.311 -10.527  1.00  0.00     0.049 A 
ATOM     51  C   UNL     1       1.395   5.491 -10.390  1.00  0.00     0.074 A 
ATOM     52  C   UNL     1       6.980   8.329 -11.418  1.00  0.00     0.029 A 
ATOM     53  N   UNL     1       5.342   7.026 -10.668  1.00  0.00    -0.354 N 
ATOM     54  N   UNL     1       2.595   5.986 -10.576  1.00  0.00    -0.248 NA
ATOM     55  C   UNL     1       0.341   6.174 -11.154  1.00  0.00     0.031 C 
ATOM     56  C   UNL     1       5.796   8.679 -12.079  1.00  0.00     0.029 A 
ATOM     57  C   UNL     1       4.775   7.867 -11.611  1.00  0.00     0.049 A 
ATOM     58  H   UNL     1       4.857   6.328 -10.171  1.00  0.00     0.167 HD
ATOM     59  C   UNL     1       2.445   7.025 -11.488  1.00  0.00     0.074 A 
ATOM     60  C   UNL     1       1.040   7.069 -11.840  1.00  0.00     0.031 C 
ATOM     61  C   UNL     1       3.381   7.876 -11.977  1.00  0.00     0.034 A 
BRANCH  48  62
ATOM     62  C   UNL     1       8.993   7.145  -9.499  1.00  0.00     0.023 A 
ATOM     63  C   UNL     1      10.028   6.390 -10.088  1.00  0.00     0.012 A 
ATOM     64  C   UNL     1       9.300   8.365  -8.867  1.00  0.00     0.148 A 
ATOM     65  C   UNL     1      11.350   6.829 -10.024  1.00  0.00     0.002 A 
ATOM     66  C   UNL     1      10.616   8.813  -8.838  1.00  0.00     0.091 A 
ATOM     67  F   UNL     1       8.306   9.054  -8.289  1.00  0.00    -0.205 F 
ATOM     68  C   UNL     1      11.642   8.043  -9.409  1.00  0.00     0.022 A 
BRANCH  66  69
ATOM     69  S   UNL     1      11.079  10.395  -8.124  1.00  0.00     0.127 S 
ATOM     70  O   UNL     1      11.697   9.981  -6.866  1.00  0.00    -0.237 OA
ATOM     71  O   UNL     1      12.015  10.923  -9.118  1.00  0.00    -0.237 OA
ATOM     72  O   UNL     1       9.841  11.152  -7.999  1.00  0.00    -0.744 OA
ENDBRANCH  66  69
ENDBRANCH  48  62
BRANCH  49  73
ATOM     73  C   UNL     1      -0.446   3.879  -9.473  1.00  0.00     0.023 A 
ATOM     74  C   UNL     1      -1.047   3.281 -10.596  1.00  0.00     0.012 A 
ATOM     75  C   UNL     1      -1.184   3.997  -8.278  1.00  0.00     0.148 A 
ATOM     76  C   UNL     1      -2.365   2.824 -10.535  1.00  0.00     0.002 A 
ATOM     77  C   UNL     1      -2.475   3.487  -8.206  1.00  0.00     0.091 A 
ATOM     78  F   UNL     1      -0.603   4.591  -7.226  1.00  0.00    -0.205 F 
ATOM     79  C   UNL     1      -3.073   2.913  -9.338  1.00  0.00     0.022 A 
BRANCH  77  80
ATOM     80  S   UNL     1      -3.393   3.434  -6.662  1.00  0.00     0.127 S 
ATOM     81  O   UNL     1      -4.349   4.523  -6.842  1.00  0.00    -0.237 OA
ATOM     82  O   UNL     1      -3.974   2.091  -6.695  1.00  0.00    -0.237 OA
ATOM     83  O   UNL     1      -2.403   3.623  -5.609  1.00  0.00    -0.744 OA
ENDBRANCH  77  80
ENDBRANCH  49  73
BRANCH  61  84
ATOM     84  C   UNL     1       2.925   8.940 -12.940  1.00  0.00     0.023 A 
ATOM     85  C   UNL     1       2.208  10.052 -12.453  1.00  0.00     0.012 A 
ATOM     86  C   UNL     1       3.279   8.888 -14.303  1.00  0.00     0.148 A 
ATOM     87  C   UNL     1       1.831  11.084 -13.312  1.00  0.00     0.002 A 
ATOM     88  C   UNL     1       2.938   9.942 -15.144  1.00  0.00     0.091 A 
ATOM     89  F   UNL     1       3.945   7.814 -14.750  1.00  0.00    -0.205 F 
ATOM     90  C   UNL     1       2.206  11.035 -14.652  1.00  0.00     0.022 A 
BRANCH  88  91
ATOM     91  S   UNL     1       3.456  10.008 -16.863  1.00  0.00     0.127 S 
ATOM     92  O   UNL     1       2.205   9.722 -17.563  1.00  0.00    -0.237 OA
ATOM     93  O   UNL     1       3.927  11.387 -16.994  1.00  0.00    -0.237 OA
ATOM     94  O   UNL     1       4.498   9.000 -17.005  1.00  0.00    -0.744 OA
ENDBRANCH  88  91
ENDBRANCH  61  84
ENDBRANCH  35  36
ENDBRANCH  28  30
ENDBRANCH  27  28
ENDBRANCH  26  27
ENDBRANCH  25  26
ENDBRANCH  24  25
ENDBRANCH   1  24
TORSDOF 22
