REMARK SMILES CO[C@@]1(C(=O)OCCOCCOC(=O)c2ccc(-c3c4nc(c(-c5cccc(S(=O)(=O)[O-])c5F)c5ccc([nH]5)c(-c5cccc(S(=O)(=O)[O-])c5F)c5nc(c(-c6cccc(S(=O)(=O)[O-])c6F)c6ccc3[nH]6)C=C5)C=C4)cc2)CC(c2ccccc2)=CC=C1C
REMARK SMILES IDX 10 1 9 2 8 3 7 4 6 5 4 6 5 7 3 8 78 9 88 10 79 11 87 12
REMARK SMILES IDX 89 13 86 14 2 15 1 16 80 17 81 18 85 19 82 20 84 21 83 22
REMARK SMILES IDX 11 23 12 24 13 25 14 26 15 27 16 28 77 29 17 30 76 31 18 32
REMARK SMILES IDX 19 33 20 34 70 35 21 36 75 37 69 38 71 39 22 40 74 41 68 42
REMARK SMILES IDX 67 43 23 45 55 46 35 47 54 48 36 49 39 50 53 51 72 52 37 53
REMARK SMILES IDX 38 54 52 56 73 57 40 58 24 59 25 60 33 61 26 62 28 63 34 64
REMARK SMILES IDX 27 65 29 66 30 67 31 68 32 69 56 70 57 71 65 72 58 73 60 74
REMARK SMILES IDX 66 75 59 76 61 77 62 78 63 79 64 80 41 81 42 82 50 83 43 84
REMARK SMILES IDX 45 85 51 86 44 87 46 88 47 89 48 90 49 91
REMARK H PARENT 71 44 39 55
REMARK Flexibility Score: inf
ROOT
ATOM      1  C   UNL     1      -1.726   1.944   2.204  1.00  0.00     0.202 C 
ENDROOT
BRANCH   1   2
ATOM      2  O   UNL     1      -1.697   2.589   0.938  1.00  0.00    -0.374 OA
BRANCH   2   3
ATOM      3  C   UNL     1      -1.492   1.764  -0.213  1.00  0.00     0.202 C 
BRANCH   3   4
ATOM      4  C   UNL     1      -0.100   1.146  -0.404  1.00  0.00     0.261 C 
BRANCH   4   5
ATOM      5  O   UNL     1       0.143   0.006   0.447  1.00  0.00    -0.461 OA
BRANCH   5   6
ATOM      6  C   UNL     1       0.984   0.192   1.505  1.00  0.00     0.343 C 
ATOM      7  O   UNL     1       1.435   1.288   1.833  1.00  0.00    -0.248 OA
BRANCH   6   8
ATOM      8  C   UNL     1       1.342  -1.140   2.258  1.00  0.00     0.190 C 
ATOM      9  C   UNL     1       2.866  -1.273   1.893  1.00  0.00     0.088 C 
ATOM     10  C   UNL     1       0.511  -2.361   1.839  1.00  0.00    -0.030 C 
ATOM     11  C   UNL     1       3.329  -2.571   1.286  1.00  0.00    -0.037 C 
ATOM     12  C   UNL     1       1.069  -3.454   1.287  1.00  0.00     0.003 C 
ATOM     13  C   UNL     1      -0.982  -2.345   2.030  1.00  0.00     0.043 C 
ATOM     14  C   UNL     1       2.479  -3.574   1.026  1.00  0.00     0.004 C 
BRANCH   8  15
ATOM     15  O   UNL     1       1.371  -1.084   3.701  1.00  0.00    -0.362 OA
ATOM     16  C   UNL     1       0.269  -0.515   4.377  1.00  0.00     0.197 C 
ENDBRANCH   8  15
BRANCH  11  17
ATOM     17  C   UNL     1       4.758  -2.638   0.931  1.00  0.00    -0.022 A 
ATOM     18  C   UNL     1       5.148  -2.929  -0.382  1.00  0.00     0.008 A 
ATOM     19  C   UNL     1       5.743  -2.297   1.869  1.00  0.00     0.008 A 
ATOM     20  C   UNL     1       6.493  -2.868  -0.751  1.00  0.00     0.001 A 
ATOM     21  C   UNL     1       7.087  -2.233   1.499  1.00  0.00     0.001 A 
ATOM     22  C   UNL     1       7.461  -2.515   0.188  1.00  0.00     0.000 A 
ENDBRANCH  11  17
ENDBRANCH   6   8
ENDBRANCH   5   6
ENDBRANCH   4   5
ENDBRANCH   3   4
ENDBRANCH   2   3
ENDBRANCH   1   2
BRANCH   1  23
ATOM     23  C   UNL     1      -3.034   1.270   2.623  1.00  0.00     0.261 C 
BRANCH  23  24
ATOM     24  O   UNL     1      -3.483   0.321   1.645  1.00  0.00    -0.460 OA
BRANCH  24  25
ATOM     25  C   UNL     1      -4.597   0.710   0.986  1.00  0.00     0.338 C 
ATOM     26  O   UNL     1      -5.309   1.672   1.250  1.00  0.00    -0.246 OA
BRANCH  25  27
ATOM     27  C   UNL     1      -4.782  -0.080  -0.241  1.00  0.00     0.060 A 
ATOM     28  C   UNL     1      -4.969   0.645  -1.422  1.00  0.00     0.016 A 
ATOM     29  C   UNL     1      -4.865  -1.476  -0.238  1.00  0.00     0.016 A 
ATOM     30  C   UNL     1      -5.333  -0.015  -2.588  1.00  0.00     0.010 A 
ATOM     31  C   UNL     1      -5.230  -2.139  -1.418  1.00  0.00     0.010 A 
ATOM     32  C   UNL     1      -5.519  -1.404  -2.581  1.00  0.00    -0.014 A 
BRANCH  32  33
ATOM     33  C   UNL     1      -6.154  -2.020  -3.771  1.00  0.00     0.031 A 
ATOM     34  C   UNL     1      -7.626  -2.329  -3.745  1.00  0.00     0.074 A 
ATOM     35  C   UNL     1      -5.445  -2.193  -4.900  1.00  0.00     0.049 A 
ATOM     36  N   UNL     1      -8.411  -2.685  -4.728  1.00  0.00    -0.248 NA
ATOM     37  C   UNL     1      -8.307  -2.215  -2.445  1.00  0.00     0.031 C 
ATOM     38  C   UNL     1      -4.012  -1.940  -5.042  1.00  0.00     0.029 A 
ATOM     39  N   UNL     1      -5.840  -2.609  -6.146  1.00  0.00    -0.354 N 
ATOM     40  C   UNL     1      -9.673  -2.846  -4.168  1.00  0.00     0.074 A 
ATOM     41  C   UNL     1      -9.545  -2.575  -2.753  1.00  0.00     0.031 C 
ATOM     42  C   UNL     1      -3.646  -2.205  -6.307  1.00  0.00     0.029 A 
ATOM     43  C   UNL     1      -4.817  -2.647  -7.062  1.00  0.00     0.049 A 
ATOM     44  H   UNL     1      -6.768  -2.858  -6.362  1.00  0.00     0.167 HD
ATOM     45  C   UNL     1     -10.839  -3.165  -4.780  1.00  0.00     0.034 A 
ATOM     46  C   UNL     1      -4.827  -2.987  -8.366  1.00  0.00     0.034 A 
ATOM     47  C   UNL     1     -10.967  -3.418  -6.190  1.00  0.00     0.049 A 
ATOM     48  C   UNL     1      -6.138  -3.327  -9.024  1.00  0.00     0.074 A 
ATOM     49  C   UNL     1     -12.110  -3.709  -6.913  1.00  0.00     0.029 A 
ATOM     50  N   UNL     1      -9.914  -3.423  -7.092  1.00  0.00    -0.354 N 
ATOM     51  N   UNL     1      -7.344  -3.337  -8.509  1.00  0.00    -0.248 NA
ATOM     52  C   UNL     1      -6.095  -3.655 -10.456  1.00  0.00     0.031 C 
ATOM     53  C   UNL     1     -11.744  -3.913  -8.249  1.00  0.00     0.029 A 
ATOM     54  C   UNL     1     -10.376  -3.722  -8.362  1.00  0.00     0.049 A 
ATOM     55  H   UNL     1      -8.974  -3.240  -6.862  1.00  0.00     0.167 HD
ATOM     56  C   UNL     1      -8.206  -3.642  -9.557  1.00  0.00     0.074 A 
ATOM     57  C   UNL     1      -7.384  -3.777 -10.743  1.00  0.00     0.031 C 
ATOM     58  C   UNL     1      -9.552  -3.813  -9.540  1.00  0.00     0.034 A 
BRANCH  45  59
ATOM     59  C   UNL     1     -12.080  -3.226  -3.928  1.00  0.00     0.023 A 
ATOM     60  C   UNL     1     -12.659  -2.031  -3.453  1.00  0.00     0.012 A 
ATOM     61  C   UNL     1     -12.703  -4.457  -3.642  1.00  0.00     0.148 A 
ATOM     62  C   UNL     1     -13.821  -2.061  -2.683  1.00  0.00     0.002 A 
ATOM     63  C   UNL     1     -13.885  -4.476  -2.909  1.00  0.00     0.091 A 
ATOM     64  F   UNL     1     -12.125  -5.583  -4.080  1.00  0.00    -0.205 F 
ATOM     65  C   UNL     1     -14.439  -3.281  -2.421  1.00  0.00     0.022 A 
BRANCH  63  66
ATOM     66  S   UNL     1     -14.795  -5.989  -2.581  1.00  0.00     0.127 S 
ATOM     67  O   UNL     1     -14.550  -6.177  -1.152  1.00  0.00    -0.237 OA
ATOM     68  O   UNL     1     -16.166  -5.604  -2.919  1.00  0.00    -0.237 OA
ATOM     69  O   UNL     1     -14.217  -7.002  -3.454  1.00  0.00    -0.744 OA
ENDBRANCH  63  66
ENDBRANCH  45  59
BRANCH  46  70
ATOM     70  C   UNL     1      -3.559  -2.962  -9.147  1.00  0.00     0.023 A 
ATOM     71  C   UNL     1      -3.371  -1.992 -10.150  1.00  0.00     0.012 A 
ATOM     72  C   UNL     1      -2.527  -3.882  -8.880  1.00  0.00     0.148 A 
ATOM     73  C   UNL     1      -2.190  -1.957 -10.893  1.00  0.00     0.002 A 
ATOM     74  C   UNL     1      -1.330  -3.804  -9.582  1.00  0.00     0.091 A 
ATOM     75  F   UNL     1      -2.732  -4.811  -7.935  1.00  0.00    -0.205 F 
ATOM     76  C   UNL     1      -1.166  -2.854 -10.601  1.00  0.00     0.022 A 
BRANCH  74  77
ATOM     77  S   UNL     1       0.087  -4.829  -9.172  1.00  0.00     0.127 S 
ATOM     78  O   UNL     1       0.112  -5.767 -10.291  1.00  0.00    -0.237 OA
ATOM     79  O   UNL     1       1.176  -3.850  -9.162  1.00  0.00    -0.237 OA
ATOM     80  O   UNL     1      -0.211  -5.403  -7.867  1.00  0.00    -0.744 OA
ENDBRANCH  74  77
ENDBRANCH  46  70
BRANCH  58  81
ATOM     81  C   UNL     1     -10.223  -4.149 -10.848  1.00  0.00     0.023 A 
ATOM     82  C   UNL     1     -10.032  -5.420 -11.426  1.00  0.00     0.012 A 
ATOM     83  C   UNL     1     -11.072  -3.223 -11.485  1.00  0.00     0.148 A 
ATOM     84  C   UNL     1     -10.636  -5.746 -12.640  1.00  0.00     0.002 A 
ATOM     85  C   UNL     1     -11.710  -3.573 -12.669  1.00  0.00     0.091 A 
ATOM     86  F   UNL     1     -11.229  -2.010 -10.934  1.00  0.00    -0.205 F 
ATOM     87  C   UNL     1     -11.481  -4.828 -13.256  1.00  0.00     0.022 A 
BRANCH  85  88
ATOM     88  S   UNL     1     -12.888  -2.482 -13.475  1.00  0.00     0.127 S 
ATOM     89  O   UNL     1     -12.074  -1.896 -14.539  1.00  0.00    -0.237 OA
ATOM     90  O   UNL     1     -13.917  -3.414 -13.938  1.00  0.00    -0.237 OA
ATOM     91  O   UNL     1     -13.338  -1.558 -12.442  1.00  0.00    -0.744 OA
ENDBRANCH  85  88
ENDBRANCH  58  81
ENDBRANCH  32  33
ENDBRANCH  25  27
ENDBRANCH  24  25
ENDBRANCH  23  24
ENDBRANCH   1  23
TORSDOF 19
