REMARK SMILES COc1ccc(N2C(=O)/C(=C/c3c(C(=O)OCCOCCOC(=O)c4ccc(-c5c6nc(c(-c7cccc(S(=O)(=O)[O-])c7F)c7ccc([nH]7)c(-c7cccc(S(=O)(=O)[O-])c7F)c7nc(c(-c8cccc(S(=O)(=O)[O-])c8F)c8ccc5[nH]8)C=C7)C=C6)cc4)[nH]c4cc(OC)ccc34)SC2=S)cc1
REMARK SMILES IDX 19 1 18 2 17 3 16 4 14 5 15 6 13 7 12 8 96 9 88 10 89 11
REMARK SMILES IDX 95 12 90 14 94 15 91 16 11 17 7 18 8 19 98 20 9 21 10 22
REMARK SMILES IDX 97 23 99 24 6 25 3 26 4 27 101 28 5 29 100 30 2 31 1 32
REMARK SMILES IDX 92 33 93 34 20 35 21 36 22 37 23 38 24 39 25 40 26 41 87 42
REMARK SMILES IDX 27 43 86 44 28 45 29 46 30 47 80 48 31 49 85 50 79 51 81 52
REMARK SMILES IDX 32 53 84 54 78 55 77 56 33 58 65 59 45 60 64 61 46 62 49 63
REMARK SMILES IDX 63 64 82 65 47 66 48 67 62 69 83 70 50 71 34 72 35 73 43 74
REMARK SMILES IDX 36 75 38 76 44 77 37 78 39 79 40 80 41 81 42 82 66 83 67 84
REMARK SMILES IDX 75 85 68 86 70 87 76 88 69 89 71 90 72 91 73 92 74 93 51 94
REMARK SMILES IDX 52 95 60 96 53 97 55 98 61 99 54 100 56 101 57 102 58 103
REMARK SMILES IDX 59 104
REMARK H PARENT 88 13 81 57 49 68
REMARK Flexibility Score: inf
ROOT
ATOM      1  O   UNL     1       4.171  10.476  -2.002  1.00  0.00    -0.374 OA
ENDROOT
BRANCH   1   2
ATOM      2  C   UNL     1       4.173   9.060  -1.846  1.00  0.00     0.202 C 
BRANCH   2   3
ATOM      3  C   UNL     1       4.733   8.488  -0.537  1.00  0.00     0.261 C 
BRANCH   3   4
ATOM      4  O   UNL     1       4.222   9.133   0.635  1.00  0.00    -0.459 OA
BRANCH   4   5
ATOM      5  C   UNL     1       5.054  10.069   1.172  1.00  0.00     0.355 C 
ATOM      6  O   UNL     1       6.183  10.326   0.771  1.00  0.00    -0.244 OA
BRANCH   5   7
ATOM      7  C   UNL     1       4.381  10.862   2.175  1.00  0.00     0.133 A 
ATOM      8  C   UNL     1       3.366  10.635   3.104  1.00  0.00     0.016 A 
ATOM      9  C   UNL     1       3.143  11.874   3.811  1.00  0.00     0.008 A 
ATOM     10  N   UNL     1       4.719  12.187   2.272  1.00  0.00    -0.348 N 
ATOM     11  C   UNL     1       3.936  12.836   3.181  1.00  0.00     0.050 A 
ATOM     12  C   UNL     1       2.337  12.320   4.887  1.00  0.00     0.015 A 
ATOM     13  H   UNL     1       5.437  12.616   1.753  1.00  0.00     0.167 HD
ATOM     14  C   UNL     1       3.886  14.201   3.469  1.00  0.00     0.073 A 
ATOM     15  C   UNL     1       2.331  13.690   5.244  1.00  0.00     0.047 A 
ATOM     16  C   UNL     1       3.076  14.617   4.519  1.00  0.00     0.120 A 
BRANCH   8  17
ATOM     17  C   UNL     1       2.627   9.397   3.169  1.00  0.00     0.032 C 
ATOM     18  N   UNL     1       3.479   6.003   2.349  1.00  0.00    -0.261 N 
ATOM     19  C   UNL     1       2.504   6.968   2.652  1.00  0.00     0.270 C 
ATOM     20  C   UNL     1       4.777   6.328   2.740  1.00  0.00     0.152 C 
ATOM     21  O   UNL     1       1.310   6.955   2.381  1.00  0.00    -0.268 OA
ATOM     22  C   UNL     1       3.159   8.164   3.278  1.00  0.00     0.081 C 
ATOM     23  S   UNL     1       4.760   7.771   3.750  1.00  0.00    -0.054 SA
ATOM     24  S   UNL     1       6.257   5.698   2.262  1.00  0.00    -0.051 S 
BRANCH  18  25
ATOM     25  C   UNL     1       3.174   4.847   1.548  1.00  0.00     0.051 A 
ATOM     26  C   UNL     1       2.779   2.638  -0.183  1.00  0.00     0.119 A 
ATOM     27  C   UNL     1       2.140   3.848  -0.410  1.00  0.00     0.048 A 
ATOM     28  C   UNL     1       3.613   2.511   0.915  1.00  0.00     0.048 A 
ATOM     29  C   UNL     1       2.302   4.936   0.459  1.00  0.00     0.030 A 
ATOM     30  C   UNL     1       3.799   3.605   1.775  1.00  0.00     0.030 A 
BRANCH  26  31
ATOM     31  O   UNL     1       2.572   1.661  -1.114  1.00  0.00    -0.497 OA
ATOM     32  C   UNL     1       2.219   0.400  -0.551  1.00  0.00     0.278 C 
ENDBRANCH  26  31
ENDBRANCH  18  25
ENDBRANCH   8  17
BRANCH  16  33
ATOM     33  O   UNL     1       3.011  15.973   4.698  1.00  0.00    -0.497 OA
ATOM     34  C   UNL     1       3.261  16.397   6.031  1.00  0.00     0.278 C 
ENDBRANCH  16  33
ENDBRANCH   5   7
ENDBRANCH   4   5
ENDBRANCH   3   4
ENDBRANCH   2   3
ENDBRANCH   1   2
BRANCH   1  35
ATOM     35  C   UNL     1       3.176  11.230  -1.311  1.00  0.00     0.202 C 
BRANCH  35  36
ATOM     36  C   UNL     1       1.708  11.076  -1.722  1.00  0.00     0.261 C 
BRANCH  36  37
ATOM     37  O   UNL     1       1.145   9.785  -1.426  1.00  0.00    -0.460 OA
BRANCH  37  38
ATOM     38  C   UNL     1       0.804   9.058  -2.521  1.00  0.00     0.338 C 
ATOM     39  O   UNL     1       1.032   9.353  -3.684  1.00  0.00    -0.246 OA
BRANCH  38  40
ATOM     40  C   UNL     1       0.197   7.764  -2.147  1.00  0.00     0.060 A 
ATOM     41  C   UNL     1       0.609   6.635  -2.860  1.00  0.00     0.016 A 
ATOM     42  C   UNL     1      -0.842   7.665  -1.216  1.00  0.00     0.016 A 
ATOM     43  C   UNL     1      -0.040   5.416  -2.664  1.00  0.00     0.010 A 
ATOM     44  C   UNL     1      -1.494   6.435  -1.024  1.00  0.00     0.010 A 
ATOM     45  C   UNL     1      -1.104   5.302  -1.751  1.00  0.00    -0.014 A 
BRANCH  45  46
ATOM     46  C   UNL     1      -1.831   4.003  -1.675  1.00  0.00     0.031 A 
ATOM     47  C   UNL     1      -2.693   3.596  -2.836  1.00  0.00     0.074 A 
ATOM     48  C   UNL     1      -1.670   3.158  -0.636  1.00  0.00     0.049 A 
ATOM     49  N   UNL     1      -3.264   2.447  -3.082  1.00  0.00    -0.248 NA
ATOM     50  C   UNL     1      -2.962   4.635  -3.844  1.00  0.00     0.031 C 
ATOM     51  C   UNL     1      -0.910   3.450   0.572  1.00  0.00     0.029 A 
ATOM     52  N   UNL     1      -2.078   1.853  -0.460  1.00  0.00    -0.354 N 
ATOM     53  C   UNL     1      -4.024   2.645  -4.227  1.00  0.00     0.074 A 
ATOM     54  C   UNL     1      -3.778   4.000  -4.672  1.00  0.00     0.031 C 
ATOM     55  C   UNL     1      -0.774   2.324   1.291  1.00  0.00     0.029 A 
ATOM     56  C   UNL     1      -1.494   1.238   0.630  1.00  0.00     0.049 A 
ATOM     57  H   UNL     1      -2.723   1.404  -1.053  1.00  0.00     0.167 HD
ATOM     58  C   UNL     1      -4.893   1.795  -4.823  1.00  0.00     0.034 A 
ATOM     59  C   UNL     1      -1.509  -0.057   1.018  1.00  0.00     0.034 A 
ATOM     60  C   UNL     1      -5.160   0.460  -4.365  1.00  0.00     0.049 A 
ATOM     61  C   UNL     1      -2.363  -1.031   0.241  1.00  0.00     0.074 A 
ATOM     62  C   UNL     1      -6.082  -0.451  -4.851  1.00  0.00     0.029 A 
ATOM     63  N   UNL     1      -4.511  -0.154  -3.306  1.00  0.00    -0.354 N 
ATOM     64  N   UNL     1      -3.008  -0.855  -0.886  1.00  0.00    -0.248 NA
ATOM     65  C   UNL     1      -2.501  -2.386   0.803  1.00  0.00     0.031 C 
ATOM     66  C   UNL     1      -5.998  -1.612  -4.075  1.00  0.00     0.029 A 
ATOM     67  C   UNL     1      -5.008  -1.432  -3.123  1.00  0.00     0.049 A 
ATOM     68  H   UNL     1      -3.800   0.258  -2.764  1.00  0.00     0.167 HD
ATOM     69  C   UNL     1      -3.649  -2.061  -1.151  1.00  0.00     0.074 A 
ATOM     70  C   UNL     1      -3.238  -2.990  -0.119  1.00  0.00     0.031 C 
ATOM     71  C   UNL     1      -4.550  -2.358  -2.121  1.00  0.00     0.034 A 
BRANCH  58  72
ATOM     72  C   UNL     1      -5.672   2.327  -5.992  1.00  0.00     0.023 A 
ATOM     73  C   UNL     1      -5.059   2.456  -7.252  1.00  0.00     0.012 A 
ATOM     74  C   UNL     1      -7.020   2.703  -5.830  1.00  0.00     0.148 A 
ATOM     75  C   UNL     1      -5.770   2.983  -8.331  1.00  0.00     0.002 A 
ATOM     76  C   UNL     1      -7.732   3.192  -6.917  1.00  0.00     0.091 A 
ATOM     77  F   UNL     1      -7.571   2.597  -4.612  1.00  0.00    -0.205 F 
ATOM     78  C   UNL     1      -7.106   3.343  -8.165  1.00  0.00     0.022 A 
BRANCH  76  79
ATOM     79  S   UNL     1      -9.470   3.632  -6.816  1.00  0.00     0.127 S 
ATOM     80  O   UNL     1      -9.416   5.084  -6.982  1.00  0.00    -0.237 OA
ATOM     81  O   UNL     1     -10.034   2.909  -7.956  1.00  0.00    -0.237 OA
ATOM     82  O   UNL     1      -9.929   3.171  -5.514  1.00  0.00    -0.744 OA
ENDBRANCH  76  79
ENDBRANCH  58  72
BRANCH  59  83
ATOM     83  C   UNL     1      -0.622  -0.556   2.120  1.00  0.00     0.023 A 
ATOM     84  C   UNL     1       0.334  -1.552   1.817  1.00  0.00     0.012 A 
ATOM     85  C   UNL     1      -0.685  -0.075   3.440  1.00  0.00     0.148 A 
ATOM     86  C   UNL     1       1.188  -2.063   2.795  1.00  0.00     0.002 A 
ATOM     87  C   UNL     1       0.221  -0.534   4.395  1.00  0.00     0.091 A 
ATOM     88  F   UNL     1      -1.632   0.821   3.755  1.00  0.00    -0.205 F 
ATOM     89  C   UNL     1       1.144  -1.541   4.082  1.00  0.00     0.022 A 
BRANCH  87  90
ATOM     90  S   UNL     1       0.328   0.239   6.014  1.00  0.00     0.127 S 
ATOM     91  O   UNL     1      -0.582  -0.582   6.806  1.00  0.00    -0.237 OA
ATOM     92  O   UNL     1       1.745   0.084   6.347  1.00  0.00    -0.237 OA
ATOM     93  O   UNL     1      -0.075   1.621   5.784  1.00  0.00    -0.744 OA
ENDBRANCH  87  90
ENDBRANCH  59  83
BRANCH  71  94
ATOM     94  C   UNL     1      -5.187  -3.723  -2.090  1.00  0.00     0.023 A 
ATOM     95  C   UNL     1      -6.132  -4.015  -1.085  1.00  0.00     0.012 A 
ATOM     96  C   UNL     1      -4.926  -4.676  -3.092  1.00  0.00     0.148 A 
ATOM     97  C   UNL     1      -6.787  -5.245  -1.060  1.00  0.00     0.002 A 
ATOM     98  C   UNL     1      -5.615  -5.885  -3.086  1.00  0.00     0.091 A 
ATOM     99  F   UNL     1      -4.013  -4.387  -4.029  1.00  0.00    -0.205 F 
ATOM    100  C   UNL     1      -6.537  -6.175  -2.066  1.00  0.00     0.022 A 
BRANCH  98 101
ATOM    101  S   UNL     1      -5.424  -7.109  -4.387  1.00  0.00     0.127 S 
ATOM    102  O   UNL     1      -4.643  -8.143  -3.710  1.00  0.00    -0.237 OA
ATOM    103  O   UNL     1      -6.811  -7.480  -4.671  1.00  0.00    -0.237 OA
ATOM    104  O   UNL     1      -4.745  -6.427  -5.480  1.00  0.00    -0.744 OA
ENDBRANCH  98 101
ENDBRANCH  71  94
ENDBRANCH  45  46
ENDBRANCH  38  40
ENDBRANCH  37  38
ENDBRANCH  36  37
ENDBRANCH  35  36
ENDBRANCH   1  35
TORSDOF 21
