REMARK SMILES COC(=O)CCN(C)C(=O)NCc1ccc(C(=O)OCCOCCOC(=O)c2ccc(-c3c4nc(c(-c5cccc(S(=O)(=O)[O-])c5F)c5ccc([nH]5)c(-c5cccc(S(=O)(=O)[O-])c5F)c5nc(c(-c6cccc(S(=O)(=O)[O-])c6F)c6ccc3[nH]6)C=C5)C=C4)cc2)o1
REMARK SMILES IDX 20 1 19 2 17 3 18 4 16 5 13 6 14 7 91 8 15 9 12 10 11 11
REMARK SMILES IDX 9 12 10 13 7 15 8 16 6 17 5 18 3 19 4 20 2 21 1 22 21 23
REMARK SMILES IDX 22 24 23 25 24 26 25 27 26 28 27 29 28 30 29 31 90 32 30 33
REMARK SMILES IDX 89 34 31 35 32 36 33 37 83 38 34 39 88 40 82 41 84 42 35 43
REMARK SMILES IDX 87 44 81 45 80 46 36 48 68 49 48 50 67 51 49 52 52 53 66 54
REMARK SMILES IDX 85 55 50 56 51 57 65 59 86 60 53 61 37 62 38 63 46 64 39 65
REMARK SMILES IDX 41 66 47 67 40 68 42 69 43 70 44 71 45 72 69 73 70 74 78 75
REMARK SMILES IDX 71 76 73 77 79 78 72 79 74 80 75 81 76 82 77 83 54 84 55 85
REMARK SMILES IDX 63 86 56 87 58 88 64 89 57 90 59 91 60 92 61 93 62 94
REMARK H PARENT 11 14 84 47 52 58
REMARK Flexibility Score: inf
ROOT
ATOM      1  C   UNL     1       1.844   2.842  -9.615  1.00  0.00     0.261 C 
ENDROOT
BRANCH   1   2
ATOM      2  O   UNL     1       1.241   3.597  -8.551  1.00  0.00    -0.457 OA
BRANCH   2   3
ATOM      3  C   UNL     1       0.404   2.906  -7.727  1.00  0.00     0.374 C 
ATOM      4  O   UNL     1      -0.021   1.777  -7.944  1.00  0.00    -0.242 OA
BRANCH   3   5
ATOM      5  C   UNL     1       0.199   3.660  -6.513  1.00  0.00     0.211 A 
ATOM      6  C   UNL     1      -0.271   3.839  -4.365  1.00  0.00     0.124 A 
ATOM      7  C   UNL     1       0.155   5.085  -4.771  1.00  0.00     0.048 A 
ATOM      8  O   UNL     1      -0.274   2.982  -5.422  1.00  0.00    -0.452 OA
ATOM      9  C   UNL     1       0.464   4.970  -6.150  1.00  0.00     0.058 A 
BRANCH   6  10
ATOM     10  C   UNL     1      -0.633   3.247  -3.056  1.00  0.00     0.193 C 
BRANCH  10  11
ATOM     11  N   UNL     1       0.606   2.929  -2.377  1.00  0.00    -0.331 N 
ATOM     12  C   UNL     1       1.156   3.181  -1.182  1.00  0.00     0.317 C 
ATOM     13  O   UNL     1       2.169   2.526  -0.917  1.00  0.00    -0.249 OA
ATOM     14  H   UNL     1       1.200   2.385  -2.943  1.00  0.00     0.165 HD
BRANCH  12  15
ATOM     15  N   UNL     1       0.621   4.067  -0.287  1.00  0.00    -0.327 N 
ATOM     16  C   UNL     1      -0.394   5.067  -0.563  1.00  0.00     0.148 C 
BRANCH  15  17
ATOM     17  C   UNL     1       1.121   4.015   1.095  1.00  0.00     0.132 C 
BRANCH  17  18
ATOM     18  C   UNL     1       0.344   3.038   1.969  1.00  0.00     0.144 C 
BRANCH  18  19
ATOM     19  C   UNL     1       0.883   1.640   1.820  1.00  0.00     0.307 C 
ATOM     20  O   UNL     1       1.785   1.182   2.510  1.00  0.00    -0.252 OA
BRANCH  19  21
ATOM     21  O   UNL     1       0.230   0.978   0.827  1.00  0.00    -0.469 OA
ATOM     22  C   UNL     1       0.843  -0.254   0.444  1.00  0.00     0.282 C 
ENDBRANCH  19  21
ENDBRANCH  18  19
ENDBRANCH  17  18
ENDBRANCH  15  17
ENDBRANCH  12  15
ENDBRANCH  10  11
ENDBRANCH   6  10
ENDBRANCH   3   5
ENDBRANCH   2   3
ENDBRANCH   1   2
BRANCH   1  23
ATOM     23  C   UNL     1       3.343   2.682  -9.349  1.00  0.00     0.202 C 
BRANCH  23  24
ATOM     24  O   UNL     1       3.647   1.801  -8.264  1.00  0.00    -0.374 OA
BRANCH  24  25
ATOM     25  C   UNL     1       3.748   2.410  -6.973  1.00  0.00     0.202 C 
BRANCH  25  26
ATOM     26  C   UNL     1       5.120   3.015  -6.657  1.00  0.00     0.261 C 
BRANCH  26  27
ATOM     27  O   UNL     1       5.313   4.251  -7.367  1.00  0.00    -0.460 OA
BRANCH  27  28
ATOM     28  C   UNL     1       6.174   4.195  -8.412  1.00  0.00     0.338 C 
ATOM     29  O   UNL     1       6.857   3.244  -8.752  1.00  0.00    -0.246 OA
BRANCH  28  30
ATOM     30  C   UNL     1       6.039   5.422  -9.225  1.00  0.00     0.060 A 
ATOM     31  C   UNL     1       5.966   5.275 -10.617  1.00  0.00     0.016 A 
ATOM     32  C   UNL     1       6.012   6.692  -8.645  1.00  0.00     0.016 A 
ATOM     33  C   UNL     1       5.908   6.401 -11.438  1.00  0.00     0.010 A 
ATOM     34  C   UNL     1       5.961   7.819  -9.470  1.00  0.00     0.010 A 
ATOM     35  C   UNL     1       5.940   7.680 -10.869  1.00  0.00    -0.014 A 
BRANCH  35  36
ATOM     36  C   UNL     1       6.091   8.880 -11.724  1.00  0.00     0.031 A 
ATOM     37  C   UNL     1       7.452   9.503 -11.861  1.00  0.00     0.074 A 
ATOM     38  C   UNL     1       5.025   9.435 -12.329  1.00  0.00     0.049 A 
ATOM     39  N   UNL     1       7.798  10.614 -12.456  1.00  0.00    -0.248 NA
ATOM     40  C   UNL     1       8.572   8.779 -11.237  1.00  0.00     0.031 C 
ATOM     41  C   UNL     1       3.659   8.916 -12.275  1.00  0.00     0.029 A 
ATOM     42  N   UNL     1       4.922  10.582 -13.075  1.00  0.00    -0.354 N 
ATOM     43  C   UNL     1       9.165  10.744 -12.247  1.00  0.00     0.074 A 
ATOM     44  C   UNL     1       9.587   9.598 -11.470  1.00  0.00     0.031 C 
ATOM     45  C   UNL     1       2.846   9.766 -12.926  1.00  0.00     0.029 A 
ATOM     46  C   UNL     1       3.628  10.900 -13.415  1.00  0.00     0.049 A 
ATOM     47  H   UNL     1       5.699  11.125 -13.341  1.00  0.00     0.167 HD
ATOM     48  C   UNL     1       9.997  11.723 -12.673  1.00  0.00     0.034 A 
ATOM     49  C   UNL     1       3.131  11.995 -14.024  1.00  0.00     0.034 A 
ATOM     50  C   UNL     1       9.579  12.846 -13.466  1.00  0.00     0.049 A 
ATOM     51  C   UNL     1       4.075  13.080 -14.475  1.00  0.00     0.074 A 
ATOM     52  C   UNL     1      10.353  13.870 -13.982  1.00  0.00     0.029 A 
ATOM     53  N   UNL     1       8.272  13.096 -13.852  1.00  0.00    -0.354 N 
ATOM     54  N   UNL     1       5.381  13.136 -14.365  1.00  0.00    -0.248 NA
ATOM     55  C   UNL     1       3.484  14.240 -15.159  1.00  0.00     0.031 C 
ATOM     56  C   UNL     1       9.510  14.749 -14.668  1.00  0.00     0.029 A 
ATOM     57  C   UNL     1       8.215  14.261 -14.596  1.00  0.00     0.049 A 
ATOM     58  H   UNL     1       7.498  12.529 -13.629  1.00  0.00     0.167 HD
ATOM     59  C   UNL     1       5.770  14.308 -15.004  1.00  0.00     0.074 A 
ATOM     60  C   UNL     1       4.562  14.931 -15.505  1.00  0.00     0.031 C 
ATOM     61  C   UNL     1       7.013  14.828 -15.152  1.00  0.00     0.034 A 
BRANCH  48  62
ATOM     62  C   UNL     1      11.454  11.607 -12.315  1.00  0.00     0.023 A 
ATOM     63  C   UNL     1      12.262  10.668 -12.985  1.00  0.00     0.012 A 
ATOM     64  C   UNL     1      12.034  12.464 -11.360  1.00  0.00     0.148 A 
ATOM     65  C   UNL     1      13.621  10.564 -12.692  1.00  0.00     0.002 A 
ATOM     66  C   UNL     1      13.397  12.382 -11.101  1.00  0.00     0.091 A 
ATOM     67  F   UNL     1      11.242  13.333 -10.714  1.00  0.00    -0.205 F 
ATOM     68  C   UNL     1      14.190  11.428 -11.759  1.00  0.00     0.022 A 
BRANCH  66  69
ATOM     69  S   UNL     1      14.232  13.501  -9.971  1.00  0.00     0.127 S 
ATOM     70  O   UNL     1      14.473  12.632  -8.820  1.00  0.00    -0.237 OA
ATOM     71  O   UNL     1      15.434  13.863 -10.723  1.00  0.00    -0.237 OA
ATOM     72  O   UNL     1      13.307  14.603  -9.743  1.00  0.00    -0.744 OA
ENDBRANCH  66  69
ENDBRANCH  48  62
BRANCH  49  73
ATOM     73  C   UNL     1       1.666  12.105 -14.274  1.00  0.00     0.023 A 
ATOM     74  C   UNL     1       1.181  12.021 -15.594  1.00  0.00     0.012 A 
ATOM     75  C   UNL     1       0.751  12.265 -13.216  1.00  0.00     0.148 A 
ATOM     76  C   UNL     1      -0.185  12.121 -15.857  1.00  0.00     0.002 A 
ATOM     77  C   UNL     1      -0.614  12.310 -13.480  1.00  0.00     0.091 A 
ATOM     78  F   UNL     1       1.232  12.364 -11.969  1.00  0.00    -0.205 F 
ATOM     79  C   UNL     1      -1.083  12.254 -14.801  1.00  0.00     0.022 A 
BRANCH  77  80
ATOM     80  S   UNL     1      -1.844  12.348 -12.171  1.00  0.00     0.127 S 
ATOM     81  O   UNL     1      -2.321  13.725 -12.248  1.00  0.00    -0.237 OA
ATOM     82  O   UNL     1      -2.800  11.336 -12.623  1.00  0.00    -0.237 OA
ATOM     83  O   UNL     1      -1.129  11.989 -10.953  1.00  0.00    -0.744 OA
ENDBRANCH  77  80
ENDBRANCH  49  73
BRANCH  61  84
ATOM     84  C   UNL     1       7.158  16.107 -15.934  1.00  0.00     0.023 A 
ATOM     85  C   UNL     1       6.791  17.333 -15.347  1.00  0.00     0.012 A 
ATOM     86  C   UNL     1       7.763  16.100 -17.207  1.00  0.00     0.148 A 
ATOM     87  C   UNL     1       7.008  18.533 -16.023  1.00  0.00     0.002 A 
ATOM     88  C   UNL     1       8.017  17.303 -17.855  1.00  0.00     0.091 A 
ATOM     89  F   UNL     1       8.088  14.920 -17.754  1.00  0.00    -0.205 F 
ATOM     90  C   UNL     1       7.633  18.519 -17.269  1.00  0.00     0.022 A 
BRANCH  88  91
ATOM     91  S   UNL     1       8.902  17.386 -19.417  1.00  0.00     0.127 S 
ATOM     92  O   UNL     1       7.829  17.729 -20.349  1.00  0.00    -0.237 OA
ATOM     93  O   UNL     1       9.864  18.461 -19.172  1.00  0.00    -0.237 OA
ATOM     94  O   UNL     1       9.501  16.072 -19.609  1.00  0.00    -0.744 OA
ENDBRANCH  88  91
ENDBRANCH  61  84
ENDBRANCH  35  36
ENDBRANCH  28  30
ENDBRANCH  27  28
ENDBRANCH  26  27
ENDBRANCH  25  26
ENDBRANCH  24  25
ENDBRANCH  23  24
ENDBRANCH   1  23
TORSDOF 24
