REMARK SMILES O=C(CSc1nnnn1-c1ccc(C(=O)OCCOCCOC(=O)c2ccc(-c3c4nc(c(-c5cccc(S(=O)(=O)[O-])c5F)c5ccc([nH]5)c(-c5cccc(S(=O)(=O)[O-])c5F)c5nc(c(-c6cccc(S(=O)(=O)[O-])c6F)c6ccc3[nH]6)C=C5)C=C4)cc2)cc1)Nc1nc(-c2ccccc2)cs1
REMARK SMILES IDX 17 1 16 2 14 3 15 4 13 5 10 6 11 7 89 8 12 9 88 10 9 11 5 12
REMARK SMILES IDX 6 13 7 14 8 15 4 16 3 17 2 18 1 19 90 20 91 22 92 23 101 24
REMARK SMILES IDX 93 25 100 26 94 27 95 28 99 29 96 30 98 31 97 32 18 33 19 34
REMARK SMILES IDX 20 35 21 36 22 37 23 38 24 39 25 40 26 41 87 42 27 43 86 44
REMARK SMILES IDX 28 45 29 46 30 47 80 48 31 49 85 50 79 51 81 52 32 53 84 54
REMARK SMILES IDX 78 55 77 56 33 58 65 59 45 60 64 61 46 62 49 63 63 64 82 65
REMARK SMILES IDX 47 66 48 67 62 69 83 70 50 71 34 72 35 73 43 74 36 75 38 76
REMARK SMILES IDX 44 77 37 78 39 79 40 80 41 81 42 82 66 83 67 84 75 85 68 86
REMARK SMILES IDX 70 87 76 88 69 89 71 90 72 91 73 92 74 93 51 94 52 95 60 96
REMARK SMILES IDX 53 97 55 98 61 99 54 100 56 101 57 102 58 103 59 104
REMARK H PARENT 90 21 81 57 49 68
REMARK Flexibility Score: inf
ROOT
ATOM      1  C   UNL     1       0.599   4.383  -4.115  1.00  0.00     0.261 C 
ENDROOT
BRANCH   1   2
ATOM      2  O   UNL     1       0.946   3.033  -4.446  1.00  0.00    -0.460 OA
BRANCH   2   3
ATOM      3  C   UNL     1       0.276   2.123  -3.712  1.00  0.00     0.338 C 
ATOM      4  O   UNL     1      -0.737   2.343  -3.052  1.00  0.00    -0.246 OA
BRANCH   3   5
ATOM      5  C   UNL     1       0.866   0.779  -3.685  1.00  0.00     0.060 A 
ATOM      6  C   UNL     1       1.845  -1.697  -2.880  1.00  0.00     0.069 A 
ATOM      7  C   UNL     1       0.466  -1.520  -3.028  1.00  0.00     0.029 A 
ATOM      8  C   UNL     1       2.736  -0.682  -3.271  1.00  0.00     0.029 A 
ATOM      9  C   UNL     1      -0.017  -0.274  -3.404  1.00  0.00     0.018 A 
ATOM     10  C   UNL     1       2.245   0.562  -3.685  1.00  0.00     0.018 A 
BRANCH   6  11
ATOM     11  N   UNL     1       2.290  -2.860  -2.212  1.00  0.00    -0.187 N 
ATOM     12  C   UNL     1       3.285  -3.015  -1.260  1.00  0.00     0.214 A 
ATOM     13  N   UNL     1       3.284  -4.259  -0.834  1.00  0.00    -0.101 NA
ATOM     14  N   UNL     1       2.248  -4.876  -1.483  1.00  0.00    -0.022 NA
ATOM     15  N   UNL     1       1.596  -4.026  -2.262  1.00  0.00    -0.039 NA
BRANCH  12  16
ATOM     16  S   UNL     1       4.146  -1.728  -0.472  1.00  0.00    -0.074 SA
BRANCH  16  17
ATOM     17  C   UNL     1       2.947  -1.300   0.834  1.00  0.00     0.178 C 
BRANCH  17  18
ATOM     18  C   UNL     1       2.024  -0.158   0.417  1.00  0.00     0.236 C 
ATOM     19  O   UNL     1       0.806  -0.286   0.476  1.00  0.00    -0.274 OA
ATOM     20  N   UNL     1       2.719   0.977   0.069  1.00  0.00    -0.301 N 
ATOM     21  H   UNL     1       3.696   0.901  -0.017  1.00  0.00     0.172 HD
BRANCH  20  22
ATOM     22  C   UNL     1       2.158   2.201  -0.165  1.00  0.00     0.189 A 
ATOM     23  N   UNL     1       0.927   2.637  -0.065  1.00  0.00    -0.220 NA
ATOM     24  S   UNL     1       3.336   3.338  -0.653  1.00  0.00    -0.105 S 
ATOM     25  C   UNL     1       0.882   3.990  -0.412  1.00  0.00     0.084 A 
ATOM     26  C   UNL     1       2.114   4.524  -0.760  1.00  0.00     0.097 A 
BRANCH  25  27
ATOM     27  C   UNL     1      -0.365   4.752  -0.586  1.00  0.00     0.001 A 
ATOM     28  C   UNL     1      -0.363   6.159  -0.609  1.00  0.00     0.010 A 
ATOM     29  C   UNL     1      -1.547   4.094  -0.944  1.00  0.00     0.010 A 
ATOM     30  C   UNL     1      -1.468   6.875  -1.081  1.00  0.00     0.001 A 
ATOM     31  C   UNL     1      -2.641   4.807  -1.451  1.00  0.00     0.001 A 
ATOM     32  C   UNL     1      -2.595   6.196  -1.534  1.00  0.00     0.000 A 
ENDBRANCH  25  27
ENDBRANCH  20  22
ENDBRANCH  17  18
ENDBRANCH  16  17
ENDBRANCH  12  16
ENDBRANCH   6  11
ENDBRANCH   3   5
ENDBRANCH   2   3
ENDBRANCH   1   2
BRANCH   1  33
ATOM     33  C   UNL     1      -0.551   5.108  -4.835  1.00  0.00     0.202 C 
BRANCH  33  34
ATOM     34  O   UNL     1      -1.837   4.559  -5.075  1.00  0.00    -0.374 OA
BRANCH  34  35
ATOM     35  C   UNL     1      -2.070   3.278  -5.638  1.00  0.00     0.202 C 
BRANCH  35  36
ATOM     36  C   UNL     1      -1.418   2.827  -6.939  1.00  0.00     0.261 C 
BRANCH  36  37
ATOM     37  O   UNL     1      -0.067   3.217  -7.040  1.00  0.00    -0.460 OA
BRANCH  37  38
ATOM     38  C   UNL     1       0.104   4.404  -7.642  1.00  0.00     0.338 C 
ATOM     39  O   UNL     1      -0.779   5.165  -8.049  1.00  0.00    -0.246 OA
BRANCH  38  40
ATOM     40  C   UNL     1       1.536   4.653  -7.806  1.00  0.00     0.060 A 
ATOM     41  C   UNL     1       1.848   5.745  -8.613  1.00  0.00     0.016 A 
ATOM     42  C   UNL     1       2.449   3.618  -7.543  1.00  0.00     0.016 A 
ATOM     43  C   UNL     1       2.911   5.602  -9.462  1.00  0.00     0.010 A 
ATOM     44  C   UNL     1       3.513   3.475  -8.397  1.00  0.00     0.010 A 
ATOM     45  C   UNL     1       3.630   4.402  -9.426  1.00  0.00    -0.014 A 
BRANCH  45  46
ATOM     46  C   UNL     1       4.430   4.110 -10.587  1.00  0.00     0.031 A 
ATOM     47  C   UNL     1       5.692   4.851 -10.646  1.00  0.00     0.074 A 
ATOM     48  C   UNL     1       4.038   3.238 -11.532  1.00  0.00     0.049 A 
ATOM     49  N   UNL     1       5.999   5.813 -11.448  1.00  0.00    -0.248 NA
ATOM     50  C   UNL     1       6.669   4.582  -9.587  1.00  0.00     0.031 C 
ATOM     51  C   UNL     1       2.975   2.232 -11.448  1.00  0.00     0.029 A 
ATOM     52  N   UNL     1       4.621   2.986 -12.734  1.00  0.00    -0.354 N 
ATOM     53  C   UNL     1       7.316   6.114 -11.141  1.00  0.00     0.074 A 
ATOM     54  C   UNL     1       7.612   5.473  -9.884  1.00  0.00     0.031 C 
ATOM     55  C   UNL     1       3.160   1.325 -12.434  1.00  0.00     0.029 A 
ATOM     56  C   UNL     1       4.258   1.766 -13.278  1.00  0.00     0.049 A 
ATOM     57  H   UNL     1       5.241   3.611 -13.175  1.00  0.00     0.167 HD
ATOM     58  C   UNL     1       8.153   6.646 -12.067  1.00  0.00     0.034 A 
ATOM     59  C   UNL     1       4.894   1.128 -14.287  1.00  0.00     0.034 A 
ATOM     60  C   UNL     1       7.455   7.205 -13.192  1.00  0.00     0.049 A 
ATOM     61  C   UNL     1       5.704   2.130 -15.020  1.00  0.00     0.074 A 
ATOM     62  C   UNL     1       6.497   8.184 -13.364  1.00  0.00     0.029 A 
ATOM     63  N   UNL     1       7.491   6.495 -14.366  1.00  0.00    -0.354 N 
ATOM     64  N   UNL     1       5.203   3.083 -15.756  1.00  0.00    -0.248 NA
ATOM     65  C   UNL     1       7.103   2.296 -14.656  1.00  0.00     0.031 C 
ATOM     66  C   UNL     1       5.717   7.758 -14.478  1.00  0.00     0.029 A 
ATOM     67  C   UNL     1       6.240   6.542 -14.923  1.00  0.00     0.049 A 
ATOM     68  H   UNL     1       8.276   6.034 -14.742  1.00  0.00     0.167 HD
ATOM     69  C   UNL     1       6.075   4.152 -15.593  1.00  0.00     0.074 A 
ATOM     70  C   UNL     1       7.287   3.564 -15.033  1.00  0.00     0.031 C 
ATOM     71  C   UNL     1       5.632   5.444 -15.650  1.00  0.00     0.034 A 
BRANCH  58  72
ATOM     72  C   UNL     1       9.623   6.346 -12.102  1.00  0.00     0.023 A 
ATOM     73  C   UNL     1      10.445   7.176 -12.888  1.00  0.00     0.012 A 
ATOM     74  C   UNL     1      10.197   5.159 -11.594  1.00  0.00     0.148 A 
ATOM     75  C   UNL     1      11.773   6.835 -13.159  1.00  0.00     0.002 A 
ATOM     76  C   UNL     1      11.543   4.878 -11.778  1.00  0.00     0.091 A 
ATOM     77  F   UNL     1       9.423   4.216 -11.042  1.00  0.00    -0.205 F 
ATOM     78  C   UNL     1      12.331   5.697 -12.585  1.00  0.00     0.022 A 
BRANCH  76  79
ATOM     79  S   UNL     1      12.291   3.474 -10.949  1.00  0.00     0.127 S 
ATOM     80  O   UNL     1      12.145   2.423 -11.950  1.00  0.00    -0.237 OA
ATOM     81  O   UNL     1      13.662   3.936 -10.728  1.00  0.00    -0.237 OA
ATOM     82  O   UNL     1      11.515   3.322  -9.722  1.00  0.00    -0.744 OA
ENDBRANCH  76  79
ENDBRANCH  58  72
BRANCH  59  83
ATOM     83  C   UNL     1       5.029  -0.326 -14.520  1.00  0.00     0.023 A 
ATOM     84  C   UNL     1       5.337  -0.796 -15.810  1.00  0.00     0.012 A 
ATOM     85  C   UNL     1       5.093  -1.240 -13.443  1.00  0.00     0.148 A 
ATOM     86  C   UNL     1       5.715  -2.127 -16.019  1.00  0.00     0.002 A 
ATOM     87  C   UNL     1       5.449  -2.567 -13.659  1.00  0.00     0.091 A 
ATOM     88  F   UNL     1       4.901  -0.789 -12.196  1.00  0.00    -0.205 F 
ATOM     89  C   UNL     1       5.772  -3.012 -14.945  1.00  0.00     0.022 A 
BRANCH  87  90
ATOM     90  S   UNL     1       5.533  -3.757 -12.313  1.00  0.00     0.127 S 
ATOM     91  O   UNL     1       4.903  -4.937 -12.907  1.00  0.00    -0.237 OA
ATOM     92  O   UNL     1       6.973  -3.874 -12.101  1.00  0.00    -0.237 OA
ATOM     93  O   UNL     1       4.774  -3.166 -11.218  1.00  0.00    -0.744 OA
ENDBRANCH  87  90
ENDBRANCH  59  83
BRANCH  71  94
ATOM     94  C   UNL     1       4.255   5.704 -16.214  1.00  0.00     0.023 A 
ATOM     95  C   UNL     1       3.098   5.168 -15.610  1.00  0.00     0.012 A 
ATOM     96  C   UNL     1       4.103   6.643 -17.251  1.00  0.00     0.148 A 
ATOM     97  C   UNL     1       1.823   5.534 -16.049  1.00  0.00     0.002 A 
ATOM     98  C   UNL     1       2.831   7.040 -17.653  1.00  0.00     0.091 A 
ATOM     99  F   UNL     1       5.208   7.155 -17.814  1.00  0.00    -0.205 F 
ATOM    100  C   UNL     1       1.689   6.479 -17.061  1.00  0.00     0.022 A 
BRANCH  98 101
ATOM    101  S   UNL     1       2.593   8.357 -18.851  1.00  0.00     0.127 S 
ATOM    102  O   UNL     1       2.306   7.613 -20.075  1.00  0.00    -0.237 OA
ATOM    103  O   UNL     1       1.450   9.089 -18.299  1.00  0.00    -0.237 OA
ATOM    104  O   UNL     1       3.836   9.120 -18.851  1.00  0.00    -0.744 OA
ENDBRANCH  98 101
ENDBRANCH  71  94
ENDBRANCH  45  46
ENDBRANCH  38  40
ENDBRANCH  37  38
ENDBRANCH  36  37
ENDBRANCH  35  36
ENDBRANCH  34  35
ENDBRANCH  33  34
ENDBRANCH   1  33
TORSDOF 23
