REMARK SMILES Nc1oc2ccc(F)cc2c(=O)c1[C@@H]1[NH2+][C@H](C(=O)OCCOCCOC(=O)c2ccc(-c3c4nc(c(-c5cccc(S(=O)(=O)[O-])c5F)c5ccc([nH]5)c(-c5cccc(S(=O)(=O)[O-])c5F)c5nc(c(-c6cccc(S(=O)(=O)[O-])c6F)c6ccc3[nH]6)C=C5)C=C4)cc2)CS1
REMARK SMILES IDX 23 1 22 2 21 3 20 4 19 5 17 6 18 7 16 8 14 9 15 10 92 11
REMARK SMILES IDX 91 14 13 15 2 16 3 17 4 18 11 19 5 20 10 21 12 22 6 23 9 24
REMARK SMILES IDX 7 25 8 26 1 27 24 30 25 31 26 32 27 33 28 34 29 35 90 36
REMARK SMILES IDX 30 37 89 38 31 39 32 40 33 41 83 42 34 43 88 44 82 45 84 46
REMARK SMILES IDX 35 47 87 48 81 49 80 50 36 52 68 53 48 54 67 55 49 56 52 57
REMARK SMILES IDX 66 58 85 59 50 60 51 61 65 63 86 64 53 65 37 66 38 67 46 68
REMARK SMILES IDX 39 69 41 70 47 71 40 72 42 73 43 74 44 75 45 76 69 77 70 78
REMARK SMILES IDX 78 79 71 80 73 81 79 82 72 83 74 84 75 85 76 86 77 87 54 88
REMARK SMILES IDX 55 89 63 90 56 91 58 92 64 93 57 94 59 95 60 96 61 97 62 98
REMARK H PARENT 15 12 15 13 1 28 1 29 84 51 52 62
REMARK Flexibility Score: inf
ROOT
ATOM      1  C   UNL     1      -0.967   0.993  -3.569  1.00  0.00     0.202 C 
ENDROOT
BRANCH   1   2
ATOM      2  O   UNL     1      -1.603  -0.285  -3.535  1.00  0.00    -0.374 OA
BRANCH   2   3
ATOM      3  C   UNL     1      -1.771  -0.904  -2.257  1.00  0.00     0.202 C 
BRANCH   3   4
ATOM      4  C   UNL     1      -0.502  -1.439  -1.594  1.00  0.00     0.261 C 
BRANCH   4   5
ATOM      5  O   UNL     1       0.405  -0.358  -1.351  1.00  0.00    -0.459 OA
BRANCH   5   6
ATOM      6  C   UNL     1       1.710  -0.589  -1.624  1.00  0.00     0.365 C 
ATOM      7  O   UNL     1       2.178  -1.683  -1.927  1.00  0.00    -0.245 OA
BRANCH   6   8
ATOM      8  C   UNL     1       2.571   0.680  -1.613  1.00  0.00     0.304 C 
ATOM      9  C   UNL     1       2.040   2.292   0.115  1.00  0.00     0.283 C 
ATOM     10  N   UNL     1       1.855   1.944  -1.298  1.00  0.00    -0.319 N 
ATOM     11  S   UNL     1       3.631   1.617   0.661  1.00  0.00    -0.087 SA
ATOM     12  H   UNL     1       2.225   2.695  -1.881  1.00  0.00     0.348 HD
ATOM     13  H   UNL     1       0.860   1.818  -1.483  1.00  0.00     0.348 HD
ATOM     14  C   UNL     1       3.795   0.481  -0.732  1.00  0.00     0.153 C 
BRANCH   9  15
ATOM     15  C   UNL     1       0.884   1.953   1.020  1.00  0.00     0.128 A 
ATOM     16  C   UNL     1       0.583   0.775   1.613  1.00  0.00     0.205 A 
ATOM     17  O   UNL     1      -0.520   0.593   2.428  1.00  0.00    -0.440 OA
ATOM     18  C   UNL     1      -1.074   1.692   3.013  1.00  0.00     0.140 A 
ATOM     19  C   UNL     1       0.009   3.122   1.356  1.00  0.00     0.205 A 
ATOM     20  C   UNL     1      -1.851   1.489   4.149  1.00  0.00     0.051 A 
ATOM     21  C   UNL     1      -0.884   2.970   2.512  1.00  0.00     0.068 A 
ATOM     22  O   UNL     1       0.078   4.196   0.766  1.00  0.00    -0.288 OA
ATOM     23  C   UNL     1      -2.465   2.573   4.773  1.00  0.00     0.043 A 
ATOM     24  C   UNL     1      -1.495   4.065   3.127  1.00  0.00     0.055 A 
ATOM     25  C   UNL     1      -2.283   3.851   4.255  1.00  0.00     0.124 A 
ATOM     26  F   UNL     1      -2.889   4.892   4.838  1.00  0.00    -0.207 F 
BRANCH  16  27
ATOM     27  N   UNL     1       1.312  -0.375   1.514  1.00  0.00    -0.369 N 
ATOM     28  H   UNL     1       1.015  -1.188   1.983  1.00  0.00     0.159 HD
ATOM     29  H   UNL     1       2.136  -0.391   0.975  1.00  0.00     0.159 HD
ENDBRANCH  16  27
ENDBRANCH   9  15
ENDBRANCH   6   8
ENDBRANCH   5   6
ENDBRANCH   4   5
ENDBRANCH   3   4
ENDBRANCH   2   3
ENDBRANCH   1   2
BRANCH   1  30
ATOM     30  C   UNL     1      -1.774   2.215  -3.105  1.00  0.00     0.261 C 
BRANCH  30  31
ATOM     31  O   UNL     1      -2.344   2.102  -1.794  1.00  0.00    -0.460 OA
BRANCH  31  32
ATOM     32  C   UNL     1      -3.659   1.773  -1.771  1.00  0.00     0.338 C 
ATOM     33  O   UNL     1      -4.382   1.547  -2.735  1.00  0.00    -0.246 OA
BRANCH  32  34
ATOM     34  C   UNL     1      -4.094   1.583  -0.376  1.00  0.00     0.060 A 
ATOM     35  C   UNL     1      -3.978   2.620   0.542  1.00  0.00     0.016 A 
ATOM     36  C   UNL     1      -4.688   0.370   0.000  1.00  0.00     0.016 A 
ATOM     37  C   UNL     1      -4.462   2.432   1.838  1.00  0.00     0.010 A 
ATOM     38  C   UNL     1      -5.173   0.192   1.304  1.00  0.00     0.010 A 
ATOM     39  C   UNL     1      -5.064   1.220   2.246  1.00  0.00    -0.014 A 
BRANCH  39  40
ATOM     40  C   UNL     1      -5.641   1.125   3.622  1.00  0.00     0.031 A 
ATOM     41  C   UNL     1      -5.113   0.178   4.671  1.00  0.00     0.074 A 
ATOM     42  C   UNL     1      -6.613   1.992   3.975  1.00  0.00     0.049 A 
ATOM     43  N   UNL     1      -5.274   0.243   5.971  1.00  0.00    -0.248 NA
ATOM     44  C   UNL     1      -4.268  -0.944   4.236  1.00  0.00     0.031 C 
ATOM     45  C   UNL     1      -7.265   2.936   3.065  1.00  0.00     0.029 A 
ATOM     46  N   UNL     1      -7.208   2.235   5.189  1.00  0.00    -0.354 N 
ATOM     47  C   UNL     1      -4.500  -0.776   6.510  1.00  0.00     0.074 A 
ATOM     48  C   UNL     1      -3.901  -1.479   5.397  1.00  0.00     0.031 C 
ATOM     49  C   UNL     1      -8.141   3.678   3.756  1.00  0.00     0.029 A 
ATOM     50  C   UNL     1      -8.150   3.235   5.147  1.00  0.00     0.049 A 
ATOM     51  H   UNL     1      -6.982   1.740   6.009  1.00  0.00     0.167 HD
ATOM     52  C   UNL     1      -4.284  -1.078   7.812  1.00  0.00     0.034 A 
ATOM     53  C   UNL     1      -8.950   3.741   6.107  1.00  0.00     0.034 A 
ATOM     54  C   UNL     1      -4.976  -0.480   8.923  1.00  0.00     0.049 A 
ATOM     55  C   UNL     1      -8.838   3.242   7.515  1.00  0.00     0.074 A 
ATOM     56  C   UNL     1      -4.828  -0.761  10.271  1.00  0.00     0.029 A 
ATOM     57  N   UNL     1      -5.997   0.448   8.819  1.00  0.00    -0.354 N 
ATOM     58  N   UNL     1      -7.958   2.415   8.022  1.00  0.00    -0.248 NA
ATOM     59  C   UNL     1      -9.816   3.752   8.488  1.00  0.00     0.031 C 
ATOM     60  C   UNL     1      -5.804  -0.051  10.976  1.00  0.00     0.029 A 
ATOM     61  C   UNL     1      -6.531   0.702  10.070  1.00  0.00     0.049 A 
ATOM     62  H   UNL     1      -6.298   0.865   7.979  1.00  0.00     0.167 HD
ATOM     63  C   UNL     1      -8.267   2.313   9.373  1.00  0.00     0.074 A 
ATOM     64  C   UNL     1      -9.407   3.173   9.611  1.00  0.00     0.031 C 
ATOM     65  C   UNL     1      -7.656   1.565  10.321  1.00  0.00     0.034 A 
BRANCH  52  66
ATOM     66  C   UNL     1      -3.230  -2.097   8.145  1.00  0.00     0.023 A 
ATOM     67  C   UNL     1      -1.900  -1.661   8.309  1.00  0.00     0.012 A 
ATOM     68  C   UNL     1      -3.572  -3.425   8.455  1.00  0.00     0.148 A 
ATOM     69  C   UNL     1      -0.924  -2.534   8.789  1.00  0.00     0.002 A 
ATOM     70  C   UNL     1      -2.597  -4.285   8.944  1.00  0.00     0.091 A 
ATOM     71  F   UNL     1      -4.845  -3.808   8.286  1.00  0.00    -0.205 F 
ATOM     72  C   UNL     1      -1.274  -3.841   9.115  1.00  0.00     0.022 A 
BRANCH  70  73
ATOM     73  S   UNL     1      -2.948  -5.980   9.422  1.00  0.00     0.127 S 
ATOM     74  O   UNL     1      -2.134  -6.727   8.464  1.00  0.00    -0.237 OA
ATOM     75  O   UNL     1      -2.459  -6.018  10.800  1.00  0.00    -0.237 OA
ATOM     76  O   UNL     1      -4.386  -6.151   9.273  1.00  0.00    -0.744 OA
ENDBRANCH  70  73
ENDBRANCH  52  66
BRANCH  53  77
ATOM     77  C   UNL     1      -9.942   4.783   5.733  1.00  0.00     0.023 A 
ATOM     78  C   UNL     1      -9.746   6.120   6.122  1.00  0.00     0.012 A 
ATOM     79  C   UNL     1     -11.037   4.451   4.911  1.00  0.00     0.148 A 
ATOM     80  C   UNL     1     -10.625   7.113   5.689  1.00  0.00     0.002 A 
ATOM     81  C   UNL     1     -11.878   5.450   4.444  1.00  0.00     0.091 A 
ATOM     82  F   UNL     1     -11.205   3.165   4.572  1.00  0.00    -0.205 F 
ATOM     83  C   UNL     1     -11.680   6.782   4.839  1.00  0.00     0.022 A 
BRANCH  81  84
ATOM     84  S   UNL     1     -13.183   5.129   3.254  1.00  0.00     0.127 S 
ATOM     85  O   UNL     1     -14.379   5.432   4.037  1.00  0.00    -0.237 OA
ATOM     86  O   UNL     1     -12.872   6.096   2.202  1.00  0.00    -0.237 OA
ATOM     87  O   UNL     1     -13.029   3.736   2.860  1.00  0.00    -0.744 OA
ENDBRANCH  81  84
ENDBRANCH  53  77
BRANCH  65  88
ATOM     88  C   UNL     1      -8.197   1.607  11.723  1.00  0.00     0.023 A 
ATOM     89  C   UNL     1      -9.365   0.885  12.036  1.00  0.00     0.012 A 
ATOM     90  C   UNL     1      -7.482   2.252  12.752  1.00  0.00     0.148 A 
ATOM     91  C   UNL     1      -9.817   0.809  13.353  1.00  0.00     0.002 A 
ATOM     92  C   UNL     1      -7.919   2.142  14.067  1.00  0.00     0.091 A 
ATOM     93  F   UNL     1      -6.378   2.939  12.426  1.00  0.00    -0.205 F 
ATOM     94  C   UNL     1      -9.089   1.425  14.368  1.00  0.00     0.022 A 
BRANCH  92  95
ATOM     95  S   UNL     1      -7.009   2.836  15.452  1.00  0.00     0.127 S 
ATOM     96  O   UNL     1      -7.937   3.857  15.936  1.00  0.00    -0.237 OA
ATOM     97  O   UNL     1      -6.860   1.679  16.333  1.00  0.00    -0.237 OA
ATOM     98  O   UNL     1      -5.761   3.347  14.901  1.00  0.00    -0.744 OA
ENDBRANCH  92  95
ENDBRANCH  65  88
ENDBRANCH  39  40
ENDBRANCH  32  34
ENDBRANCH  31  32
ENDBRANCH  30  31
ENDBRANCH   1  30
TORSDOF 19
