REMARK SMILES O=C(OCCOCCOC(=O)c1cccc(N2NC(=O)[C@H]3CC=CC[C@H]3C2=O)c1)c1ccc(-c2c3nc(c(-c4cccc(S(=O)(=O)[O-])c4F)c4ccc([nH]4)c(-c4cccc(S(=O)(=O)[O-])c4F)c4nc(c(-c5cccc(S(=O)(=O)[O-])c5F)c5ccc2[nH]5)C=C4)C=C3)cc1
REMARK SMILES IDX 5 1 4 2 3 3 2 4 1 5 30 6 31 7 92 8 32 9 91 10 33 11 34 12
REMARK SMILES IDX 35 13 85 14 36 15 90 16 84 17 86 18 37 19 89 20 83 21 82 22
REMARK SMILES IDX 38 24 70 25 50 26 69 27 51 28 54 29 68 30 87 31 52 32 53 33
REMARK SMILES IDX 67 35 88 36 55 37 39 38 40 39 48 40 41 41 43 42 49 43 42 44
REMARK SMILES IDX 44 45 45 46 46 47 47 48 71 49 72 50 80 51 73 52 75 53 81 54
REMARK SMILES IDX 74 55 76 56 77 57 78 58 79 59 56 60 57 61 65 62 58 63 60 64
REMARK SMILES IDX 66 65 59 66 61 67 62 68 63 69 64 70 6 71 7 72 8 73 9 74
REMARK SMILES IDX 10 75 11 76 12 77 13 78 29 79 14 80 16 81 15 82 17 83 18 84
REMARK SMILES IDX 27 85 19 86 26 88 28 89 20 90 21 91 25 92 22 93 24 94 23 95
REMARK H PARENT 86 23 54 34 18 87
REMARK Flexibility Score: inf
ROOT
ATOM      1  C   UNL     1       4.166   1.251  -1.245  1.00  0.00     0.202 C 
ENDROOT
BRANCH   1   2
ATOM      2  C   UNL     1       3.807  -0.224  -1.437  1.00  0.00     0.261 C 
BRANCH   2   3
ATOM      3  O   UNL     1       2.440  -0.461  -1.068  1.00  0.00    -0.460 OA
BRANCH   3   4
ATOM      4  C   UNL     1       1.972  -1.093   0.036  1.00  0.00     0.338 C 
ATOM      5  O   UNL     1       0.766  -1.315   0.115  1.00  0.00    -0.246 OA
BRANCH   4   6
ATOM      6  C   UNL     1       2.848  -1.528   1.167  1.00  0.00     0.060 A 
ATOM      7  C   UNL     1       4.071  -0.941   1.487  1.00  0.00     0.016 A 
ATOM      8  C   UNL     1       2.365  -2.538   2.016  1.00  0.00     0.016 A 
ATOM      9  C   UNL     1       4.833  -1.375   2.554  1.00  0.00     0.010 A 
ATOM     10  C   UNL     1       3.101  -2.947   3.135  1.00  0.00     0.010 A 
ATOM     11  C   UNL     1       4.348  -2.370   3.393  1.00  0.00    -0.014 A 
BRANCH  11  12
ATOM     12  C   UNL     1       5.244  -2.808   4.475  1.00  0.00     0.031 A 
ATOM     13  C   UNL     1       5.962  -4.110   4.324  1.00  0.00     0.074 A 
ATOM     14  C   UNL     1       5.531  -1.944   5.467  1.00  0.00     0.049 A 
ATOM     15  N   UNL     1       6.838  -4.661   5.115  1.00  0.00    -0.248 NA
ATOM     16  C   UNL     1       5.674  -4.886   3.104  1.00  0.00     0.031 C 
ATOM     17  C   UNL     1       4.944  -0.607   5.615  1.00  0.00     0.029 A 
ATOM     18  N   UNL     1       6.408  -2.037   6.512  1.00  0.00    -0.354 N 
ATOM     19  C   UNL     1       7.182  -5.863   4.511  1.00  0.00     0.074 A 
ATOM     20  C   UNL     1       6.424  -5.962   3.285  1.00  0.00     0.031 C 
ATOM     21  C   UNL     1       5.488  -0.003   6.682  1.00  0.00     0.029 A 
ATOM     22  C   UNL     1       6.408  -0.930   7.327  1.00  0.00     0.049 A 
ATOM     23  H   UNL     1       6.983  -2.821   6.666  1.00  0.00     0.167 HD
ATOM     24  C   UNL     1       8.058  -6.794   4.949  1.00  0.00     0.034 A 
ATOM     25  C   UNL     1       7.055  -0.713   8.487  1.00  0.00     0.034 A 
ATOM     26  C   UNL     1       8.795  -6.662   6.174  1.00  0.00     0.049 A 
ATOM     27  C   UNL     1       7.973  -1.798   8.982  1.00  0.00     0.074 A 
ATOM     28  C   UNL     1       9.654  -7.565   6.769  1.00  0.00     0.029 A 
ATOM     29  N   UNL     1       8.753  -5.542   6.995  1.00  0.00    -0.354 N 
ATOM     30  N   UNL     1       8.285  -2.937   8.409  1.00  0.00    -0.248 NA
ATOM     31  C   UNL     1       8.640  -1.567  10.268  1.00  0.00     0.031 C 
ATOM     32  C   UNL     1      10.116  -6.998   7.962  1.00  0.00     0.029 A 
ATOM     33  C   UNL     1       9.571  -5.729   8.093  1.00  0.00     0.049 A 
ATOM     34  H   UNL     1       8.219  -4.734   6.820  1.00  0.00     0.167 HD
ATOM     35  C   UNL     1       9.198  -3.552   9.253  1.00  0.00     0.074 A 
ATOM     36  C   UNL     1       9.416  -2.639  10.359  1.00  0.00     0.031 C 
ATOM     37  C   UNL     1       9.788  -4.769   9.146  1.00  0.00     0.034 A 
BRANCH  24  38
ATOM     38  C   UNL     1       8.225  -8.028   4.106  1.00  0.00     0.023 A 
ATOM     39  C   UNL     1       8.929  -7.959   2.886  1.00  0.00     0.012 A 
ATOM     40  C   UNL     1       7.664  -9.254   4.513  1.00  0.00     0.148 A 
ATOM     41  C   UNL     1       9.040  -9.082   2.067  1.00  0.00     0.002 A 
ATOM     42  C   UNL     1       7.814 -10.379   3.711  1.00  0.00     0.091 A 
ATOM     43  F   UNL     1       6.975  -9.290   5.662  1.00  0.00    -0.205 F 
ATOM     44  C   UNL     1       8.489 -10.292   2.482  1.00  0.00     0.022 A 
BRANCH  42  45
ATOM     45  S   UNL     1       7.185 -11.995   4.177  1.00  0.00     0.127 S 
ATOM     46  O   UNL     1       6.165 -12.222   3.153  1.00  0.00    -0.237 OA
ATOM     47  O   UNL     1       8.377 -12.833   4.047  1.00  0.00    -0.237 OA
ATOM     48  O   UNL     1       6.679 -11.856   5.535  1.00  0.00    -0.744 OA
ENDBRANCH  42  45
ENDBRANCH  24  38
BRANCH  25  49
ATOM     49  C   UNL     1       6.835   0.545   9.258  1.00  0.00     0.023 A 
ATOM     50  C   UNL     1       7.898   1.444   9.472  1.00  0.00     0.012 A 
ATOM     51  C   UNL     1       5.565   0.855   9.786  1.00  0.00     0.148 A 
ATOM     52  C   UNL     1       7.708   2.604  10.226  1.00  0.00     0.002 A 
ATOM     53  C   UNL     1       5.368   2.042  10.483  1.00  0.00     0.091 A 
ATOM     54  F   UNL     1       4.566  -0.019   9.599  1.00  0.00    -0.205 F 
ATOM     55  C   UNL     1       6.443   2.909  10.722  1.00  0.00     0.022 A 
BRANCH  53  56
ATOM     56  S   UNL     1       3.740   2.563  11.037  1.00  0.00     0.127 S 
ATOM     57  O   UNL     1       3.809   2.286  12.469  1.00  0.00    -0.237 OA
ATOM     58  O   UNL     1       3.736   3.983  10.684  1.00  0.00    -0.237 OA
ATOM     59  O   UNL     1       2.795   1.758  10.276  1.00  0.00    -0.744 OA
ENDBRANCH  53  56
ENDBRANCH  25  49
BRANCH  37  60
ATOM     60  C   UNL     1      10.744  -5.158  10.239  1.00  0.00     0.023 A 
ATOM     61  C   UNL     1      10.249  -5.504  11.512  1.00  0.00     0.012 A 
ATOM     62  C   UNL     1      12.124  -5.246   9.979  1.00  0.00     0.148 A 
ATOM     63  C   UNL     1      11.122  -5.897  12.524  1.00  0.00     0.002 A 
ATOM     64  C   UNL     1      12.981  -5.692  10.975  1.00  0.00     0.091 A 
ATOM     65  F   UNL     1      12.572  -4.890   8.766  1.00  0.00    -0.205 F 
ATOM     66  C   UNL     1      12.485  -6.003  12.252  1.00  0.00     0.022 A 
BRANCH  64  67
ATOM     67  S   UNL     1      14.730  -5.961  10.678  1.00  0.00     0.127 S 
ATOM     68  O   UNL     1      15.329  -4.822  11.371  1.00  0.00    -0.237 OA
ATOM     69  O   UNL     1      14.958  -7.256  11.321  1.00  0.00    -0.237 OA
ATOM     70  O   UNL     1      14.893  -5.972   9.230  1.00  0.00    -0.744 OA
ENDBRANCH  64  67
ENDBRANCH  37  60
ENDBRANCH  11  12
ENDBRANCH   4   6
ENDBRANCH   3   4
ENDBRANCH   2   3
ENDBRANCH   1   2
BRANCH   1  71
ATOM     71  O   UNL     1       4.014   1.749   0.082  1.00  0.00    -0.374 OA
BRANCH  71  72
ATOM     72  C   UNL     1       2.706   2.197   0.454  1.00  0.00     0.202 C 
BRANCH  72  73
ATOM     73  C   UNL     1       2.834   3.490   1.272  1.00  0.00     0.261 C 
BRANCH  73  74
ATOM     74  O   UNL     1       3.418   4.500   0.434  1.00  0.00    -0.460 OA
BRANCH  74  75
ATOM     75  C   UNL     1       4.777   4.448   0.336  1.00  0.00     0.338 C 
ATOM     76  O   UNL     1       5.573   4.036   1.146  1.00  0.00    -0.246 OA
BRANCH  75  77
ATOM     77  C   UNL     1       5.092   4.754  -1.078  1.00  0.00     0.062 A 
ATOM     78  C   UNL     1       6.051   3.988  -1.748  1.00  0.00     0.016 A 
ATOM     79  C   UNL     1       4.345   5.704  -1.766  1.00  0.00     0.044 A 
ATOM     80  C   UNL     1       6.170   4.087  -3.135  1.00  0.00     0.003 A 
ATOM     81  C   UNL     1       4.490   5.830  -3.146  1.00  0.00     0.067 A 
ATOM     82  C   UNL     1       5.366   4.986  -3.839  1.00  0.00     0.028 A 
BRANCH  81  83
ATOM     83  N   UNL     1       3.869   6.922  -3.792  1.00  0.00    -0.221 N 
ATOM     84  N   UNL     1       4.138   8.169  -3.218  1.00  0.00    -0.260 N 
ATOM     85  C   UNL     1       3.264   6.798  -5.036  1.00  0.00     0.249 C 
ATOM     86  C   UNL     1       3.847   9.367  -3.792  1.00  0.00     0.243 C 
ATOM     87  H   UNL     1       4.569   8.181  -2.333  1.00  0.00     0.192 HD
ATOM     88  C   UNL     1       3.234   8.063  -5.859  1.00  0.00     0.097 C 
ATOM     89  O   UNL     1       2.889   5.732  -5.527  1.00  0.00    -0.272 OA
ATOM     90  O   UNL     1       4.213  10.407  -3.252  1.00  0.00    -0.273 OA
ATOM     91  C   UNL     1       2.977   9.317  -5.026  1.00  0.00     0.097 C 
ATOM     92  C   UNL     1       4.566   8.086  -6.625  1.00  0.00     0.041 C 
ATOM     93  C   UNL     1       3.140  10.597  -5.861  1.00  0.00     0.041 C 
ATOM     94  C   UNL     1       4.949   9.433  -7.142  1.00  0.00    -0.030 C 
ATOM     95  C   UNL     1       4.305  10.558  -6.809  1.00  0.00    -0.030 C 
ENDBRANCH  81  83
ENDBRANCH  75  77
ENDBRANCH  74  75
ENDBRANCH  73  74
ENDBRANCH  72  73
ENDBRANCH  71  72
ENDBRANCH   1  71
TORSDOF 18
