REMARK SMILES Nc1c(Cl)ccc2c1C=C(C(=O)OCCOCCOC(=O)c1ccc(-c3c4nc(c(-c5cccc(S(=O)(=O)[O-])c5F)c5ccc([nH]5)c(-c5cccc(S(=O)(=O)[O-])c5F)c5nc(c(-c6cccc(S(=O)(=O)[O-])c6F)c6ccc3[nH]6)C=C5)C=C4)cc1)[C@@H](C(F)(F)F)O2
REMARK SMILES IDX 17 1 16 2 15 3 14 4 13 5 11 6 12 7 10 8 2 9 3 10 8 11 4 12
REMARK SMILES IDX 5 13 7 14 9 15 6 16 90 17 85 18 1 19 86 22 87 23 88 24 89 25
REMARK SMILES IDX 18 26 19 27 20 28 21 29 22 30 23 31 84 32 24 33 83 34 25 35
REMARK SMILES IDX 26 36 27 37 77 38 28 39 82 40 76 41 78 42 29 43 81 44 75 45
REMARK SMILES IDX 74 46 30 48 62 49 42 50 61 51 43 52 46 53 60 54 79 55 44 56
REMARK SMILES IDX 45 57 59 59 80 60 47 61 31 62 32 63 40 64 33 65 35 66 41 67
REMARK SMILES IDX 34 68 36 69 37 70 38 71 39 72 63 73 64 74 72 75 65 76 67 77
REMARK SMILES IDX 73 78 66 79 68 80 69 81 70 82 71 83 48 84 49 85 57 86 50 87
REMARK SMILES IDX 52 88 58 89 51 90 53 91 54 92 55 93 56 94
REMARK H PARENT 1 20 1 21 78 47 46 58
REMARK Flexibility Score: inf
ROOT
ATOM      1  C   UNL     1      -3.184  -3.357   0.655  1.00  0.00     0.202 C 
ENDROOT
BRANCH   1   2
ATOM      2  O   UNL     1      -2.926  -4.545   1.407  1.00  0.00    -0.374 OA
BRANCH   2   3
ATOM      3  C   UNL     1      -3.650  -4.725   2.622  1.00  0.00     0.202 C 
BRANCH   3   4
ATOM      4  C   UNL     1      -3.125  -3.974   3.849  1.00  0.00     0.261 C 
BRANCH   4   5
ATOM      5  O   UNL     1      -3.017  -2.563   3.602  1.00  0.00    -0.460 OA
BRANCH   5   6
ATOM      6  C   UNL     1      -1.749  -2.096   3.550  1.00  0.00     0.338 C 
ATOM      7  O   UNL     1      -0.727  -2.716   3.807  1.00  0.00    -0.246 OA
BRANCH   6   8
ATOM      8  C   UNL     1      -1.742  -0.734   2.984  1.00  0.00     0.088 C 
ATOM      9  C   UNL     1       0.395   1.200   0.645  1.00  0.00     0.061 A 
ATOM     10  C   UNL     1       0.581   2.565   0.340  1.00  0.00     0.064 A 
ATOM     11  C   UNL     1      -0.637   0.856   1.549  1.00  0.00     0.042 A 
ATOM     12  Cl  UNL     1       1.891   3.072  -0.676  1.00  0.00    -0.082 Cl
ATOM     13  C   UNL     1      -0.284   3.544   0.830  1.00  0.00     0.026 A 
ATOM     14  C   UNL     1      -1.527   1.839   2.004  1.00  0.00     0.130 A 
ATOM     15  C   UNL     1      -0.780  -0.493   2.085  1.00  0.00     0.029 C 
ATOM     16  C   UNL     1      -1.354   3.175   1.640  1.00  0.00     0.049 A 
ATOM     17  O   UNL     1      -2.604   1.590   2.807  1.00  0.00    -0.475 OA
ATOM     18  C   UNL     1      -2.746   0.286   3.434  1.00  0.00     0.316 C 
BRANCH   9  19
ATOM     19  N   UNL     1       1.298   0.243   0.158  1.00  0.00    -0.397 N 
ATOM     20  H   UNL     1       2.007   0.511  -0.470  1.00  0.00     0.156 HD
ATOM     21  H   UNL     1       1.223  -0.696   0.445  1.00  0.00     0.156 HD
ENDBRANCH   9  19
BRANCH  18  22
ATOM     22  C   UNL     1      -2.741   0.482   4.958  1.00  0.00     0.430 C 
ATOM     23  F   UNL     1      -3.613   1.446   5.331  1.00  0.00    -0.167 F 
ATOM     24  F   UNL     1      -3.096  -0.649   5.609  1.00  0.00    -0.167 F 
ATOM     25  F   UNL     1      -1.517   0.842   5.410  1.00  0.00    -0.167 F 
ENDBRANCH  18  22
ENDBRANCH   6   8
ENDBRANCH   5   6
ENDBRANCH   4   5
ENDBRANCH   3   4
ENDBRANCH   2   3
ENDBRANCH   1   2
BRANCH   1  26
ATOM     26  C   UNL     1      -4.542  -3.257  -0.051  1.00  0.00     0.261 C 
BRANCH  26  27
ATOM     27  O   UNL     1      -5.615  -3.023   0.880  1.00  0.00    -0.460 OA
BRANCH  27  28
ATOM     28  C   UNL     1      -6.553  -3.999   0.926  1.00  0.00     0.338 C 
ATOM     29  O   UNL     1      -6.604  -5.009   0.240  1.00  0.00    -0.246 OA
BRANCH  28  30
ATOM     30  C   UNL     1      -7.445  -3.778   2.075  1.00  0.00     0.060 A 
ATOM     31  C   UNL     1      -7.458  -4.744   3.090  1.00  0.00     0.016 A 
ATOM     32  C   UNL     1      -8.334  -2.702   2.099  1.00  0.00     0.016 A 
ATOM     33  C   UNL     1      -8.396  -4.661   4.115  1.00  0.00     0.010 A 
ATOM     34  C   UNL     1      -9.287  -2.632   3.118  1.00  0.00     0.010 A 
ATOM     35  C   UNL     1      -9.345  -3.631   4.105  1.00  0.00    -0.014 A 
BRANCH  35  36
ATOM     36  C   UNL     1     -10.500  -3.701   5.026  1.00  0.00     0.031 A 
ATOM     37  C   UNL     1     -11.769  -4.349   4.548  1.00  0.00     0.074 A 
ATOM     38  C   UNL     1     -10.414  -3.213   6.275  1.00  0.00     0.049 A 
ATOM     39  N   UNL     1     -12.900  -4.512   5.180  1.00  0.00    -0.248 NA
ATOM     40  C   UNL     1     -11.759  -4.891   3.178  1.00  0.00     0.031 C 
ATOM     41  C   UNL     1      -9.227  -2.589   6.856  1.00  0.00     0.029 A 
ATOM     42  N   UNL     1     -11.352  -3.159   7.273  1.00  0.00    -0.354 N 
ATOM     43  C   UNL     1     -13.739  -5.166   4.287  1.00  0.00     0.074 A 
ATOM     44  C   UNL     1     -12.993  -5.358   3.063  1.00  0.00     0.031 C 
ATOM     45  C   UNL     1      -9.514  -2.198   8.109  1.00  0.00     0.029 A 
ATOM     46  C   UNL     1     -10.906  -2.530   8.410  1.00  0.00     0.049 A 
ATOM     47  H   UNL     1     -12.257  -3.535   7.184  1.00  0.00     0.167 HD
ATOM     48  C   UNL     1     -15.010  -5.589   4.476  1.00  0.00     0.034 A 
ATOM     49  C   UNL     1     -11.552  -2.247   9.558  1.00  0.00     0.034 A 
ATOM     50  C   UNL     1     -15.749  -5.404   5.693  1.00  0.00     0.049 A 
ATOM     51  C   UNL     1     -12.984  -2.673   9.728  1.00  0.00     0.074 A 
ATOM     52  C   UNL     1     -17.039  -5.808   5.984  1.00  0.00     0.029 A 
ATOM     53  N   UNL     1     -15.265  -4.757   6.819  1.00  0.00    -0.354 N 
ATOM     54  N   UNL     1     -13.742  -3.350   8.900  1.00  0.00    -0.248 NA
ATOM     55  C   UNL     1     -13.643  -2.317  10.993  1.00  0.00     0.031 C 
ATOM     56  C   UNL     1     -17.340  -5.397   7.286  1.00  0.00     0.029 A 
ATOM     57  C   UNL     1     -16.232  -4.746   7.808  1.00  0.00     0.049 A 
ATOM     58  H   UNL     1     -14.367  -4.364   6.903  1.00  0.00     0.167 HD
ATOM     59  C   UNL     1     -14.960  -3.521   9.550  1.00  0.00     0.074 A 
ATOM     60  C   UNL     1     -14.835  -2.884  10.845  1.00  0.00     0.031 C 
ATOM     61  C   UNL     1     -16.080  -4.143   9.107  1.00  0.00     0.034 A 
BRANCH  48  62
ATOM     62  C   UNL     1     -15.666  -6.336   3.351  1.00  0.00     0.023 A 
ATOM     63  C   UNL     1     -15.337  -7.691   3.146  1.00  0.00     0.012 A 
ATOM     64  C   UNL     1     -16.636  -5.724   2.536  1.00  0.00     0.148 A 
ATOM     65  C   UNL     1     -15.953  -8.424   2.134  1.00  0.00     0.002 A 
ATOM     66  C   UNL     1     -17.267  -6.469   1.546  1.00  0.00     0.091 A 
ATOM     67  F   UNL     1     -16.914  -4.428   2.736  1.00  0.00    -0.205 F 
ATOM     68  C   UNL     1     -16.923  -7.816   1.341  1.00  0.00     0.022 A 
BRANCH  66  69
ATOM     69  S   UNL     1     -18.561  -5.795   0.500  1.00  0.00     0.127 S 
ATOM     70  O   UNL     1     -17.892  -5.742  -0.799  1.00  0.00    -0.237 OA
ATOM     71  O   UNL     1     -19.606  -6.813   0.607  1.00  0.00    -0.237 OA
ATOM     72  O   UNL     1     -18.910  -4.502   1.073  1.00  0.00    -0.744 OA
ENDBRANCH  66  69
ENDBRANCH  48  62
BRANCH  49  73
ATOM     73  C   UNL     1     -10.809  -1.569  10.653  1.00  0.00     0.023 A 
ATOM     74  C   UNL     1     -10.355  -2.331  11.746  1.00  0.00     0.012 A 
ATOM     75  C   UNL     1     -10.472  -0.204  10.572  1.00  0.00     0.148 A 
ATOM     76  C   UNL     1      -9.574  -1.745  12.741  1.00  0.00     0.002 A 
ATOM     77  C   UNL     1      -9.665   0.365  11.549  1.00  0.00     0.091 A 
ATOM     78  F   UNL     1     -10.916   0.494   9.518  1.00  0.00    -0.205 F 
ATOM     79  C   UNL     1      -9.221  -0.401  12.638  1.00  0.00     0.022 A 
BRANCH  77  80
ATOM     80  S   UNL     1      -9.077   2.060  11.458  1.00  0.00     0.127 S 
ATOM     81  O   UNL     1      -9.588   2.622  12.707  1.00  0.00    -0.237 OA
ATOM     82  O   UNL     1      -7.628   1.867  11.416  1.00  0.00    -0.237 OA
ATOM     83  O   UNL     1      -9.657   2.619  10.245  1.00  0.00    -0.744 OA
ENDBRANCH  77  80
ENDBRANCH  49  73
BRANCH  61  84
ATOM     84  C   UNL     1     -17.277  -4.183  10.016  1.00  0.00     0.023 A 
ATOM     85  C   UNL     1     -18.111  -3.052  10.105  1.00  0.00     0.012 A 
ATOM     86  C   UNL     1     -17.652  -5.378  10.661  1.00  0.00     0.148 A 
ATOM     87  C   UNL     1     -19.302  -3.109  10.827  1.00  0.00     0.002 A 
ATOM     88  C   UNL     1     -18.857  -5.437  11.351  1.00  0.00     0.091 A 
ATOM     89  F   UNL     1     -16.837  -6.438  10.563  1.00  0.00    -0.205 F 
ATOM     90  C   UNL     1     -19.681  -4.302  11.438  1.00  0.00     0.022 A 
BRANCH  88  91
ATOM     91  S   UNL     1     -19.470  -6.948  12.106  1.00  0.00     0.127 S 
ATOM     92  O   UNL     1     -19.431  -6.607  13.527  1.00  0.00    -0.237 OA
ATOM     93  O   UNL     1     -20.815  -7.051  11.540  1.00  0.00    -0.237 OA
ATOM     94  O   UNL     1     -18.555  -8.005  11.698  1.00  0.00    -0.744 OA
ENDBRANCH  88  91
ENDBRANCH  61  84
ENDBRANCH  35  36
ENDBRANCH  28  30
ENDBRANCH  27  28
ENDBRANCH  26  27
ENDBRANCH   1  26
TORSDOF 19
