REMARK SMILES O=C(CCC(=O)N1CCC(c2nnc3ccccn23)CC1)OCCOCCOC(=O)c1ccc(-c2c3nc(c(-c4cccc(S(=O)(=O)[O-])c4F)c4ccc([nH]4)c(-c4cccc(S(=O)(=O)[O-])c4F)c4nc(c(-c5cccc(S(=O)(=O)[O-])c5F)c5ccc2[nH]5)C=C4)C=C3)cc1
REMARK SMILES IDX 25 1 24 2 23 3 22 4 2 5 1 6 3 7 4 8 5 9 6 10 7 11 8 12 21 13
REMARK SMILES IDX 9 14 20 15 10 16 11 17 12 18 19 19 13 20 14 21 18 22 15 23
REMARK SMILES IDX 17 24 16 25 26 26 27 27 28 28 29 29 30 30 31 31 32 32 93 33
REMARK SMILES IDX 33 34 92 35 34 36 35 37 36 38 86 39 37 40 91 41 85 42 87 43
REMARK SMILES IDX 38 44 90 45 84 46 83 47 39 49 71 50 51 51 70 52 52 53 55 54
REMARK SMILES IDX 69 55 88 56 53 57 54 58 68 60 89 61 56 62 40 63 41 64 49 65
REMARK SMILES IDX 42 66 44 67 50 68 43 69 45 70 46 71 47 72 48 73 72 74 73 75
REMARK SMILES IDX 81 76 74 77 76 78 82 79 75 80 77 81 78 82 79 83 80 84 57 85
REMARK SMILES IDX 58 86 66 87 59 88 61 89 67 90 60 91 62 92 63 93 64 94 65 95
REMARK H PARENT 87 48 55 59
REMARK Flexibility Score: inf
ROOT
ATOM      1  O   UNL     1       4.511  -2.881   0.036  1.00  0.00    -0.374 OA
ENDROOT
BRANCH   1   2
ATOM      2  C   UNL     1       5.311  -1.886   0.668  1.00  0.00     0.202 C 
BRANCH   2   3
ATOM      3  C   UNL     1       4.913  -0.424   0.443  1.00  0.00     0.261 C 
BRANCH   3   4
ATOM      4  O   UNL     1       3.506  -0.192   0.631  1.00  0.00    -0.463 OA
BRANCH   4   5
ATOM      5  C   UNL     1       2.611   0.046  -0.349  1.00  0.00     0.306 C 
ATOM      6  O   UNL     1       1.411   0.129  -0.085  1.00  0.00    -0.252 OA
BRANCH   5   7
ATOM      7  C   UNL     1       3.082   0.262  -1.755  1.00  0.00     0.132 C 
BRANCH   7   8
ATOM      8  C   UNL     1       3.086   1.747  -2.070  1.00  0.00     0.112 C 
BRANCH   8   9
ATOM      9  C   UNL     1       4.285   2.454  -1.479  1.00  0.00     0.223 C 
ATOM     10  O   UNL     1       5.394   2.255  -1.982  1.00  0.00    -0.275 OA
ATOM     11  N   UNL     1       4.097   3.333  -0.427  1.00  0.00    -0.343 N 
ATOM     12  C   UNL     1       5.184   4.229  -0.069  1.00  0.00     0.120 C 
ATOM     13  C   UNL     1       2.975   3.363   0.514  1.00  0.00     0.120 C 
ATOM     14  C   UNL     1       5.762   3.831   1.267  1.00  0.00     0.033 C 
ATOM     15  C   UNL     1       3.442   2.999   1.928  1.00  0.00     0.033 C 
ATOM     16  C   UNL     1       4.694   3.783   2.380  1.00  0.00     0.062 C 
BRANCH  16  17
ATOM     17  C   UNL     1       5.361   3.121   3.548  1.00  0.00     0.140 A 
ATOM     18  N   UNL     1       5.340   1.823   3.780  1.00  0.00    -0.134 NA
ATOM     19  N   UNL     1       6.382   3.698   4.281  1.00  0.00    -0.286 N 
ATOM     20  N   UNL     1       6.442   1.510   4.525  1.00  0.00    -0.130 NA
ATOM     21  C   UNL     1       7.071   2.622   4.820  1.00  0.00     0.160 A 
ATOM     22  C   UNL     1       6.805   5.018   4.420  1.00  0.00     0.095 A 
ATOM     23  C   UNL     1       8.259   2.888   5.549  1.00  0.00     0.050 A 
ATOM     24  C   UNL     1       7.946   5.268   5.085  1.00  0.00     0.019 A 
ATOM     25  C   UNL     1       8.690   4.159   5.665  1.00  0.00     0.005 A 
ENDBRANCH  16  17
ENDBRANCH   8   9
ENDBRANCH   7   8
ENDBRANCH   5   7
ENDBRANCH   4   5
ENDBRANCH   3   4
ENDBRANCH   2   3
ENDBRANCH   1   2
BRANCH   1  26
ATOM     26  C   UNL     1       3.200  -3.123   0.549  1.00  0.00     0.202 C 
BRANCH  26  27
ATOM     27  C   UNL     1       3.014  -3.540   2.016  1.00  0.00     0.261 C 
BRANCH  27  28
ATOM     28  O   UNL     1       3.410  -2.559   2.993  1.00  0.00    -0.460 OA
BRANCH  28  29
ATOM     29  C   UNL     1       4.431  -2.944   3.797  1.00  0.00     0.338 C 
ATOM     30  O   UNL     1       5.083  -3.982   3.683  1.00  0.00    -0.246 OA
BRANCH  29  31
ATOM     31  C   UNL     1       4.774  -1.932   4.816  1.00  0.00     0.060 A 
ATOM     32  C   UNL     1       6.131  -1.696   5.045  1.00  0.00     0.016 A 
ATOM     33  C   UNL     1       3.812  -1.331   5.638  1.00  0.00     0.016 A 
ATOM     34  C   UNL     1       6.527  -0.885   6.108  1.00  0.00     0.010 A 
ATOM     35  C   UNL     1       4.215  -0.521   6.717  1.00  0.00     0.010 A 
ATOM     36  C   UNL     1       5.577  -0.301   6.968  1.00  0.00    -0.014 A 
BRANCH  36  37
ATOM     37  C   UNL     1       6.095   0.383   8.190  1.00  0.00     0.031 A 
ATOM     38  C   UNL     1       6.802  -0.471   9.202  1.00  0.00     0.074 A 
ATOM     39  C   UNL     1       6.044   1.717   8.376  1.00  0.00     0.049 A 
ATOM     40  N   UNL     1       7.641  -0.132  10.144  1.00  0.00    -0.248 NA
ATOM     41  C   UNL     1       6.514  -1.913   9.129  1.00  0.00     0.031 C 
ATOM     42  C   UNL     1       5.336   2.663   7.524  1.00  0.00     0.029 A 
ATOM     43  N   UNL     1       6.682   2.518   9.303  1.00  0.00    -0.354 N 
ATOM     44  C   UNL     1       7.936  -1.312  10.814  1.00  0.00     0.074 A 
ATOM     45  C   UNL     1       7.250  -2.383  10.123  1.00  0.00     0.031 C 
ATOM     46  C   UNL     1       5.697   3.914   7.863  1.00  0.00     0.029 A 
ATOM     47  C   UNL     1       6.650   3.860   8.969  1.00  0.00     0.049 A 
ATOM     48  H   UNL     1       7.114   2.171  10.116  1.00  0.00     0.167 HD
ATOM     49  C   UNL     1       8.661  -1.489  11.942  1.00  0.00     0.034 A 
ATOM     50  C   UNL     1       7.373   4.895   9.451  1.00  0.00     0.034 A 
ATOM     51  C   UNL     1       9.285  -0.429  12.679  1.00  0.00     0.049 A 
ATOM     52  C   UNL     1       8.294   4.659  10.627  1.00  0.00     0.074 A 
ATOM     53  C   UNL     1       9.956  -0.494  13.886  1.00  0.00     0.029 A 
ATOM     54  N   UNL     1       9.283   0.900  12.289  1.00  0.00    -0.354 N 
ATOM     55  N   UNL     1       8.691   3.531  11.163  1.00  0.00    -0.248 NA
ATOM     56  C   UNL     1       8.867   5.858  11.265  1.00  0.00     0.031 C 
ATOM     57  C   UNL     1      10.340   0.805  14.240  1.00  0.00     0.029 A 
ATOM     58  C   UNL     1       9.931   1.671  13.238  1.00  0.00     0.049 A 
ATOM     59  H   UNL     1       8.880   1.246  11.460  1.00  0.00     0.167 HD
ATOM     60  C   UNL     1       9.543   3.885  12.207  1.00  0.00     0.074 A 
ATOM     61  C   UNL     1       9.677   5.326  12.169  1.00  0.00     0.031 C 
ATOM     62  C   UNL     1      10.112   3.096  13.152  1.00  0.00     0.034 A 
BRANCH  49  63
ATOM     63  C   UNL     1       8.705  -2.886  12.487  1.00  0.00     0.023 A 
ATOM     64  C   UNL     1       9.547  -3.850  11.901  1.00  0.00     0.012 A 
ATOM     65  C   UNL     1       7.843  -3.256  13.537  1.00  0.00     0.148 A 
ATOM     66  C   UNL     1       9.500  -5.176  12.328  1.00  0.00     0.002 A 
ATOM     67  C   UNL     1       7.824  -4.571  13.977  1.00  0.00     0.091 A 
ATOM     68  F   UNL     1       7.025  -2.325  14.050  1.00  0.00    -0.205 F 
ATOM     69  C   UNL     1       8.642  -5.536  13.367  1.00  0.00     0.022 A 
BRANCH  67  70
ATOM     70  S   UNL     1       6.773  -5.115  15.326  1.00  0.00     0.127 S 
ATOM     71  O   UNL     1       5.748  -5.876  14.614  1.00  0.00    -0.237 OA
ATOM     72  O   UNL     1       7.692  -5.926  16.124  1.00  0.00    -0.237 OA
ATOM     73  O   UNL     1       6.309  -3.903  15.986  1.00  0.00    -0.744 OA
ENDBRANCH  67  70
ENDBRANCH  49  63
BRANCH  50  74
ATOM     74  C   UNL     1       7.412   6.228   8.761  1.00  0.00     0.023 A 
ATOM     75  C   UNL     1       8.662   6.687   8.282  1.00  0.00     0.012 A 
ATOM     76  C   UNL     1       6.289   7.052   8.583  1.00  0.00     0.148 A 
ATOM     77  C   UNL     1       8.799   7.937   7.678  1.00  0.00     0.002 A 
ATOM     78  C   UNL     1       6.418   8.270   7.915  1.00  0.00     0.091 A 
ATOM     79  F   UNL     1       5.111   6.655   9.084  1.00  0.00    -0.205 F 
ATOM     80  C   UNL     1       7.672   8.724   7.481  1.00  0.00     0.022 A 
BRANCH  78  81
ATOM     81  S   UNL     1       4.979   9.254   7.479  1.00  0.00     0.127 S 
ATOM     82  O   UNL     1       4.895  10.184   8.600  1.00  0.00    -0.237 OA
ATOM     83  O   UNL     1       5.383   9.852   6.206  1.00  0.00    -0.237 OA
ATOM     84  O   UNL     1       3.898   8.284   7.354  1.00  0.00    -0.744 OA
ENDBRANCH  78  81
ENDBRANCH  50  74
BRANCH  62  85
ATOM     85  C   UNL     1      10.903   3.762  14.248  1.00  0.00     0.023 A 
ATOM     86  C   UNL     1      10.223   4.517  15.226  1.00  0.00     0.012 A 
ATOM     87  C   UNL     1      12.290   3.553  14.379  1.00  0.00     0.148 A 
ATOM     88  C   UNL     1      10.912   5.076  16.301  1.00  0.00     0.002 A 
ATOM     89  C   UNL     1      12.963   4.074  15.480  1.00  0.00     0.091 A 
ATOM     90  F   UNL     1      12.926   2.852  13.430  1.00  0.00    -0.205 F 
ATOM     91  C   UNL     1      12.278   4.843  16.436  1.00  0.00     0.022 A 
BRANCH  89  92
ATOM     92  S   UNL     1      14.701   3.734  15.785  1.00  0.00     0.127 S 
ATOM     93  O   UNL     1      15.329   4.982  15.356  1.00  0.00    -0.237 OA
ATOM     94  O   UNL     1      14.727   3.503  17.230  1.00  0.00    -0.237 OA
ATOM     95  O   UNL     1      15.019   2.559  14.985  1.00  0.00    -0.744 OA
ENDBRANCH  89  92
ENDBRANCH  62  85
ENDBRANCH  36  37
ENDBRANCH  29  31
ENDBRANCH  28  29
ENDBRANCH  27  28
ENDBRANCH  26  27
ENDBRANCH   1  26
TORSDOF 20
