REMARK SMILES Cc1ccc(NC(=O)C[C@H]([NH2+]Cc2cccnc2)C(=O)OCCOCCOC(=O)c2ccc(-c3c4nc(c(-c5cccc(S(=O)(=O)[O-])c5F)c5ccc([nH]5)c(-c5cccc(S(=O)(=O)[O-])c5F)c5nc(c(-c6cccc(S(=O)(=O)[O-])c6F)c6ccc3[nH]6)C=C5)C=C4)cc2)cc1Cl
REMARK SMILES IDX 24 1 23 2 22 3 21 4 19 5 20 6 10 7 9 8 7 9 6 10 8 12 5 13
REMARK SMILES IDX 1 14 2 15 3 16 94 17 4 18 93 19 95 20 11 21 12 24 13 25
REMARK SMILES IDX 14 26 18 27 15 28 17 29 16 30 25 31 26 32 27 33 28 34 29 35
REMARK SMILES IDX 30 36 31 37 92 38 32 39 91 40 33 41 34 42 35 43 85 44 36 45
REMARK SMILES IDX 90 46 84 47 86 48 37 49 89 50 83 51 82 52 38 54 70 55 50 56
REMARK SMILES IDX 69 57 51 58 54 59 68 60 87 61 52 62 53 63 67 65 88 66 55 67
REMARK SMILES IDX 39 68 40 69 48 70 41 71 43 72 49 73 42 74 44 75 45 76 46 77
REMARK SMILES IDX 47 78 71 79 72 80 80 81 73 82 75 83 81 84 74 85 76 86 77 87
REMARK SMILES IDX 78 88 79 89 56 90 57 91 65 92 58 93 60 94 66 95 59 96 61 97
REMARK SMILES IDX 62 98 63 99 64 100
REMARK H PARENT 6 11 11 22 11 23 86 53 54 64
REMARK Flexibility Score: inf
ROOT
ATOM      1  O   UNL     1       3.775  -4.837  -1.747  1.00  0.00    -0.374 OA
ENDROOT
BRANCH   1   2
ATOM      2  C   UNL     1       3.920  -3.629  -0.997  1.00  0.00     0.202 C 
BRANCH   2   3
ATOM      3  C   UNL     1       3.114  -2.483  -1.603  1.00  0.00     0.261 C 
BRANCH   3   4
ATOM      4  O   UNL     1       1.756  -2.468  -1.123  1.00  0.00    -0.459 OA
BRANCH   4   5
ATOM      5  C   UNL     1       0.759  -2.815  -1.971  1.00  0.00     0.365 C 
ATOM      6  O   UNL     1       0.917  -3.398  -3.038  1.00  0.00    -0.245 OA
BRANCH   5   7
ATOM      7  C   UNL     1      -0.635  -2.424  -1.431  1.00  0.00     0.303 C 
BRANCH   7   8
ATOM      8  C   UNL     1      -0.620  -1.141  -0.600  1.00  0.00     0.177 C 
BRANCH   8   9
ATOM      9  C   UNL     1       0.410  -0.772   0.460  1.00  0.00     0.231 C 
ATOM     10  N   UNL     1       0.520  -1.320   1.697  1.00  0.00    -0.326 N 
ATOM     11  H   UNL     1       0.840  -0.662   2.354  1.00  0.00     0.169 HD
ATOM     12  O   UNL     1       1.060   0.269   0.271  1.00  0.00    -0.274 OA
BRANCH  10  13
ATOM     13  C   UNL     1       0.299  -2.573   2.291  1.00  0.00     0.042 A 
ATOM     14  C   UNL     1      -0.170  -6.311   4.458  1.00  0.00     0.046 C 
ATOM     15  C   UNL     1      -0.011  -5.027   3.696  1.00  0.00    -0.032 A 
ATOM     16  C   UNL     1       0.040  -3.809   4.381  1.00  0.00     0.007 A 
ATOM     17  C   UNL     1       0.106  -4.998   2.303  1.00  0.00     0.046 A 
ATOM     18  C   UNL     1       0.196  -2.602   3.686  1.00  0.00     0.026 A 
ATOM     19  C   UNL     1       0.309  -3.787   1.623  1.00  0.00     0.047 A 
ATOM     20  Cl  UNL     1       0.010  -6.452   1.370  1.00  0.00    -0.084 Cl
ENDBRANCH  10  13
ENDBRANCH   8   9
ENDBRANCH   7   8
BRANCH   7  21
ATOM     21  N   UNL     1      -1.331  -3.581  -0.826  1.00  0.00    -0.330 N 
ATOM     22  H   UNL     1      -0.861  -3.808   0.051  1.00  0.00     0.347 HD
ATOM     23  H   UNL     1      -1.288  -4.330  -1.516  1.00  0.00     0.347 HD
BRANCH  21  24
ATOM     24  C   UNL     1      -2.749  -3.373  -0.538  1.00  0.00     0.299 C 
BRANCH  24  25
ATOM     25  C   UNL     1      -3.152  -4.020   0.760  1.00  0.00     0.024 A 
ATOM     26  C   UNL     1      -3.425  -5.387   0.852  1.00  0.00     0.013 A 
ATOM     27  C   UNL     1      -3.241  -3.278   1.937  1.00  0.00     0.120 A 
ATOM     28  C   UNL     1      -3.769  -5.945   2.083  1.00  0.00     0.021 A 
ATOM     29  N   UNL     1      -3.595  -3.788   3.140  1.00  0.00    -0.264 NA
ATOM     30  C   UNL     1      -3.839  -5.113   3.187  1.00  0.00     0.111 A 
ENDBRANCH  24  25
ENDBRANCH  21  24
ENDBRANCH   7  21
ENDBRANCH   5   7
ENDBRANCH   4   5
ENDBRANCH   3   4
ENDBRANCH   2   3
ENDBRANCH   1   2
BRANCH   1  31
ATOM     31  C   UNL     1       2.718  -5.695  -1.309  1.00  0.00     0.202 C 
BRANCH  31  32
ATOM     32  C   UNL     1       3.179  -6.635  -0.196  1.00  0.00     0.261 C 
BRANCH  32  33
ATOM     33  O   UNL     1       3.314  -5.894   1.031  1.00  0.00    -0.460 OA
BRANCH  33  34
ATOM     34  C   UNL     1       4.391  -6.224   1.771  1.00  0.00     0.338 C 
ATOM     35  O   UNL     1       5.159  -7.158   1.582  1.00  0.00    -0.246 OA
BRANCH  34  36
ATOM     36  C   UNL     1       4.625  -5.202   2.804  1.00  0.00     0.060 A 
ATOM     37  C   UNL     1       5.864  -4.558   2.805  1.00  0.00     0.016 A 
ATOM     38  C   UNL     1       3.709  -4.977   3.833  1.00  0.00     0.016 A 
ATOM     39  C   UNL     1       6.227  -3.760   3.888  1.00  0.00     0.010 A 
ATOM     40  C   UNL     1       4.065  -4.153   4.908  1.00  0.00     0.010 A 
ATOM     41  C   UNL     1       5.354  -3.598   4.975  1.00  0.00    -0.014 A 
BRANCH  41  42
ATOM     42  C   UNL     1       5.880  -3.009   6.235  1.00  0.00     0.031 A 
ATOM     43  C   UNL     1       6.200  -3.917   7.398  1.00  0.00     0.074 A 
ATOM     44  C   UNL     1       6.139  -1.692   6.330  1.00  0.00     0.049 A 
ATOM     45  N   UNL     1       6.783  -3.631   8.534  1.00  0.00    -0.248 NA
ATOM     46  C   UNL     1       5.809  -5.331   7.268  1.00  0.00     0.031 C 
ATOM     47  C   UNL     1       5.849  -0.697   5.299  1.00  0.00     0.029 A 
ATOM     48  N   UNL     1       6.710  -0.966   7.347  1.00  0.00    -0.354 N 
ATOM     49  C   UNL     1       6.811  -4.819   9.258  1.00  0.00     0.074 A 
ATOM     50  C   UNL     1       6.156  -5.822   8.448  1.00  0.00     0.031 C 
ATOM     51  C   UNL     1       6.245   0.511   5.736  1.00  0.00     0.029 A 
ATOM     52  C   UNL     1       6.818   0.377   7.074  1.00  0.00     0.049 A 
ATOM     53  H   UNL     1       7.013  -1.370   8.192  1.00  0.00     0.167 HD
ATOM     54  C   UNL     1       7.363  -5.068  10.469  1.00  0.00     0.034 A 
ATOM     55  C   UNL     1       7.335   1.380   7.812  1.00  0.00     0.034 A 
ATOM     56  C   UNL     1       8.062  -4.091  11.257  1.00  0.00     0.049 A 
ATOM     57  C   UNL     1       7.980   1.071   9.138  1.00  0.00     0.074 A 
ATOM     58  C   UNL     1       8.712  -4.266  12.466  1.00  0.00     0.029 A 
ATOM     59  N   UNL     1       8.205  -2.756  10.916  1.00  0.00    -0.354 N 
ATOM     60  N   UNL     1       8.136  -0.087   9.732  1.00  0.00    -0.248 NA
ATOM     61  C   UNL     1       8.564   2.203   9.875  1.00  0.00     0.031 C 
ATOM     62  C   UNL     1       9.243  -3.032  12.860  1.00  0.00     0.029 A 
ATOM     63  C   UNL     1       8.930  -2.093  11.890  1.00  0.00     0.049 A 
ATOM     64  H   UNL     1       7.843  -2.340  10.100  1.00  0.00     0.167 HD
ATOM     65  C   UNL     1       8.863   0.170  10.889  1.00  0.00     0.074 A 
ATOM     66  C   UNL     1       9.137   1.592  10.903  1.00  0.00     0.031 C 
ATOM     67  C   UNL     1       9.254  -0.690  11.862  1.00  0.00     0.034 A 
BRANCH  54  68
ATOM     68  C   UNL     1       7.289  -6.478  10.991  1.00  0.00     0.023 A 
ATOM     69  C   UNL     1       8.125  -7.465  10.431  1.00  0.00     0.012 A 
ATOM     70  C   UNL     1       6.440  -6.817  12.061  1.00  0.00     0.148 A 
ATOM     71  C   UNL     1       8.098  -8.774  10.909  1.00  0.00     0.002 A 
ATOM     72  C   UNL     1       6.445  -8.116  12.558  1.00  0.00     0.091 A 
ATOM     73  F   UNL     1       5.632  -5.872  12.563  1.00  0.00    -0.205 F 
ATOM     74  C   UNL     1       7.267  -9.097  11.978  1.00  0.00     0.022 A 
BRANCH  72  75
ATOM     75  S   UNL     1       5.459  -8.608  13.977  1.00  0.00     0.127 S 
ATOM     76  O   UNL     1       4.373  -9.350  13.339  1.00  0.00    -0.237 OA
ATOM     77  O   UNL     1       6.397  -9.434  14.738  1.00  0.00    -0.237 OA
ATOM     78  O   UNL     1       5.072  -7.370  14.639  1.00  0.00    -0.744 OA
ENDBRANCH  72  75
ENDBRANCH  54  68
BRANCH  55  79
ATOM     79  C   UNL     1       7.339   2.768   7.270  1.00  0.00     0.023 A 
ATOM     80  C   UNL     1       8.555   3.353   6.867  1.00  0.00     0.012 A 
ATOM     81  C   UNL     1       6.145   3.501   7.132  1.00  0.00     0.148 A 
ATOM     82  C   UNL     1       8.585   4.653   6.359  1.00  0.00     0.002 A 
ATOM     83  C   UNL     1       6.175   4.775   6.577  1.00  0.00     0.091 A 
ATOM     84  F   UNL     1       5.000   2.936   7.543  1.00  0.00    -0.205 F 
ATOM     85  C   UNL     1       7.395   5.359   6.203  1.00  0.00     0.022 A 
BRANCH  83  86
ATOM     86  S   UNL     1       4.673   5.697   6.227  1.00  0.00     0.127 S 
ATOM     87  O   UNL     1       4.656   6.668   7.317  1.00  0.00    -0.237 OA
ATOM     88  O   UNL     1       4.958   6.259   4.906  1.00  0.00    -0.237 OA
ATOM     89  O   UNL     1       3.603   4.708   6.235  1.00  0.00    -0.744 OA
ENDBRANCH  83  86
ENDBRANCH  55  79
BRANCH  67  90
ATOM     90  C   UNL     1      10.043  -0.134  13.019  1.00  0.00     0.023 A 
ATOM     91  C   UNL     1       9.387   0.633  14.002  1.00  0.00     0.012 A 
ATOM     92  C   UNL     1      11.410  -0.436  13.176  1.00  0.00     0.148 A 
ATOM     93  C   UNL     1      10.086   1.116  15.107  1.00  0.00     0.002 A 
ATOM     94  C   UNL     1      12.091   0.014  14.302  1.00  0.00     0.091 A 
ATOM     95  F   UNL     1      12.024  -1.150  12.221  1.00  0.00    -0.205 F 
ATOM     96  C   UNL     1      11.433   0.797  15.264  1.00  0.00     0.022 A 
BRANCH  94  97
ATOM     97  S   UNL     1      13.803  -0.432  14.620  1.00  0.00     0.127 S 
ATOM     98  O   UNL     1      14.512   0.761  14.163  1.00  0.00    -0.237 OA
ATOM     99  O   UNL     1      13.816  -0.631  16.070  1.00  0.00    -0.237 OA
ATOM    100  O   UNL     1      14.041  -1.645  13.848  1.00  0.00    -0.744 OA
ENDBRANCH  94  97
ENDBRANCH  67  90
ENDBRANCH  41  42
ENDBRANCH  34  36
ENDBRANCH  33  34
ENDBRANCH  32  33
ENDBRANCH  31  32
ENDBRANCH   1  31
TORSDOF 23
