REMARK SMILES Cc1[nH]c2ccc(Br)cc2c(=O)c1CCC(=O)OCCOCCOC(=O)c1ccc(-c2c3nc(c(-c4cccc(S(=O)(=O)[O-])c4F)c4ccc([nH]4)c(-c4cccc(S(=O)(=O)[O-])c4F)c4nc(c(-c5cccc(S(=O)(=O)[O-])c5F)c5ccc2[nH]5)C=C4)C=C3)cc1
REMARK SMILES IDX 22 1 21 2 20 3 19 4 18 5 16 6 17 7 15 8 14 9 13 10 1 11 2 12
REMARK SMILES IDX 3 13 4 14 11 16 5 17 10 18 12 19 6 20 9 21 7 22 8 23 23 24
REMARK SMILES IDX 24 25 25 26 26 27 27 28 28 29 89 30 29 31 88 32 30 33 31 34
REMARK SMILES IDX 32 35 82 36 33 37 87 38 81 39 83 40 34 41 86 42 80 43 79 44
REMARK SMILES IDX 35 46 67 47 47 48 66 49 48 50 51 51 65 52 84 53 49 54 50 55
REMARK SMILES IDX 64 57 85 58 52 59 36 60 37 61 45 62 38 63 40 64 46 65 39 66
REMARK SMILES IDX 41 67 42 68 43 69 44 70 68 71 69 72 77 73 70 74 72 75 78 76
REMARK SMILES IDX 71 77 73 78 74 79 75 80 76 81 53 82 54 83 62 84 55 85 57 86
REMARK SMILES IDX 63 87 56 88 58 89 59 90 60 91 61 92
REMARK H PARENT 3 15 83 45 51 56
REMARK Flexibility Score: inf
ROOT
ATOM      1  C   UNL     1       0.179  -6.042   2.182  1.00  0.00     0.202 C 
ENDROOT
BRANCH   1   2
ATOM      2  O   UNL     1       0.805  -6.489   3.385  1.00  0.00    -0.374 OA
BRANCH   2   3
ATOM      3  C   UNL     1       1.136  -5.459   4.320  1.00  0.00     0.202 C 
BRANCH   3   4
ATOM      4  C   UNL     1       2.549  -4.885   4.144  1.00  0.00     0.261 C 
BRANCH   4   5
ATOM      5  O   UNL     1       2.607  -3.792   3.201  1.00  0.00    -0.463 OA
BRANCH   5   6
ATOM      6  C   UNL     1       3.031  -4.064   1.942  1.00  0.00     0.306 C 
ATOM      7  O   UNL     1       3.384  -5.162   1.532  1.00  0.00    -0.252 OA
BRANCH   6   8
ATOM      8  C   UNL     1       3.067  -2.813   1.085  1.00  0.00     0.127 C 
BRANCH   8   9
ATOM      9  C   UNL     1       1.731  -2.438   0.424  1.00  0.00     0.053 C 
BRANCH   9  10
ATOM     10  C   UNL     1       0.950  -1.404   1.198  1.00  0.00     0.020 A 
ATOM     11  C   UNL     1       1.125   0.502  -0.396  1.00  0.00     0.064 C 
ATOM     12  C   UNL     1       0.663  -0.116   0.894  1.00  0.00     0.019 A 
ATOM     13  N   UNL     1      -0.012   0.721   1.780  1.00  0.00    -0.358 N 
ATOM     14  C   UNL     1      -0.069   0.411   3.149  1.00  0.00     0.050 A 
ATOM     15  H   UNL     1      -0.453   1.535   1.444  1.00  0.00     0.166 HD
ATOM     16  C   UNL     1       0.375  -1.878   2.481  1.00  0.00     0.192 A 
ATOM     17  C   UNL     1      -0.238   1.378   4.135  1.00  0.00     0.028 A 
ATOM     18  C   UNL     1       0.253  -0.888   3.546  1.00  0.00     0.047 A 
ATOM     19  O   UNL     1       0.039  -3.030   2.648  1.00  0.00    -0.289 OA
ATOM     20  C   UNL     1       0.125   1.081   5.455  1.00  0.00     0.018 A 
ATOM     21  C   UNL     1       0.603  -1.211   4.848  1.00  0.00     0.030 A 
ATOM     22  C   UNL     1       0.638  -0.179   5.770  1.00  0.00     0.018 A 
ATOM     23  Br  UNL     1       1.664  -0.415   7.333  1.00  0.00    -0.051 Br
ENDBRANCH   9  10
ENDBRANCH   8   9
ENDBRANCH   6   8
ENDBRANCH   5   6
ENDBRANCH   4   5
ENDBRANCH   3   4
ENDBRANCH   2   3
ENDBRANCH   1   2
BRANCH   1  24
ATOM     24  C   UNL     1      -1.355  -5.947   2.247  1.00  0.00     0.261 C 
BRANCH  24  25
ATOM     25  O   UNL     1      -1.822  -4.949   3.172  1.00  0.00    -0.460 OA
BRANCH  25  26
ATOM     26  C   UNL     1      -2.186  -5.393   4.396  1.00  0.00     0.338 C 
ATOM     27  O   UNL     1      -2.299  -6.562   4.734  1.00  0.00    -0.246 OA
BRANCH  26  28
ATOM     28  C   UNL     1      -2.315  -4.259   5.354  1.00  0.00     0.060 A 
ATOM     29  C   UNL     1      -2.631  -2.954   4.964  1.00  0.00     0.016 A 
ATOM     30  C   UNL     1      -2.118  -4.535   6.713  1.00  0.00     0.016 A 
ATOM     31  C   UNL     1      -2.761  -1.945   5.934  1.00  0.00     0.010 A 
ATOM     32  C   UNL     1      -2.277  -3.534   7.680  1.00  0.00     0.010 A 
ATOM     33  C   UNL     1      -2.605  -2.224   7.309  1.00  0.00    -0.014 A 
BRANCH  33  34
ATOM     34  C   UNL     1      -2.948  -1.193   8.334  1.00  0.00     0.031 A 
ATOM     35  C   UNL     1      -1.948  -0.600   9.290  1.00  0.00     0.074 A 
ATOM     36  C   UNL     1      -4.232  -0.802   8.457  1.00  0.00     0.049 A 
ATOM     37  N   UNL     1      -2.042   0.514   9.976  1.00  0.00    -0.248 NA
ATOM     38  C   UNL     1      -0.690  -1.323   9.509  1.00  0.00     0.031 C 
ATOM     39  C   UNL     1      -5.359  -1.366   7.716  1.00  0.00     0.029 A 
ATOM     40  N   UNL     1      -4.805   0.143   9.273  1.00  0.00    -0.354 N 
ATOM     41  C   UNL     1      -0.820   0.677  10.615  1.00  0.00     0.074 A 
ATOM     42  C   UNL     1      -0.029  -0.490  10.308  1.00  0.00     0.031 C 
ATOM     43  C   UNL     1      -6.488  -0.758   8.111  1.00  0.00     0.029 A 
ATOM     44  C   UNL     1      -6.168   0.234   9.135  1.00  0.00     0.049 A 
ATOM     45  H   UNL     1      -4.287   0.702   9.897  1.00  0.00     0.167 HD
ATOM     46  C   UNL     1      -0.385   1.721  11.357  1.00  0.00     0.034 A 
ATOM     47  C   UNL     1      -7.067   1.021   9.758  1.00  0.00     0.034 A 
ATOM     48  C   UNL     1      -1.226   2.783  11.836  1.00  0.00     0.049 A 
ATOM     49  C   UNL     1      -6.611   2.050  10.750  1.00  0.00     0.074 A 
ATOM     50  C   UNL     1      -0.870   3.889  12.589  1.00  0.00     0.029 A 
ATOM     51  N   UNL     1      -2.603   2.806  11.713  1.00  0.00    -0.354 N 
ATOM     52  N   UNL     1      -5.388   2.394  11.069  1.00  0.00    -0.248 NA
ATOM     53  C   UNL     1      -7.652   2.816  11.452  1.00  0.00     0.031 C 
ATOM     54  C   UNL     1      -2.042   4.541  12.983  1.00  0.00     0.029 A 
ATOM     55  C   UNL     1      -3.121   3.857  12.447  1.00  0.00     0.049 A 
ATOM     56  H   UNL     1      -3.135   2.170  11.183  1.00  0.00     0.167 HD
ATOM     57  C   UNL     1      -5.510   3.425  11.994  1.00  0.00     0.074 A 
ATOM     58  C   UNL     1      -6.927   3.657  12.181  1.00  0.00     0.031 C 
ATOM     59  C   UNL     1      -4.527   4.109  12.627  1.00  0.00     0.034 A 
BRANCH  46  60
ATOM     60  C   UNL     1       1.082   1.820  11.667  1.00  0.00     0.023 A 
ATOM     61  C   UNL     1       1.909   2.476  10.731  1.00  0.00     0.012 A 
ATOM     62  C   UNL     1       1.610   1.434  12.911  1.00  0.00     0.148 A 
ATOM     63  C   UNL     1       3.240   2.758  11.034  1.00  0.00     0.002 A 
ATOM     64  C   UNL     1       2.937   1.725  13.209  1.00  0.00     0.091 A 
ATOM     65  F   UNL     1       0.801   0.811  13.779  1.00  0.00    -0.205 F 
ATOM     66  C   UNL     1       3.751   2.391  12.275  1.00  0.00     0.022 A 
BRANCH  64  67
ATOM     67  S   UNL     1       3.694   1.320  14.786  1.00  0.00     0.127 S 
ATOM     68  O   UNL     1       4.733   0.375  14.378  1.00  0.00    -0.237 OA
ATOM     69  O   UNL     1       4.193   2.621  15.230  1.00  0.00    -0.237 OA
ATOM     70  O   UNL     1       2.635   0.752  15.608  1.00  0.00    -0.744 OA
ENDBRANCH  64  67
ENDBRANCH  46  60
BRANCH  47  71
ATOM     71  C   UNL     1      -8.501   0.879   9.396  1.00  0.00     0.023 A 
ATOM     72  C   UNL     1      -9.099   1.838   8.559  1.00  0.00     0.012 A 
ATOM     73  C   UNL     1      -9.233  -0.258   9.788  1.00  0.00     0.148 A 
ATOM     74  C   UNL     1     -10.408   1.661   8.110  1.00  0.00     0.002 A 
ATOM     75  C   UNL     1     -10.519  -0.449   9.302  1.00  0.00     0.091 A 
ATOM     76  F   UNL     1      -8.637  -1.147  10.595  1.00  0.00    -0.205 F 
ATOM     77  C   UNL     1     -11.111   0.513   8.469  1.00  0.00     0.022 A 
BRANCH  75  78
ATOM     78  S   UNL     1     -11.454  -1.950   9.610  1.00  0.00     0.127 S 
ATOM     79  O   UNL     1     -12.557  -1.451  10.428  1.00  0.00    -0.237 OA
ATOM     80  O   UNL     1     -11.826  -2.354   8.254  1.00  0.00    -0.237 OA
ATOM     81  O   UNL     1     -10.536  -2.859  10.282  1.00  0.00    -0.744 OA
ENDBRANCH  75  78
ENDBRANCH  47  71
BRANCH  59  82
ATOM     82  C   UNL     1      -4.906   5.174  13.618  1.00  0.00     0.023 A 
ATOM     83  C   UNL     1      -5.288   4.796  14.919  1.00  0.00     0.012 A 
ATOM     84  C   UNL     1      -4.718   6.537  13.315  1.00  0.00     0.148 A 
ATOM     85  C   UNL     1      -5.473   5.762  15.908  1.00  0.00     0.002 A 
ATOM     86  C   UNL     1      -4.869   7.490  14.315  1.00  0.00     0.091 A 
ATOM     87  F   UNL     1      -4.354   6.867  12.067  1.00  0.00    -0.205 F 
ATOM     88  C   UNL     1      -5.250   7.105  15.611  1.00  0.00     0.022 A 
BRANCH  86  89
ATOM     89  S   UNL     1      -4.521   9.233  14.054  1.00  0.00     0.127 S 
ATOM     90  O   UNL     1      -5.828   9.839  14.305  1.00  0.00    -0.237 OA
ATOM     91  O   UNL     1      -3.515   9.503  15.081  1.00  0.00    -0.237 OA
ATOM     92  O   UNL     1      -4.043   9.351  12.683  1.00  0.00    -0.744 OA
ENDBRANCH  86  89
ENDBRANCH  59  82
ENDBRANCH  33  34
ENDBRANCH  26  28
ENDBRANCH  25  26
ENDBRANCH  24  25
ENDBRANCH   1  24
TORSDOF 19
