REMARK SMILES C[C@@H]1[C@@H](C(=O)OCCOCCOC(=O)c2ccc(-c3c4nc(c(-c5cccc(S(=O)(=O)[O-])c5F)c5ccc([nH]5)c(-c5cccc(S(=O)(=O)[O-])c5F)c5nc(c(-c6cccc(S(=O)(=O)[O-])c6F)c6ccc3[nH]6)C=C5)C=C4)cc2)CCN1C(=O)c1cccc(Cl)n1
REMARK SMILES IDX 10 1 9 2 8 3 7 4 6 5 4 6 5 7 3 8 1 9 2 10 80 11 78 12 79 13
REMARK SMILES IDX 81 14 82 15 83 16 84 17 89 18 85 19 87 20 86 21 88 22 11 23
REMARK SMILES IDX 12 24 13 25 14 26 15 27 16 28 77 29 17 30 76 31 18 32 19 33
REMARK SMILES IDX 20 34 70 35 21 36 75 37 69 38 71 39 22 40 74 41 68 42 67 43
REMARK SMILES IDX 23 45 55 46 35 47 54 48 36 49 39 50 53 51 72 52 37 53 38 54
REMARK SMILES IDX 52 56 73 57 40 58 24 59 25 60 33 61 26 62 28 63 34 64 27 65
REMARK SMILES IDX 29 66 30 67 31 68 32 69 56 70 57 71 65 72 58 73 60 74 66 75
REMARK SMILES IDX 59 76 61 77 62 78 63 79 64 80 41 81 42 82 50 83 43 84 45 85
REMARK SMILES IDX 51 86 44 87 46 88 47 89 48 90 49 91
REMARK H PARENT 71 44 39 55
REMARK Flexibility Score: inf
ROOT
ATOM      1  C   UNL     1       0.624   2.899  -3.401  1.00  0.00     0.202 C 
ENDROOT
BRANCH   1   2
ATOM      2  O   UNL     1      -0.100   2.419  -4.532  1.00  0.00    -0.374 OA
BRANCH   2   3
ATOM      3  C   UNL     1      -1.526   2.416  -4.461  1.00  0.00     0.202 C 
BRANCH   3   4
ATOM      4  C   UNL     1      -2.191   1.282  -3.675  1.00  0.00     0.261 C 
BRANCH   4   5
ATOM      5  O   UNL     1      -1.825   1.308  -2.287  1.00  0.00    -0.463 OA
BRANCH   5   6
ATOM      6  C   UNL     1      -0.922   0.356  -1.925  1.00  0.00     0.311 C 
ATOM      7  O   UNL     1      -0.483  -0.508  -2.671  1.00  0.00    -0.252 OA
BRANCH   6   8
ATOM      8  C   UNL     1      -0.420   0.611  -0.515  1.00  0.00     0.123 C 
ATOM      9  C   UNL     1       1.653   0.177   0.866  1.00  0.00     0.032 C 
ATOM     10  C   UNL     1       0.708  -0.380  -0.201  1.00  0.00     0.096 C 
ATOM     11  N   UNL     1      -0.022  -1.561   0.273  1.00  0.00    -0.334 N 
ATOM     12  C   UNL     1      -1.470   0.298   0.547  1.00  0.00     0.039 C 
ATOM     13  C   UNL     1      -1.370  -1.213   0.704  1.00  0.00     0.121 C 
BRANCH  11  14
ATOM     14  C   UNL     1       0.264  -2.896  -0.001  1.00  0.00     0.272 C 
ATOM     15  O   UNL     1      -0.484  -3.818   0.319  1.00  0.00    -0.267 OA
BRANCH  14  16
ATOM     16  C   UNL     1       1.537  -3.227  -0.692  1.00  0.00     0.130 A 
ATOM     17  C   UNL     1       2.731  -3.128   0.013  1.00  0.00     0.034 A 
ATOM     18  N   UNL     1       1.445  -3.662  -1.972  1.00  0.00    -0.231 NA
ATOM     19  C   UNL     1       3.911  -3.463  -0.642  1.00  0.00     0.006 A 
ATOM     20  C   UNL     1       2.605  -3.989  -2.566  1.00  0.00     0.129 A 
ATOM     21  C   UNL     1       3.850  -3.905  -1.960  1.00  0.00     0.041 A 
ATOM     22  Cl  UNL     1       2.460  -4.560  -4.177  1.00  0.00    -0.062 Cl
ENDBRANCH  14  16
ENDBRANCH  11  14
ENDBRANCH   6   8
ENDBRANCH   5   6
ENDBRANCH   4   5
ENDBRANCH   3   4
ENDBRANCH   2   3
ENDBRANCH   1   2
BRANCH   1  23
ATOM     23  C   UNL     1       0.644   4.413  -3.161  1.00  0.00     0.261 C 
BRANCH  23  24
ATOM     24  O   UNL     1      -0.655   4.932  -2.832  1.00  0.00    -0.460 OA
BRANCH  24  25
ATOM     25  C   UNL     1      -1.201   5.726  -3.783  1.00  0.00     0.338 C 
ATOM     26  O   UNL     1      -0.673   6.095  -4.826  1.00  0.00    -0.246 OA
BRANCH  25  27
ATOM     27  C   UNL     1      -2.628   5.954  -3.500  1.00  0.00     0.060 A 
ATOM     28  C   UNL     1      -3.546   5.637  -4.511  1.00  0.00     0.016 A 
ATOM     29  C   UNL     1      -3.058   6.537  -2.306  1.00  0.00     0.016 A 
ATOM     30  C   UNL     1      -4.892   5.954  -4.356  1.00  0.00     0.010 A 
ATOM     31  C   UNL     1      -4.410   6.864  -2.157  1.00  0.00     0.010 A 
ATOM     32  C   UNL     1      -5.323   6.611  -3.197  1.00  0.00    -0.014 A 
BRANCH  32  33
ATOM     33  C   UNL     1      -6.696   7.165  -3.144  1.00  0.00     0.031 A 
ATOM     34  C   UNL     1      -6.902   8.629  -3.427  1.00  0.00     0.074 A 
ATOM     35  C   UNL     1      -7.747   6.375  -2.861  1.00  0.00     0.049 A 
ATOM     36  N   UNL     1      -8.009   9.324  -3.428  1.00  0.00    -0.248 NA
ATOM     37  C   UNL     1      -5.698   9.414  -3.750  1.00  0.00     0.031 C 
ATOM     38  C   UNL     1      -7.672   4.944  -2.574  1.00  0.00     0.029 A 
ATOM     39  N   UNL     1      -9.081   6.674  -2.749  1.00  0.00    -0.354 N 
ATOM     40  C   UNL     1      -7.636  10.629  -3.725  1.00  0.00     0.074 A 
ATOM     41  C   UNL     1      -6.198  10.634  -3.884  1.00  0.00     0.031 C 
ATOM     42  C   UNL     1      -8.906   4.493  -2.289  1.00  0.00     0.029 A 
ATOM     43  C   UNL     1      -9.851   5.606  -2.355  1.00  0.00     0.049 A 
ATOM     44  H   UNL     1      -9.451   7.568  -2.932  1.00  0.00     0.167 HD
ATOM     45  C   UNL     1      -8.421  11.723  -3.869  1.00  0.00     0.034 A 
ATOM     46  C   UNL     1     -11.166   5.541  -2.065  1.00  0.00     0.034 A 
ATOM     47  C   UNL     1      -9.852  11.711  -3.734  1.00  0.00     0.049 A 
ATOM     48  C   UNL     1     -12.015   6.776  -2.216  1.00  0.00     0.074 A 
ATOM     49  C   UNL     1     -10.741  12.757  -3.909  1.00  0.00     0.029 A 
ATOM     50  N   UNL     1     -10.604  10.602  -3.379  1.00  0.00    -0.354 N 
ATOM     51  N   UNL     1     -11.666   7.975  -2.619  1.00  0.00    -0.248 NA
ATOM     52  C   UNL     1     -13.446   6.642  -1.907  1.00  0.00     0.031 C 
ATOM     53  C   UNL     1     -12.030  12.284  -3.639  1.00  0.00     0.029 A 
ATOM     54  C   UNL     1     -11.945  10.938  -3.318  1.00  0.00     0.049 A 
ATOM     55  H   UNL     1     -10.237   9.706  -3.197  1.00  0.00     0.167 HD
ATOM     56  C   UNL     1     -12.836   8.726  -2.646  1.00  0.00     0.074 A 
ATOM     57  C   UNL     1     -13.908   7.841  -2.237  1.00  0.00     0.031 C 
ATOM     58  C   UNL     1     -13.008  10.033  -2.965  1.00  0.00     0.034 A 
BRANCH  45  59
ATOM     59  C   UNL     1      -7.750  13.022  -4.224  1.00  0.00     0.023 A 
ATOM     60  C   UNL     1      -7.259  13.218  -5.531  1.00  0.00     0.012 A 
ATOM     61  C   UNL     1      -7.653  14.067  -3.284  1.00  0.00     0.148 A 
ATOM     62  C   UNL     1      -6.657  14.424  -5.890  1.00  0.00     0.002 A 
ATOM     63  C   UNL     1      -7.088  15.280  -3.661  1.00  0.00     0.091 A 
ATOM     64  F   UNL     1      -8.102  13.852  -2.040  1.00  0.00    -0.205 F 
ATOM     65  C   UNL     1      -6.582  15.457  -4.959  1.00  0.00     0.022 A 
BRANCH  63  66
ATOM     66  S   UNL     1      -7.011  16.695  -2.557  1.00  0.00     0.127 S 
ATOM     67  O   UNL     1      -5.583  16.746  -2.244  1.00  0.00    -0.237 OA
ATOM     68  O   UNL     1      -7.486  17.782  -3.413  1.00  0.00    -0.237 OA
ATOM     69  O   UNL     1      -7.886  16.378  -1.437  1.00  0.00    -0.744 OA
ENDBRANCH  63  66
ENDBRANCH  45  59
BRANCH  46  70
ATOM     70  C   UNL     1     -11.769   4.247  -1.637  1.00  0.00     0.023 A 
ATOM     71  C   UNL     1     -12.661   3.577  -2.496  1.00  0.00     0.012 A 
ATOM     72  C   UNL     1     -11.449   3.670  -0.393  1.00  0.00     0.148 A 
ATOM     73  C   UNL     1     -13.245   2.370  -2.112  1.00  0.00     0.002 A 
ATOM     74  C   UNL     1     -11.992   2.441  -0.040  1.00  0.00     0.091 A 
ATOM     75  F   UNL     1     -10.614   4.334   0.419  1.00  0.00    -0.205 F 
ATOM     76  C   UNL     1     -12.903   1.796  -0.890  1.00  0.00     0.022 A 
BRANCH  74  77
ATOM     77  S   UNL     1     -11.507   1.573   1.456  1.00  0.00     0.127 S 
ATOM     78  O   UNL     1     -12.694   1.728   2.292  1.00  0.00    -0.237 OA
ATOM     79  O   UNL     1     -11.276   0.216   0.958  1.00  0.00    -0.237 OA
ATOM     80  O   UNL     1     -10.305   2.248   1.928  1.00  0.00    -0.744 OA
ENDBRANCH  74  77
ENDBRANCH  46  70
BRANCH  58  81
ATOM     81  C   UNL     1     -14.408  10.588  -2.921  1.00  0.00     0.023 A 
ATOM     82  C   UNL     1     -15.027  10.826  -1.679  1.00  0.00     0.012 A 
ATOM     83  C   UNL     1     -15.077  10.947  -4.108  1.00  0.00     0.148 A 
ATOM     84  C   UNL     1     -16.303  11.386  -1.619  1.00  0.00     0.002 A 
ATOM     85  C   UNL     1     -16.329  11.548  -4.039  1.00  0.00     0.091 A 
ATOM     86  F   UNL     1     -14.479  10.695  -5.282  1.00  0.00    -0.205 F 
ATOM     87  C   UNL     1     -16.948  11.757  -2.797  1.00  0.00     0.022 A 
BRANCH  85  88
ATOM     88  S   UNL     1     -17.189  12.145  -5.499  1.00  0.00     0.127 S 
ATOM     89  O   UNL     1     -18.238  11.140  -5.659  1.00  0.00    -0.237 OA
ATOM     90  O   UNL     1     -17.665  13.459  -5.064  1.00  0.00    -0.237 OA
ATOM     91  O   UNL     1     -16.193  12.187  -6.561  1.00  0.00    -0.744 OA
ENDBRANCH  85  88
ENDBRANCH  58  81
ENDBRANCH  32  33
ENDBRANCH  25  27
ENDBRANCH  24  25
ENDBRANCH  23  24
ENDBRANCH   1  23
TORSDOF 19
