REMARK SMILES Cn1ncc2c(NCCC3=CCCCC3)c(C(=O)OCCOCCOC(=O)c3ccc(-c4c5nc(c(-c6cccc(S(=O)(=O)[O-])c6F)c6ccc([nH]6)c(-c6cccc(S(=O)(=O)[O-])c6F)c6nc(c(-c7cccc(S(=O)(=O)[O-])c7F)c7ccc4[nH]7)C=C6)C=C5)cc3)cnc21
REMARK SMILES IDX 21 1 20 2 19 3 17 4 18 5 16 6 1 7 2 8 3 9 93 10 4 11 5 12
REMARK SMILES IDX 92 13 6 14 91 15 7 16 8 18 9 19 10 20 11 21 15 22 12 23
REMARK SMILES IDX 14 24 13 25 22 26 23 27 24 28 25 29 26 30 27 31 28 32 29 33
REMARK SMILES IDX 90 34 30 35 89 36 31 37 32 38 33 39 83 40 34 41 88 42 82 43
REMARK SMILES IDX 84 44 35 45 87 46 81 47 80 48 36 50 68 51 48 52 67 53 49 54
REMARK SMILES IDX 52 55 66 56 85 57 50 58 51 59 65 61 86 62 53 63 37 64 38 65
REMARK SMILES IDX 46 66 39 67 41 68 47 69 40 70 42 71 43 72 44 73 45 74 69 75
REMARK SMILES IDX 70 76 78 77 71 78 73 79 79 80 72 81 74 82 75 83 76 84 77 85
REMARK SMILES IDX 54 86 55 87 63 88 56 89 58 90 64 91 57 92 59 93 60 94 61 95
REMARK SMILES IDX 62 96
REMARK H PARENT 7 17 84 49 52 60
REMARK Flexibility Score: inf
ROOT
ATOM      1  C   UNL     1       3.707   8.940  -1.606  1.00  0.00     0.202 C 
ENDROOT
BRANCH   1   2
ATOM      2  C   UNL     1       4.468   8.000  -0.658  1.00  0.00     0.261 C 
BRANCH   2   3
ATOM      3  O   UNL     1       4.024   6.620  -0.698  1.00  0.00    -0.460 OA
BRANCH   3   4
ATOM      4  C   UNL     1       3.095   6.299   0.246  1.00  0.00     0.341 C 
ATOM      5  O   UNL     1       2.756   7.054   1.144  1.00  0.00    -0.246 OA
BRANCH   4   6
ATOM      6  C   UNL     1       2.379   5.007  -0.024  1.00  0.00     0.102 A 
ATOM      7  C   UNL     1       1.238  -0.037  -0.064  1.00  0.00     0.176 C 
ATOM      8  N   UNL     1       0.751   1.305   0.114  1.00  0.00    -0.250 N 
ATOM      9  N   UNL     1      -0.501   1.455   0.586  1.00  0.00    -0.179 NA
ATOM     10  C   UNL     1       1.424   2.486  -0.074  1.00  0.00     0.159 A 
ATOM     11  C   UNL     1      -0.619   2.776   0.695  1.00  0.00     0.147 A 
ATOM     12  C   UNL     1       0.549   3.491   0.328  1.00  0.00     0.063 A 
ATOM     13  N   UNL     1       2.679   2.639  -0.545  1.00  0.00    -0.236 NA
ATOM     14  C   UNL     1       0.987   4.839   0.289  1.00  0.00     0.063 A 
ATOM     15  C   UNL     1       3.113   3.924  -0.495  1.00  0.00     0.131 A 
BRANCH  14  16
ATOM     16  N   UNL     1       0.147   5.928   0.468  1.00  0.00    -0.383 N 
ATOM     17  H   UNL     1       0.548   6.806   0.273  1.00  0.00     0.160 HD
BRANCH  16  18
ATOM     18  C   UNL     1      -1.246   5.958   0.902  1.00  0.00     0.117 C 
BRANCH  18  19
ATOM     19  C   UNL     1      -1.355   6.492   2.340  1.00  0.00     0.052 C 
BRANCH  19  20
ATOM     20  C   UNL     1      -1.111   7.981   2.361  1.00  0.00    -0.072 C 
ATOM     21  C   UNL     1       0.141   8.463   2.288  1.00  0.00    -0.028 C 
ATOM     22  C   UNL     1      -2.315   8.882   2.363  1.00  0.00     0.031 C 
ATOM     23  C   UNL     1       0.478   9.898   2.063  1.00  0.00     0.027 C 
ATOM     24  C   UNL     1      -2.000  10.317   1.931  1.00  0.00     0.005 C 
ATOM     25  C   UNL     1      -0.666  10.805   2.493  1.00  0.00     0.004 C 
ENDBRANCH  19  20
ENDBRANCH  18  19
ENDBRANCH  16  18
ENDBRANCH  14  16
ENDBRANCH   4   6
ENDBRANCH   3   4
ENDBRANCH   2   3
ENDBRANCH   1   2
BRANCH   1  26
ATOM     26  O   UNL     1       2.283   9.002  -1.624  1.00  0.00    -0.374 OA
BRANCH  26  27
ATOM     27  C   UNL     1       1.532   7.844  -1.967  1.00  0.00     0.202 C 
BRANCH  27  28
ATOM     28  C   UNL     1       1.637   7.159  -3.320  1.00  0.00     0.261 C 
BRANCH  28  29
ATOM     29  O   UNL     1       2.978   6.993  -3.726  1.00  0.00    -0.460 OA
BRANCH  29  30
ATOM     30  C   UNL     1       3.447   8.017  -4.466  1.00  0.00     0.338 C 
ATOM     31  O   UNL     1       2.911   9.117  -4.663  1.00  0.00    -0.246 OA
BRANCH  30  32
ATOM     32  C   UNL     1       4.730   7.609  -5.016  1.00  0.00     0.060 A 
ATOM     33  C   UNL     1       5.522   8.562  -5.650  1.00  0.00     0.016 A 
ATOM     34  C   UNL     1       4.665   6.334  -5.543  1.00  0.00     0.016 A 
ATOM     35  C   UNL     1       5.687   8.387  -7.037  1.00  0.00     0.010 A 
ATOM     36  C   UNL     1       5.094   6.211  -6.832  1.00  0.00     0.010 A 
ATOM     37  C   UNL     1       4.995   7.316  -7.679  1.00  0.00    -0.014 A 
BRANCH  37  38
ATOM     38  C   UNL     1       5.038   6.851  -9.169  1.00  0.00     0.031 A 
ATOM     39  C   UNL     1       6.707   6.589  -9.221  1.00  0.00     0.074 A 
ATOM     40  C   UNL     1       3.942   6.658 -10.150  1.00  0.00     0.049 A 
ATOM     41  N   UNL     1       7.549   7.567  -9.457  1.00  0.00    -0.248 NA
ATOM     42  C   UNL     1       7.553   5.551  -8.448  1.00  0.00     0.031 C 
ATOM     43  C   UNL     1       2.371   6.827 -10.255  1.00  0.00     0.029 A 
ATOM     44  N   UNL     1       4.014   6.249 -11.516  1.00  0.00    -0.354 N 
ATOM     45  C   UNL     1       8.815   6.975  -9.562  1.00  0.00     0.074 A 
ATOM     46  C   UNL     1       8.832   5.916  -8.637  1.00  0.00     0.031 C 
ATOM     47  C   UNL     1       1.803   6.173 -11.346  1.00  0.00     0.029 A 
ATOM     48  C   UNL     1       2.855   5.652 -12.196  1.00  0.00     0.049 A 
ATOM     49  H   UNL     1       4.856   6.369 -12.012  1.00  0.00     0.167 HD
ATOM     50  C   UNL     1       9.494   7.094 -10.730  1.00  0.00     0.034 A 
ATOM     51  C   UNL     1       2.757   5.164 -13.520  1.00  0.00     0.034 A 
ATOM     52  C   UNL     1       8.866   8.152 -11.476  1.00  0.00     0.049 A 
ATOM     53  C   UNL     1       4.041   5.590 -14.142  1.00  0.00     0.074 A 
ATOM     54  C   UNL     1       8.610   9.482 -11.196  1.00  0.00     0.029 A 
ATOM     55  N   UNL     1       7.820   7.681 -12.220  1.00  0.00    -0.354 N 
ATOM     56  N   UNL     1       4.258   6.856 -14.386  1.00  0.00    -0.248 NA
ATOM     57  C   UNL     1       5.178   4.757 -13.745  1.00  0.00     0.031 C 
ATOM     58  C   UNL     1       7.260   9.712 -11.590  1.00  0.00     0.029 A 
ATOM     59  C   UNL     1       6.812   8.595 -12.284  1.00  0.00     0.049 A 
ATOM     60  H   UNL     1       7.798   6.797 -12.653  1.00  0.00     0.167 HD
ATOM     61  C   UNL     1       5.417   7.119 -13.677  1.00  0.00     0.074 A 
ATOM     62  C   UNL     1       5.951   5.763 -13.304  1.00  0.00     0.031 C 
ATOM     63  C   UNL     1       5.612   8.316 -13.017  1.00  0.00     0.034 A 
BRANCH  50  64
ATOM     64  C   UNL     1      10.278   5.989 -11.410  1.00  0.00     0.023 A 
ATOM     65  C   UNL     1      11.135   6.401 -12.447  1.00  0.00     0.012 A 
ATOM     66  C   UNL     1      10.068   4.590 -11.264  1.00  0.00     0.148 A 
ATOM     67  C   UNL     1      11.822   5.480 -13.242  1.00  0.00     0.002 A 
ATOM     68  C   UNL     1      10.715   3.673 -12.094  1.00  0.00     0.091 A 
ATOM     69  F   UNL     1       9.192   4.136 -10.362  1.00  0.00    -0.205 F 
ATOM     70  C   UNL     1      11.614   4.117 -13.067  1.00  0.00     0.022 A 
BRANCH  68  71
ATOM     71  S   UNL     1      10.386   1.897 -12.041  1.00  0.00     0.127 S 
ATOM     72  O   UNL     1       9.808   1.664 -13.363  1.00  0.00    -0.237 OA
ATOM     73  O   UNL     1      11.729   1.350 -11.851  1.00  0.00    -0.237 OA
ATOM     74  O   UNL     1       9.483   1.692 -10.917  1.00  0.00    -0.744 OA
ENDBRANCH  68  71
ENDBRANCH  50  64
BRANCH  51  75
ATOM     75  C   UNL     1       2.105   3.863 -14.069  1.00  0.00     0.023 A 
ATOM     76  C   UNL     1       2.088   3.380 -15.426  1.00  0.00     0.012 A 
ATOM     77  C   UNL     1       1.778   2.914 -13.097  1.00  0.00     0.148 A 
ATOM     78  C   UNL     1       1.897   1.995 -15.730  1.00  0.00     0.002 A 
ATOM     79  C   UNL     1       1.558   1.569 -13.398  1.00  0.00     0.091 A 
ATOM     80  F   UNL     1       1.771   3.321 -11.827  1.00  0.00    -0.205 F 
ATOM     81  C   UNL     1       1.669   1.083 -14.704  1.00  0.00     0.022 A 
BRANCH  79  82
ATOM     82  S   UNL     1       1.134   0.415 -12.090  1.00  0.00     0.127 S 
ATOM     83  O   UNL     1      -0.119  -0.150 -12.589  1.00  0.00    -0.237 OA
ATOM     84  O   UNL     1       2.274  -0.497 -12.103  1.00  0.00    -0.237 OA
ATOM     85  O   UNL     1       0.988   1.219 -10.883  1.00  0.00    -0.744 OA
ENDBRANCH  79  82
ENDBRANCH  51  75
BRANCH  63  86
ATOM     86  C   UNL     1       4.633   9.492 -13.090  1.00  0.00     0.023 A 
ATOM     87  C   UNL     1       3.526   9.749 -12.232  1.00  0.00     0.012 A 
ATOM     88  C   UNL     1       5.065  10.547 -13.896  1.00  0.00     0.148 A 
ATOM     89  C   UNL     1       2.845  10.986 -12.242  1.00  0.00     0.002 A 
ATOM     90  C   UNL     1       4.381  11.755 -13.926  1.00  0.00     0.091 A 
ATOM     91  F   UNL     1       6.231  10.389 -14.538  1.00  0.00    -0.205 F 
ATOM     92  C   UNL     1       3.268  11.987 -13.106  1.00  0.00     0.022 A 
BRANCH  90  93
ATOM     93  S   UNL     1       4.880  13.047 -15.052  1.00  0.00     0.127 S 
ATOM     94  O   UNL     1       3.714  13.124 -15.931  1.00  0.00    -0.237 OA
ATOM     95  O   UNL     1       5.056  14.190 -14.157  1.00  0.00    -0.237 OA
ATOM     96  O   UNL     1       6.103  12.581 -15.692  1.00  0.00    -0.744 OA
ENDBRANCH  90  93
ENDBRANCH  63  86
ENDBRANCH  37  38
ENDBRANCH  30  32
ENDBRANCH  29  30
ENDBRANCH  28  29
ENDBRANCH  27  28
ENDBRANCH  26  27
ENDBRANCH   1  26
TORSDOF 21
