REMARK SMILES O=C(Nc1ccc(O)c(C(=O)OCCOCCOC(=O)c2ccc(-c3c4nc(c(-c5cccc(S(=O)(=O)[O-])c5F)c5ccc([nH]5)c(-c5cccc(S(=O)(=O)[O-])c5F)c5nc(c(-c6cccc(S(=O)(=O)[O-])c6F)c6ccc3[nH]6)C=C5)C=C4)cc2)c1)c1cncc(Br)c1
REMARK SMILES IDX 16 1 15 2 14 3 13 4 12 5 10 6 11 7 9 8 4 9 5 10 84 11 6 12
REMARK SMILES IDX 7 13 3 14 1 15 2 16 85 18 86 19 91 20 87 21 89 22 88 23
REMARK SMILES IDX 90 24 8 25 17 27 18 28 19 29 20 30 21 31 22 32 83 33 23 34
REMARK SMILES IDX 82 35 24 36 25 37 26 38 76 39 27 40 81 41 75 42 77 43 28 44
REMARK SMILES IDX 80 45 74 46 73 47 29 49 61 50 41 51 60 52 42 53 45 54 59 55
REMARK SMILES IDX 78 56 43 57 44 58 58 60 79 61 46 62 30 63 31 64 39 65 32 66
REMARK SMILES IDX 34 67 40 68 33 69 35 70 36 71 37 72 38 73 62 74 63 75 71 76
REMARK SMILES IDX 64 77 66 78 72 79 65 80 67 81 68 82 69 83 70 84 47 85 48 86
REMARK SMILES IDX 56 87 49 88 51 89 57 90 50 91 52 92 53 93 54 94 55 95
REMARK H PARENT 3 17 8 26 77 48 45 59
REMARK Flexibility Score: inf
ROOT
ATOM      1  C   UNL     1       6.905   2.327   4.898  1.00  0.00     0.202 C 
ENDROOT
BRANCH   1   2
ATOM      2  O   UNL     1       7.479   1.565   5.961  1.00  0.00    -0.374 OA
BRANCH   2   3
ATOM      3  C   UNL     1       8.736   0.931   5.703  1.00  0.00     0.202 C 
BRANCH   3   4
ATOM      4  C   UNL     1       8.675  -0.361   4.886  1.00  0.00     0.261 C 
BRANCH   4   5
ATOM      5  O   UNL     1       8.256  -0.067   3.547  1.00  0.00    -0.460 OA
BRANCH   5   6
ATOM      6  C   UNL     1       7.134  -0.694   3.138  1.00  0.00     0.342 C 
ATOM      7  O   UNL     1       6.524  -1.572   3.733  1.00  0.00    -0.246 OA
BRANCH   6   8
ATOM      8  C   UNL     1       6.558  -0.016   1.958  1.00  0.00     0.103 A 
ATOM      9  C   UNL     1       4.503   0.577   0.835  1.00  0.00     0.042 A 
ATOM     10  C   UNL     1       5.238   1.014  -0.271  1.00  0.00     0.030 A 
ATOM     11  C   UNL     1       5.162   0.127   1.971  1.00  0.00     0.045 A 
ATOM     12  C   UNL     1       6.635   0.952  -0.256  1.00  0.00     0.049 A 
ATOM     13  C   UNL     1       7.295   0.413   0.850  1.00  0.00     0.130 A 
BRANCH   9  14
ATOM     14  N   UNL     1       3.105   0.479   0.819  1.00  0.00    -0.322 N 
ATOM     15  O   UNL     1       1.101   0.111  -0.187  1.00  0.00    -0.269 OA
ATOM     16  C   UNL     1       2.319  -0.042  -0.189  1.00  0.00     0.257 C 
ATOM     17  H   UNL     1       2.632   0.818   1.613  1.00  0.00     0.170 HD
BRANCH  16  18
ATOM     18  C   UNL     1       2.934  -0.893  -1.231  1.00  0.00     0.059 A 
ATOM     19  C   UNL     1       3.865  -1.879  -0.911  1.00  0.00     0.124 A 
ATOM     20  C   UNL     1       2.556  -0.746  -2.564  1.00  0.00     0.032 A 
ATOM     21  N   UNL     1       4.489  -2.652  -1.831  1.00  0.00    -0.263 NA
ATOM     22  C   UNL     1       3.181  -1.533  -3.525  1.00  0.00     0.037 A 
ATOM     23  C   UNL     1       4.143  -2.450  -3.123  1.00  0.00     0.126 A 
ATOM     24  Br  UNL     1       2.731  -1.353  -5.346  1.00  0.00    -0.049 Br
ENDBRANCH  16  18
ENDBRANCH   9  14
BRANCH  13  25
ATOM     25  O   UNL     1       8.651   0.280   0.826  1.00  0.00    -0.507 OA
ATOM     26  H   UNL     1       9.137   0.570   0.079  1.00  0.00     0.293 HD
ENDBRANCH  13  25
ENDBRANCH   6   8
ENDBRANCH   5   6
ENDBRANCH   4   5
ENDBRANCH   3   4
ENDBRANCH   2   3
ENDBRANCH   1   2
BRANCH   1  27
ATOM     27  C   UNL     1       7.467   3.737   4.679  1.00  0.00     0.261 C 
BRANCH  27  28
ATOM     28  O   UNL     1       8.833   3.718   4.231  1.00  0.00    -0.460 OA
BRANCH  28  29
ATOM     29  C   UNL     1       9.739   4.106   5.159  1.00  0.00     0.338 C 
ATOM     30  O   UNL     1       9.505   4.534   6.283  1.00  0.00    -0.246 OA
BRANCH  29  31
ATOM     31  C   UNL     1      11.102   3.780   4.705  1.00  0.00     0.060 A 
ATOM     32  C   UNL     1      11.920   3.057   5.584  1.00  0.00     0.016 A 
ATOM     33  C   UNL     1      11.598   4.225   3.478  1.00  0.00     0.016 A 
ATOM     34  C   UNL     1      13.254   2.822   5.262  1.00  0.00     0.010 A 
ATOM     35  C   UNL     1      12.941   3.994   3.160  1.00  0.00     0.010 A 
ATOM     36  C   UNL     1      13.783   3.325   4.067  1.00  0.00    -0.014 A 
BRANCH  36  37
ATOM     37  C   UNL     1      15.245   3.267   3.833  1.00  0.00     0.031 A 
ATOM     38  C   UNL     1      16.074   4.498   4.074  1.00  0.00     0.074 A 
ATOM     39  C   UNL     1      15.829   2.130   3.414  1.00  0.00     0.049 A 
ATOM     40  N   UNL     1      17.359   4.675   3.914  1.00  0.00    -0.248 NA
ATOM     41  C   UNL     1      15.357   5.691   4.557  1.00  0.00     0.031 C 
ATOM     42  C   UNL     1      15.131   0.875   3.141  1.00  0.00     0.029 A 
ATOM     43  N   UNL     1      17.141   1.859   3.118  1.00  0.00    -0.354 N 
ATOM     44  C   UNL     1      17.604   6.000   4.253  1.00  0.00     0.074 A 
ATOM     45  C   UNL     1      16.331   6.588   4.610  1.00  0.00     0.031 C 
ATOM     46  C   UNL     1      16.018  -0.025   2.684  1.00  0.00     0.029 A 
ATOM     47  C   UNL     1      17.340   0.596   2.615  1.00  0.00     0.049 A 
ATOM     48  H   UNL     1      17.870   2.507   3.254  1.00  0.00     0.167 HD
ATOM     49  C   UNL     1      18.784   6.664   4.285  1.00  0.00     0.034 A 
ATOM     50  C   UNL     1      18.457   0.015   2.133  1.00  0.00     0.034 A 
ATOM     51  C   UNL     1      20.051   6.074   3.946  1.00  0.00     0.049 A 
ATOM     52  C   UNL     1      19.756   0.778   2.163  1.00  0.00     0.074 A 
ATOM     53  C   UNL     1      21.308   6.652   3.988  1.00  0.00     0.029 A 
ATOM     54  N   UNL     1      20.223   4.775   3.493  1.00  0.00    -0.354 N 
ATOM     55  N   UNL     1      19.991   1.990   2.603  1.00  0.00    -0.248 NA
ATOM     56  C   UNL     1      20.950   0.079   1.665  1.00  0.00     0.031 C 
ATOM     57  C   UNL     1      22.238   5.707   3.539  1.00  0.00     0.029 A 
ATOM     58  C   UNL     1      21.562   4.534   3.242  1.00  0.00     0.049 A 
ATOM     59  H   UNL     1      19.498   4.120   3.369  1.00  0.00     0.167 HD
ATOM     60  C   UNL     1      21.361   2.189   2.465  1.00  0.00     0.074 A 
ATOM     61  C   UNL     1      21.907   0.962   1.921  1.00  0.00     0.031 C 
ATOM     62  C   UNL     1      22.099   3.291   2.749  1.00  0.00     0.034 A 
BRANCH  49  63
ATOM     63  C   UNL     1      18.762   8.101   4.735  1.00  0.00     0.023 A 
ATOM     64  C   UNL     1      18.551   8.398   6.097  1.00  0.00     0.012 A 
ATOM     65  C   UNL     1      18.992   9.151   3.826  1.00  0.00     0.148 A 
ATOM     66  C   UNL     1      18.537   9.719   6.542  1.00  0.00     0.002 A 
ATOM     67  C   UNL     1      19.018  10.464   4.284  1.00  0.00     0.091 A 
ATOM     68  F   UNL     1      19.165   8.851   2.531  1.00  0.00    -0.205 F 
ATOM     69  C   UNL     1      18.781  10.750   5.639  1.00  0.00     0.022 A 
BRANCH  67  70
ATOM     70  S   UNL     1      19.395  11.854   3.211  1.00  0.00     0.127 S 
ATOM     71  O   UNL     1      18.081  12.479   3.065  1.00  0.00    -0.237 OA
ATOM     72  O   UNL     1      20.347  12.618   4.016  1.00  0.00    -0.237 OA
ATOM     73  O   UNL     1      19.954  11.280   1.995  1.00  0.00    -0.744 OA
ENDBRANCH  67  70
ENDBRANCH  49  63
BRANCH  50  74
ATOM     74  C   UNL     1      18.397  -1.378   1.609  1.00  0.00     0.023 A 
ATOM     75  C   UNL     1      19.018  -2.420   2.323  1.00  0.00     0.012 A 
ATOM     76  C   UNL     1      17.702  -1.677   0.420  1.00  0.00     0.148 A 
ATOM     77  C   UNL     1      18.970  -3.732   1.850  1.00  0.00     0.002 A 
ATOM     78  C   UNL     1      17.611  -2.993  -0.016  1.00  0.00     0.091 A 
ATOM     79  F   UNL     1      17.135  -0.667  -0.255  1.00  0.00    -0.205 F 
ATOM     80  C   UNL     1      18.257  -4.020   0.688  1.00  0.00     0.022 A 
BRANCH  78  81
ATOM     81  S   UNL     1      16.606  -3.469  -1.427  1.00  0.00     0.127 S 
ATOM     82  O   UNL     1      17.624  -3.803  -2.420  1.00  0.00    -0.237 OA
ATOM     83  O   UNL     1      15.863  -4.613  -0.897  1.00  0.00    -0.237 OA
ATOM     84  O   UNL     1      15.781  -2.308  -1.731  1.00  0.00    -0.744 OA
ENDBRANCH  78  81
ENDBRANCH  50  74
BRANCH  62  85
ATOM     85  C   UNL     1      23.585   3.221   2.508  1.00  0.00     0.023 A 
ATOM     86  C   UNL     1      24.082   3.246   1.190  1.00  0.00     0.012 A 
ATOM     87  C   UNL     1      24.491   3.212   3.587  1.00  0.00     0.148 A 
ATOM     88  C   UNL     1      25.455   3.233   0.949  1.00  0.00     0.002 A 
ATOM     89  C   UNL     1      25.858   3.245   3.341  1.00  0.00     0.091 A 
ATOM     90  F   UNL     1      24.000   3.170   4.835  1.00  0.00    -0.205 F 
ATOM     91  C   UNL     1      26.343   3.244   2.022  1.00  0.00     0.022 A 
BRANCH  89  92
ATOM     92  S   UNL     1      27.072   3.357   4.661  1.00  0.00     0.127 S 
ATOM     93  O   UNL     1      27.630   2.006   4.668  1.00  0.00    -0.237 OA
ATOM     94  O   UNL     1      27.981   4.390   4.162  1.00  0.00    -0.237 OA
ATOM     95  O   UNL     1      26.329   3.735   5.856  1.00  0.00    -0.744 OA
ENDBRANCH  89  92
ENDBRANCH  62  85
ENDBRANCH  36  37
ENDBRANCH  29  31
ENDBRANCH  28  29
ENDBRANCH  27  28
ENDBRANCH   1  27
TORSDOF 20
