REMARK SMILES COc1ccc(C[N@@H+](CC(=O)OCCOCCOC(=O)c2ccc(-c3c4nc(c(-c5cccc(S(=O)(=O)[O-])c5F)c5ccc([nH]5)c(-c5cccc(S(=O)(=O)[O-])c5F)c5nc(c(-c6cccc(S(=O)(=O)[O-])c6F)c6ccc3[nH]6)C=C5)C=C4)cc2)C(C)(C)C)cc1C#N
REMARK SMILES IDX 14 1 13 2 12 3 10 4 11 5 9 6 8 7 7 9 6 10 3 11 4 12 89 13
REMARK SMILES IDX 5 14 88 15 2 16 1 17 90 18 91 19 84 20 85 21 86 22 87 23
REMARK SMILES IDX 15 24 16 25 17 26 18 27 19 28 20 29 21 30 22 31 83 32 23 33
REMARK SMILES IDX 82 34 24 35 25 36 26 37 76 38 27 39 81 40 75 41 77 42 28 43
REMARK SMILES IDX 80 44 74 45 73 46 29 48 61 49 41 50 60 51 42 52 45 53 59 54
REMARK SMILES IDX 78 55 43 56 44 57 58 59 79 60 46 61 30 62 31 63 39 64 32 65
REMARK SMILES IDX 34 66 40 67 33 68 35 69 36 70 37 71 38 72 62 73 63 74 71 75
REMARK SMILES IDX 64 76 66 77 72 78 65 79 67 80 68 81 69 82 70 83 47 84 48 85
REMARK SMILES IDX 56 86 49 87 51 88 57 89 50 90 52 91 53 92 54 93 55 94
REMARK H PARENT 8 8 77 47 45 58
REMARK Flexibility Score: inf
ROOT
ATOM      1  C   UNL     1       6.128   7.663  -3.766  1.00  0.00     0.202 C 
ENDROOT
BRANCH   1   2
ATOM      2  C   UNL     1       4.810   8.405  -3.523  1.00  0.00     0.261 C 
BRANCH   2   3
ATOM      3  O   UNL     1       3.633   7.567  -3.647  1.00  0.00    -0.459 OA
BRANCH   3   4
ATOM      4  C   UNL     1       2.779   7.860  -4.663  1.00  0.00     0.361 C 
ATOM      5  O   UNL     1       3.052   8.647  -5.567  1.00  0.00    -0.245 OA
BRANCH   4   6
ATOM      6  C   UNL     1       1.373   7.251  -4.533  1.00  0.00     0.387 C 
BRANCH   6   7
ATOM      7  N   UNL     1       1.192   5.831  -4.094  1.00  0.00    -0.318 N 
ATOM      8  H   UNL     1       0.229   5.540  -4.264  1.00  0.00     0.349 HD
BRANCH   7   9
ATOM      9  C   UNL     1       1.347   5.750  -2.620  1.00  0.00     0.299 C 
BRANCH   9  10
ATOM     10  C   UNL     1       1.031   4.417  -1.977  1.00  0.00     0.008 A 
ATOM     11  C   UNL     1       0.629   1.738  -1.208  1.00  0.00     0.136 A 
ATOM     12  C   UNL     1      -0.432   2.507  -1.702  1.00  0.00     0.048 A 
ATOM     13  C   UNL     1       1.886   2.327  -1.038  1.00  0.00     0.094 A 
ATOM     14  C   UNL     1      -0.242   3.844  -2.068  1.00  0.00     0.013 A 
ATOM     15  C   UNL     1       2.064   3.676  -1.380  1.00  0.00     0.033 A 
BRANCH  11  16
ATOM     16  O   UNL     1       0.350   0.403  -1.073  1.00  0.00    -0.495 OA
ATOM     17  C   UNL     1       0.742  -0.171   0.173  1.00  0.00     0.278 C 
ENDBRANCH  11  16
BRANCH  13  18
ATOM     18  C   UNL     1       3.048   1.581  -0.669  1.00  0.00     0.103 C 
ATOM     19  N   UNL     1       4.019   0.993  -0.409  1.00  0.00    -0.192 NA
ENDBRANCH  13  18
ENDBRANCH   9  10
ENDBRANCH   7   9
BRANCH   7  20
ATOM     20  C   UNL     1       1.763   4.772  -4.978  1.00  0.00     0.090 C 
ATOM     21  C   UNL     1       3.218   4.477  -4.644  1.00  0.00     0.078 C 
ATOM     22  C   UNL     1       1.023   3.413  -4.900  1.00  0.00     0.078 C 
ATOM     23  C   UNL     1       1.674   5.149  -6.483  1.00  0.00     0.078 C 
ENDBRANCH   7  20
ENDBRANCH   6   7
ENDBRANCH   4   6
ENDBRANCH   3   4
ENDBRANCH   2   3
ENDBRANCH   1   2
BRANCH   1  24
ATOM     24  O   UNL     1       6.544   7.476  -5.117  1.00  0.00    -0.374 OA
BRANCH  24  25
ATOM     25  C   UNL     1       5.931   6.415  -5.843  1.00  0.00     0.202 C 
BRANCH  25  26
ATOM     26  C   UNL     1       6.353   4.981  -5.447  1.00  0.00     0.261 C 
BRANCH  26  27
ATOM     27  O   UNL     1       6.106   4.669  -4.056  1.00  0.00    -0.460 OA
BRANCH  27  28
ATOM     28  C   UNL     1       7.215   4.450  -3.305  1.00  0.00     0.338 C 
ATOM     29  O   UNL     1       8.356   4.328  -3.722  1.00  0.00    -0.246 OA
BRANCH  28  30
ATOM     30  C   UNL     1       6.926   4.601  -1.859  1.00  0.00     0.060 A 
ATOM     31  C   UNL     1       7.672   5.560  -1.166  1.00  0.00     0.016 A 
ATOM     32  C   UNL     1       6.050   3.771  -1.159  1.00  0.00     0.016 A 
ATOM     33  C   UNL     1       7.623   5.625   0.227  1.00  0.00     0.010 A 
ATOM     34  C   UNL     1       5.986   3.856   0.246  1.00  0.00     0.010 A 
ATOM     35  C   UNL     1       6.822   4.737   0.957  1.00  0.00    -0.014 A 
BRANCH  35  36
ATOM     36  C   UNL     1       7.008   4.647   2.440  1.00  0.00     0.031 A 
ATOM     37  C   UNL     1       7.648   3.419   3.049  1.00  0.00     0.074 A 
ATOM     38  C   UNL     1       6.702   5.687   3.244  1.00  0.00     0.049 A 
ATOM     39  N   UNL     1       7.999   3.197   4.292  1.00  0.00    -0.248 NA
ATOM     40  C   UNL     1       7.936   2.296   2.143  1.00  0.00     0.031 C 
ATOM     41  C   UNL     1       6.081   6.937   2.809  1.00  0.00     0.029 A 
ATOM     42  N   UNL     1       6.878   5.857   4.598  1.00  0.00    -0.354 N 
ATOM     43  C   UNL     1       8.523   1.908   4.321  1.00  0.00     0.074 A 
ATOM     44  C   UNL     1       8.421   1.387   2.976  1.00  0.00     0.031 C 
ATOM     45  C   UNL     1       5.934   7.747   3.870  1.00  0.00     0.029 A 
ATOM     46  C   UNL     1       6.418   7.065   5.070  1.00  0.00     0.049 A 
ATOM     47  H   UNL     1       7.295   5.178   5.176  1.00  0.00     0.167 HD
ATOM     48  C   UNL     1       9.058   1.219   5.360  1.00  0.00     0.034 A 
ATOM     49  C   UNL     1       6.372   7.566   6.323  1.00  0.00     0.034 A 
ATOM     50  C   UNL     1       9.177   1.729   6.700  1.00  0.00     0.049 A 
ATOM     51  C   UNL     1       6.940   6.767   7.468  1.00  0.00     0.074 A 
ATOM     52  C   UNL     1       9.752   1.120   7.803  1.00  0.00     0.029 A 
ATOM     53  N   UNL     1       8.693   2.953   7.132  1.00  0.00    -0.354 N 
ATOM     54  N   UNL     1       7.534   5.600   7.448  1.00  0.00    -0.248 NA
ATOM     55  C   UNL     1       6.860   7.373   8.807  1.00  0.00     0.031 C 
ATOM     56  C   UNL     1       9.565   1.950   8.912  1.00  0.00     0.029 A 
ATOM     57  C   UNL     1       8.932   3.106   8.488  1.00  0.00     0.049 A 
ATOM     58  H   UNL     1       8.245   3.617   6.559  1.00  0.00     0.167 HD
ATOM     59  C   UNL     1       7.933   5.350   8.758  1.00  0.00     0.074 A 
ATOM     60  C   UNL     1       7.531   6.497   9.543  1.00  0.00     0.031 C 
ATOM     61  C   UNL     1       8.569   4.264   9.263  1.00  0.00     0.034 A 
BRANCH  48  62
ATOM     62  C   UNL     1       9.568  -0.177   5.091  1.00  0.00     0.023 A 
ATOM     63  C   UNL     1      10.729  -0.368   4.314  1.00  0.00     0.012 A 
ATOM     64  C   UNL     1       8.933  -1.296   5.667  1.00  0.00     0.148 A 
ATOM     65  C   UNL     1      11.223  -1.651   4.078  1.00  0.00     0.002 A 
ATOM     66  C   UNL     1       9.461  -2.567   5.471  1.00  0.00     0.091 A 
ATOM     67  F   UNL     1       7.825  -1.097   6.396  1.00  0.00    -0.205 F 
ATOM     68  C   UNL     1      10.596  -2.748   4.664  1.00  0.00     0.022 A 
BRANCH  66  69
ATOM     69  S   UNL     1       8.780  -4.033   6.253  1.00  0.00     0.127 S 
ATOM     70  O   UNL     1       8.260  -4.769   5.100  1.00  0.00    -0.237 OA
ATOM     71  O   UNL     1       9.965  -4.628   6.871  1.00  0.00    -0.237 OA
ATOM     72  O   UNL     1       7.773  -3.561   7.193  1.00  0.00    -0.744 OA
ENDBRANCH  66  69
ENDBRANCH  48  62
BRANCH  49  73
ATOM     73  C   UNL     1       5.768   8.908   6.570  1.00  0.00     0.023 A 
ATOM     74  C   UNL     1       6.570   9.975   7.018  1.00  0.00     0.012 A 
ATOM     75  C   UNL     1       4.390   9.123   6.372  1.00  0.00     0.148 A 
ATOM     76  C   UNL     1       6.005  11.221   7.299  1.00  0.00     0.002 A 
ATOM     77  C   UNL     1       3.845  10.381   6.593  1.00  0.00     0.091 A 
ATOM     78  F   UNL     1       3.640   8.090   5.962  1.00  0.00    -0.205 F 
ATOM     79  C   UNL     1       4.646  11.427   7.077  1.00  0.00     0.022 A 
BRANCH  77  80
ATOM     80  S   UNL     1       2.134  10.769   6.211  1.00  0.00     0.127 S 
ATOM     81  O   UNL     1       1.584  11.036   7.538  1.00  0.00    -0.237 OA
ATOM     82  O   UNL     1       2.280  11.946   5.354  1.00  0.00    -0.237 OA
ATOM     83  O   UNL     1       1.602   9.594   5.534  1.00  0.00    -0.744 OA
ENDBRANCH  77  80
ENDBRANCH  49  73
BRANCH  61  84
ATOM     84  C   UNL     1       8.930   4.274  10.729  1.00  0.00     0.023 A 
ATOM     85  C   UNL     1       7.925   4.187  11.713  1.00  0.00     0.012 A 
ATOM     86  C   UNL     1      10.282   4.308  11.128  1.00  0.00     0.148 A 
ATOM     87  C   UNL     1       8.257   4.178  13.068  1.00  0.00     0.002 A 
ATOM     88  C   UNL     1      10.608   4.241  12.477  1.00  0.00     0.091 A 
ATOM     89  F   UNL     1      11.225   4.404  10.180  1.00  0.00    -0.205 F 
ATOM     90  C   UNL     1       9.597   4.193  13.449  1.00  0.00     0.022 A 
BRANCH  88  91
ATOM     91  S   UNL     1      12.306   4.158  13.059  1.00  0.00     0.127 S 
ATOM     92  O   UNL     1      12.454   5.450  13.726  1.00  0.00    -0.237 OA
ATOM     93  O   UNL     1      12.266   3.007  13.961  1.00  0.00    -0.237 OA
ATOM     94  O   UNL     1      13.132   3.973  11.873  1.00  0.00    -0.744 OA
ENDBRANCH  88  91
ENDBRANCH  61  84
ENDBRANCH  35  36
ENDBRANCH  28  30
ENDBRANCH  27  28
ENDBRANCH  26  27
ENDBRANCH  25  26
ENDBRANCH  24  25
ENDBRANCH   1  24
TORSDOF 23
