REMARK SMILES CS(=O)(=O)c1ccc(N2N=C(C(=O)OCCOCCOC(=O)c3ccc(-c4c5nc(c(-c6cccc(S(=O)(=O)[O-])c6F)c6ccc([nH]6)c(-c6cccc(S(=O)(=O)[O-])c6F)c6nc(c(-c7cccc(S(=O)(=O)[O-])c7F)c7ccc4[nH]7)C=C6)C=C5)cc3)C[C@H]2c2cccs2)cc1
REMARK SMILES IDX 18 1 17 2 16 3 15 4 14 5 12 6 13 7 11 8 9 9 10 10 87 11
REMARK SMILES IDX 86 12 8 13 5 14 6 15 94 16 7 17 93 18 2 19 1 20 3 21 4 22
REMARK SMILES IDX 88 23 89 24 92 25 90 26 91 27 19 28 20 29 21 30 22 31 23 32
REMARK SMILES IDX 24 33 85 34 25 35 84 36 26 37 27 38 28 39 78 40 29 41 83 42
REMARK SMILES IDX 77 43 79 44 30 45 82 46 76 47 75 48 31 50 63 51 43 52 62 53
REMARK SMILES IDX 44 54 47 55 61 56 80 57 45 58 46 59 60 61 81 62 48 63 32 64
REMARK SMILES IDX 33 65 41 66 34 67 36 68 42 69 35 70 37 71 38 72 39 73 40 74
REMARK SMILES IDX 64 75 65 76 73 77 66 78 68 79 74 80 67 81 69 82 70 83 71 84
REMARK SMILES IDX 72 85 49 86 50 87 58 88 51 89 53 90 59 91 52 92 54 93 55 94
REMARK SMILES IDX 56 95 57 96
REMARK H PARENT 79 49 47 60
REMARK Flexibility Score: inf
ROOT
ATOM      1  C   UNL     1       5.565   8.059   3.674  1.00  0.00     0.202 C 
ENDROOT
BRANCH   1   2
ATOM      2  O   UNL     1       6.652   8.943   3.387  1.00  0.00    -0.374 OA
BRANCH   2   3
ATOM      3  C   UNL     1       6.332  10.331   3.250  1.00  0.00     0.202 C 
BRANCH   3   4
ATOM      4  C   UNL     1       5.795  10.714   1.869  1.00  0.00     0.261 C 
BRANCH   4   5
ATOM      5  O   UNL     1       4.506  10.111   1.686  1.00  0.00    -0.459 OA
BRANCH   5   6
ATOM      6  C   UNL     1       4.363   9.389   0.558  1.00  0.00     0.354 C 
ATOM      7  O   UNL     1       5.086   9.369  -0.419  1.00  0.00    -0.245 OA
BRANCH   6   8
ATOM      8  C   UNL     1       3.192   8.457   0.727  1.00  0.00     0.148 C 
ATOM      9  N   UNL     1       1.960   6.748   0.568  1.00  0.00    -0.256 N 
ATOM     10  N   UNL     1       3.218   7.218   0.331  1.00  0.00    -0.169 NA
ATOM     11  C   UNL     1       1.001   7.828   0.858  1.00  0.00     0.154 C 
ATOM     12  C   UNL     1       1.949   8.884   1.446  1.00  0.00     0.099 C 
BRANCH   9  13
ATOM     13  C   UNL     1       1.633   5.465   0.165  1.00  0.00     0.060 A 
ATOM     14  C   UNL     1       0.987   2.833  -0.592  1.00  0.00     0.067 A 
ATOM     15  C   UNL     1       1.590   3.067   0.643  1.00  0.00     0.022 A 
ATOM     16  C   UNL     1       0.731   3.896  -1.462  1.00  0.00     0.022 A 
ATOM     17  C   UNL     1       1.913   4.380   1.008  1.00  0.00     0.029 A 
ATOM     18  C   UNL     1       1.060   5.199  -1.082  1.00  0.00     0.029 A 
BRANCH  14  19
ATOM     19  S   UNL     1       0.524   1.208  -1.134  1.00  0.00     0.175 S 
ATOM     20  C   UNL     1       1.187   0.048   0.025  1.00  0.00     0.163 C 
ATOM     21  O   UNL     1       1.200   0.979  -2.398  1.00  0.00    -0.224 OA
ATOM     22  O   UNL     1      -0.922   1.138  -1.038  1.00  0.00    -0.224 OA
ENDBRANCH  14  19
ENDBRANCH   9  13
BRANCH  11  23
ATOM     23  C   UNL     1       0.174   8.340  -0.313  1.00  0.00     0.030 A 
ATOM     24  C   UNL     1      -1.069   7.881  -0.719  1.00  0.00     0.017 A 
ATOM     25  S   UNL     1       0.724   9.593  -1.357  1.00  0.00    -0.147 S 
ATOM     26  C   UNL     1      -1.567   8.571  -1.863  1.00  0.00     0.012 A 
ATOM     27  C   UNL     1      -0.702   9.552  -2.288  1.00  0.00     0.065 A 
ENDBRANCH  11  23
ENDBRANCH   6   8
ENDBRANCH   5   6
ENDBRANCH   4   5
ENDBRANCH   3   4
ENDBRANCH   2   3
ENDBRANCH   1   2
BRANCH   1  28
ATOM     28  C   UNL     1       5.188   7.953   5.155  1.00  0.00     0.261 C 
BRANCH  28  29
ATOM     29  O   UNL     1       4.674   9.199   5.660  1.00  0.00    -0.460 OA
BRANCH  29  30
ATOM     30  C   UNL     1       5.497   9.836   6.529  1.00  0.00     0.338 C 
ATOM     31  O   UNL     1       6.543   9.409   6.992  1.00  0.00    -0.246 OA
BRANCH  30  32
ATOM     32  C   UNL     1       5.046  11.226   6.744  1.00  0.00     0.060 A 
ATOM     33  C   UNL     1       6.027  12.224   6.714  1.00  0.00     0.016 A 
ATOM     34  C   UNL     1       3.717  11.552   7.030  1.00  0.00     0.016 A 
ATOM     35  C   UNL     1       5.696  13.540   7.029  1.00  0.00     0.010 A 
ATOM     36  C   UNL     1       3.386  12.877   7.348  1.00  0.00     0.010 A 
ATOM     37  C   UNL     1       4.382  13.868   7.388  1.00  0.00    -0.014 A 
BRANCH  37  38
ATOM     38  C   UNL     1       4.102  15.226   7.917  1.00  0.00     0.031 A 
ATOM     39  C   UNL     1       4.043  15.442   9.404  1.00  0.00     0.074 A 
ATOM     40  C   UNL     1       3.949  16.268   7.081  1.00  0.00     0.049 A 
ATOM     41  N   UNL     1       3.942  16.562  10.072  1.00  0.00    -0.248 NA
ATOM     42  C   UNL     1       4.107  14.241  10.252  1.00  0.00     0.031 C 
ATOM     43  C   UNL     1       3.961  16.188   5.621  1.00  0.00     0.029 A 
ATOM     44  N   UNL     1       3.749  17.600   7.344  1.00  0.00    -0.354 N 
ATOM     45  C   UNL     1       3.920  16.204  11.414  1.00  0.00     0.074 A 
ATOM     46  C   UNL     1       3.994  14.760  11.467  1.00  0.00     0.031 C 
ATOM     47  C   UNL     1       3.770  17.419   5.117  1.00  0.00     0.029 A 
ATOM     48  C   UNL     1       3.625  18.373   6.215  1.00  0.00     0.049 A 
ATOM     49  H   UNL     1       3.700  17.968   8.256  1.00  0.00     0.167 HD
ATOM     50  C   UNL     1       3.872  17.004  12.505  1.00  0.00     0.034 A 
ATOM     51  C   UNL     1       3.430  19.701   6.082  1.00  0.00     0.034 A 
ATOM     52  C   UNL     1       3.827  18.440  12.457  1.00  0.00     0.049 A 
ATOM     53  C   UNL     1       3.388  20.570   7.312  1.00  0.00     0.074 A 
ATOM     54  C   UNL     1       3.845  19.338  13.510  1.00  0.00     0.029 A 
ATOM     55  N   UNL     1       3.745  19.189  11.294  1.00  0.00    -0.354 N 
ATOM     56  N   UNL     1       3.540  20.229   8.569  1.00  0.00    -0.248 NA
ATOM     57  C   UNL     1       3.193  22.012   7.101  1.00  0.00     0.031 C 
ATOM     58  C   UNL     1       3.760  20.632  12.983  1.00  0.00     0.029 A 
ATOM     59  C   UNL     1       3.699  20.538  11.602  1.00  0.00     0.049 A 
ATOM     60  H   UNL     1       3.722  18.817  10.383  1.00  0.00     0.167 HD
ATOM     61  C   UNL     1       3.499  21.415   9.294  1.00  0.00     0.074 A 
ATOM     62  C   UNL     1       3.323  22.486   8.334  1.00  0.00     0.031 C 
ATOM     63  C   UNL     1       3.586  21.600  10.635  1.00  0.00     0.034 A 
BRANCH  50  64
ATOM     64  C   UNL     1       3.917  16.340  13.855  1.00  0.00     0.023 A 
ATOM     65  C   UNL     1       5.142  15.831  14.332  1.00  0.00     0.012 A 
ATOM     66  C   UNL     1       2.772  16.265  14.669  1.00  0.00     0.148 A 
ATOM     67  C   UNL     1       5.221  15.234  15.589  1.00  0.00     0.002 A 
ATOM     68  C   UNL     1       2.866  15.699  15.936  1.00  0.00     0.091 A 
ATOM     69  F   UNL     1       1.609  16.726  14.186  1.00  0.00    -0.205 F 
ATOM     70  C   UNL     1       4.086  15.177  16.394  1.00  0.00     0.022 A 
BRANCH  68  71
ATOM     71  S   UNL     1       1.468  15.644  17.063  1.00  0.00     0.127 S 
ATOM     72  O   UNL     1       1.014  14.263  16.904  1.00  0.00    -0.237 OA
ATOM     73  O   UNL     1       2.092  15.935  18.354  1.00  0.00    -0.237 OA
ATOM     74  O   UNL     1       0.547  16.671  16.596  1.00  0.00    -0.744 OA
ENDBRANCH  68  71
ENDBRANCH  50  64
BRANCH  51  75
ATOM     75  C   UNL     1       3.347  20.301   4.721  1.00  0.00     0.023 A 
ATOM     76  C   UNL     1       4.411  21.094   4.249  1.00  0.00     0.012 A 
ATOM     77  C   UNL     1       2.243  20.062   3.881  1.00  0.00     0.148 A 
ATOM     78  C   UNL     1       4.366  21.657   2.973  1.00  0.00     0.002 A 
ATOM     79  C   UNL     1       2.228  20.583   2.593  1.00  0.00     0.091 A 
ATOM     80  F   UNL     1       1.230  19.322   4.357  1.00  0.00    -0.205 F 
ATOM     81  C   UNL     1       3.282  21.392   2.141  1.00  0.00     0.022 A 
BRANCH  79  82
ATOM     82  S   UNL     1       0.932  20.181   1.415  1.00  0.00     0.127 S 
ATOM     83  O   UNL     1       0.156  21.418   1.389  1.00  0.00    -0.237 OA
ATOM     84  O   UNL     1       1.699  19.908   0.198  1.00  0.00    -0.237 OA
ATOM     85  O   UNL     1       0.255  19.015   1.966  1.00  0.00    -0.744 OA
ENDBRANCH  79  82
ENDBRANCH  51  75
BRANCH  63  86
ATOM     86  C   UNL     1       3.520  23.012  11.155  1.00  0.00     0.023 A 
ATOM     87  C   UNL     1       2.283  23.686  11.181  1.00  0.00     0.012 A 
ATOM     88  C   UNL     1       4.660  23.641  11.692  1.00  0.00     0.148 A 
ATOM     89  C   UNL     1       2.188  24.973  11.708  1.00  0.00     0.002 A 
ATOM     90  C   UNL     1       4.549  24.908  12.253  1.00  0.00     0.091 A 
ATOM     91  F   UNL     1       5.835  22.995  11.639  1.00  0.00    -0.205 F 
ATOM     92  C   UNL     1       3.317  25.580  12.254  1.00  0.00     0.022 A 
BRANCH  90  93
ATOM     93  S   UNL     1       5.939  25.715  13.058  1.00  0.00     0.127 S 
ATOM     94  O   UNL     1       6.414  26.613  12.007  1.00  0.00    -0.237 OA
ATOM     95  O   UNL     1       5.304  26.387  14.193  1.00  0.00    -0.237 OA
ATOM     96  O   UNL     1       6.850  24.641  13.434  1.00  0.00    -0.744 OA
ENDBRANCH  90  93
ENDBRANCH  63  86
ENDBRANCH  37  38
ENDBRANCH  30  32
ENDBRANCH  29  30
ENDBRANCH  28  29
ENDBRANCH   1  28
TORSDOF 20
