REMARK SMILES COc1ccc(CCc2nnc(NC(=O)[C@@H]3[C@@H](C(=O)OCCOCCOC(=O)c4ccc(-c5c6nc(c(-c7cccc(S(=O)(=O)[O-])c7F)c7ccc([nH]7)c(-c7cccc(S(=O)(=O)[O-])c7F)c7nc(c(-c8cccc(S(=O)(=O)[O-])c8F)c8ccc5[nH]8)C=C7)C=C6)cc4)C3(C)C)s2)cc1
REMARK SMILES IDX 21 1 20 2 18 3 19 4 17 5 16 6 92 7 93 8 94 9 14 10 13 11
REMARK SMILES IDX 15 13 12 14 9 15 10 16 95 17 11 18 8 19 7 20 6 21 3 22 4 23
REMARK SMILES IDX 97 24 5 25 96 26 2 27 1 28 22 29 23 30 24 31 25 32 26 33
REMARK SMILES IDX 27 34 28 35 29 36 30 37 91 38 31 39 90 40 32 41 33 42 34 43
REMARK SMILES IDX 84 44 35 45 89 46 83 47 85 48 36 49 88 50 82 51 81 52 37 54
REMARK SMILES IDX 69 55 49 56 68 57 50 58 53 59 67 60 86 61 51 62 52 63 66 65
REMARK SMILES IDX 87 66 54 67 38 68 39 69 47 70 40 71 42 72 48 73 41 74 43 75
REMARK SMILES IDX 44 76 45 77 46 78 70 79 71 80 79 81 72 82 74 83 80 84 73 85
REMARK SMILES IDX 75 86 76 87 77 88 78 89 55 90 56 91 64 92 57 93 59 94 65 95
REMARK SMILES IDX 58 96 60 97 61 98 62 99 63 100
REMARK H PARENT 13 12 85 53 53 64
REMARK Flexibility Score: inf
ROOT
ATOM      1  C   UNL     1      -1.498  -4.646  -2.614  1.00  0.00     0.261 C 
ENDROOT
BRANCH   1   2
ATOM      2  O   UNL     1      -2.373  -5.771  -2.465  1.00  0.00    -0.463 OA
BRANCH   2   3
ATOM      3  C   UNL     1      -2.526  -6.508  -3.588  1.00  0.00     0.310 C 
ATOM      4  O   UNL     1      -2.097  -6.233  -4.702  1.00  0.00    -0.252 OA
BRANCH   3   5
ATOM      5  C   UNL     1      -3.176  -7.820  -3.386  1.00  0.00     0.118 C 
ATOM      6  C   UNL     1      -4.713  -7.790  -3.386  1.00  0.00     0.100 C 
ATOM      7  C   UNL     1      -3.951  -8.486  -2.283  1.00  0.00    -0.009 C 
ATOM      8  C   UNL     1      -4.040  -7.862  -0.909  1.00  0.00     0.013 C 
ATOM      9  C   UNL     1      -3.968  -9.995  -2.243  1.00  0.00     0.013 C 
BRANCH   6  10
ATOM     10  C   UNL     1      -5.225  -8.251  -4.702  1.00  0.00     0.230 C 
ATOM     11  N   UNL     1      -5.235  -7.340  -5.736  1.00  0.00    -0.300 N 
ATOM     12  H   UNL     1      -5.317  -7.685  -6.654  1.00  0.00     0.172 HD
ATOM     13  O   UNL     1      -5.499  -9.432  -4.892  1.00  0.00    -0.274 OA
BRANCH  11  14
ATOM     14  C   UNL     1      -5.138  -5.984  -5.564  1.00  0.00     0.212 A 
ATOM     15  C   UNL     1      -5.272  -3.659  -5.944  1.00  0.00     0.119 A 
ATOM     16  N   UNL     1      -5.246  -3.952  -4.661  1.00  0.00    -0.142 NA
ATOM     17  S   UNL     1      -4.989  -5.029  -6.969  1.00  0.00    -0.080 S 
ATOM     18  N   UNL     1      -5.185  -5.301  -4.449  1.00  0.00    -0.120 NA
BRANCH  15  19
ATOM     19  C   UNL     1      -5.565  -2.288  -6.457  1.00  0.00     0.074 C 
BRANCH  19  20
ATOM     20  C   UNL     1      -6.653  -2.211  -7.535  1.00  0.00     0.043 C 
BRANCH  20  21
ATOM     21  C   UNL     1      -8.075  -2.589  -7.163  1.00  0.00    -0.047 A 
ATOM     22  C   UNL     1     -10.770  -3.329  -6.771  1.00  0.00     0.118 A 
ATOM     23  C   UNL     1      -9.752  -4.224  -6.478  1.00  0.00     0.046 A 
ATOM     24  C   UNL     1     -10.453  -2.040  -7.192  1.00  0.00     0.046 A 
ATOM     25  C   UNL     1      -8.421  -3.861  -6.687  1.00  0.00     0.007 A 
ATOM     26  C   UNL     1      -9.115  -1.675  -7.390  1.00  0.00     0.007 A 
BRANCH  22  27
ATOM     27  O   UNL     1     -12.046  -3.783  -6.584  1.00  0.00    -0.497 OA
ATOM     28  C   UNL     1     -12.902  -3.490  -7.683  1.00  0.00     0.278 C 
ENDBRANCH  22  27
ENDBRANCH  20  21
ENDBRANCH  19  20
ENDBRANCH  15  19
ENDBRANCH  11  14
ENDBRANCH   6  10
ENDBRANCH   3   5
ENDBRANCH   2   3
ENDBRANCH   1   2
BRANCH   1  29
ATOM     29  C   UNL     1      -0.282  -4.771  -1.694  1.00  0.00     0.202 C 
BRANCH  29  30
ATOM     30  O   UNL     1       0.536  -5.933  -1.845  1.00  0.00    -0.374 OA
BRANCH  30  31
ATOM     31  C   UNL     1       0.011  -7.189  -1.416  1.00  0.00     0.202 C 
BRANCH  31  32
ATOM     32  C   UNL     1      -0.137  -7.436   0.091  1.00  0.00     0.261 C 
BRANCH  32  33
ATOM     33  O   UNL     1      -0.962  -6.465   0.754  1.00  0.00    -0.460 OA
BRANCH  33  34
ATOM     34  C   UNL     1      -0.290  -5.667   1.623  1.00  0.00     0.338 C 
ATOM     35  O   UNL     1       0.886  -5.755   1.938  1.00  0.00    -0.246 OA
BRANCH  34  36
ATOM     36  C   UNL     1      -1.127  -4.525   2.038  1.00  0.00     0.060 A 
ATOM     37  C   UNL     1      -0.573  -3.247   1.892  1.00  0.00     0.016 A 
ATOM     38  C   UNL     1      -2.379  -4.691   2.635  1.00  0.00     0.016 A 
ATOM     39  C   UNL     1      -1.243  -2.135   2.394  1.00  0.00     0.010 A 
ATOM     40  C   UNL     1      -3.049  -3.570   3.143  1.00  0.00     0.010 A 
ATOM     41  C   UNL     1      -2.466  -2.293   3.061  1.00  0.00    -0.014 A 
BRANCH  41  42
ATOM     42  C   UNL     1      -3.056  -1.119   3.750  1.00  0.00     0.031 A 
ATOM     43  C   UNL     1      -2.856  -0.947   5.231  1.00  0.00     0.074 A 
ATOM     44  C   UNL     1      -3.711  -0.178   3.048  1.00  0.00     0.049 A 
ATOM     45  N   UNL     1      -3.158   0.073   5.992  1.00  0.00    -0.248 NA
ATOM     46  C   UNL     1      -2.233  -2.070   5.949  1.00  0.00     0.031 C 
ATOM     47  C   UNL     1      -3.988  -0.238   1.614  1.00  0.00     0.029 A 
ATOM     48  N   UNL     1      -4.260   1.014   3.450  1.00  0.00    -0.354 N 
ATOM     49  C   UNL     1      -2.770  -0.284   7.278  1.00  0.00     0.074 A 
ATOM     50  C   UNL     1      -2.237  -1.628   7.199  1.00  0.00     0.031 C 
ATOM     51  C   UNL     1      -4.656   0.871   1.254  1.00  0.00     0.029 A 
ATOM     52  C   UNL     1      -4.854   1.717   2.429  1.00  0.00     0.049 A 
ATOM     53  H   UNL     1      -4.231   1.334   4.380  1.00  0.00     0.167 HD
ATOM     54  C   UNL     1      -2.825   0.448   8.417  1.00  0.00     0.034 A 
ATOM     55  C   UNL     1      -5.473   2.914   2.439  1.00  0.00     0.034 A 
ATOM     56  C   UNL     1      -3.342   1.788   8.495  1.00  0.00     0.049 A 
ATOM     57  C   UNL     1      -5.522   3.709   3.718  1.00  0.00     0.074 A 
ATOM     58  C   UNL     1      -3.393   2.631   9.592  1.00  0.00     0.029 A 
ATOM     59  N   UNL     1      -3.913   2.479   7.436  1.00  0.00    -0.354 N 
ATOM     60  N   UNL     1      -5.010   3.422   4.891  1.00  0.00    -0.248 NA
ATOM     61  C   UNL     1      -6.196   5.014   3.661  1.00  0.00     0.031 C 
ATOM     62  C   UNL     1      -4.012   3.825   9.200  1.00  0.00     0.029 A 
ATOM     63  C   UNL     1      -4.330   3.732   7.854  1.00  0.00     0.049 A 
ATOM     64  H   UNL     1      -4.008   2.129   6.521  1.00  0.00     0.167 HD
ATOM     65  C   UNL     1      -5.273   4.521   5.702  1.00  0.00     0.074 A 
ATOM     66  C   UNL     1      -5.966   5.490   4.877  1.00  0.00     0.031 C 
ATOM     67  C   UNL     1      -4.981   4.706   7.015  1.00  0.00     0.034 A 
BRANCH  54  68
ATOM     68  C   UNL     1      -2.267  -0.179   9.668  1.00  0.00     0.023 A 
ATOM     69  C   UNL     1      -0.870  -0.311   9.811  1.00  0.00     0.012 A 
ATOM     70  C   UNL     1      -3.110  -0.605  10.712  1.00  0.00     0.148 A 
ATOM     71  C   UNL     1      -0.323  -0.888  10.957  1.00  0.00     0.002 A 
ATOM     72  C   UNL     1      -2.555  -1.144  11.868  1.00  0.00     0.091 A 
ATOM     73  F   UNL     1      -4.436  -0.498  10.550  1.00  0.00    -0.205 F 
ATOM     74  C   UNL     1      -1.164  -1.296  11.988  1.00  0.00     0.022 A 
BRANCH  72  75
ATOM     75  S   UNL     1      -3.560  -1.631  13.276  1.00  0.00     0.127 S 
ATOM     76  O   UNL     1      -3.603  -3.084  13.121  1.00  0.00    -0.237 OA
ATOM     77  O   UNL     1      -2.759  -1.164  14.409  1.00  0.00    -0.237 OA
ATOM     78  O   UNL     1      -4.830  -0.939  13.113  1.00  0.00    -0.744 OA
ENDBRANCH  72  75
ENDBRANCH  54  68
BRANCH  55  79
ATOM     79  C   UNL     1      -6.019   3.472   1.170  1.00  0.00     0.023 A 
ATOM     80  C   UNL     1      -5.378   4.572   0.568  1.00  0.00     0.012 A 
ATOM     81  C   UNL     1      -7.138   2.897   0.538  1.00  0.00     0.148 A 
ATOM     82  C   UNL     1      -5.855   5.105  -0.630  1.00  0.00     0.002 A 
ATOM     83  C   UNL     1      -7.576   3.398  -0.682  1.00  0.00     0.091 A 
ATOM     84  F   UNL     1      -7.742   1.860   1.136  1.00  0.00    -0.205 F 
ATOM     85  C   UNL     1      -6.946   4.511  -1.260  1.00  0.00     0.022 A 
BRANCH  83  86
ATOM     86  S   UNL     1      -8.890   2.625  -1.632  1.00  0.00     0.127 S 
ATOM     87  O   UNL     1      -9.948   3.628  -1.551  1.00  0.00    -0.237 OA
ATOM     88  O   UNL     1      -8.268   2.490  -2.950  1.00  0.00    -0.237 OA
ATOM     89  O   UNL     1      -9.166   1.361  -0.963  1.00  0.00    -0.744 OA
ENDBRANCH  83  86
ENDBRANCH  55  79
BRANCH  67  90
ATOM     90  C   UNL     1      -5.402   6.011   7.642  1.00  0.00     0.023 A 
ATOM     91  C   UNL     1      -6.767   6.254   7.896  1.00  0.00     0.012 A 
ATOM     92  C   UNL     1      -4.449   6.976   8.024  1.00  0.00     0.148 A 
ATOM     93  C   UNL     1      -7.180   7.450   8.482  1.00  0.00     0.002 A 
ATOM     94  C   UNL     1      -4.864   8.148   8.649  1.00  0.00     0.091 A 
ATOM     95  F   UNL     1      -3.155   6.743   7.758  1.00  0.00    -0.205 F 
ATOM     96  C   UNL     1      -6.229   8.392   8.867  1.00  0.00     0.022 A 
BRANCH  94  97
ATOM     97  S   UNL     1      -3.693   9.367   9.257  1.00  0.00     0.127 S 
ATOM     98  O   UNL     1      -3.701  10.354   8.179  1.00  0.00    -0.237 OA
ATOM     99  O   UNL     1      -4.319   9.819  10.500  1.00  0.00    -0.237 OA
ATOM    100  O   UNL     1      -2.441   8.646   9.447  1.00  0.00    -0.744 OA
ENDBRANCH  94  97
ENDBRANCH  67  90
ENDBRANCH  41  42
ENDBRANCH  34  36
ENDBRANCH  33  34
ENDBRANCH  32  33
ENDBRANCH  31  32
ENDBRANCH  30  31
ENDBRANCH  29  30
ENDBRANCH   1  29
TORSDOF 23
