REMARK SMILES COc1cccc(C[N@@H+]2C[C@H](C(=O)OCCOCCOC(=O)c3ccc(-c4c5nc(c(-c6cccc(S(=O)(=O)[O-])c6F)c6ccc([nH]6)c(-c6cccc(S(=O)(=O)[O-])c6F)c6nc(c(-c7cccc(S(=O)(=O)[O-])c7F)c7ccc4[nH]7)C=C6)C=C5)cc3)C3(CC[NH+](C)CC3)C2)c1
REMARK SMILES IDX 17 1 16 2 15 3 14 4 12 5 13 6 11 7 9 8 10 9 93 10 86 12
REMARK SMILES IDX 87 13 92 14 88 15 91 16 89 17 90 18 8 20 7 21 3 22 4 23
REMARK SMILES IDX 94 24 5 25 6 26 2 27 1 28 18 29 19 30 20 31 21 32 22 33
REMARK SMILES IDX 23 34 24 35 85 36 25 37 84 38 26 39 27 40 28 41 78 42 29 43
REMARK SMILES IDX 83 44 77 45 79 46 30 47 82 48 76 49 75 50 31 52 63 53 43 54
REMARK SMILES IDX 62 55 44 56 47 57 61 58 80 59 45 60 46 61 60 63 81 64 48 65
REMARK SMILES IDX 32 66 33 67 41 68 34 69 36 70 42 71 35 72 37 73 38 74 39 75
REMARK SMILES IDX 40 76 64 77 65 78 73 79 66 80 68 81 74 82 67 83 69 84 70 85
REMARK SMILES IDX 71 86 72 87 49 88 50 89 58 90 51 91 53 92 59 93 52 94 54 95
REMARK SMILES IDX 55 96 56 97 57 98
REMARK H PARENT 9 11 89 19 79 51 47 62
REMARK Flexibility Score: inf
ROOT
ATOM      1  O   UNL     1       1.757  -1.857  10.428  1.00  0.00    -0.374 OA
ENDROOT
BRANCH   1   2
ATOM      2  C   UNL     1       0.952  -0.766   9.991  1.00  0.00     0.202 C 
BRANCH   2   3
ATOM      3  C   UNL     1       1.676   0.423   9.360  1.00  0.00     0.261 C 
BRANCH   3   4
ATOM      4  O   UNL     1       2.407   0.078   8.171  1.00  0.00    -0.463 OA
BRANCH   4   5
ATOM      5  C   UNL     1       3.758   0.238   8.232  1.00  0.00     0.315 C 
ATOM      6  O   UNL     1       4.381   0.527   9.248  1.00  0.00    -0.252 OA
BRANCH   5   7
ATOM      7  C   UNL     1       4.443   0.024   6.900  1.00  0.00     0.166 C 
ATOM      8  N   UNL     1       4.552  -1.090   4.854  1.00  0.00    -0.330 N 
ATOM      9  C   UNL     1       3.946  -1.217   6.175  1.00  0.00     0.278 C 
ATOM     10  C   UNL     1       4.644   0.337   4.524  1.00  0.00     0.271 C 
ATOM     11  H   UNL     1       5.496  -1.474   4.898  1.00  0.00     0.348 HD
ATOM     12  C   UNL     1       4.358   1.139   5.830  1.00  0.00     0.049 C 
ATOM     13  C   UNL     1       5.438   2.219   6.029  1.00  0.00     0.075 C 
ATOM     14  C   UNL     1       2.978   1.839   5.702  1.00  0.00     0.075 C 
ATOM     15  C   UNL     1       5.093   3.207   7.143  1.00  0.00     0.262 C 
ATOM     16  C   UNL     1       2.708   2.925   6.754  1.00  0.00     0.262 C 
ATOM     17  N   UNL     1       3.802   3.873   6.968  1.00  0.00    -0.337 N 
ATOM     18  C   UNL     1       3.832   4.908   5.939  1.00  0.00     0.332 C 
ATOM     19  H   UNL     1       3.615   4.349   7.850  1.00  0.00     0.347 HD
BRANCH   8  20
ATOM     20  C   UNL     1       3.996  -1.955   3.804  1.00  0.00     0.299 C 
BRANCH  20  21
ATOM     21  C   UNL     1       2.581  -1.631   3.371  1.00  0.00     0.010 A 
ATOM     22  C   UNL     1       1.053  -0.369   1.963  1.00  0.00     0.119 A 
ATOM     23  C   UNL     1       0.004  -0.673   2.819  1.00  0.00     0.046 A 
ATOM     24  C   UNL     1       2.340  -0.834   2.238  1.00  0.00     0.056 A 
ATOM     25  C   UNL     1       0.226  -1.518   3.898  1.00  0.00     0.004 A 
ATOM     26  C   UNL     1       1.494  -2.027   4.156  1.00  0.00     0.010 A 
BRANCH  22  27
ATOM     27  O   UNL     1       0.767   0.487   0.939  1.00  0.00    -0.497 OA
ATOM     28  C   UNL     1       1.212   0.015  -0.326  1.00  0.00     0.278 C 
ENDBRANCH  22  27
ENDBRANCH  20  21
ENDBRANCH   8  20
ENDBRANCH   5   7
ENDBRANCH   4   5
ENDBRANCH   3   4
ENDBRANCH   2   3
ENDBRANCH   1   2
BRANCH   1  29
ATOM     29  C   UNL     1       2.322  -2.698   9.426  1.00  0.00     0.202 C 
BRANCH  29  30
ATOM     30  C   UNL     1       1.373  -3.656   8.694  1.00  0.00     0.261 C 
BRANCH  30  31
ATOM     31  O   UNL     1       0.348  -2.994   7.931  1.00  0.00    -0.460 OA
BRANCH  31  32
ATOM     32  C   UNL     1      -0.911  -3.150   8.405  1.00  0.00     0.338 C 
ATOM     33  O   UNL     1      -1.255  -3.777   9.406  1.00  0.00    -0.246 OA
BRANCH  32  34
ATOM     34  C   UNL     1      -1.858  -2.352   7.614  1.00  0.00     0.060 A 
ATOM     35  C   UNL     1      -2.551  -1.303   8.229  1.00  0.00     0.016 A 
ATOM     36  C   UNL     1      -2.137  -2.702   6.294  1.00  0.00     0.016 A 
ATOM     37  C   UNL     1      -3.543  -0.613   7.526  1.00  0.00     0.010 A 
ATOM     38  C   UNL     1      -3.105  -1.986   5.582  1.00  0.00     0.010 A 
ATOM     39  C   UNL     1      -3.846  -0.966   6.204  1.00  0.00    -0.014 A 
BRANCH  39  40
ATOM     40  C   UNL     1      -5.047  -0.408   5.523  1.00  0.00     0.031 A 
ATOM     41  C   UNL     1      -6.222  -1.321   5.269  1.00  0.00     0.074 A 
ATOM     42  C   UNL     1      -5.100   0.876   5.121  1.00  0.00     0.049 A 
ATOM     43  N   UNL     1      -7.340  -1.080   4.636  1.00  0.00    -0.248 NA
ATOM     44  C   UNL     1      -6.111  -2.698   5.783  1.00  0.00     0.031 C 
ATOM     45  C   UNL     1      -4.035   1.863   5.288  1.00  0.00     0.029 A 
ATOM     46  N   UNL     1      -6.094   1.565   4.467  1.00  0.00    -0.354 N 
ATOM     47  C   UNL     1      -8.040  -2.281   4.634  1.00  0.00     0.074 A 
ATOM     48  C   UNL     1      -7.211  -3.257   5.304  1.00  0.00     0.031 C 
ATOM     49  C   UNL     1      -4.429   3.029   4.745  1.00  0.00     0.029 A 
ATOM     50  C   UNL     1      -5.762   2.867   4.169  1.00  0.00     0.049 A 
ATOM     51  H   UNL     1      -6.962   1.164   4.234  1.00  0.00     0.167 HD
ATOM     52  C   UNL     1      -9.275  -2.549   4.149  1.00  0.00     0.034 A 
ATOM     53  C   UNL     1      -6.452   3.814   3.500  1.00  0.00     0.034 A 
ATOM     54  C   UNL     1     -10.130  -1.569   3.539  1.00  0.00     0.049 A 
ATOM     55  C   UNL     1      -7.833   3.496   2.981  1.00  0.00     0.074 A 
ATOM     56  C   UNL     1     -11.424  -1.728   3.075  1.00  0.00     0.029 A 
ATOM     57  N   UNL     1      -9.782  -0.247   3.316  1.00  0.00    -0.354 N 
ATOM     58  N   UNL     1      -8.524   2.387   3.094  1.00  0.00    -0.248 NA
ATOM     59  C   UNL     1      -8.542   4.572   2.270  1.00  0.00     0.031 C 
ATOM     60  C   UNL     1     -11.854  -0.502   2.558  1.00  0.00     0.029 A 
ATOM     61  C   UNL     1     -10.834   0.423   2.717  1.00  0.00     0.049 A 
ATOM     62  H   UNL     1      -8.915   0.156   3.548  1.00  0.00     0.167 HD
ATOM     63  C   UNL     1      -9.758   2.643   2.502  1.00  0.00     0.074 A 
ATOM     64  C   UNL     1      -9.727   4.018   2.050  1.00  0.00     0.031 C 
ATOM     65  C   UNL     1     -10.814   1.810   2.333  1.00  0.00     0.034 A 
BRANCH  52  66
ATOM     66  C   UNL     1      -9.794  -3.953   4.305  1.00  0.00     0.023 A 
ATOM     67  C   UNL     1     -10.189  -4.409   5.580  1.00  0.00     0.012 A 
ATOM     68  C   UNL     1      -9.928  -4.805   3.192  1.00  0.00     0.148 A 
ATOM     69  C   UNL     1     -10.676  -5.704   5.750  1.00  0.00     0.002 A 
ATOM     70  C   UNL     1     -10.455  -6.080   3.364  1.00  0.00     0.091 A 
ATOM     71  F   UNL     1      -9.523  -4.361   1.994  1.00  0.00    -0.205 F 
ATOM     72  C   UNL     1     -10.818  -6.535   4.642  1.00  0.00     0.022 A 
BRANCH  70  73
ATOM     73  S   UNL     1     -10.747  -7.197   1.988  1.00  0.00     0.127 S 
ATOM     74  O   UNL     1      -9.690  -8.188   2.183  1.00  0.00    -0.237 OA
ATOM     75  O   UNL     1     -12.098  -7.684   2.267  1.00  0.00    -0.237 OA
ATOM     76  O   UNL     1     -10.633  -6.387   0.783  1.00  0.00    -0.744 OA
ENDBRANCH  70  73
ENDBRANCH  52  66
BRANCH  53  77
ATOM     77  C   UNL     1      -5.876   5.179   3.326  1.00  0.00     0.023 A 
ATOM     78  C   UNL     1      -6.452   6.264   4.017  1.00  0.00     0.012 A 
ATOM     79  C   UNL     1      -4.767   5.412   2.490  1.00  0.00     0.148 A 
ATOM     80  C   UNL     1      -5.955   7.558   3.856  1.00  0.00     0.002 A 
ATOM     81  C   UNL     1      -4.243   6.695   2.375  1.00  0.00     0.091 A 
ATOM     82  F   UNL     1      -4.245   4.372   1.825  1.00  0.00    -0.205 F 
ATOM     83  C   UNL     1      -4.845   7.772   3.043  1.00  0.00     0.022 A 
BRANCH  81  84
ATOM     84  S   UNL     1      -2.745   7.046   1.445  1.00  0.00     0.127 S 
ATOM     85  O   UNL     1      -3.272   7.771   0.292  1.00  0.00    -0.237 OA
ATOM     86  O   UNL     1      -1.986   7.863   2.393  1.00  0.00    -0.237 OA
ATOM     87  O   UNL     1      -2.148   5.748   1.160  1.00  0.00    -0.744 OA
ENDBRANCH  81  84
ENDBRANCH  53  77
BRANCH  65  88
ATOM     88  C   UNL     1     -12.048   2.360   1.664  1.00  0.00     0.023 A 
ATOM     89  C   UNL     1     -12.046   2.585   0.273  1.00  0.00     0.012 A 
ATOM     90  C   UNL     1     -13.235   2.560   2.396  1.00  0.00     0.148 A 
ATOM     91  C   UNL     1     -13.199   3.026  -0.374  1.00  0.00     0.002 A 
ATOM     92  C   UNL     1     -14.393   2.956   1.737  1.00  0.00     0.091 A 
ATOM     93  F   UNL     1     -13.212   2.357   3.721  1.00  0.00    -0.205 F 
ATOM     94  C   UNL     1     -14.374   3.199   0.354  1.00  0.00     0.022 A 
BRANCH  92  95
ATOM     95  S   UNL     1     -15.973   3.109   2.578  1.00  0.00     0.127 S 
ATOM     96  O   UNL     1     -16.126   4.561   2.663  1.00  0.00    -0.237 OA
ATOM     97  O   UNL     1     -16.890   2.454   1.644  1.00  0.00    -0.237 OA
ATOM     98  O   UNL     1     -15.816   2.419   3.851  1.00  0.00    -0.744 OA
ENDBRANCH  92  95
ENDBRANCH  65  88
ENDBRANCH  39  40
ENDBRANCH  32  34
ENDBRANCH  31  32
ENDBRANCH  30  31
ENDBRANCH  29  30
ENDBRANCH   1  29
TORSDOF 20
