REMARK SMILES COc1cc(/N=C/Cc2nnnn2-c2ccc(Cl)cc2)c(Cl)cc1C(=O)OCCOCCOC(=O)c1ccc(-c2c3nc(c(-c4cccc(S(=O)(=O)[O-])c4F)c4ccc([nH]4)c(-c4cccc(S(=O)(=O)[O-])c4F)c4nc(c(-c5cccc(S(=O)(=O)[O-])c5F)c5ccc2[nH]5)C=C4)C=C3)cc1
REMARK SMILES IDX 29 1 28 2 27 3 25 4 26 5 24 6 3 7 4 8 5 9 23 10 21 11 22 12
REMARK SMILES IDX 2 13 1 14 6 15 7 16 8 17 9 18 10 19 13 20 11 21 12 22 14 23
REMARK SMILES IDX 15 24 20 25 16 26 19 27 17 28 18 29 30 30 31 31 32 32 33 33
REMARK SMILES IDX 34 34 35 35 36 36 37 37 98 38 38 39 97 40 39 41 40 42 41 43
REMARK SMILES IDX 91 44 42 45 96 46 90 47 92 48 43 49 95 50 89 51 88 52 44 54
REMARK SMILES IDX 76 55 56 56 75 57 57 58 60 59 74 60 93 61 58 62 59 63 73 65
REMARK SMILES IDX 94 66 61 67 45 68 46 69 54 70 47 71 49 72 55 73 48 74 50 75
REMARK SMILES IDX 51 76 52 77 53 78 77 79 78 80 86 81 79 82 81 83 87 84 80 85
REMARK SMILES IDX 82 86 83 87 84 88 85 89 62 90 63 91 71 92 64 93 66 94 72 95
REMARK SMILES IDX 65 96 67 97 68 98 69 99 70 100
REMARK H PARENT 92 53 60 64
REMARK Flexibility Score: inf
ROOT
ATOM      1  C   UNL     1      -4.107   1.601  -1.941  1.00  0.00     0.202 C 
ENDROOT
BRANCH   1   2
ATOM      2  C   UNL     1      -2.950   1.152  -2.833  1.00  0.00     0.261 C 
BRANCH   2   3
ATOM      3  O   UNL     1      -1.670   1.492  -2.272  1.00  0.00    -0.460 OA
BRANCH   3   4
ATOM      4  C   UNL     1      -0.907   2.298  -3.049  1.00  0.00     0.342 C 
ATOM      5  O   UNL     1      -1.179   2.712  -4.165  1.00  0.00    -0.246 OA
BRANCH   4   6
ATOM      6  C   UNL     1       0.230   2.851  -2.288  1.00  0.00     0.103 A 
ATOM      7  C   UNL     1       1.198   2.071  -1.660  1.00  0.00     0.135 A 
ATOM      8  C   UNL     1       2.344   2.697  -1.147  1.00  0.00     0.077 A 
ATOM      9  C   UNL     1       2.498   4.095  -1.166  1.00  0.00     0.085 A 
ATOM     10  C   UNL     1       0.330   4.249  -2.255  1.00  0.00     0.042 A 
ATOM     11  C   UNL     1       1.426   4.867  -1.651  1.00  0.00     0.067 A 
ATOM     12  Cl  UNL     1       1.378   6.593  -1.526  1.00  0.00    -0.082 Cl
BRANCH   7  13
ATOM     13  O   UNL     1       1.054   0.710  -1.631  1.00  0.00    -0.496 OA
ATOM     14  C   UNL     1       1.213   0.175  -0.311  1.00  0.00     0.278 C 
ENDBRANCH   7  13
BRANCH   9  15
ATOM     15  N   UNL     1       3.736   4.593  -0.694  1.00  0.00    -0.259 NA
ATOM     16  C   UNL     1       4.352   5.477  -1.412  1.00  0.00     0.092 C 
BRANCH  16  17
ATOM     17  C   UNL     1       5.726   5.981  -1.034  1.00  0.00     0.127 C 
BRANCH  17  18
ATOM     18  C   UNL     1       6.253   6.730  -2.207  1.00  0.00     0.162 A 
ATOM     19  N   UNL     1       6.343   6.261  -3.438  1.00  0.00    -0.113 NA
ATOM     20  N   UNL     1       6.457   8.098  -2.258  1.00  0.00    -0.197 N 
ATOM     21  N   UNL     1       6.457   7.349  -4.258  1.00  0.00    -0.023 NA
ATOM     22  N   UNL     1       6.445   8.472  -3.559  1.00  0.00    -0.040 NA
BRANCH  20  23
ATOM     23  C   UNL     1       6.665   9.039  -1.229  1.00  0.00     0.069 A 
ATOM     24  C   UNL     1       7.366   8.684  -0.069  1.00  0.00     0.030 A 
ATOM     25  C   UNL     1       6.203  10.352  -1.400  1.00  0.00     0.030 A 
ATOM     26  C   UNL     1       7.591   9.643   0.923  1.00  0.00     0.023 A 
ATOM     27  C   UNL     1       6.399  11.293  -0.387  1.00  0.00     0.023 A 
ATOM     28  C   UNL     1       7.096  10.937   0.766  1.00  0.00     0.041 A 
ATOM     29  Cl  UNL     1       7.361  12.109   1.997  1.00  0.00    -0.084 Cl
ENDBRANCH  20  23
ENDBRANCH  17  18
ENDBRANCH  16  17
ENDBRANCH   9  15
ENDBRANCH   4   6
ENDBRANCH   3   4
ENDBRANCH   2   3
ENDBRANCH   1   2
BRANCH   1  30
ATOM     30  O   UNL     1      -4.292   3.005  -1.741  1.00  0.00    -0.374 OA
BRANCH  30  31
ATOM     31  C   UNL     1      -3.301   3.749  -1.041  1.00  0.00     0.202 C 
BRANCH  31  32
ATOM     32  C   UNL     1      -3.159   3.541   0.460  1.00  0.00     0.261 C 
BRANCH  32  33
ATOM     33  O   UNL     1      -2.904   2.188   0.792  1.00  0.00    -0.460 OA
BRANCH  33  34
ATOM     34  C   UNL     1      -4.002   1.524   1.220  1.00  0.00     0.338 C 
ATOM     35  O   UNL     1      -5.166   1.852   1.077  1.00  0.00    -0.246 OA
BRANCH  34  36
ATOM     36  C   UNL     1      -3.568   0.394   2.042  1.00  0.00     0.060 A 
ATOM     37  C   UNL     1      -4.586  -0.348   2.645  1.00  0.00     0.016 A 
ATOM     38  C   UNL     1      -2.231   0.323   2.459  1.00  0.00     0.016 A 
ATOM     39  C   UNL     1      -4.305  -0.980   3.830  1.00  0.00     0.010 A 
ATOM     40  C   UNL     1      -1.960  -0.281   3.658  1.00  0.00     0.010 A 
ATOM     41  C   UNL     1      -3.020  -0.847   4.361  1.00  0.00    -0.014 A 
BRANCH  41  42
ATOM     42  C   UNL     1      -2.768  -1.413   5.662  1.00  0.00     0.031 A 
ATOM     43  C   UNL     1      -2.567  -2.872   5.594  1.00  0.00     0.074 A 
ATOM     44  C   UNL     1      -2.617  -0.636   6.750  1.00  0.00     0.049 A 
ATOM     45  N   UNL     1      -3.372  -3.798   5.997  1.00  0.00    -0.248 NA
ATOM     46  C   UNL     1      -1.456  -3.358   4.760  1.00  0.00     0.031 C 
ATOM     47  C   UNL     1      -2.509   0.826   6.792  1.00  0.00     0.029 A 
ATOM     48  N   UNL     1      -2.362  -1.005   8.032  1.00  0.00    -0.354 N 
ATOM     49  C   UNL     1      -2.702  -4.983   5.710  1.00  0.00     0.074 A 
ATOM     50  C   UNL     1      -1.729  -4.661   4.706  1.00  0.00     0.031 C 
ATOM     51  C   UNL     1      -1.956   1.189   7.970  1.00  0.00     0.029 A 
ATOM     52  C   UNL     1      -1.780   0.004   8.792  1.00  0.00     0.049 A 
ATOM     53  H   UNL     1      -2.569  -1.899   8.388  1.00  0.00     0.167 HD
ATOM     54  C   UNL     1      -2.733  -6.019   6.591  1.00  0.00     0.034 A 
ATOM     55  C   UNL     1      -1.103  -0.163   9.955  1.00  0.00     0.034 A 
ATOM     56  C   UNL     1      -3.835  -5.877   7.516  1.00  0.00     0.049 A 
ATOM     57  C   UNL     1      -1.470  -1.496  10.492  1.00  0.00     0.074 A 
ATOM     58  C   UNL     1      -5.202  -5.725   7.400  1.00  0.00     0.029 A 
ATOM     59  N   UNL     1      -3.512  -5.487   8.793  1.00  0.00    -0.354 N 
ATOM     60  N   UNL     1      -2.657  -1.796  10.937  1.00  0.00    -0.248 NA
ATOM     61  C   UNL     1      -0.628  -2.631  10.148  1.00  0.00     0.031 C 
ATOM     62  C   UNL     1      -5.575  -4.859   8.470  1.00  0.00     0.029 A 
ATOM     63  C   UNL     1      -4.431  -4.569   9.216  1.00  0.00     0.049 A 
ATOM     64  H   UNL     1      -2.746  -5.815   9.317  1.00  0.00     0.167 HD
ATOM     65  C   UNL     1      -2.875  -3.093  10.490  1.00  0.00     0.074 A 
ATOM     66  C   UNL     1      -1.550  -3.597  10.135  1.00  0.00     0.031 C 
ATOM     67  C   UNL     1      -4.132  -3.515  10.162  1.00  0.00     0.034 A 
BRANCH  54  68
ATOM     68  C   UNL     1      -1.528  -6.883   6.932  1.00  0.00     0.023 A 
ATOM     69  C   UNL     1      -1.752  -7.932   7.851  1.00  0.00     0.012 A 
ATOM     70  C   UNL     1      -0.175  -6.553   6.668  1.00  0.00     0.148 A 
ATOM     71  C   UNL     1      -0.702  -8.536   8.549  1.00  0.00     0.002 A 
ATOM     72  C   UNL     1       0.869  -7.202   7.314  1.00  0.00     0.091 A 
ATOM     73  F   UNL     1       0.140  -5.529   5.878  1.00  0.00    -0.205 F 
ATOM     74  C   UNL     1       0.611  -8.167   8.286  1.00  0.00     0.022 A 
BRANCH  72  75
ATOM     75  S   UNL     1       2.587  -6.777   6.983  1.00  0.00     0.127 S 
ATOM     76  O   UNL     1       2.958  -6.095   8.219  1.00  0.00    -0.237 OA
ATOM     77  O   UNL     1       3.186  -8.098   6.795  1.00  0.00    -0.237 OA
ATOM     78  O   UNL     1       2.572  -5.952   5.781  1.00  0.00    -0.744 OA
ENDBRANCH  72  75
ENDBRANCH  54  68
BRANCH  55  79
ATOM     79  C   UNL     1       0.038   0.607  10.503  1.00  0.00     0.023 A 
ATOM     80  C   UNL     1       0.353   0.493  11.872  1.00  0.00     0.012 A 
ATOM     81  C   UNL     1       0.979   1.234   9.655  1.00  0.00     0.148 A 
ATOM     82  C   UNL     1       1.577   0.954  12.373  1.00  0.00     0.002 A 
ATOM     83  C   UNL     1       2.188   1.704  10.159  1.00  0.00     0.091 A 
ATOM     84  F   UNL     1       0.733   1.284   8.340  1.00  0.00    -0.205 F 
ATOM     85  C   UNL     1       2.497   1.553  11.516  1.00  0.00     0.022 A 
BRANCH  83  86
ATOM     86  S   UNL     1       3.427   2.474   9.108  1.00  0.00     0.127 S 
ATOM     87  O   UNL     1       3.769   3.675   9.870  1.00  0.00    -0.237 OA
ATOM     88  O   UNL     1       4.472   1.454   9.072  1.00  0.00    -0.237 OA
ATOM     89  O   UNL     1       2.763   2.742   7.838  1.00  0.00    -0.744 OA
ENDBRANCH  83  86
ENDBRANCH  55  79
BRANCH  67  90
ATOM     90  C   UNL     1      -5.299  -2.676  10.613  1.00  0.00     0.023 A 
ATOM     91  C   UNL     1      -5.511  -1.359  10.156  1.00  0.00     0.012 A 
ATOM     92  C   UNL     1      -6.291  -3.296  11.390  1.00  0.00     0.148 A 
ATOM     93  C   UNL     1      -6.677  -0.667  10.492  1.00  0.00     0.002 A 
ATOM     94  C   UNL     1      -7.470  -2.623  11.680  1.00  0.00     0.091 A 
ATOM     95  F   UNL     1      -6.074  -4.550  11.814  1.00  0.00    -0.205 F 
ATOM     96  C   UNL     1      -7.664  -1.304  11.242  1.00  0.00     0.022 A 
BRANCH  94  97
ATOM     97  S   UNL     1      -8.823  -3.438  12.529  1.00  0.00     0.127 S 
ATOM     98  O   UNL     1      -8.717  -2.883  13.877  1.00  0.00    -0.237 OA
ATOM     99  O   UNL     1      -9.991  -2.986  11.770  1.00  0.00    -0.237 OA
ATOM    100  O   UNL     1      -8.562  -4.868  12.415  1.00  0.00    -0.744 OA
ENDBRANCH  94  97
ENDBRANCH  67  90
ENDBRANCH  41  42
ENDBRANCH  34  36
ENDBRANCH  33  34
ENDBRANCH  32  33
ENDBRANCH  31  32
ENDBRANCH  30  31
ENDBRANCH   1  30
TORSDOF 22
