REMARK SMILES O=C(OCCOCCOC(=O)[C@H]1CCCCN1c1cc(-c2ccccc2)nc(-c2cccc(Cl)c2)n1)c1ccc(-c2c3nc(c(-c4cccc(S(=O)(=O)[O-])c4F)c4ccc([nH]4)c(-c4cccc(S(=O)(=O)[O-])c4F)c4nc(c(-c5cccc(S(=O)(=O)[O-])c5F)c5ccc2[nH]5)C=C4)C=C3)cc1
REMARK SMILES IDX 5 1 4 2 3 3 2 4 1 5 37 6 38 7 99 8 39 9 98 10 40 11 41 12
REMARK SMILES IDX 42 13 92 14 43 15 97 16 91 17 93 18 44 19 96 20 90 21 89 22
REMARK SMILES IDX 45 24 77 25 57 26 76 27 58 28 61 29 75 30 94 31 59 32 60 33
REMARK SMILES IDX 74 35 95 36 62 37 46 38 47 39 55 40 48 41 50 42 56 43 49 44
REMARK SMILES IDX 51 45 52 46 53 47 54 48 78 49 79 50 87 51 80 52 82 53 88 54
REMARK SMILES IDX 81 55 83 56 84 57 85 58 86 59 63 60 64 61 72 62 65 63 67 64
REMARK SMILES IDX 73 65 66 66 68 67 69 68 70 69 71 70 6 71 7 72 8 73 9 74
REMARK SMILES IDX 10 75 11 76 12 77 13 78 17 79 14 80 16 81 15 82 18 83 19 84
REMARK SMILES IDX 36 85 20 86 28 87 27 88 21 89 22 90 26 91 23 92 25 93 24 94
REMARK SMILES IDX 29 95 30 96 35 97 31 98 33 99 32 100 34 101
REMARK H PARENT 93 23 61 34
REMARK Flexibility Score: inf
ROOT
ATOM      1  C   UNL     1       6.581   1.173   1.171  1.00  0.00     0.202 C 
ENDROOT
BRANCH   1   2
ATOM      2  C   UNL     1       7.032   0.955  -0.273  1.00  0.00     0.261 C 
BRANCH   2   3
ATOM      3  O   UNL     1       7.978  -0.116  -0.355  1.00  0.00    -0.460 OA
BRANCH   3   4
ATOM      4  C   UNL     1       9.329  -0.013  -0.327  1.00  0.00     0.338 C 
ATOM      5  O   UNL     1       9.989  -1.052  -0.364  1.00  0.00    -0.246 OA
BRANCH   4   6
ATOM      6  C   UNL     1      10.068   1.290  -0.312  1.00  0.00     0.060 A 
ATOM      7  C   UNL     1       9.625   2.468   0.296  1.00  0.00     0.016 A 
ATOM      8  C   UNL     1      11.355   1.289  -0.875  1.00  0.00     0.016 A 
ATOM      9  C   UNL     1      10.410   3.611   0.338  1.00  0.00     0.010 A 
ATOM     10  C   UNL     1      12.168   2.425  -0.810  1.00  0.00     0.010 A 
ATOM     11  C   UNL     1      11.693   3.588  -0.196  1.00  0.00    -0.014 A 
BRANCH  11  12
ATOM     12  C   UNL     1      12.497   4.817  -0.115  1.00  0.00     0.031 A 
ATOM     13  C   UNL     1      12.656   5.651  -1.344  1.00  0.00     0.074 A 
ATOM     14  C   UNL     1      12.994   5.194   1.077  1.00  0.00     0.049 A 
ATOM     15  N   UNL     1      13.354   6.738  -1.513  1.00  0.00    -0.248 NA
ATOM     16  C   UNL     1      11.919   5.211  -2.542  1.00  0.00     0.031 C 
ATOM     17  C   UNL     1      12.805   4.468   2.337  1.00  0.00     0.029 A 
ATOM     18  N   UNL     1      13.753   6.277   1.429  1.00  0.00    -0.354 N 
ATOM     19  C   UNL     1      13.192   7.081  -2.848  1.00  0.00     0.074 A 
ATOM     20  C   UNL     1      12.302   6.107  -3.439  1.00  0.00     0.031 C 
ATOM     21  C   UNL     1      13.436   5.126   3.322  1.00  0.00     0.029 A 
ATOM     22  C   UNL     1      14.121   6.280   2.755  1.00  0.00     0.049 A 
ATOM     23  H   UNL     1      14.010   6.986   0.795  1.00  0.00     0.167 HD
ATOM     24  C   UNL     1      13.754   8.114  -3.513  1.00  0.00     0.034 A 
ATOM     25  C   UNL     1      14.955   7.105   3.416  1.00  0.00     0.034 A 
ATOM     26  C   UNL     1      14.623   9.071  -2.889  1.00  0.00     0.049 A 
ATOM     27  C   UNL     1      15.588   8.227   2.637  1.00  0.00     0.074 A 
ATOM     28  C   UNL     1      15.273  10.148  -3.460  1.00  0.00     0.029 A 
ATOM     29  N   UNL     1      14.967   9.056  -1.544  1.00  0.00    -0.354 N 
ATOM     30  N   UNL     1      15.401   8.567   1.383  1.00  0.00    -0.248 NA
ATOM     31  C   UNL     1      16.537   9.084   3.357  1.00  0.00     0.031 C 
ATOM     32  C   UNL     1      16.028  10.772  -2.462  1.00  0.00     0.029 A 
ATOM     33  C   UNL     1      15.829  10.098  -1.265  1.00  0.00     0.049 A 
ATOM     34  H   UNL     1      14.644   8.399  -0.886  1.00  0.00     0.167 HD
ATOM     35  C   UNL     1      16.195   9.684   1.167  1.00  0.00     0.074 A 
ATOM     36  C   UNL     1      16.838   9.985   2.432  1.00  0.00     0.031 C 
ATOM     37  C   UNL     1      16.402  10.387   0.025  1.00  0.00     0.034 A 
BRANCH  24  38
ATOM     38  C   UNL     1      13.469   8.227  -4.984  1.00  0.00     0.023 A 
ATOM     39  C   UNL     1      12.223   8.712  -5.428  1.00  0.00     0.012 A 
ATOM     40  C   UNL     1      14.447   7.857  -5.928  1.00  0.00     0.148 A 
ATOM     41  C   UNL     1      11.946   8.804  -6.792  1.00  0.00     0.002 A 
ATOM     42  C   UNL     1      14.177   7.984  -7.284  1.00  0.00     0.091 A 
ATOM     43  F   UNL     1      15.614   7.374  -5.479  1.00  0.00    -0.205 F 
ATOM     44  C   UNL     1      12.924   8.448  -7.718  1.00  0.00     0.022 A 
BRANCH  42  45
ATOM     45  S   UNL     1      15.383   7.595  -8.556  1.00  0.00     0.127 S 
ATOM     46  O   UNL     1      14.748   6.461  -9.227  1.00  0.00    -0.237 OA
ATOM     47  O   UNL     1      15.408   8.831  -9.339  1.00  0.00    -0.237 OA
ATOM     48  O   UNL     1      16.623   7.286  -7.858  1.00  0.00    -0.744 OA
ENDBRANCH  42  45
ENDBRANCH  24  38
BRANCH  25  49
ATOM     49  C   UNL     1      15.245   6.896   4.865  1.00  0.00     0.023 A 
ATOM     50  C   UNL     1      14.848   7.867   5.805  1.00  0.00     0.012 A 
ATOM     51  C   UNL     1      15.905   5.738   5.322  1.00  0.00     0.148 A 
ATOM     52  C   UNL     1      15.131   7.704   7.163  1.00  0.00     0.002 A 
ATOM     53  C   UNL     1      16.131   5.553   6.682  1.00  0.00     0.091 A 
ATOM     54  F   UNL     1      16.307   4.832   4.418  1.00  0.00    -0.205 F 
ATOM     55  C   UNL     1      15.762   6.543   7.603  1.00  0.00     0.022 A 
BRANCH  53  56
ATOM     56  S   UNL     1      16.815   4.021   7.328  1.00  0.00     0.127 S 
ATOM     57  O   UNL     1      18.217   4.377   7.524  1.00  0.00    -0.237 OA
ATOM     58  O   UNL     1      16.049   3.834   8.561  1.00  0.00    -0.237 OA
ATOM     59  O   UNL     1      16.543   3.022   6.304  1.00  0.00    -0.744 OA
ENDBRANCH  53  56
ENDBRANCH  25  49
BRANCH  37  60
ATOM     60  C   UNL     1      17.342  11.556   0.103  1.00  0.00     0.023 A 
ATOM     61  C   UNL     1      18.730  11.328   0.170  1.00  0.00     0.012 A 
ATOM     62  C   UNL     1      16.853  12.872   0.015  1.00  0.00     0.148 A 
ATOM     63  C   UNL     1      19.619  12.399   0.172  1.00  0.00     0.002 A 
ATOM     64  C   UNL     1      17.747  13.932  -0.034  1.00  0.00     0.091 A 
ATOM     65  F   UNL     1      15.526  13.062  -0.025  1.00  0.00    -0.205 F 
ATOM     66  C   UNL     1      19.130  13.699   0.055  1.00  0.00     0.022 A 
BRANCH  64  67
ATOM     67  S   UNL     1      17.206  15.624  -0.291  1.00  0.00     0.127 S 
ATOM     68  O   UNL     1      17.358  16.192   1.047  1.00  0.00    -0.237 OA
ATOM     69  O   UNL     1      18.171  16.115  -1.276  1.00  0.00    -0.237 OA
ATOM     70  O   UNL     1      15.838  15.535  -0.784  1.00  0.00    -0.744 OA
ENDBRANCH  64  67
ENDBRANCH  37  60
ENDBRANCH  11  12
ENDBRANCH   4   6
ENDBRANCH   3   4
ENDBRANCH   2   3
ENDBRANCH   1   2
BRANCH   1  71
ATOM     71  O   UNL     1       7.666   1.207   2.094  1.00  0.00    -0.374 OA
BRANCH  71  72
ATOM     72  C   UNL     1       7.915  -0.012   2.790  1.00  0.00     0.202 C 
BRANCH  72  73
ATOM     73  C   UNL     1       7.469   0.137   4.244  1.00  0.00     0.261 C 
BRANCH  73  74
ATOM     74  O   UNL     1       6.066   0.465   4.268  1.00  0.00    -0.462 OA
BRANCH  74  75
ATOM     75  C   UNL     1       5.798   1.811   4.280  1.00  0.00     0.328 C 
ATOM     76  O   UNL     1       6.608   2.676   4.569  1.00  0.00    -0.250 OA
BRANCH  75  77
ATOM     77  C   UNL     1       4.330   2.068   3.866  1.00  0.00     0.193 C 
ATOM     78  C   UNL     1       3.527   2.492   5.095  1.00  0.00     0.037 C 
ATOM     79  N   UNL     1       4.237   3.101   2.803  1.00  0.00    -0.343 N 
ATOM     80  C   UNL     1       3.885   3.907   5.553  1.00  0.00     0.005 C 
ATOM     81  C   UNL     1       4.590   4.474   3.168  1.00  0.00     0.119 C 
ATOM     82  C   UNL     1       3.795   4.909   4.403  1.00  0.00     0.022 C 
BRANCH  79  83
ATOM     83  C   UNL     1       3.413   2.881   1.711  1.00  0.00     0.134 A 
ATOM     84  C   UNL     1       3.763   3.365   0.458  1.00  0.00     0.076 A 
ATOM     85  N   UNL     1       2.305   2.144   1.872  1.00  0.00    -0.211 NA
ATOM     86  C   UNL     1       2.964   3.022  -0.617  1.00  0.00     0.076 A 
ATOM     87  C   UNL     1       1.554   1.906   0.780  1.00  0.00     0.162 A 
ATOM     88  N   UNL     1       1.844   2.295  -0.470  1.00  0.00    -0.228 NA
BRANCH  86  89
ATOM     89  C   UNL     1       3.291   3.402  -1.997  1.00  0.00     0.000 A 
ATOM     90  C   UNL     1       2.493   4.317  -2.702  1.00  0.00     0.010 A 
ATOM     91  C   UNL     1       4.393   2.840  -2.664  1.00  0.00     0.010 A 
ATOM     92  C   UNL     1       2.798   4.671  -4.020  1.00  0.00     0.001 A 
ATOM     93  C   UNL     1       4.696   3.188  -3.983  1.00  0.00     0.001 A 
ATOM     94  C   UNL     1       3.900   4.108  -4.659  1.00  0.00     0.000 A 
ENDBRANCH  86  89
BRANCH  87  95
ATOM     95  C   UNL     1       0.275   1.225   0.977  1.00  0.00     0.021 A 
ATOM     96  C   UNL     1      -0.643   1.694   1.935  1.00  0.00     0.012 A 
ATOM     97  C   UNL     1      -0.087   0.114   0.197  1.00  0.00     0.032 A 
ATOM     98  C   UNL     1      -1.888   1.084   2.102  1.00  0.00     0.002 A 
ATOM     99  C   UNL     1      -1.323  -0.505   0.380  1.00  0.00     0.041 A 
ATOM    100  C   UNL     1      -2.227  -0.021   1.325  1.00  0.00     0.020 A 
ATOM    101  Cl  UNL     1      -1.741  -1.880  -0.567  1.00  0.00    -0.084 Cl
ENDBRANCH  87  95
ENDBRANCH  79  83
ENDBRANCH  75  77
ENDBRANCH  74  75
ENDBRANCH  73  74
ENDBRANCH  72  73
ENDBRANCH  71  72
ENDBRANCH   1  71
TORSDOF 20
