REMARK SMILES COc1cccc(C(=O)Nc2ccc(NC(=O)[C@@H]3[C@@H](C(=O)OCCOCCOC(=O)c4ccc(-c5c6nc(c(-c7cccc(S(=O)(=O)[O-])c7F)c7ccc([nH]7)c(-c7cccc(S(=O)(=O)[O-])c7F)c7nc(c(-c8cccc(S(=O)(=O)[O-])c8F)c8ccc5[nH]8)C=C7)C=C6)cc4)[C@@H]4C=C[C@H]3C4)cc2)c1
REMARK SMILES IDX 24 1 23 2 22 3 20 4 21 5 19 6 18 7 97 8 94 9 96 10 98 11
REMARK SMILES IDX 95 12 16 13 15 14 17 16 14 17 11 18 12 19 100 20 13 21 99 22
REMARK SMILES IDX 10 23 8 24 9 25 7 27 3 28 4 29 101 30 5 31 6 32 2 33 1 34
REMARK SMILES IDX 25 35 26 36 27 37 28 38 29 39 30 40 31 41 32 42 93 43 33 44
REMARK SMILES IDX 92 45 34 46 35 47 36 48 86 49 37 50 91 51 85 52 87 53 38 54
REMARK SMILES IDX 90 55 84 56 83 57 39 59 71 60 51 61 70 62 52 63 55 64 69 65
REMARK SMILES IDX 88 66 53 67 54 68 68 70 89 71 56 72 40 73 41 74 49 75 42 76
REMARK SMILES IDX 44 77 50 78 43 79 45 80 46 81 47 82 48 83 72 84 73 85 81 86
REMARK SMILES IDX 74 87 76 88 82 89 75 90 77 91 78 92 79 93 80 94 57 95 58 96
REMARK SMILES IDX 66 97 59 98 61 99 67 100 60 101 62 102 63 103 64 104 65 105
REMARK H PARENT 15 15 10 26 87 58 55 69
REMARK Flexibility Score: inf
ROOT
ATOM      1  C   UNL     1       7.476  -3.049  -7.831  1.00  0.00     0.202 C 
ENDROOT
BRANCH   1   2
ATOM      2  C   UNL     1       7.258  -1.729  -7.088  1.00  0.00     0.261 C 
BRANCH   2   3
ATOM      3  O   UNL     1       6.648  -2.014  -5.824  1.00  0.00    -0.463 OA
BRANCH   3   4
ATOM      4  C   UNL     1       5.499  -1.363  -5.522  1.00  0.00     0.310 C 
ATOM      5  O   UNL     1       5.060  -0.396  -6.126  1.00  0.00    -0.252 OA
BRANCH   4   6
ATOM      6  C   UNL     1       4.797  -2.017  -4.350  1.00  0.00     0.119 C 
ATOM      7  C   UNL     1       4.950  -1.148  -3.052  1.00  0.00     0.100 C 
ATOM      8  C   UNL     1       5.502  -2.217  -2.052  1.00  0.00     0.025 C 
ATOM      9  C   UNL     1       5.412  -3.383  -3.938  1.00  0.00     0.027 C 
ATOM     10  C   UNL     1       4.536  -3.380  -1.845  1.00  0.00    -0.027 C 
ATOM     11  C   UNL     1       6.492  -2.966  -2.942  1.00  0.00     0.017 C 
ATOM     12  C   UNL     1       4.457  -4.056  -2.994  1.00  0.00    -0.027 C 
BRANCH   7  13
ATOM     13  C   UNL     1       3.686  -0.270  -2.828  1.00  0.00     0.228 C 
ATOM     14  N   UNL     1       3.608   0.627  -1.783  1.00  0.00    -0.326 N 
ATOM     15  H   UNL     1       3.254   1.517  -2.009  1.00  0.00     0.169 HD
ATOM     16  O   UNL     1       2.812  -0.177  -3.696  1.00  0.00    -0.274 OA
BRANCH  14  17
ATOM     17  C   UNL     1       3.965   0.435  -0.445  1.00  0.00     0.041 A 
ATOM     18  C   UNL     1       4.521  -0.131   2.226  1.00  0.00     0.041 A 
ATOM     19  C   UNL     1       4.482  -1.159   1.305  1.00  0.00     0.028 A 
ATOM     20  C   UNL     1       4.313   1.192   1.827  1.00  0.00     0.028 A 
ATOM     21  C   UNL     1       4.062  -0.856   0.031  1.00  0.00     0.028 A 
ATOM     22  C   UNL     1       4.050   1.479   0.473  1.00  0.00     0.028 A 
BRANCH  18  23
ATOM     23  N   UNL     1       4.589  -0.499   3.571  1.00  0.00    -0.322 N 
ATOM     24  C   UNL     1       3.694  -1.385   4.157  1.00  0.00     0.255 C 
ATOM     25  O   UNL     1       4.096  -2.208   4.978  1.00  0.00    -0.269 OA
ATOM     26  H   UNL     1       5.303  -0.113   4.129  1.00  0.00     0.170 HD
BRANCH  24  27
ATOM     27  C   UNL     1       2.216  -1.234   3.938  1.00  0.00     0.043 A 
ATOM     28  C   UNL     1       0.215  -0.761   2.619  1.00  0.00     0.119 A 
ATOM     29  C   UNL     1      -0.537  -0.762   3.792  1.00  0.00     0.046 A 
ATOM     30  C   UNL     1       1.579  -1.040   2.700  1.00  0.00     0.060 A 
ATOM     31  C   UNL     1       0.059  -1.041   5.022  1.00  0.00     0.005 A 
ATOM     32  C   UNL     1       1.431  -1.272   5.094  1.00  0.00     0.014 A 
BRANCH  28  33
ATOM     33  O   UNL     1      -0.496  -0.461   1.491  1.00  0.00    -0.497 OA
ATOM     34  C   UNL     1       0.165  -0.404   0.231  1.00  0.00     0.278 C 
ENDBRANCH  28  33
ENDBRANCH  24  27
ENDBRANCH  18  23
ENDBRANCH  14  17
ENDBRANCH   7  13
ENDBRANCH   4   6
ENDBRANCH   3   4
ENDBRANCH   2   3
ENDBRANCH   1   2
BRANCH   1  35
ATOM     35  O   UNL     1       6.305  -3.665  -8.374  1.00  0.00    -0.374 OA
BRANCH  35  36
ATOM     36  C   UNL     1       5.430  -4.339  -7.471  1.00  0.00     0.202 C 
BRANCH  36  37
ATOM     37  C   UNL     1       5.875  -5.724  -6.970  1.00  0.00     0.261 C 
BRANCH  37  38
ATOM     38  O   UNL     1       7.101  -5.700  -6.216  1.00  0.00    -0.460 OA
BRANCH  38  39
ATOM     39  C   UNL     1       8.166  -6.249  -6.854  1.00  0.00     0.338 C 
ATOM     40  O   UNL     1       8.171  -6.776  -7.952  1.00  0.00    -0.246 OA
BRANCH  39  41
ATOM     41  C   UNL     1       9.412  -5.978  -6.109  1.00  0.00     0.060 A 
ATOM     42  C   UNL     1      10.422  -5.279  -6.782  1.00  0.00     0.016 A 
ATOM     43  C   UNL     1       9.639  -6.498  -4.834  1.00  0.00     0.016 A 
ATOM     44  C   UNL     1      11.682  -5.142  -6.204  1.00  0.00     0.010 A 
ATOM     45  C   UNL     1      10.910  -6.366  -4.258  1.00  0.00     0.010 A 
ATOM     46  C   UNL     1      11.948  -5.723  -4.958  1.00  0.00    -0.014 A 
BRANCH  46  47
ATOM     47  C   UNL     1      13.348  -5.778  -4.464  1.00  0.00     0.031 A 
ATOM     48  C   UNL     1      14.131  -7.056  -4.618  1.00  0.00     0.074 A 
ATOM     49  C   UNL     1      13.927  -4.696  -3.914  1.00  0.00     0.049 A 
ATOM     50  N   UNL     1      15.359  -7.323  -4.258  1.00  0.00    -0.248 NA
ATOM     51  C   UNL     1      13.437  -8.181  -5.268  1.00  0.00     0.031 C 
ATOM     52  C   UNL     1      13.282  -3.397  -3.725  1.00  0.00     0.029 A 
ATOM     53  N   UNL     1      15.188  -4.524  -3.398  1.00  0.00    -0.354 N 
ATOM     54  C   UNL     1      15.582  -8.648  -4.617  1.00  0.00     0.074 A 
ATOM     55  C   UNL     1      14.354  -9.136  -5.207  1.00  0.00     0.031 C 
ATOM     56  C   UNL     1      14.145  -2.567  -3.114  1.00  0.00     0.029 A 
ATOM     57  C   UNL     1      15.393  -3.280  -2.849  1.00  0.00     0.049 A 
ATOM     58  H   UNL     1      15.879  -5.224  -3.420  1.00  0.00     0.167 HD
ATOM     59  C   UNL     1      16.710  -9.386  -4.490  1.00  0.00     0.034 A 
ATOM     60  C   UNL     1      16.460  -2.781  -2.192  1.00  0.00     0.034 A 
ATOM     61  C   UNL     1      17.936  -8.896  -3.919  1.00  0.00     0.049 A 
ATOM     62  C   UNL     1      17.689  -3.638  -2.026  1.00  0.00     0.074 A 
ATOM     63  C   UNL     1      19.141  -9.560  -3.767  1.00  0.00     0.029 A 
ATOM     64  N   UNL     1      18.114  -7.623  -3.400  1.00  0.00    -0.354 N 
ATOM     65  N   UNL     1      17.917  -4.853  -2.466  1.00  0.00    -0.248 NA
ATOM     66  C   UNL     1      18.822  -3.043  -1.301  1.00  0.00     0.031 C 
ATOM     67  C   UNL     1      20.042  -8.694  -3.138  1.00  0.00     0.029 A 
ATOM     68  C   UNL     1      19.405  -7.482  -2.922  1.00  0.00     0.049 A 
ATOM     69  H   UNL     1      17.424  -6.922  -3.376  1.00  0.00     0.167 HD
ATOM     70  C   UNL     1      19.229  -5.149  -2.108  1.00  0.00     0.074 A 
ATOM     71  C   UNL     1      19.751  -3.980  -1.432  1.00  0.00     0.031 C 
ATOM     72  C   UNL     1      19.933  -6.291  -2.307  1.00  0.00     0.034 A 
BRANCH  59  73
ATOM     73  C   UNL     1      16.684 -10.799  -5.011  1.00  0.00     0.023 A 
ATOM     74  C   UNL     1      16.701 -11.024  -6.403  1.00  0.00     0.012 A 
ATOM     75  C   UNL     1      16.703 -11.899  -4.133  1.00  0.00     0.148 A 
ATOM     76  C   UNL     1      16.708 -12.322  -6.912  1.00  0.00     0.002 A 
ATOM     77  C   UNL     1      16.752 -13.190  -4.648  1.00  0.00     0.091 A 
ATOM     78  F   UNL     1      16.666 -11.665  -2.813  1.00  0.00    -0.205 F 
ATOM     79  C   UNL     1      16.744 -13.403  -6.036  1.00  0.00     0.022 A 
BRANCH  77  80
ATOM     80  S   UNL     1      16.875 -14.646  -3.603  1.00  0.00     0.127 S 
ATOM     81  O   UNL     1      15.548 -15.240  -3.768  1.00  0.00    -0.237 OA
ATOM     82  O   UNL     1      17.960 -15.392  -4.241  1.00  0.00    -0.237 OA
ATOM     83  O   UNL     1      17.178 -14.157  -2.266  1.00  0.00    -0.744 OA
ENDBRANCH  77  80
ENDBRANCH  59  73
BRANCH  60  84
ATOM     84  C   UNL     1      16.433  -1.385  -1.671  1.00  0.00     0.023 A 
ATOM     85  C   UNL     1      17.276  -0.412  -2.244  1.00  0.00     0.012 A 
ATOM     86  C   UNL     1      15.581  -1.015  -0.612  1.00  0.00     0.148 A 
ATOM     87  C   UNL     1      17.296   0.893  -1.750  1.00  0.00     0.002 A 
ATOM     88  C   UNL     1      15.564   0.300  -0.163  1.00  0.00     0.091 A 
ATOM     89  F   UNL     1      14.802  -1.958  -0.064  1.00  0.00    -0.205 F 
ATOM     90  C   UNL     1      16.433   1.252  -0.717  1.00  0.00     0.022 A 
BRANCH  88  91
ATOM     91  S   UNL     1      14.392   0.876   1.071  1.00  0.00     0.127 S 
ATOM     92  O   UNL     1      15.246   1.036   2.245  1.00  0.00    -0.237 OA
ATOM     93  O   UNL     1      13.915   2.126   0.479  1.00  0.00    -0.237 OA
ATOM     94  O   UNL     1      13.377  -0.166   1.161  1.00  0.00    -0.744 OA
ENDBRANCH  88  91
ENDBRANCH  60  84
BRANCH  72  95
ATOM     95  C   UNL     1      21.362  -6.326  -1.831  1.00  0.00     0.023 A 
ATOM     96  C   UNL     1      21.641  -6.406  -0.452  1.00  0.00     0.012 A 
ATOM     97  C   UNL     1      22.427  -6.354  -2.754  1.00  0.00     0.148 A 
ATOM     98  C   UNL     1      22.958  -6.480   0.002  1.00  0.00     0.002 A 
ATOM     99  C   UNL     1      23.734  -6.477  -2.296  1.00  0.00     0.091 A 
ATOM    100  F   UNL     1      22.143  -6.259  -4.061  1.00  0.00    -0.205 F 
ATOM    101  C   UNL     1      24.002  -6.527  -0.919  1.00  0.00     0.022 A 
BRANCH  99 102
ATOM    102  S   UNL     1      25.133  -6.640  -3.411  1.00  0.00     0.127 S 
ATOM    103  O   UNL     1      25.768  -5.329  -3.287  1.00  0.00    -0.237 OA
ATOM    104  O   UNL     1      25.885  -7.741  -2.808  1.00  0.00    -0.237 OA
ATOM    105  O   UNL     1      24.569  -6.941  -4.720  1.00  0.00    -0.744 OA
ENDBRANCH  99 102
ENDBRANCH  72  95
ENDBRANCH  46  47
ENDBRANCH  39  41
ENDBRANCH  38  39
ENDBRANCH  37  38
ENDBRANCH  36  37
ENDBRANCH  35  36
ENDBRANCH   1  35
TORSDOF 22
