REMARK SMILES CCC[C@H]1CC[C@H](C(=O)OCCOCCOC(=O)c2ccc(-c3c4nc(c(-c5cccc(S(=O)(=O)[O-])c5F)c5ccc([nH]5)c(-c5cccc(S(=O)(=O)[O-])c5F)c5nc(c(-c6cccc(S(=O)(=O)[O-])c6F)c6ccc3[nH]6)C=C5)C=C4)cc2)[C@H](Sc2ccncc2)C1
REMARK SMILES IDX 14 1 13 2 12 3 11 4 10 5 8 6 9 7 7 8 4 9 5 10 90 11 6 12
REMARK SMILES IDX 82 13 3 14 2 15 1 16 83 17 84 18 85 19 89 20 86 21 88 22
REMARK SMILES IDX 87 23 15 24 16 25 17 26 18 27 19 28 20 29 81 30 21 31 80 32
REMARK SMILES IDX 22 33 23 34 24 35 74 36 25 37 79 38 73 39 75 40 26 41 78 42
REMARK SMILES IDX 72 43 71 44 27 46 59 47 39 48 58 49 40 50 43 51 57 52 76 53
REMARK SMILES IDX 41 54 42 55 56 57 77 58 44 59 28 60 29 61 37 62 30 63 32 64
REMARK SMILES IDX 38 65 31 66 33 67 34 68 35 69 36 70 60 71 61 72 69 73 62 74
REMARK SMILES IDX 64 75 70 76 63 77 65 78 66 79 67 80 68 81 45 82 46 83 54 84
REMARK SMILES IDX 47 85 49 86 55 87 48 88 50 89 51 90 52 91 53 92
REMARK H PARENT 75 45 43 56
REMARK Flexibility Score: inf
ROOT
ATOM      1  C   UNL     1      -5.288   2.228  -3.218  1.00  0.00     0.202 C 
ENDROOT
BRANCH   1   2
ATOM      2  O   UNL     1      -5.852   1.102  -2.550  1.00  0.00    -0.374 OA
BRANCH   2   3
ATOM      3  C   UNL     1      -5.386   0.782  -1.248  1.00  0.00     0.202 C 
BRANCH   3   4
ATOM      4  C   UNL     1      -3.979   0.197  -1.072  1.00  0.00     0.261 C 
BRANCH   4   5
ATOM      5  O   UNL     1      -2.930   0.720  -1.890  1.00  0.00    -0.463 OA
BRANCH   5   6
ATOM      6  C   UNL     1      -2.798   0.144  -3.113  1.00  0.00     0.310 C 
ATOM      7  O   UNL     1      -3.632  -0.581  -3.643  1.00  0.00    -0.252 OA
BRANCH   6   8
ATOM      8  C   UNL     1      -1.492   0.502  -3.789  1.00  0.00     0.112 C 
ATOM      9  C   UNL     1       0.658   1.741  -2.069  1.00  0.00    -0.010 C 
ATOM     10  C   UNL     1      -0.579   2.552  -2.499  1.00  0.00     0.004 C 
ATOM     11  C   UNL     1       0.281   0.249  -1.956  1.00  0.00     0.019 C 
ATOM     12  C   UNL     1      -1.233   2.022  -3.781  1.00  0.00     0.017 C 
ATOM     13  C   UNL     1      -0.279  -0.292  -3.275  1.00  0.00     0.066 C 
BRANCH   9  14
ATOM     14  C   UNL     1       1.841   2.071  -3.014  1.00  0.00     0.003 C 
BRANCH  14  15
ATOM     15  C   UNL     1       3.171   1.373  -2.716  1.00  0.00    -0.003 C 
ATOM     16  C   UNL     1       3.354   0.056  -3.457  1.00  0.00     0.004 C 
ENDBRANCH  14  15
ENDBRANCH   9  14
BRANCH  13  17
ATOM     17  S   UNL     1      -0.354  -2.143  -3.387  1.00  0.00    -0.122 SA
BRANCH  17  18
ATOM     18  C   UNL     1      -1.528  -2.657  -2.150  1.00  0.00     0.011 A 
ATOM     19  C   UNL     1      -2.782  -3.116  -2.554  1.00  0.00     0.035 A 
ATOM     20  C   UNL     1      -1.192  -2.737  -0.802  1.00  0.00     0.035 A 
ATOM     21  C   UNL     1      -3.678  -3.548  -1.591  1.00  0.00     0.112 A 
ATOM     22  C   UNL     1      -2.146  -3.212   0.087  1.00  0.00     0.112 A 
ATOM     23  N   UNL     1      -3.389  -3.600  -0.275  1.00  0.00    -0.265 NA
ENDBRANCH  17  18
ENDBRANCH  13  17
ENDBRANCH   6   8
ENDBRANCH   5   6
ENDBRANCH   4   5
ENDBRANCH   3   4
ENDBRANCH   2   3
ENDBRANCH   1   2
BRANCH   1  24
ATOM     24  C   UNL     1      -5.462   3.601  -2.569  1.00  0.00     0.261 C 
BRANCH  24  25
ATOM     25  O   UNL     1      -4.659   3.737  -1.381  1.00  0.00    -0.460 OA
BRANCH  25  26
ATOM     26  C   UNL     1      -5.367   4.010  -0.261  1.00  0.00     0.338 C 
ATOM     27  O   UNL     1      -6.576   4.183  -0.181  1.00  0.00    -0.246 OA
BRANCH  26  28
ATOM     28  C   UNL     1      -4.519   3.910   0.938  1.00  0.00     0.060 A 
ATOM     29  C   UNL     1      -4.998   3.125   1.995  1.00  0.00     0.016 A 
ATOM     30  C   UNL     1      -3.374   4.694   1.091  1.00  0.00     0.016 A 
ATOM     31  C   UNL     1      -4.394   3.203   3.244  1.00  0.00     0.010 A 
ATOM     32  C   UNL     1      -2.769   4.773   2.350  1.00  0.00     0.010 A 
ATOM     33  C   UNL     1      -3.320   4.080   3.443  1.00  0.00    -0.014 A 
BRANCH  33  34
ATOM     34  C   UNL     1      -2.932   4.415   4.834  1.00  0.00     0.031 A 
ATOM     35  C   UNL     1      -3.476   5.676   5.453  1.00  0.00     0.074 A 
ATOM     36  C   UNL     1      -2.162   3.582   5.553  1.00  0.00     0.049 A 
ATOM     37  N   UNL     1      -3.331   6.129   6.671  1.00  0.00    -0.248 NA
ATOM     38  C   UNL     1      -4.294   6.542   4.586  1.00  0.00     0.031 C 
ATOM     39  C   UNL     1      -1.582   2.334   5.061  1.00  0.00     0.029 A 
ATOM     40  N   UNL     1      -1.731   3.668   6.852  1.00  0.00    -0.354 N 
ATOM     41  C   UNL     1      -4.020   7.336   6.712  1.00  0.00     0.074 A 
ATOM     42  C   UNL     1      -4.567   7.557   5.391  1.00  0.00     0.031 C 
ATOM     43  C   UNL     1      -0.854   1.777   6.044  1.00  0.00     0.029 A 
ATOM     44  C   UNL     1      -0.911   2.632   7.228  1.00  0.00     0.049 A 
ATOM     45  H   UNL     1      -1.985   4.402   7.457  1.00  0.00     0.167 HD
ATOM     46  C   UNL     1      -4.204   8.174   7.759  1.00  0.00     0.034 A 
ATOM     47  C   UNL     1      -0.277   2.405   8.396  1.00  0.00     0.034 A 
ATOM     48  C   UNL     1      -3.684   7.938   9.078  1.00  0.00     0.049 A 
ATOM     49  C   UNL     1      -0.498   3.352   9.546  1.00  0.00     0.074 A 
ATOM     50  C   UNL     1      -3.848   8.704  10.218  1.00  0.00     0.029 A 
ATOM     51  N   UNL     1      -2.893   6.856   9.432  1.00  0.00    -0.354 N 
ATOM     52  N   UNL     1      -1.256   4.421   9.603  1.00  0.00    -0.248 NA
ATOM     53  C   UNL     1       0.189   3.037  10.807  1.00  0.00     0.031 C 
ATOM     54  C   UNL     1      -3.142   8.092  11.260  1.00  0.00     0.029 A 
ATOM     55  C   UNL     1      -2.554   6.936  10.772  1.00  0.00     0.049 A 
ATOM     56  H   UNL     1      -2.614   6.137   8.821  1.00  0.00     0.167 HD
ATOM     57  C   UNL     1      -1.164   4.887  10.910  1.00  0.00     0.074 A 
ATOM     58  C   UNL     1      -0.294   3.969  11.618  1.00  0.00     0.031 C 
ATOM     59  C   UNL     1      -1.732   5.983  11.472  1.00  0.00     0.034 A 
BRANCH  46  60
ATOM     60  C   UNL     1      -5.034   9.408   7.527  1.00  0.00     0.023 A 
ATOM     61  C   UNL     1      -6.433   9.291   7.400  1.00  0.00     0.012 A 
ATOM     62  C   UNL     1      -4.440  10.684   7.480  1.00  0.00     0.148 A 
ATOM     63  C   UNL     1      -7.226  10.421   7.202  1.00  0.00     0.002 A 
ATOM     64  C   UNL     1      -5.240  11.810   7.321  1.00  0.00     0.091 A 
ATOM     65  F   UNL     1      -3.106  10.773   7.574  1.00  0.00    -0.205 F 
ATOM     66  C   UNL     1      -6.631  11.680   7.173  1.00  0.00     0.022 A 
BRANCH  64  67
ATOM     67  S   UNL     1      -4.574  13.478   7.339  1.00  0.00     0.127 S 
ATOM     68  O   UNL     1      -4.666  13.848   5.928  1.00  0.00    -0.237 OA
ATOM     69  O   UNL     1      -5.514  14.178   8.215  1.00  0.00    -0.237 OA
ATOM     70  O   UNL     1      -3.223  13.363   7.871  1.00  0.00    -0.744 OA
ENDBRANCH  64  67
ENDBRANCH  46  60
BRANCH  47  71
ATOM     71  C   UNL     1       0.581   1.197   8.548  1.00  0.00     0.023 A 
ATOM     72  C   UNL     1       0.166   0.147   9.389  1.00  0.00     0.012 A 
ATOM     73  C   UNL     1       1.793   1.073   7.841  1.00  0.00     0.148 A 
ATOM     74  C   UNL     1       0.954  -0.994   9.544  1.00  0.00     0.002 A 
ATOM     75  C   UNL     1       2.546  -0.089   7.957  1.00  0.00     0.091 A 
ATOM     76  F   UNL     1       2.182   2.092   7.062  1.00  0.00    -0.205 F 
ATOM     77  C   UNL     1       2.138  -1.117   8.820  1.00  0.00     0.022 A 
BRANCH  75  78
ATOM     78  S   UNL     1       4.009  -0.385   6.956  1.00  0.00     0.127 S 
ATOM     79  O   UNL     1       5.081  -0.207   7.931  1.00  0.00    -0.237 OA
ATOM     80  O   UNL     1       3.800  -1.763   6.511  1.00  0.00    -0.237 OA
ATOM     81  O   UNL     1       3.953   0.601   5.885  1.00  0.00    -0.744 OA
ENDBRANCH  75  78
ENDBRANCH  47  71
BRANCH  59  82
ATOM     82  C   UNL     1      -1.456   6.241  12.931  1.00  0.00     0.023 A 
ATOM     83  C   UNL     1      -0.188   6.706  13.328  1.00  0.00     0.012 A 
ATOM     84  C   UNL     1      -2.471   6.089  13.896  1.00  0.00     0.148 A 
ATOM     85  C   UNL     1       0.077   6.983  14.669  1.00  0.00     0.002 A 
ATOM     86  C   UNL     1      -2.213   6.411  15.223  1.00  0.00     0.091 A 
ATOM     87  F   UNL     1      -3.667   5.626  13.503  1.00  0.00    -0.205 F 
ATOM     88  C   UNL     1      -0.937   6.847  15.614  1.00  0.00     0.022 A 
BRANCH  86  89
ATOM     89  S   UNL     1      -3.493   6.353  16.483  1.00  0.00     0.127 S 
ATOM     90  O   UNL     1      -3.198   5.087  17.151  1.00  0.00    -0.237 OA
ATOM     91  O   UNL     1      -3.204   7.545  17.282  1.00  0.00    -0.237 OA
ATOM     92  O   UNL     1      -4.758   6.409  15.763  1.00  0.00    -0.744 OA
ENDBRANCH  86  89
ENDBRANCH  59  82
ENDBRANCH  33  34
ENDBRANCH  26  28
ENDBRANCH  25  26
ENDBRANCH  24  25
ENDBRANCH   1  24
TORSDOF 21
