REMARK SMILES C[C@@H](NC(=O)C(C)(C)C)C(=O)N[C@H](C)C(=O)OCCOCCOC(=O)c1ccc(-c2c3nc(c(-c4cccc(S(=O)(=O)[O-])c4F)c4ccc([nH]4)c(-c4cccc(S(=O)(=O)[O-])c4F)c4nc(c(-c5cccc(S(=O)(=O)[O-])c5F)c5ccc2[nH]5)C=C4)C=C3)cc1
REMARK SMILES IDX 19 1 18 2 17 3 15 4 16 5 13 6 14 7 12 8 10 9 11 10 2 12 1 13
REMARK SMILES IDX 3 14 4 15 5 17 6 18 7 19 8 20 9 21 20 22 21 23 22 24 23 25
REMARK SMILES IDX 24 26 25 27 26 28 27 29 88 30 28 31 87 32 29 33 30 34 31 35
REMARK SMILES IDX 81 36 32 37 86 38 80 39 82 40 33 41 85 42 79 43 78 44 34 46
REMARK SMILES IDX 66 47 46 48 65 49 47 50 50 51 64 52 83 53 48 54 49 55 63 57
REMARK SMILES IDX 84 58 51 59 35 60 36 61 44 62 37 63 39 64 45 65 38 66 40 67
REMARK SMILES IDX 41 68 42 69 43 70 67 71 68 72 76 73 69 74 71 75 77 76 70 77
REMARK SMILES IDX 72 78 73 79 74 80 75 81 52 82 53 83 61 84 54 85 56 86 62 87
REMARK SMILES IDX 55 88 57 89 58 90 59 91 60 92
REMARK H PARENT 12 11 3 16 82 45 50 56
REMARK Flexibility Score: inf
ROOT
ATOM      1  C   UNL     1      -2.315   4.394  -4.676  1.00  0.00     0.202 C 
ENDROOT
BRANCH   1   2
ATOM      2  C   UNL     1      -3.021   3.035  -4.579  1.00  0.00     0.261 C 
BRANCH   2   3
ATOM      3  O   UNL     1      -2.936   2.332  -3.343  1.00  0.00    -0.462 OA
BRANCH   3   4
ATOM      4  C   UNL     1      -1.816   1.580  -3.220  1.00  0.00     0.328 C 
ATOM      5  O   UNL     1      -0.840   1.652  -3.959  1.00  0.00    -0.250 OA
BRANCH   4   6
ATOM      6  C   UNL     1      -1.952   0.512  -2.155  1.00  0.00     0.189 C 
ATOM      7  C   UNL     1      -2.622   1.008  -0.868  1.00  0.00     0.043 C 
BRANCH   6   8
ATOM      8  N   UNL     1      -2.649  -0.657  -2.690  1.00  0.00    -0.341 N 
ATOM      9  C   UNL     1      -2.477  -1.466  -3.762  1.00  0.00     0.242 C 
ATOM     10  O   UNL     1      -3.263  -2.424  -3.802  1.00  0.00    -0.273 OA
ATOM     11  H   UNL     1      -3.425  -0.917  -2.142  1.00  0.00     0.164 HD
BRANCH   9  12
ATOM     12  C   UNL     1      -1.567  -1.209  -4.995  1.00  0.00     0.168 C 
ATOM     13  C   UNL     1      -2.223  -0.220  -5.970  1.00  0.00     0.041 C 
BRANCH  12  14
ATOM     14  N   UNL     1      -0.146  -0.902  -4.829  1.00  0.00    -0.344 N 
ATOM     15  C   UNL     1       0.904  -1.732  -4.561  1.00  0.00     0.226 C 
ATOM     16  H   UNL     1       0.089   0.049  -4.926  1.00  0.00     0.164 HD
ATOM     17  O   UNL     1       1.986  -1.447  -5.085  1.00  0.00    -0.275 OA
BRANCH  15  18
ATOM     18  C   UNL     1       0.797  -2.853  -3.503  1.00  0.00     0.041 C 
ATOM     19  C   UNL     1       0.481  -2.176  -2.157  1.00  0.00     0.021 C 
ATOM     20  C   UNL     1      -0.202  -3.966  -3.841  1.00  0.00     0.021 C 
ATOM     21  C   UNL     1       2.172  -3.538  -3.345  1.00  0.00     0.021 C 
ENDBRANCH  15  18
ENDBRANCH  12  14
ENDBRANCH   9  12
ENDBRANCH   6   8
ENDBRANCH   4   6
ENDBRANCH   3   4
ENDBRANCH   2   3
ENDBRANCH   1   2
BRANCH   1  22
ATOM     22  O   UNL     1      -1.068   4.602  -4.038  1.00  0.00    -0.374 OA
BRANCH  22  23
ATOM     23  C   UNL     1      -0.960   4.554  -2.620  1.00  0.00     0.202 C 
BRANCH  23  24
ATOM     24  C   UNL     1      -2.036   5.172  -1.715  1.00  0.00     0.261 C 
BRANCH  24  25
ATOM     25  O   UNL     1      -3.365   4.667  -1.933  1.00  0.00    -0.460 OA
BRANCH  25  26
ATOM     26  C   UNL     1      -4.262   5.579  -2.376  1.00  0.00     0.338 C 
ATOM     27  O   UNL     1      -4.055   6.776  -2.566  1.00  0.00    -0.246 OA
BRANCH  26  28
ATOM     28  C   UNL     1      -5.503   4.924  -2.822  1.00  0.00     0.060 A 
ATOM     29  C   UNL     1      -5.904   5.116  -4.154  1.00  0.00     0.016 A 
ATOM     30  C   UNL     1      -6.315   4.220  -1.933  1.00  0.00     0.016 A 
ATOM     31  C   UNL     1      -7.137   4.639  -4.592  1.00  0.00     0.010 A 
ATOM     32  C   UNL     1      -7.569   3.771  -2.366  1.00  0.00     0.010 A 
ATOM     33  C   UNL     1      -8.000   4.017  -3.684  1.00  0.00    -0.014 A 
BRANCH  33  34
ATOM     34  C   UNL     1      -9.428   3.849  -4.049  1.00  0.00     0.031 A 
ATOM     35  C   UNL     1     -10.398   4.923  -3.635  1.00  0.00     0.074 A 
ATOM     36  C   UNL     1      -9.857   2.784  -4.748  1.00  0.00     0.049 A 
ATOM     37  N   UNL     1     -11.687   5.001  -3.835  1.00  0.00    -0.248 NA
ATOM     38  C   UNL     1      -9.834   6.065  -2.895  1.00  0.00     0.031 C 
ATOM     39  C   UNL     1      -9.014   1.695  -5.234  1.00  0.00     0.029 A 
ATOM     40  N   UNL     1     -11.123   2.441  -5.154  1.00  0.00    -0.354 N 
ATOM     41  C   UNL     1     -12.095   6.177  -3.216  1.00  0.00     0.074 A 
ATOM     42  C   UNL     1     -10.917   6.778  -2.630  1.00  0.00     0.031 C 
ATOM     43  C   UNL     1      -9.791   0.791  -5.858  1.00  0.00     0.029 A 
ATOM     44  C   UNL     1     -11.185   1.225  -5.792  1.00  0.00     0.049 A 
ATOM     45  H   UNL     1     -11.910   3.012  -5.003  1.00  0.00     0.167 HD
ATOM     46  C   UNL     1     -13.335   6.715  -3.146  1.00  0.00     0.034 A 
ATOM     47  C   UNL     1     -12.250   0.538  -6.252  1.00  0.00     0.034 A 
ATOM     48  C   UNL     1     -14.504   6.121  -3.735  1.00  0.00     0.049 A 
ATOM     49  C   UNL     1     -13.630   1.134  -6.116  1.00  0.00     0.074 A 
ATOM     50  C   UNL     1     -15.796   6.613  -3.765  1.00  0.00     0.029 A 
ATOM     51  N   UNL     1     -14.528   4.892  -4.376  1.00  0.00    -0.354 N 
ATOM     52  N   UNL     1     -13.985   2.301  -5.633  1.00  0.00    -0.248 NA
ATOM     53  C   UNL     1     -14.754   0.327  -6.615  1.00  0.00     0.031 C 
ATOM     54  C   UNL     1     -16.611   5.659  -4.384  1.00  0.00     0.029 A 
ATOM     55  C   UNL     1     -15.818   4.594  -4.782  1.00  0.00     0.049 A 
ATOM     56  H   UNL     1     -13.743   4.316  -4.521  1.00  0.00     0.167 HD
ATOM     57  C   UNL     1     -15.363   2.387  -5.811  1.00  0.00     0.074 A 
ATOM     58  C   UNL     1     -15.775   1.158  -6.457  1.00  0.00     0.031 C 
ATOM     59  C   UNL     1     -16.210   3.389  -5.467  1.00  0.00     0.034 A 
BRANCH  46  60
ATOM     60  C   UNL     1     -13.488   8.010  -2.392  1.00  0.00     0.023 A 
ATOM     61  C   UNL     1     -12.963   9.205  -2.925  1.00  0.00     0.012 A 
ATOM     62  C   UNL     1     -14.171   8.045  -1.160  1.00  0.00     0.148 A 
ATOM     63  C   UNL     1     -13.076  10.405  -2.224  1.00  0.00     0.002 A 
ATOM     64  C   UNL     1     -14.322   9.253  -0.491  1.00  0.00     0.091 A 
ATOM     65  F   UNL     1     -14.639   6.895  -0.656  1.00  0.00    -0.205 F 
ATOM     66  C   UNL     1     -13.764  10.431  -1.013  1.00  0.00     0.022 A 
BRANCH  64  67
ATOM     67  S   UNL     1     -15.259   9.398   1.034  1.00  0.00     0.127 S 
ATOM     68  O   UNL     1     -14.194   9.597   2.016  1.00  0.00    -0.237 OA
ATOM     69  O   UNL     1     -16.081  10.581   0.779  1.00  0.00    -0.237 OA
ATOM     70  O   UNL     1     -16.008   8.156   1.165  1.00  0.00    -0.744 OA
ENDBRANCH  64  67
ENDBRANCH  46  60
BRANCH  47  71
ATOM     71  C   UNL     1     -12.058  -0.777  -6.927  1.00  0.00     0.023 A 
ATOM     72  C   UNL     1     -12.315  -0.888  -8.308  1.00  0.00     0.012 A 
ATOM     73  C   UNL     1     -11.621  -1.911  -6.216  1.00  0.00     0.148 A 
ATOM     74  C   UNL     1     -12.166  -2.111  -8.963  1.00  0.00     0.002 A 
ATOM     75  C   UNL     1     -11.426  -3.114  -6.885  1.00  0.00     0.091 A 
ATOM     76  F   UNL     1     -11.398  -1.786  -4.900  1.00  0.00    -0.205 F 
ATOM     77  C   UNL     1     -11.713  -3.221  -8.254  1.00  0.00     0.022 A 
BRANCH  75  78
ATOM     78  S   UNL     1     -10.742  -4.568  -6.083  1.00  0.00     0.127 S 
ATOM     79  O   UNL     1     -11.865  -5.500  -6.145  1.00  0.00    -0.237 OA
ATOM     80  O   UNL     1      -9.620  -4.893  -6.965  1.00  0.00    -0.237 OA
ATOM     81  O   UNL     1     -10.357  -4.138  -4.746  1.00  0.00    -0.744 OA
ENDBRANCH  75  78
ENDBRANCH  47  71
BRANCH  59  82
ATOM     82  C   UNL     1     -17.668   3.232  -5.820  1.00  0.00     0.023 A 
ATOM     83  C   UNL     1     -18.470   2.307  -5.125  1.00  0.00     0.012 A 
ATOM     84  C   UNL     1     -18.261   4.065  -6.792  1.00  0.00     0.148 A 
ATOM     85  C   UNL     1     -19.830   2.188  -5.414  1.00  0.00     0.002 A 
ATOM     86  C   UNL     1     -19.626   3.979  -7.037  1.00  0.00     0.091 A 
ATOM     87  F   UNL     1     -17.479   4.930  -7.455  1.00  0.00    -0.205 F 
ATOM     88  C   UNL     1     -20.410   3.031  -6.360  1.00  0.00     0.022 A 
BRANCH  86  89
ATOM     89  S   UNL     1     -20.477   5.093  -8.160  1.00  0.00     0.127 S 
ATOM     90  O   UNL     1     -20.803   4.202  -9.273  1.00  0.00    -0.237 OA
ATOM     91  O   UNL     1     -21.627   5.519  -7.362  1.00  0.00    -0.237 OA
ATOM     92  O   UNL     1     -19.529   6.155  -8.469  1.00  0.00    -0.744 OA
ENDBRANCH  86  89
ENDBRANCH  59  82
ENDBRANCH  33  34
ENDBRANCH  26  28
ENDBRANCH  25  26
ENDBRANCH  24  25
ENDBRANCH  23  24
ENDBRANCH  22  23
ENDBRANCH   1  22
TORSDOF 21
