REMARK SMILES COc1ccc(F)cc1-c1cc(C(=O)OCCOCCOC(=O)c2ccc(-c3c4nc(c(-c5cccc(S(=O)(=O)[O-])c5F)c5ccc([nH]5)c(-c5cccc(S(=O)(=O)[O-])c5F)c5nc(c(-c6cccc(S(=O)(=O)[O-])c6F)c6ccc3[nH]6)C=C5)C=C4)cc2)n(C)n1
REMARK SMILES IDX 19 1 18 2 17 3 16 4 15 5 13 6 14 7 12 8 10 9 11 10 89 11
REMARK SMILES IDX 87 12 88 13 9 14 3 15 4 16 5 17 8 18 6 19 7 20 2 21 1 22
REMARK SMILES IDX 20 23 21 24 22 25 23 26 24 27 25 28 86 29 26 30 85 31 27 32
REMARK SMILES IDX 28 33 29 34 79 35 30 36 84 37 78 38 80 39 31 40 83 41 77 42
REMARK SMILES IDX 76 43 32 45 64 46 44 47 63 48 45 49 48 50 62 51 81 52 46 53
REMARK SMILES IDX 47 54 61 56 82 57 49 58 33 59 34 60 42 61 35 62 37 63 43 64
REMARK SMILES IDX 36 65 38 66 39 67 40 68 41 69 65 70 66 71 74 72 67 73 69 74
REMARK SMILES IDX 75 75 68 76 70 77 71 78 72 79 73 80 50 81 51 82 59 83 52 84
REMARK SMILES IDX 54 85 60 86 53 87 55 88 56 89 57 90 58 91
REMARK H PARENT 80 44 48 55
REMARK Flexibility Score: inf
ROOT
ATOM      1  C   UNL     1      -4.297  -0.110   1.487  1.00  0.00     0.202 C 
ENDROOT
BRANCH   1   2
ATOM      2  O   UNL     1      -5.437   0.707   1.203  1.00  0.00    -0.374 OA
BRANCH   2   3
ATOM      3  C   UNL     1      -6.655   0.017   0.910  1.00  0.00     0.202 C 
BRANCH   3   4
ATOM      4  C   UNL     1      -6.819  -0.383  -0.558  1.00  0.00     0.261 C 
BRANCH   4   5
ATOM      5  O   UNL     1      -5.846  -1.385  -0.900  1.00  0.00    -0.459 OA
BRANCH   5   6
ATOM      6  C   UNL     1      -4.923  -1.016  -1.822  1.00  0.00     0.356 C 
ATOM      7  O   UNL     1      -5.002  -0.017  -2.528  1.00  0.00    -0.244 OA
BRANCH   6   8
ATOM      8  C   UNL     1      -3.753  -1.852  -1.752  1.00  0.00     0.146 A 
ATOM      9  C   UNL     1      -1.635  -2.552  -1.919  1.00  0.00     0.097 A 
ATOM     10  C   UNL     1      -2.483  -1.449  -2.123  1.00  0.00     0.066 A 
ATOM     11  N   UNL     1      -2.322  -3.601  -1.456  1.00  0.00    -0.172 NA
ATOM     12  N   UNL     1      -3.592  -3.147  -1.317  1.00  0.00    -0.261 N 
ATOM     13  C   UNL     1      -4.578  -4.089  -0.836  1.00  0.00     0.174 C 
BRANCH   9  14
ATOM     14  C   UNL     1      -0.224  -2.612  -2.256  1.00  0.00     0.047 A 
ATOM     15  C   UNL     1       0.752  -1.962  -1.476  1.00  0.00     0.128 A 
ATOM     16  C   UNL     1       2.087  -1.965  -1.898  1.00  0.00     0.050 A 
ATOM     17  C   UNL     1       2.438  -2.571  -3.107  1.00  0.00     0.043 A 
ATOM     18  C   UNL     1       0.140  -3.232  -3.458  1.00  0.00     0.053 A 
ATOM     19  C   UNL     1       1.462  -3.196  -3.875  1.00  0.00     0.124 A 
ATOM     20  F   UNL     1       1.804  -3.759  -5.041  1.00  0.00    -0.207 F 
BRANCH  15  21
ATOM     21  O   UNL     1       0.361  -1.402  -0.287  1.00  0.00    -0.496 OA
ATOM     22  C   UNL     1       0.922  -0.121  -0.020  1.00  0.00     0.278 C 
ENDBRANCH  15  21
ENDBRANCH   9  14
ENDBRANCH   6   8
ENDBRANCH   5   6
ENDBRANCH   4   5
ENDBRANCH   3   4
ENDBRANCH   2   3
ENDBRANCH   1   2
BRANCH   1  23
ATOM     23  C   UNL     1      -4.198  -0.616   2.930  1.00  0.00     0.261 C 
BRANCH  23  24
ATOM     24  O   UNL     1      -5.200  -1.613   3.199  1.00  0.00    -0.460 OA
BRANCH  24  25
ATOM     25  C   UNL     1      -6.197  -1.213   4.026  1.00  0.00     0.338 C 
ATOM     26  O   UNL     1      -6.272  -0.153   4.626  1.00  0.00    -0.246 OA
BRANCH  25  27
ATOM     27  C   UNL     1      -7.313  -2.181   3.974  1.00  0.00     0.060 A 
ATOM     28  C   UNL     1      -8.608  -1.660   3.860  1.00  0.00     0.016 A 
ATOM     29  C   UNL     1      -7.112  -3.560   4.081  1.00  0.00     0.016 A 
ATOM     30  C   UNL     1      -9.711  -2.510   3.913  1.00  0.00     0.010 A 
ATOM     31  C   UNL     1      -8.221  -4.411   4.140  1.00  0.00     0.010 A 
ATOM     32  C   UNL     1      -9.524  -3.886   4.096  1.00  0.00    -0.014 A 
BRANCH  32  33
ATOM     33  C   UNL     1     -10.696  -4.749   4.382  1.00  0.00     0.031 A 
ATOM     34  C   UNL     1     -11.008  -5.103   5.810  1.00  0.00     0.074 A 
ATOM     35  C   UNL     1     -11.483  -5.194   3.388  1.00  0.00     0.049 A 
ATOM     36  N   UNL     1     -11.983  -5.833   6.285  1.00  0.00    -0.248 NA
ATOM     37  C   UNL     1     -10.104  -4.562   6.840  1.00  0.00     0.031 C 
ATOM     38  C   UNL     1     -11.288  -4.912   1.967  1.00  0.00     0.029 A 
ATOM     39  N   UNL     1     -12.599  -5.993   3.423  1.00  0.00    -0.354 N 
ATOM     40  C   UNL     1     -11.803  -5.855   7.662  1.00  0.00     0.074 A 
ATOM     41  C   UNL     1     -10.617  -5.078   7.949  1.00  0.00     0.031 C 
ATOM     42  C   UNL     1     -12.242  -5.546   1.263  1.00  0.00     0.029 A 
ATOM     43  C   UNL     1     -13.103  -6.292   2.180  1.00  0.00     0.049 A 
ATOM     44  H   UNL     1     -13.000  -6.322   4.260  1.00  0.00     0.167 HD
ATOM     45  C   UNL     1     -12.570  -6.448   8.606  1.00  0.00     0.034 A 
ATOM     46  C   UNL     1     -14.134  -7.084   1.821  1.00  0.00     0.034 A 
ATOM     47  C   UNL     1     -13.764  -7.195   8.325  1.00  0.00     0.049 A 
ATOM     48  C   UNL     1     -14.954  -7.758   2.891  1.00  0.00     0.074 A 
ATOM     49  C   UNL     1     -14.632  -7.792   9.222  1.00  0.00     0.029 A 
ATOM     50  N   UNL     1     -14.256  -7.455   7.056  1.00  0.00    -0.354 N 
ATOM     51  N   UNL     1     -14.842  -7.670   4.194  1.00  0.00    -0.248 NA
ATOM     52  C   UNL     1     -16.061  -8.618   2.443  1.00  0.00     0.031 C 
ATOM     53  C   UNL     1     -15.641  -8.428   8.494  1.00  0.00     0.029 A 
ATOM     54  C   UNL     1     -15.409  -8.215   7.144  1.00  0.00     0.049 A 
ATOM     55  H   UNL     1     -13.846  -7.146   6.217  1.00  0.00     0.167 HD
ATOM     56  C   UNL     1     -15.875  -8.438   4.721  1.00  0.00     0.074 A 
ATOM     57  C   UNL     1     -16.617  -8.969   3.597  1.00  0.00     0.031 C 
ATOM     58  C   UNL     1     -16.171  -8.693   6.019  1.00  0.00     0.034 A 
BRANCH  45  59
ATOM     59  C   UNL     1     -12.173  -6.274  10.046  1.00  0.00     0.023 A 
ATOM     60  C   UNL     1     -12.438  -5.048  10.689  1.00  0.00     0.012 A 
ATOM     61  C   UNL     1     -11.626  -7.342  10.783  1.00  0.00     0.148 A 
ATOM     62  C   UNL     1     -12.151  -4.883  12.043  1.00  0.00     0.002 A 
ATOM     63  C   UNL     1     -11.376  -7.181  12.141  1.00  0.00     0.091 A 
ATOM     64  F   UNL     1     -11.361  -8.490  10.144  1.00  0.00    -0.205 F 
ATOM     65  C   UNL     1     -11.632  -5.951  12.770  1.00  0.00     0.022 A 
BRANCH  63  66
ATOM     66  S   UNL     1     -10.775  -8.516  13.181  1.00  0.00     0.127 S 
ATOM     67  O   UNL     1      -9.411  -8.073  13.469  1.00  0.00    -0.237 OA
ATOM     68  O   UNL     1     -11.689  -8.455  14.321  1.00  0.00    -0.237 OA
ATOM     69  O   UNL     1     -10.881  -9.728  12.380  1.00  0.00    -0.744 OA
ENDBRANCH  63  66
ENDBRANCH  45  59
BRANCH  46  70
ATOM     70  C   UNL     1     -14.476  -7.238   0.380  1.00  0.00     0.023 A 
ATOM     71  C   UNL     1     -15.658  -6.656  -0.118  1.00  0.00     0.012 A 
ATOM     72  C   UNL     1     -13.617  -7.914  -0.508  1.00  0.00     0.148 A 
ATOM     73  C   UNL     1     -15.984  -6.755  -1.471  1.00  0.00     0.002 A 
ATOM     74  C   UNL     1     -13.920  -7.962  -1.864  1.00  0.00     0.091 A 
ATOM     75  F   UNL     1     -12.509  -8.482  -0.011  1.00  0.00    -0.205 F 
ATOM     76  C   UNL     1     -15.110  -7.395  -2.346  1.00  0.00     0.022 A 
BRANCH  74  77
ATOM     77  S   UNL     1     -12.783  -8.641  -3.079  1.00  0.00     0.127 S 
ATOM     78  O   UNL     1     -13.454  -9.883  -3.455  1.00  0.00    -0.237 OA
ATOM     79  O   UNL     1     -12.784  -7.602  -4.109  1.00  0.00    -0.237 OA
ATOM     80  O   UNL     1     -11.512  -8.791  -2.383  1.00  0.00    -0.744 OA
ENDBRANCH  74  77
ENDBRANCH  46  70
BRANCH  58  81
ATOM     81  C   UNL     1     -17.352  -9.579   6.321  1.00  0.00     0.023 A 
ATOM     82  C   UNL     1     -17.235 -10.970   6.138  1.00  0.00     0.012 A 
ATOM     83  C   UNL     1     -18.521  -9.052   6.905  1.00  0.00     0.148 A 
ATOM     84  C   UNL     1     -18.270 -11.823   6.520  1.00  0.00     0.002 A 
ATOM     85  C   UNL     1     -19.530  -9.912   7.323  1.00  0.00     0.091 A 
ATOM     86  F   UNL     1     -18.618  -7.723   7.055  1.00  0.00    -0.205 F 
ATOM     87  C   UNL     1     -19.409 -11.297   7.125  1.00  0.00     0.022 A 
BRANCH  85  88
ATOM     88  S   UNL     1     -20.988  -9.333   8.200  1.00  0.00     0.127 S 
ATOM     89  O   UNL     1     -22.024  -9.470   7.178  1.00  0.00    -0.237 OA
ATOM     90  O   UNL     1     -21.089 -10.290   9.303  1.00  0.00    -0.237 OA
ATOM     91  O   UNL     1     -20.691  -7.968   8.612  1.00  0.00    -0.744 OA
ENDBRANCH  85  88
ENDBRANCH  58  81
ENDBRANCH  32  33
ENDBRANCH  25  27
ENDBRANCH  24  25
ENDBRANCH  23  24
ENDBRANCH   1  23
TORSDOF 19
