REMARK SMILES Cc1c(C(=O)OCCOCCOC(=O)c2ccc(-c3c4nc(c(-c5cccc(S(=O)(=O)[O-])c5F)c5ccc([nH]5)c(-c5cccc(S(=O)(=O)[O-])c5F)c5nc(c(-c6cccc(S(=O)(=O)[O-])c6F)c6ccc3[nH]6)C=C5)C=C4)cc2)sc2nc3n(c(=O)c12)CC/C3=C\c1ccc(OC(F)F)cc1
REMARK SMILES IDX 9 1 8 2 7 3 6 4 4 5 5 6 3 7 1 8 2 9 85 10 78 11 79 12 83 13
REMARK SMILES IDX 80 14 82 15 84 16 81 17 86 18 88 19 87 20 89 21 90 22 91 23
REMARK SMILES IDX 99 24 92 25 98 26 93 27 94 28 95 29 96 30 97 31 10 32 11 33
REMARK SMILES IDX 12 34 13 35 14 36 15 37 16 38 77 39 17 40 76 41 18 42 19 43
REMARK SMILES IDX 20 44 70 45 21 46 75 47 69 48 71 49 22 50 74 51 68 52 67 53
REMARK SMILES IDX 23 55 55 56 35 57 54 58 36 59 39 60 53 61 72 62 37 63 38 64
REMARK SMILES IDX 52 66 73 67 40 68 24 69 25 70 33 71 26 72 28 73 34 74 27 75
REMARK SMILES IDX 29 76 30 77 31 78 32 79 56 80 57 81 65 82 58 83 60 84 66 85
REMARK SMILES IDX 59 86 61 87 62 88 63 89 64 90 41 91 42 92 50 93 43 94 45 95
REMARK SMILES IDX 51 96 44 97 46 98 47 99 48 100 49 101
REMARK H PARENT 71 54 39 65
REMARK Flexibility Score: inf
ROOT
ATOM      1  O   UNL     1      -3.821  -0.070  -2.698  1.00  0.00    -0.374 OA
ENDROOT
BRANCH   1   2
ATOM      2  C   UNL     1      -3.395   1.089  -1.980  1.00  0.00     0.202 C 
BRANCH   2   3
ATOM      3  C   UNL     1      -3.051   0.900  -0.503  1.00  0.00     0.261 C 
BRANCH   3   4
ATOM      4  O   UNL     1      -1.829   0.164  -0.331  1.00  0.00    -0.459 OA
BRANCH   4   5
ATOM      5  C   UNL     1      -1.944  -1.109   0.151  1.00  0.00     0.348 C 
ATOM      6  O   UNL     1      -3.005  -1.616   0.485  1.00  0.00    -0.245 OA
BRANCH   5   7
ATOM      7  C   UNL     1      -0.645  -1.775   0.140  1.00  0.00     0.118 A 
ATOM      8  C   UNL     1       1.009   0.189  -0.029  1.00  0.00     0.047 C 
ATOM      9  C   UNL     1       0.648  -1.262   0.106  1.00  0.00    -0.011 A 
ATOM     10  C   UNL     1       1.607  -2.319   0.328  1.00  0.00     0.081 A 
ATOM     11  S   UNL     1      -0.641  -3.499   0.157  1.00  0.00    -0.108 S 
ATOM     12  C   UNL     1       1.052  -3.586   0.305  1.00  0.00     0.132 A 
ATOM     13  C   UNL     1       3.028  -2.217   0.610  1.00  0.00     0.262 A 
ATOM     14  N   UNL     1       1.701  -4.783   0.450  1.00  0.00    -0.219 NA
ATOM     15  N   UNL     1       3.633  -3.445   0.767  1.00  0.00    -0.292 N 
ATOM     16  O   UNL     1       3.614  -1.153   0.783  1.00  0.00    -0.269 OA
ATOM     17  C   UNL     1       2.966  -4.660   0.681  1.00  0.00     0.140 A 
ATOM     18  C   UNL     1       5.016  -3.559   1.127  1.00  0.00     0.132 C 
ATOM     19  C   UNL     1       3.986  -5.713   0.960  1.00  0.00    -0.002 C 
ATOM     20  C   UNL     1       5.292  -5.037   1.284  1.00  0.00     0.061 C 
ATOM     21  C   UNL     1       3.765  -7.038   0.929  1.00  0.00     0.015 C 
BRANCH  21  22
ATOM     22  C   UNL     1       4.828  -7.991   1.289  1.00  0.00    -0.025 A 
ATOM     23  C   UNL     1       5.404  -8.827   0.331  1.00  0.00     0.012 A 
ATOM     24  C   UNL     1       5.339  -8.015   2.595  1.00  0.00     0.012 A 
ATOM     25  C   UNL     1       6.499  -9.635   0.670  1.00  0.00     0.047 A 
ATOM     26  C   UNL     1       6.444  -8.808   2.926  1.00  0.00     0.047 A 
ATOM     27  C   UNL     1       7.038  -9.618   1.961  1.00  0.00     0.126 A 
BRANCH  27  28
ATOM     28  O   UNL     1       8.128 -10.421   2.143  1.00  0.00    -0.435 OA
BRANCH  28  29
ATOM     29  C   UNL     1       8.790 -10.391   3.401  1.00  0.00     0.542 C 
ATOM     30  F   UNL     1       9.203  -9.133   3.688  1.00  0.00    -0.167 F 
ATOM     31  F   UNL     1       7.946 -10.796   4.381  1.00  0.00    -0.167 F 
ENDBRANCH  28  29
ENDBRANCH  27  28
ENDBRANCH  21  22
ENDBRANCH   5   7
ENDBRANCH   4   5
ENDBRANCH   3   4
ENDBRANCH   2   3
ENDBRANCH   1   2
BRANCH   1  32
ATOM     32  C   UNL     1      -2.866  -1.071  -3.040  1.00  0.00     0.202 C 
BRANCH  32  33
ATOM     33  C   UNL     1      -1.891  -0.771  -4.168  1.00  0.00     0.261 C 
BRANCH  33  34
ATOM     34  O   UNL     1      -1.095   0.366  -3.885  1.00  0.00    -0.460 OA
BRANCH  34  35
ATOM     35  C   UNL     1      -1.515   1.497  -4.495  1.00  0.00     0.338 C 
ATOM     36  O   UNL     1      -2.591   1.693  -5.029  1.00  0.00    -0.246 OA
BRANCH  35  37
ATOM     37  C   UNL     1      -0.391   2.437  -4.537  1.00  0.00     0.060 A 
ATOM     38  C   UNL     1      -0.614   3.625  -5.235  1.00  0.00     0.016 A 
ATOM     39  C   UNL     1       0.896   1.989  -4.201  1.00  0.00     0.016 A 
ATOM     40  C   UNL     1       0.466   4.226  -5.833  1.00  0.00     0.010 A 
ATOM     41  C   UNL     1       1.969   2.580  -4.811  1.00  0.00     0.010 A 
ATOM     42  C   UNL     1       1.718   3.620  -5.699  1.00  0.00    -0.014 A 
BRANCH  42  43
ATOM     43  C   UNL     1       2.800   4.128  -6.503  1.00  0.00     0.031 A 
ATOM     44  C   UNL     1       3.346   5.393  -5.977  1.00  0.00     0.074 A 
ATOM     45  C   UNL     1       3.274   3.443  -7.560  1.00  0.00     0.049 A 
ATOM     46  N   UNL     1       3.221   6.571  -6.489  1.00  0.00    -0.248 NA
ATOM     47  C   UNL     1       3.910   5.375  -4.619  1.00  0.00     0.031 C 
ATOM     48  C   UNL     1       2.979   2.063  -7.960  1.00  0.00     0.029 A 
ATOM     49  N   UNL     1       4.246   3.811  -8.430  1.00  0.00    -0.354 N 
ATOM     50  C   UNL     1       3.907   7.412  -5.620  1.00  0.00     0.074 A 
ATOM     51  C   UNL     1       4.093   6.676  -4.399  1.00  0.00     0.031 C 
ATOM     52  C   UNL     1       3.942   1.638  -8.811  1.00  0.00     0.029 A 
ATOM     53  C   UNL     1       4.827   2.749  -9.113  1.00  0.00     0.049 A 
ATOM     54  H   UNL     1       4.518   4.748  -8.565  1.00  0.00     0.167 HD
ATOM     55  C   UNL     1       4.514   8.541  -6.070  1.00  0.00     0.034 A 
ATOM     56  C   UNL     1       6.010   2.792  -9.776  1.00  0.00     0.034 A 
ATOM     57  C   UNL     1       4.038   8.911  -7.377  1.00  0.00     0.049 A 
ATOM     58  C   UNL     1       6.299   4.223 -10.052  1.00  0.00     0.074 A 
ATOM     59  C   UNL     1       2.811   9.265  -7.902  1.00  0.00     0.029 A 
ATOM     60  N   UNL     1       4.822   8.550  -8.447  1.00  0.00    -0.354 N 
ATOM     61  N   UNL     1       5.578   4.963 -10.847  1.00  0.00    -0.248 NA
ATOM     62  C   UNL     1       7.114   4.947  -9.088  1.00  0.00     0.031 C 
ATOM     63  C   UNL     1       2.776   8.667  -9.195  1.00  0.00     0.029 A 
ATOM     64  C   UNL     1       4.001   8.031  -9.414  1.00  0.00     0.049 A 
ATOM     65  H   UNL     1       5.800   8.646  -8.507  1.00  0.00     0.167 HD
ATOM     66  C   UNL     1       5.493   6.189 -10.196  1.00  0.00     0.074 A 
ATOM     67  C   UNL     1       6.540   6.150  -9.176  1.00  0.00     0.031 C 
ATOM     68  C   UNL     1       4.397   6.991 -10.341  1.00  0.00     0.034 A 
BRANCH  55  69
ATOM     69  C   UNL     1       5.787   9.104  -5.493  1.00  0.00     0.023 A 
ATOM     70  C   UNL     1       6.188  10.380  -5.941  1.00  0.00     0.012 A 
ATOM     71  C   UNL     1       6.730   8.362  -4.743  1.00  0.00     0.148 A 
ATOM     72  C   UNL     1       7.471  10.875  -5.684  1.00  0.00     0.002 A 
ATOM     73  C   UNL     1       7.969   8.894  -4.413  1.00  0.00     0.091 A 
ATOM     74  F   UNL     1       6.500   7.078  -4.454  1.00  0.00    -0.205 F 
ATOM     75  C   UNL     1       8.358  10.139  -4.909  1.00  0.00     0.022 A 
BRANCH  73  76
ATOM     76  S   UNL     1       9.125   8.006  -3.361  1.00  0.00     0.127 S 
ATOM     77  O   UNL     1      10.140   7.591  -4.325  1.00  0.00    -0.237 OA
ATOM     78  O   UNL     1       9.544   9.054  -2.430  1.00  0.00    -0.237 OA
ATOM     79  O   UNL     1       8.350   6.937  -2.743  1.00  0.00    -0.744 OA
ENDBRANCH  73  76
ENDBRANCH  55  69
BRANCH  56  80
ATOM     80  C   UNL     1       7.076   1.762  -9.853  1.00  0.00     0.023 A 
ATOM     81  C   UNL     1       8.089   1.890 -10.826  1.00  0.00     0.012 A 
ATOM     82  C   UNL     1       7.284   0.849  -8.794  1.00  0.00     0.148 A 
ATOM     83  C   UNL     1       9.286   1.169 -10.724  1.00  0.00     0.002 A 
ATOM     84  C   UNL     1       8.476   0.137  -8.695  1.00  0.00     0.091 A 
ATOM     85  F   UNL     1       6.357   0.751  -7.833  1.00  0.00    -0.205 F 
ATOM     86  C   UNL     1       9.485   0.304  -9.652  1.00  0.00     0.022 A 
BRANCH  84  87
ATOM     87  S   UNL     1       8.829  -0.956  -7.310  1.00  0.00     0.127 S 
ATOM     88  O   UNL     1       9.271  -2.174  -7.991  1.00  0.00    -0.237 OA
ATOM     89  O   UNL     1       9.884  -0.227  -6.613  1.00  0.00    -0.237 OA
ATOM     90  O   UNL     1       7.574  -1.098  -6.583  1.00  0.00    -0.744 OA
ENDBRANCH  84  87
ENDBRANCH  56  80
BRANCH  68  91
ATOM     91  C   UNL     1       3.376   6.618 -11.392  1.00  0.00     0.023 A 
ATOM     92  C   UNL     1       2.614   5.432 -11.318  1.00  0.00     0.012 A 
ATOM     93  C   UNL     1       3.036   7.580 -12.357  1.00  0.00     0.148 A 
ATOM     94  C   UNL     1       1.546   5.207 -12.193  1.00  0.00     0.002 A 
ATOM     95  C   UNL     1       1.942   7.377 -13.190  1.00  0.00     0.091 A 
ATOM     96  F   UNL     1       3.768   8.703 -12.415  1.00  0.00    -0.205 F 
ATOM     97  C   UNL     1       1.200   6.187 -13.118  1.00  0.00     0.022 A 
BRANCH  95  98
ATOM     98  S   UNL     1       1.357   8.660 -14.299  1.00  0.00     0.127 S 
ATOM     99  O   UNL     1       1.755   8.140 -15.605  1.00  0.00    -0.237 OA
ATOM    100  O   UNL     1      -0.086   8.654 -14.051  1.00  0.00    -0.237 OA
ATOM    101  O   UNL     1       2.026   9.887 -13.883  1.00  0.00    -0.744 OA
ENDBRANCH  95  98
ENDBRANCH  68  91
ENDBRANCH  42  43
ENDBRANCH  35  37
ENDBRANCH  34  35
ENDBRANCH  33  34
ENDBRANCH  32  33
ENDBRANCH   1  32
TORSDOF 20
