REMARK SMILES O=C(C[NH+]1CC[NH+](Cc2cc(Cl)ccc2[N+](=O)[O-])CC1)OCCOCCOC(=O)c1ccc(-c2c3nc(c(-c4cccc(S(=O)(=O)[O-])c4F)c4ccc([nH]4)c(-c4cccc(S(=O)(=O)[O-])c4F)c4nc(c(-c5cccc(S(=O)(=O)[O-])c5F)c5ccc2[nH]5)C=C4)C=C3)cc1
REMARK SMILES IDX 23 1 22 2 21 3 2 4 1 5 3 6 4 7 5 8 20 9 6 11 19 12 7 13 8 15
REMARK SMILES IDX 9 16 10 17 15 18 11 19 14 20 12 21 13 22 16 23 17 24 18 25
REMARK SMILES IDX 24 26 25 27 26 28 27 29 28 30 29 31 30 32 31 33 92 34 32 35
REMARK SMILES IDX 91 36 33 37 34 38 35 39 85 40 36 41 90 42 84 43 86 44 37 45
REMARK SMILES IDX 89 46 83 47 82 48 38 50 70 51 50 52 69 53 51 54 54 55 68 56
REMARK SMILES IDX 87 57 52 58 53 59 67 61 88 62 55 63 39 64 40 65 48 66 41 67
REMARK SMILES IDX 43 68 49 69 42 70 44 71 45 72 46 73 47 74 71 75 72 76 80 77
REMARK SMILES IDX 73 78 75 79 81 80 74 81 76 82 77 83 78 84 79 85 56 86 57 87
REMARK SMILES IDX 65 88 58 89 60 90 66 91 59 92 61 93 62 94 63 95 64 96
REMARK H PARENT 4 10 7 14 86 49 54 60
REMARK Flexibility Score: inf
ROOT
ATOM      1  C   UNL     1       3.631   1.575  -0.445  1.00  0.00     0.202 C 
ENDROOT
BRANCH   1   2
ATOM      2  C   UNL     1       3.162   0.456  -1.378  1.00  0.00     0.261 C 
BRANCH   2   3
ATOM      3  O   UNL     1       1.834   0.011  -1.064  1.00  0.00    -0.459 OA
BRANCH   3   4
ATOM      4  C   UNL     1       1.468  -1.032  -0.289  1.00  0.00     0.361 C 
ATOM      5  O   UNL     1       0.298  -1.422  -0.370  1.00  0.00    -0.245 OA
BRANCH   4   6
ATOM      6  C   UNL     1       2.373  -1.633   0.797  1.00  0.00     0.386 C 
BRANCH   6   7
ATOM      7  N   UNL     1       3.543  -2.380   0.310  1.00  0.00    -0.316 N 
ATOM      8  C   UNL     1       4.793  -1.629   0.503  1.00  0.00     0.325 C 
ATOM      9  C   UNL     1       3.672  -3.721   0.925  1.00  0.00     0.325 C 
ATOM     10  H   UNL     1       3.383  -2.509  -0.689  1.00  0.00     0.348 HD
ATOM     11  C   UNL     1       5.480  -1.697   1.874  1.00  0.00     0.324 C 
ATOM     12  C   UNL     1       4.482  -3.836   2.251  1.00  0.00     0.324 C 
ATOM     13  N   UNL     1       5.723  -3.059   2.338  1.00  0.00    -0.322 N 
ATOM     14  H   UNL     1       5.952  -3.041   3.332  1.00  0.00     0.348 HD
BRANCH  13  15
ATOM     15  C   UNL     1       6.978  -3.671   1.869  1.00  0.00     0.306 C 
BRANCH  15  16
ATOM     16  C   UNL     1       7.114  -3.961   0.383  1.00  0.00     0.085 A 
ATOM     17  C   UNL     1       7.618  -2.916  -0.433  1.00  0.00     0.037 A 
ATOM     18  C   UNL     1       6.661  -5.127  -0.272  1.00  0.00     0.278 A 
ATOM     19  C   UNL     1       7.484  -2.947  -1.824  1.00  0.00     0.042 A 
ATOM     20  C   UNL     1       6.537  -5.151  -1.679  1.00  0.00     0.088 A 
ATOM     21  Cl  UNL     1       7.924  -1.570  -2.755  1.00  0.00    -0.084 Cl
ATOM     22  C   UNL     1       6.910  -4.047  -2.446  1.00  0.00     0.027 A 
BRANCH  18  23
ATOM     23  N   UNL     1       6.292  -6.363   0.447  1.00  0.00     0.063 N 
ATOM     24  O   UNL     1       5.661  -7.225  -0.182  1.00  0.00    -0.258 OA
ATOM     25  O   UNL     1       6.663  -6.505   1.617  1.00  0.00    -0.258 OA
ENDBRANCH  18  23
ENDBRANCH  15  16
ENDBRANCH  13  15
ENDBRANCH   6   7
ENDBRANCH   4   6
ENDBRANCH   3   4
ENDBRANCH   2   3
ENDBRANCH   1   2
BRANCH   1  26
ATOM     26  O   UNL     1       3.562   1.232   0.946  1.00  0.00    -0.374 OA
BRANCH  26  27
ATOM     27  C   UNL     1       2.425   1.764   1.633  1.00  0.00     0.202 C 
BRANCH  27  28
ATOM     28  C   UNL     1       2.756   3.045   2.398  1.00  0.00     0.261 C 
BRANCH  28  29
ATOM     29  O   UNL     1       3.220   4.045   1.490  1.00  0.00    -0.460 OA
BRANCH  29  30
ATOM     30  C   UNL     1       4.564   4.101   1.328  1.00  0.00     0.338 C 
ATOM     31  O   UNL     1       5.416   3.574   2.027  1.00  0.00    -0.246 OA
BRANCH  30  32
ATOM     32  C   UNL     1       4.844   4.747   0.028  1.00  0.00     0.060 A 
ATOM     33  C   UNL     1       5.997   4.362  -0.673  1.00  0.00     0.016 A 
ATOM     34  C   UNL     1       3.953   5.671  -0.526  1.00  0.00     0.016 A 
ATOM     35  C   UNL     1       6.283   4.930  -1.913  1.00  0.00     0.010 A 
ATOM     36  C   UNL     1       4.235   6.234  -1.764  1.00  0.00     0.010 A 
ATOM     37  C   UNL     1       5.419   5.895  -2.440  1.00  0.00    -0.014 A 
BRANCH  37  38
ATOM     38  C   UNL     1       5.821   6.743  -3.579  1.00  0.00     0.031 A 
ATOM     39  C   UNL     1       6.334   8.117  -3.264  1.00  0.00     0.074 A 
ATOM     40  C   UNL     1       5.603   6.351  -4.844  1.00  0.00     0.049 A 
ATOM     41  N   UNL     1       6.540   9.128  -4.061  1.00  0.00    -0.248 NA
ATOM     42  C   UNL     1       6.617   8.394  -1.844  1.00  0.00     0.031 C 
ATOM     43  C   UNL     1       5.085   5.046  -5.247  1.00  0.00     0.029 A 
ATOM     44  N   UNL     1       5.729   7.048  -6.018  1.00  0.00    -0.354 N 
ATOM     45  C   UNL     1       6.920  10.178  -3.235  1.00  0.00     0.074 A 
ATOM     46  C   UNL     1       6.913   9.683  -1.877  1.00  0.00     0.031 C 
ATOM     47  C   UNL     1       4.880   5.054  -6.575  1.00  0.00     0.029 A 
ATOM     48  C   UNL     1       5.219   6.375  -7.103  1.00  0.00     0.049 A 
ATOM     49  H   UNL     1       6.143   7.939  -6.079  1.00  0.00     0.167 HD
ATOM     50  C   UNL     1       7.248  11.444  -3.581  1.00  0.00     0.034 A 
ATOM     51  C   UNL     1       5.008   6.799  -8.364  1.00  0.00     0.034 A 
ATOM     52  C   UNL     1       7.264  11.914  -4.936  1.00  0.00     0.049 A 
ATOM     53  C   UNL     1       5.399   8.205  -8.737  1.00  0.00     0.074 A 
ATOM     54  C   UNL     1       7.655  13.149  -5.415  1.00  0.00     0.029 A 
ATOM     55  N   UNL     1       6.853  11.167  -6.031  1.00  0.00    -0.354 N 
ATOM     56  N   UNL     1       5.888   9.154  -7.974  1.00  0.00    -0.248 NA
ATOM     57  C   UNL     1       5.241   8.591 -10.146  1.00  0.00     0.031 C 
ATOM     58  C   UNL     1       7.454  13.159  -6.800  1.00  0.00     0.029 A 
ATOM     59  C   UNL     1       6.969  11.918  -7.186  1.00  0.00     0.049 A 
ATOM     60  H   UNL     1       6.526  10.239  -5.991  1.00  0.00     0.167 HD
ATOM     61  C   UNL     1       6.132  10.236  -8.813  1.00  0.00     0.074 A 
ATOM     62  C   UNL     1       5.742   9.821 -10.146  1.00  0.00     0.031 C 
ATOM     63  C   UNL     1       6.626  11.462  -8.510  1.00  0.00     0.034 A 
BRANCH  50  64
ATOM     64  C   UNL     1       7.617  12.389  -2.470  1.00  0.00     0.023 A 
ATOM     65  C   UNL     1       8.825  12.208  -1.765  1.00  0.00     0.012 A 
ATOM     66  C   UNL     1       6.768  13.457  -2.120  1.00  0.00     0.148 A 
ATOM     67  C   UNL     1       9.159  13.044  -0.700  1.00  0.00     0.002 A 
ATOM     68  C   UNL     1       7.131  14.315  -1.089  1.00  0.00     0.091 A 
ATOM     69  F   UNL     1       5.607  13.595  -2.777  1.00  0.00    -0.205 F 
ATOM     70  C   UNL     1       8.317  14.101  -0.368  1.00  0.00     0.022 A 
BRANCH  68  71
ATOM     71  S   UNL     1       6.146  15.749  -0.645  1.00  0.00     0.127 S 
ATOM     72  O   UNL     1       5.489  15.290   0.577  1.00  0.00    -0.237 OA
ATOM     73  O   UNL     1       7.169  16.776  -0.438  1.00  0.00    -0.237 OA
ATOM     74  O   UNL     1       5.268  15.994  -1.781  1.00  0.00    -0.744 OA
ENDBRANCH  68  71
ENDBRANCH  50  64
BRANCH  51  75
ATOM     75  C   UNL     1       4.421   5.862  -9.361  1.00  0.00     0.023 A 
ATOM     76  C   UNL     1       5.240   5.321 -10.370  1.00  0.00     0.012 A 
ATOM     77  C   UNL     1       3.078   5.446  -9.267  1.00  0.00     0.148 A 
ATOM     78  C   UNL     1       4.728   4.393 -11.279  1.00  0.00     0.002 A 
ATOM     79  C   UNL     1       2.589   4.483 -10.142  1.00  0.00     0.091 A 
ATOM     80  F   UNL     1       2.316   5.979  -8.302  1.00  0.00    -0.205 F 
ATOM     81  C   UNL     1       3.408   3.966 -11.157  1.00  0.00     0.022 A 
BRANCH  79  82
ATOM     82  S   UNL     1       0.948   3.771  -9.981  1.00  0.00     0.127 S 
ATOM     83  O   UNL     1       0.307   4.215 -11.217  1.00  0.00    -0.237 OA
ATOM     84  O   UNL     1       1.250   2.340  -9.922  1.00  0.00    -0.237 OA
ATOM     85  O   UNL     1       0.394   4.324  -8.753  1.00  0.00    -0.744 OA
ENDBRANCH  79  82
ENDBRANCH  51  75
BRANCH  63  86
ATOM     86  C   UNL     1       6.831  12.439  -9.636  1.00  0.00     0.023 A 
ATOM     87  C   UNL     1       5.725  13.096 -10.209  1.00  0.00     0.012 A 
ATOM     88  C   UNL     1       8.135  12.793 -10.039  1.00  0.00     0.148 A 
ATOM     89  C   UNL     1       5.914  14.080 -11.179  1.00  0.00     0.002 A 
ATOM     90  C   UNL     1       8.317  13.808 -10.969  1.00  0.00     0.091 A 
ATOM     91  F   UNL     1       9.171  12.142  -9.491  1.00  0.00    -0.205 F 
ATOM     92  C   UNL     1       7.207  14.446 -11.548  1.00  0.00     0.022 A 
BRANCH  90  93
ATOM     93  S   UNL     1       9.945  14.416 -11.423  1.00  0.00     0.127 S 
ATOM     94  O   UNL     1      10.075  13.921 -12.793  1.00  0.00    -0.237 OA
ATOM     95  O   UNL     1       9.777  15.865 -11.311  1.00  0.00    -0.237 OA
ATOM     96  O   UNL     1      10.873  13.839 -10.461  1.00  0.00    -0.744 OA
ENDBRANCH  90  93
ENDBRANCH  63  86
ENDBRANCH  37  38
ENDBRANCH  30  32
ENDBRANCH  29  30
ENDBRANCH  28  29
ENDBRANCH  27  28
ENDBRANCH  26  27
ENDBRANCH   1  26
TORSDOF 21
