REMARK SMILES CCCc1nc(C)cc(N2CCC(C(=O)OCCOCCOC(=O)c3ccc(-c4c5nc(c(-c6cccc(S(=O)(=O)[O-])c6F)c6ccc([nH]6)c(-c6cccc(S(=O)(=O)[O-])c6F)c6nc(c(-c7cccc(S(=O)(=O)[O-])c7F)c7ccc4[nH]7)C=C6)C=C5)cc3)(n3ccc(C(C)C)n3)CC2)n1
REMARK SMILES IDX 19 1 18 2 17 3 16 4 14 5 15 6 13 7 10 8 11 9 97 10 12 11
REMARK SMILES IDX 96 12 9 13 4 14 5 15 98 16 6 17 7 18 8 19 3 20 2 21 1 22
REMARK SMILES IDX 88 23 89 24 95 25 90 26 91 27 92 28 93 29 94 30 20 31 21 32
REMARK SMILES IDX 22 33 23 34 24 35 25 36 26 37 87 38 27 39 86 40 28 41 29 42
REMARK SMILES IDX 30 43 80 44 31 45 85 46 79 47 81 48 32 49 84 50 78 51 77 52
REMARK SMILES IDX 33 54 65 55 45 56 64 57 46 58 49 59 63 60 82 61 47 62 48 63
REMARK SMILES IDX 62 65 83 66 50 67 34 68 35 69 43 70 36 71 38 72 44 73 37 74
REMARK SMILES IDX 39 75 40 76 41 77 42 78 66 79 67 80 75 81 68 82 70 83 76 84
REMARK SMILES IDX 69 85 71 86 72 87 73 88 74 89 51 90 52 91 60 92 53 93 55 94
REMARK SMILES IDX 61 95 54 96 56 97 57 98 58 99 59 100
REMARK H PARENT 81 53 49 64
REMARK Flexibility Score: inf
ROOT
ATOM      1  O   UNL     1      -1.072 -11.873   2.456  1.00  0.00    -0.374 OA
ENDROOT
BRANCH   1   2
ATOM      2  C   UNL     1      -1.684 -11.260   1.320  1.00  0.00     0.202 C 
BRANCH   2   3
ATOM      3  C   UNL     1      -2.675 -10.130   1.609  1.00  0.00     0.261 C 
BRANCH   3   4
ATOM      4  O   UNL     1      -2.014  -9.034   2.258  1.00  0.00    -0.461 OA
BRANCH   4   5
ATOM      5  C   UNL     1      -2.625  -8.536   3.370  1.00  0.00     0.334 C 
ATOM      6  O   UNL     1      -3.765  -8.844   3.710  1.00  0.00    -0.249 OA
BRANCH   5   7
ATOM      7  C   UNL     1      -1.774  -7.463   4.094  1.00  0.00     0.163 C 
ATOM      8  N   UNL     1      -0.726  -4.797   3.754  1.00  0.00    -0.356 N 
ATOM      9  C   UNL     1       0.233  -5.884   3.796  1.00  0.00     0.121 C 
ATOM     10  C   UNL     1      -2.041  -4.903   4.347  1.00  0.00     0.121 C 
ATOM     11  C   UNL     1      -0.420  -7.199   3.392  1.00  0.00     0.064 C 
ATOM     12  C   UNL     1      -2.687  -6.221   3.981  1.00  0.00     0.064 C 
BRANCH   8  13
ATOM     13  C   UNL     1      -0.323  -3.581   3.235  1.00  0.00     0.132 A 
ATOM     14  C   UNL     1       0.543  -2.388   1.471  1.00  0.00     0.130 A 
ATOM     15  N   UNL     1       0.351  -1.205   2.080  1.00  0.00    -0.238 NA
ATOM     16  N   UNL     1       0.280  -3.580   2.038  1.00  0.00    -0.216 NA
ATOM     17  C   UNL     1      -0.223  -1.225   3.293  1.00  0.00     0.043 A 
ATOM     18  C   UNL     1      -0.500   0.099   3.932  1.00  0.00     0.067 C 
ATOM     19  C   UNL     1      -0.592  -2.401   3.903  1.00  0.00     0.070 A 
BRANCH  14  20
ATOM     20  C   UNL     1       1.093  -2.399   0.068  1.00  0.00     0.077 C 
BRANCH  20  21
ATOM     21  C   UNL     1       0.547  -1.301  -0.853  1.00  0.00     0.005 C 
ATOM     22  C   UNL     1       1.148   0.076  -0.595  1.00  0.00     0.004 C 
ENDBRANCH  20  21
ENDBRANCH  14  20
ENDBRANCH   8  13
BRANCH   7  23
ATOM     23  N   UNL     1      -1.553  -7.890   5.493  1.00  0.00    -0.255 N 
ATOM     24  C   UNL     1      -1.139  -7.138   6.564  1.00  0.00     0.110 A 
ATOM     25  N   UNL     1      -1.681  -9.194   5.839  1.00  0.00    -0.177 NA
ATOM     26  C   UNL     1      -1.196  -7.949   7.669  1.00  0.00     0.045 A 
ATOM     27  C   UNL     1      -1.579  -9.210   7.173  1.00  0.00     0.065 A 
BRANCH  27  28
ATOM     28  C   UNL     1      -1.866 -10.463   7.951  1.00  0.00     0.034 C 
ATOM     29  C   UNL     1      -0.658 -10.914   8.775  1.00  0.00     0.014 C 
ATOM     30  C   UNL     1      -3.086 -10.275   8.860  1.00  0.00     0.014 C 
ENDBRANCH  27  28
ENDBRANCH   7  23
ENDBRANCH   5   7
ENDBRANCH   4   5
ENDBRANCH   3   4
ENDBRANCH   2   3
ENDBRANCH   1   2
BRANCH   1  31
ATOM     31  C   UNL     1      -0.083 -11.118   3.156  1.00  0.00     0.202 C 
BRANCH  31  32
ATOM     32  C   UNL     1       1.300 -11.017   2.496  1.00  0.00     0.261 C 
BRANCH  32  33
ATOM     33  O   UNL     1       1.272 -10.346   1.222  1.00  0.00    -0.460 OA
BRANCH  33  34
ATOM     34  C   UNL     1       1.526 -11.144   0.158  1.00  0.00     0.338 C 
ATOM     35  O   UNL     1       1.833 -12.333   0.185  1.00  0.00    -0.246 OA
BRANCH  34  36
ATOM     36  C   UNL     1       1.225 -10.448  -1.105  1.00  0.00     0.060 A 
ATOM     37  C   UNL     1       0.337 -11.073  -1.993  1.00  0.00     0.016 A 
ATOM     38  C   UNL     1       1.868  -9.262  -1.466  1.00  0.00     0.016 A 
ATOM     39  C   UNL     1       0.131 -10.544  -3.265  1.00  0.00     0.010 A 
ATOM     40  C   UNL     1       1.666  -8.738  -2.749  1.00  0.00     0.010 A 
ATOM     41  C   UNL     1       0.827  -9.397  -3.667  1.00  0.00    -0.014 A 
BRANCH  41  42
ATOM     42  C   UNL     1       0.788  -8.975  -5.089  1.00  0.00     0.031 A 
ATOM     43  C   UNL     1       1.936  -9.341  -5.992  1.00  0.00     0.074 A 
ATOM     44  C   UNL     1      -0.256  -8.280  -5.573  1.00  0.00     0.049 A 
ATOM     45  N   UNL     1       2.122  -9.053  -7.253  1.00  0.00    -0.248 NA
ATOM     46  C   UNL     1       3.019 -10.138  -5.392  1.00  0.00     0.031 C 
ATOM     47  C   UNL     1      -1.429  -7.874  -4.802  1.00  0.00     0.029 A 
ATOM     48  N   UNL     1      -0.484  -7.772  -6.828  1.00  0.00    -0.354 N 
ATOM     49  C   UNL     1       3.351  -9.604  -7.592  1.00  0.00     0.074 A 
ATOM     50  C   UNL     1       3.873 -10.238  -6.401  1.00  0.00     0.031 C 
ATOM     51  C   UNL     1      -2.241  -7.151  -5.593  1.00  0.00     0.029 A 
ATOM     52  C   UNL     1      -1.634  -7.025  -6.918  1.00  0.00     0.049 A 
ATOM     53  H   UNL     1       0.119  -7.927  -7.591  1.00  0.00     0.167 HD
ATOM     54  C   UNL     1       3.983  -9.599  -8.790  1.00  0.00     0.034 A 
ATOM     55  C   UNL     1      -2.130  -6.304  -7.944  1.00  0.00     0.034 A 
ATOM     56  C   UNL     1       3.453  -8.990  -9.979  1.00  0.00     0.049 A 
ATOM     57  C   UNL     1      -1.396  -6.295  -9.261  1.00  0.00     0.074 A 
ATOM     58  C   UNL     1       3.996  -8.973 -11.252  1.00  0.00     0.029 A 
ATOM     59  N   UNL     1       2.263  -8.282 -10.043  1.00  0.00    -0.354 N 
ATOM     60  N   UNL     1      -0.295  -6.921  -9.597  1.00  0.00    -0.248 NA
ATOM     61  C   UNL     1      -1.991  -5.505 -10.350  1.00  0.00     0.031 C 
ATOM     62  C   UNL     1       3.144  -8.235 -12.080  1.00  0.00     0.029 A 
ATOM     63  C   UNL     1       2.059  -7.814 -11.329  1.00  0.00     0.049 A 
ATOM     64  H   UNL     1       1.653  -8.135  -9.284  1.00  0.00     0.167 HD
ATOM     65  C   UNL     1      -0.086  -6.635 -10.942  1.00  0.00     0.074 A 
ATOM     66  C   UNL     1      -1.183  -5.789 -11.363  1.00  0.00     0.031 C 
ATOM     67  C   UNL     1       0.930  -7.025 -11.751  1.00  0.00     0.034 A 
BRANCH  54  68
ATOM     68  C   UNL     1       5.312 -10.301  -8.883  1.00  0.00     0.023 A 
ATOM     69  C   UNL     1       5.356 -11.709  -8.887  1.00  0.00     0.012 A 
ATOM     70  C   UNL     1       6.508  -9.570  -9.027  1.00  0.00     0.148 A 
ATOM     71  C   UNL     1       6.572 -12.381  -9.005  1.00  0.00     0.002 A 
ATOM     72  C   UNL     1       7.712 -10.247  -9.185  1.00  0.00     0.091 A 
ATOM     73  F   UNL     1       6.447  -8.232  -8.997  1.00  0.00    -0.205 F 
ATOM     74  C   UNL     1       7.747 -11.651  -9.164  1.00  0.00     0.022 A 
BRANCH  72  75
ATOM     75  S   UNL     1       9.268  -9.396  -9.470  1.00  0.00     0.127 S 
ATOM     76  O   UNL     1       9.944  -9.579  -8.187  1.00  0.00    -0.237 OA
ATOM     77  O   UNL     1       9.842 -10.163 -10.576  1.00  0.00    -0.237 OA
ATOM     78  O   UNL     1       8.918  -8.023  -9.804  1.00  0.00    -0.744 OA
ENDBRANCH  72  75
ENDBRANCH  54  68
BRANCH  55  79
ATOM     79  C   UNL     1      -3.408  -5.557  -7.778  1.00  0.00     0.023 A 
ATOM     80  C   UNL     1      -4.559  -5.986  -8.466  1.00  0.00     0.012 A 
ATOM     81  C   UNL     1      -3.495  -4.438  -6.926  1.00  0.00     0.148 A 
ATOM     82  C   UNL     1      -5.766  -5.300  -8.331  1.00  0.00     0.002 A 
ATOM     83  C   UNL     1      -4.713  -3.792  -6.753  1.00  0.00     0.091 A 
ATOM     84  F   UNL     1      -2.384  -4.032  -6.296  1.00  0.00    -0.205 F 
ATOM     85  C   UNL     1      -5.847  -4.211  -7.467  1.00  0.00     0.022 A 
BRANCH  83  86
ATOM     86  S   UNL     1      -4.936  -2.462  -5.566  1.00  0.00     0.127 S 
ATOM     87  O   UNL     1      -5.078  -1.301  -6.440  1.00  0.00    -0.237 OA
ATOM     88  O   UNL     1      -6.163  -2.872  -4.880  1.00  0.00    -0.237 OA
ATOM     89  O   UNL     1      -3.746  -2.483  -4.726  1.00  0.00    -0.744 OA
ENDBRANCH  83  86
ENDBRANCH  55  79
BRANCH  67  90
ATOM     90  C   UNL     1       0.895  -6.583 -13.191  1.00  0.00     0.023 A 
ATOM     91  C   UNL     1       1.192  -5.246 -13.520  1.00  0.00     0.012 A 
ATOM     92  C   UNL     1       0.659  -7.514 -14.223  1.00  0.00     0.148 A 
ATOM     93  C   UNL     1       1.231  -4.837 -14.853  1.00  0.00     0.002 A 
ATOM     94  C   UNL     1       0.745  -7.109 -15.550  1.00  0.00     0.091 A 
ATOM     95  F   UNL     1       0.361  -8.778 -13.887  1.00  0.00    -0.205 F 
ATOM     96  C   UNL     1       1.020  -5.769 -15.866  1.00  0.00     0.022 A 
BRANCH  94  97
ATOM     97  S   UNL     1       0.584  -8.261 -16.920  1.00  0.00     0.127 S 
ATOM     98  O   UNL     1      -0.729  -7.905 -17.455  1.00  0.00    -0.237 OA
ATOM     99  O   UNL     1       1.713  -7.888 -17.774  1.00  0.00    -0.237 OA
ATOM    100  O   UNL     1       0.683  -9.592 -16.338  1.00  0.00    -0.744 OA
ENDBRANCH  94  97
ENDBRANCH  67  90
ENDBRANCH  41  42
ENDBRANCH  34  36
ENDBRANCH  33  34
ENDBRANCH  32  33
ENDBRANCH  31  32
ENDBRANCH   1  31
TORSDOF 22
