REMARK SMILES COc1c[nH]c(C[N@H+]2CCC[C@@H](c3ccc(C(=O)OCCOCCOC(=O)c4ccc(-c5c6nc(c(-c7cccc(S(=O)(=O)[O-])c7F)c7ccc([nH]7)c(-c7cccc(S(=O)(=O)[O-])c7F)c7nc(c(-c8cccc(S(=O)(=O)[O-])c8F)c8ccc5[nH]8)C=C7)C=C6)cc4)cc3)C2)cc1=O
REMARK SMILES IDX 21 1 20 2 19 3 17 4 18 5 16 6 13 7 14 8 92 9 15 10 91 11
REMARK SMILES IDX 12 12 8 13 9 14 93 15 10 17 11 18 7 19 6 20 3 21 4 22 95 23
REMARK SMILES IDX 5 24 94 25 96 26 2 28 1 29 22 30 23 31 24 32 25 33 26 34
REMARK SMILES IDX 27 35 28 36 29 37 90 38 30 39 89 40 31 41 32 42 33 43 83 44
REMARK SMILES IDX 34 45 88 46 82 47 84 48 35 49 87 50 81 51 80 52 36 54 68 55
REMARK SMILES IDX 48 56 67 57 49 58 52 59 66 60 85 61 50 62 51 63 65 65 86 66
REMARK SMILES IDX 53 67 37 68 38 69 46 70 39 71 41 72 47 73 40 74 42 75 43 76
REMARK SMILES IDX 44 77 45 78 69 79 70 80 78 81 71 82 73 83 79 84 72 85 74 86
REMARK SMILES IDX 75 87 76 88 77 89 54 90 55 91 63 92 56 93 58 94 64 95 57 96
REMARK SMILES IDX 59 97 60 98 61 99 62 100
REMARK H PARENT 8 16 5 27 84 53 52 64
REMARK Flexibility Score: inf
ROOT
ATOM      1  C   UNL     1      -8.212   1.647   8.838  1.00  0.00     0.202 C 
ENDROOT
BRANCH   1   2
ATOM      2  C   UNL     1      -7.862   0.272   8.261  1.00  0.00     0.261 C 
BRANCH   2   3
ATOM      3  O   UNL     1      -6.503  -0.082   8.562  1.00  0.00    -0.460 OA
BRANCH   3   4
ATOM      4  C   UNL     1      -5.672  -0.090   7.497  1.00  0.00     0.338 C 
ATOM      5  O   UNL     1      -5.981   0.024   6.318  1.00  0.00    -0.246 OA
BRANCH   4   6
ATOM      6  C   UNL     1      -4.262  -0.088   7.941  1.00  0.00     0.060 A 
ATOM      7  C   UNL     1      -1.513  -0.227   8.469  1.00  0.00    -0.039 A 
ATOM      8  C   UNL     1      -2.000   0.591   7.436  1.00  0.00     0.005 A 
ATOM      9  C   UNL     1      -2.433  -0.878   9.309  1.00  0.00     0.005 A 
ATOM     10  C   UNL     1      -3.361   0.643   7.162  1.00  0.00     0.016 A 
ATOM     11  C   UNL     1      -3.808  -0.803   9.053  1.00  0.00     0.016 A 
BRANCH   7  12
ATOM     12  C   UNL     1      -0.034  -0.603   8.518  1.00  0.00     0.074 C 
ATOM     13  N   UNL     1       1.637  -1.855   7.066  1.00  0.00    -0.329 N 
ATOM     14  C   UNL     1       2.520  -0.684   7.066  1.00  0.00     0.262 C 
ATOM     15  C   UNL     1       0.238  -1.470   7.265  1.00  0.00     0.270 C 
ATOM     16  H   UNL     1       1.913  -2.431   7.861  1.00  0.00     0.348 HD
ATOM     17  C   UNL     1       2.367   0.130   8.356  1.00  0.00     0.062 C 
ATOM     18  C   UNL     1       0.925   0.595   8.560  1.00  0.00     0.020 C 
BRANCH  13  19
ATOM     19  C   UNL     1       1.814  -2.705   5.866  1.00  0.00     0.317 C 
BRANCH  19  20
ATOM     20  C   UNL     1       1.568  -2.048   4.508  1.00  0.00     0.074 A 
ATOM     21  C   UNL     1       0.901  -0.579   2.141  1.00  0.00     0.182 A 
ATOM     22  C   UNL     1      -0.017  -1.001   3.022  1.00  0.00     0.133 A 
ATOM     23  C   UNL     1       2.321  -1.015   2.412  1.00  0.00     0.223 A 
ATOM     24  N   UNL     1       0.270  -1.760   4.123  1.00  0.00    -0.357 N 
ATOM     25  C   UNL     1       2.590  -1.740   3.689  1.00  0.00     0.083 A 
ATOM     26  O   UNL     1       3.256  -0.780   1.652  1.00  0.00    -0.286 OA
ATOM     27  H   UNL     1      -0.474  -2.115   4.661  1.00  0.00     0.166 HD
BRANCH  21  28
ATOM     28  O   UNL     1       0.534   0.260   1.106  1.00  0.00    -0.491 OA
ATOM     29  C   UNL     1       1.131  -0.050  -0.146  1.00  0.00     0.278 C 
ENDBRANCH  21  28
ENDBRANCH  19  20
ENDBRANCH  13  19
ENDBRANCH   7  12
ENDBRANCH   4   6
ENDBRANCH   3   4
ENDBRANCH   2   3
ENDBRANCH   1   2
BRANCH   1  30
ATOM     30  O   UNL     1      -7.488   2.757   8.303  1.00  0.00    -0.374 OA
BRANCH  30  31
ATOM     31  C   UNL     1      -6.181   2.994   8.831  1.00  0.00     0.202 C 
BRANCH  31  32
ATOM     32  C   UNL     1      -6.109   3.709  10.185  1.00  0.00     0.261 C 
BRANCH  32  33
ATOM     33  O   UNL     1      -6.629   2.895  11.250  1.00  0.00    -0.460 OA
BRANCH  33  34
ATOM     34  C   UNL     1      -7.813   3.314  11.755  1.00  0.00     0.338 C 
ATOM     35  O   UNL     1      -8.415   4.340  11.462  1.00  0.00    -0.246 OA
BRANCH  34  36
ATOM     36  C   UNL     1      -8.408   2.265  12.604  1.00  0.00     0.060 A 
ATOM     37  C   UNL     1      -9.749   1.936  12.368  1.00  0.00     0.016 A 
ATOM     38  C   UNL     1      -7.703   1.662  13.649  1.00  0.00     0.016 A 
ATOM     39  C   UNL     1     -10.410   1.054  13.218  1.00  0.00     0.010 A 
ATOM     40  C   UNL     1      -8.371   0.777  14.504  1.00  0.00     0.010 A 
ATOM     41  C   UNL     1      -9.739   0.505  14.318  1.00  0.00    -0.014 A 
BRANCH  41  42
ATOM     42  C   UNL     1     -10.518  -0.236  15.340  1.00  0.00     0.031 A 
ATOM     43  C   UNL     1     -10.912   0.464  16.613  1.00  0.00     0.074 A 
ATOM     44  C   UNL     1     -10.906  -1.505  15.120  1.00  0.00     0.049 A 
ATOM     45  N   UNL     1     -11.644   0.027  17.605  1.00  0.00    -0.248 NA
ATOM     46  C   UNL     1     -10.414   1.838  16.794  1.00  0.00     0.031 C 
ATOM     47  C   UNL     1     -10.577  -2.294  13.933  1.00  0.00     0.029 A 
ATOM     48  N   UNL     1     -11.652  -2.356  15.895  1.00  0.00    -0.354 N 
ATOM     49  C   UNL     1     -11.679   1.059  18.534  1.00  0.00     0.074 A 
ATOM     50  C   UNL     1     -10.878   2.138  17.999  1.00  0.00     0.031 C 
ATOM     51  C   UNL     1     -11.107  -3.522  14.067  1.00  0.00     0.029 A 
ATOM     52  C   UNL     1     -11.802  -3.609  15.350  1.00  0.00     0.049 A 
ATOM     53  H   UNL     1     -12.043  -2.095  16.760  1.00  0.00     0.167 HD
ATOM     54  C   UNL     1     -12.339   1.116  19.716  1.00  0.00     0.034 A 
ATOM     55  C   UNL     1     -12.428  -4.701  15.832  1.00  0.00     0.034 A 
ATOM     56  C   UNL     1     -13.155   0.052  20.237  1.00  0.00     0.049 A 
ATOM     57  C   UNL     1     -13.159  -4.610  17.146  1.00  0.00     0.074 A 
ATOM     58  C   UNL     1     -13.901   0.032  21.402  1.00  0.00     0.029 A 
ATOM     59  N   UNL     1     -13.327  -1.182  19.631  1.00  0.00    -0.354 N 
ATOM     60  N   UNL     1     -13.295  -3.581  17.947  1.00  0.00    -0.248 NA
ATOM     61  C   UNL     1     -13.862  -5.819  17.602  1.00  0.00     0.031 C 
ATOM     62  C   UNL     1     -14.509  -1.224  21.510  1.00  0.00     0.029 A 
ATOM     63  C   UNL     1     -14.162  -1.975  20.399  1.00  0.00     0.049 A 
ATOM     64  H   UNL     1     -12.915  -1.455  18.779  1.00  0.00     0.167 HD
ATOM     65  C   UNL     1     -14.129  -4.004  18.977  1.00  0.00     0.074 A 
ATOM     66  C   UNL     1     -14.483  -5.378  18.687  1.00  0.00     0.031 C 
ATOM     67  C   UNL     1     -14.555  -3.321  20.069  1.00  0.00     0.034 A 
BRANCH  54  68
ATOM     68  C   UNL     1     -12.234   2.389  20.513  1.00  0.00     0.023 A 
ATOM     69  C   UNL     1     -12.921   3.541  20.076  1.00  0.00     0.012 A 
ATOM     70  C   UNL     1     -11.507   2.434  21.718  1.00  0.00     0.148 A 
ATOM     71  C   UNL     1     -12.861   4.725  20.810  1.00  0.00     0.002 A 
ATOM     72  C   UNL     1     -11.486   3.606  22.466  1.00  0.00     0.091 A 
ATOM     73  F   UNL     1     -10.840   1.337  22.104  1.00  0.00    -0.205 F 
ATOM     74  C   UNL     1     -12.153   4.754  22.009  1.00  0.00     0.022 A 
BRANCH  72  75
ATOM     75  S   UNL     1     -10.665   3.720  24.060  1.00  0.00     0.127 S 
ATOM     76  O   UNL     1      -9.499   4.540  23.733  1.00  0.00    -0.237 OA
ATOM     77  O   UNL     1     -11.673   4.394  24.879  1.00  0.00    -0.237 OA
ATOM     78  O   UNL     1     -10.375   2.351  24.460  1.00  0.00    -0.744 OA
ENDBRANCH  72  75
ENDBRANCH  54  68
BRANCH  55  79
ATOM     79  C   UNL     1     -12.442  -5.961  15.036  1.00  0.00     0.023 A 
ATOM     80  C   UNL     1     -13.645  -6.403  14.454  1.00  0.00     0.012 A 
ATOM     81  C   UNL     1     -11.266  -6.709  14.836  1.00  0.00     0.148 A 
ATOM     82  C   UNL     1     -13.684  -7.585  13.713  1.00  0.00     0.002 A 
ATOM     83  C   UNL     1     -11.300  -7.855  14.050  1.00  0.00     0.091 A 
ATOM     84  F   UNL     1     -10.134  -6.281  15.413  1.00  0.00    -0.205 F 
ATOM     85  C   UNL     1     -12.511  -8.304  13.502  1.00  0.00     0.022 A 
BRANCH  83  86
ATOM     86  S   UNL     1      -9.814  -8.767  13.618  1.00  0.00     0.127 S 
ATOM     87  O   UNL     1      -9.959  -9.976  14.425  1.00  0.00    -0.237 OA
ATOM     88  O   UNL     1      -9.985  -8.961  12.178  1.00  0.00    -0.237 OA
ATOM     89  O   UNL     1      -8.703  -7.895  13.975  1.00  0.00    -0.744 OA
ENDBRANCH  83  86
ENDBRANCH  55  79
BRANCH  67  90
ATOM     90  C   UNL     1     -15.486  -4.030  21.018  1.00  0.00     0.023 A 
ATOM     91  C   UNL     1     -14.995  -5.053  21.852  1.00  0.00     0.012 A 
ATOM     92  C   UNL     1     -16.834  -3.634  21.132  1.00  0.00     0.148 A 
ATOM     93  C   UNL     1     -15.838  -5.697  22.758  1.00  0.00     0.002 A 
ATOM     94  C   UNL     1     -17.657  -4.247  22.070  1.00  0.00     0.091 A 
ATOM     95  F   UNL     1     -17.291  -2.672  20.317  1.00  0.00    -0.205 F 
ATOM     96  C   UNL     1     -17.164  -5.286  22.875  1.00  0.00     0.022 A 
BRANCH  94  97
ATOM     97  S   UNL     1     -19.349  -3.713  22.352  1.00  0.00     0.127 S 
ATOM     98  O   UNL     1     -20.109  -4.750  21.657  1.00  0.00    -0.237 OA
ATOM     99  O   UNL     1     -19.453  -3.754  23.811  1.00  0.00    -0.237 OA
ATOM    100  O   UNL     1     -19.443  -2.375  21.782  1.00  0.00    -0.744 OA
ENDBRANCH  94  97
ENDBRANCH  67  90
ENDBRANCH  41  42
ENDBRANCH  34  36
ENDBRANCH  33  34
ENDBRANCH  32  33
ENDBRANCH  31  32
ENDBRANCH  30  31
ENDBRANCH   1  30
TORSDOF 21
