REMARK SMILES O=C(OCCOCCOC(=O)c1ccccc1/N=C/c1coc2ccccc2c1=O)c1ccc(-c2c3nc(c(-c4cccc(S(=O)(=O)[O-])c4F)c4ccc([nH]4)c(-c4cccc(S(=O)(=O)[O-])c4F)c4nc(c(-c5cccc(S(=O)(=O)[O-])c5F)c5ccc2[nH]5)C=C4)C=C3)cc1
REMARK SMILES IDX 5 1 4 2 3 3 2 4 1 5 31 6 32 7 93 8 33 9 92 10 34 11 35 12
REMARK SMILES IDX 36 13 86 14 37 15 91 16 85 17 87 18 38 19 90 20 84 21 83 22
REMARK SMILES IDX 39 24 71 25 51 26 70 27 52 28 55 29 69 30 88 31 53 32 54 33
REMARK SMILES IDX 68 35 89 36 56 37 40 38 41 39 49 40 42 41 44 42 50 43 43 44
REMARK SMILES IDX 45 45 46 46 47 47 48 48 72 49 73 50 81 51 74 52 76 53 82 54
REMARK SMILES IDX 75 55 77 56 78 57 79 58 80 59 57 60 58 61 66 62 59 63 61 64
REMARK SMILES IDX 67 65 60 66 62 67 63 68 64 69 65 70 6 71 7 72 8 73 9 74
REMARK SMILES IDX 10 75 11 76 12 77 13 78 17 79 14 80 16 81 15 82 18 83 19 84
REMARK SMILES IDX 20 85 21 86 29 87 22 88 28 89 30 90 23 91 27 92 24 93 26 94
REMARK SMILES IDX 25 95
REMARK H PARENT 87 23 55 34
REMARK Flexibility Score: inf
ROOT
ATOM      1  C   UNL     1       4.416   1.328  -0.182  1.00  0.00     0.202 C 
ENDROOT
BRANCH   1   2
ATOM      2  C   UNL     1       4.044   0.527  -1.433  1.00  0.00     0.261 C 
BRANCH   2   3
ATOM      3  O   UNL     1       2.655   0.156  -1.415  1.00  0.00    -0.460 OA
BRANCH   3   4
ATOM      4  C   UNL     1       2.112  -1.050  -1.111  1.00  0.00     0.338 C 
ATOM      5  O   UNL     1       0.901  -1.201  -1.263  1.00  0.00    -0.246 OA
BRANCH   4   6
ATOM      6  C   UNL     1       2.902  -2.200  -0.569  1.00  0.00     0.060 A 
ATOM      7  C   UNL     1       4.120  -2.069   0.094  1.00  0.00     0.016 A 
ATOM      8  C   UNL     1       2.339  -3.485  -0.641  1.00  0.00     0.016 A 
ATOM      9  C   UNL     1       4.766  -3.130   0.679  1.00  0.00     0.010 A 
ATOM     10  C   UNL     1       2.989  -4.582  -0.062  1.00  0.00     0.010 A 
ATOM     11  C   UNL     1       4.203  -4.389   0.605  1.00  0.00    -0.014 A 
BRANCH  11  12
ATOM     12  C   UNL     1       5.059  -5.465   1.104  1.00  0.00     0.031 A 
ATOM     13  C   UNL     1       5.873  -6.209   0.100  1.00  0.00     0.074 A 
ATOM     14  C   UNL     1       5.269  -5.564   2.429  1.00  0.00     0.049 A 
ATOM     15  N   UNL     1       6.712  -7.185   0.283  1.00  0.00    -0.248 NA
ATOM     16  C   UNL     1       5.753  -5.768  -1.304  1.00  0.00     0.031 C 
ATOM     17  C   UNL     1       4.654  -4.704   3.448  1.00  0.00     0.029 A 
ATOM     18  N   UNL     1       6.082  -6.396   3.143  1.00  0.00    -0.354 N 
ATOM     19  C   UNL     1       7.169  -7.520  -0.982  1.00  0.00     0.074 A 
ATOM     20  C   UNL     1       6.550  -6.620  -1.926  1.00  0.00     0.031 C 
ATOM     21  C   UNL     1       5.101  -5.071   4.660  1.00  0.00     0.029 A 
ATOM     22  C   UNL     1       5.966  -6.231   4.503  1.00  0.00     0.049 A 
ATOM     23  H   UNL     1       6.690  -7.048   2.726  1.00  0.00     0.167 HD
ATOM     24  C   UNL     1       8.018  -8.516  -1.312  1.00  0.00     0.034 A 
ATOM     25  C   UNL     1       6.463  -6.990   5.495  1.00  0.00     0.034 A 
ATOM     26  C   UNL     1       8.599  -9.387  -0.332  1.00  0.00     0.049 A 
ATOM     27  C   UNL     1       7.310  -8.166   5.091  1.00  0.00     0.074 A 
ATOM     28  C   UNL     1       9.403 -10.491  -0.523  1.00  0.00     0.029 A 
ATOM     29  N   UNL     1       8.414  -9.247   1.039  1.00  0.00    -0.354 N 
ATOM     30  N   UNL     1       7.709  -8.521   3.890  1.00  0.00    -0.248 NA
ATOM     31  C   UNL     1       7.783  -9.043   6.166  1.00  0.00     0.031 C 
ATOM     32  C   UNL     1       9.671 -11.044   0.734  1.00  0.00     0.029 A 
ATOM     33  C   UNL     1       9.078 -10.253   1.710  1.00  0.00     0.049 A 
ATOM     34  H   UNL     1       7.887  -8.535   1.468  1.00  0.00     0.167 HD
ATOM     35  C   UNL     1       8.502  -9.645   4.066  1.00  0.00     0.074 A 
ATOM     36  C   UNL     1       8.550  -9.892   5.496  1.00  0.00     0.031 C 
ATOM     37  C   UNL     1       9.124 -10.418   3.142  1.00  0.00     0.034 A 
BRANCH  24  38
ATOM     38  C   UNL     1       8.268  -8.746  -2.774  1.00  0.00     0.023 A 
ATOM     39  C   UNL     1       9.062  -7.851  -3.518  1.00  0.00     0.012 A 
ATOM     40  C   UNL     1       7.669  -9.844  -3.420  1.00  0.00     0.148 A 
ATOM     41  C   UNL     1       9.227  -8.027  -4.892  1.00  0.00     0.002 A 
ATOM     42  C   UNL     1       7.877 -10.040  -4.778  1.00  0.00     0.091 A 
ATOM     43  F   UNL     1       6.887 -10.659  -2.699  1.00  0.00    -0.205 F 
ATOM     44  C   UNL     1       8.642  -9.125  -5.519  1.00  0.00     0.022 A 
BRANCH  42  45
ATOM     45  S   UNL     1       7.213 -11.453  -5.665  1.00  0.00     0.127 S 
ATOM     46  O   UNL     1       6.321 -10.807  -6.627  1.00  0.00    -0.237 OA
ATOM     47  O   UNL     1       8.421 -12.036  -6.248  1.00  0.00    -0.237 OA
ATOM     48  O   UNL     1       6.549 -12.282  -4.669  1.00  0.00    -0.744 OA
ENDBRANCH  42  45
ENDBRANCH  24  38
BRANCH  25  49
ATOM     49  C   UNL     1       6.130  -6.710   6.922  1.00  0.00     0.023 A 
ATOM     50  C   UNL     1       7.153  -6.398   7.837  1.00  0.00     0.012 A 
ATOM     51  C   UNL     1       4.799  -6.782   7.387  1.00  0.00     0.148 A 
ATOM     52  C   UNL     1       6.866  -6.209   9.191  1.00  0.00     0.002 A 
ATOM     53  C   UNL     1       4.513  -6.537   8.726  1.00  0.00     0.091 A 
ATOM     54  F   UNL     1       3.834  -7.097   6.512  1.00  0.00    -0.205 F 
ATOM     55  C   UNL     1       5.548  -6.273   9.634  1.00  0.00     0.022 A 
BRANCH  53  56
ATOM     56  S   UNL     1       2.832  -6.488   9.359  1.00  0.00     0.127 S 
ATOM     57  O   UNL     1       2.779  -7.711  10.157  1.00  0.00    -0.237 OA
ATOM     58  O   UNL     1       2.836  -5.247  10.134  1.00  0.00    -0.237 OA
ATOM     59  O   UNL     1       1.969  -6.459   8.186  1.00  0.00    -0.744 OA
ENDBRANCH  53  56
ENDBRANCH  25  49
BRANCH  37  60
ATOM     60  C   UNL     1       9.942 -11.566   3.659  1.00  0.00     0.023 A 
ATOM     61  C   UNL     1       9.305 -12.703   4.192  1.00  0.00     0.012 A 
ATOM     62  C   UNL     1      11.343 -11.542   3.533  1.00  0.00     0.148 A 
ATOM     63  C   UNL     1      10.059 -13.789   4.628  1.00  0.00     0.002 A 
ATOM     64  C   UNL     1      12.082 -12.652   3.910  1.00  0.00     0.091 A 
ATOM     65  F   UNL     1      11.923 -10.438   3.039  1.00  0.00    -0.205 F 
ATOM     66  C   UNL     1      11.444 -13.770   4.473  1.00  0.00     0.022 A 
BRANCH  64  67
ATOM     67  S   UNL     1      13.852 -12.759   3.635  1.00  0.00     0.127 S 
ATOM     68  O   UNL     1      14.371 -12.655   4.998  1.00  0.00    -0.237 OA
ATOM     69  O   UNL     1      13.989 -14.083   3.029  1.00  0.00    -0.237 OA
ATOM     70  O   UNL     1      14.191 -11.652   2.752  1.00  0.00    -0.744 OA
ENDBRANCH  64  67
ENDBRANCH  37  60
ENDBRANCH  11  12
ENDBRANCH   4   6
ENDBRANCH   3   4
ENDBRANCH   2   3
ENDBRANCH   1   2
BRANCH   1  71
ATOM     71  O   UNL     1       4.185   0.635   1.035  1.00  0.00    -0.374 OA
BRANCH  71  72
ATOM     72  C   UNL     1       2.857   0.683   1.565  1.00  0.00     0.202 C 
BRANCH  72  73
ATOM     73  C   UNL     1       2.994   1.103   3.011  1.00  0.00     0.261 C 
BRANCH  73  74
ATOM     74  O   UNL     1       3.696   2.352   2.982  1.00  0.00    -0.460 OA
BRANCH  74  75
ATOM     75  C   UNL     1       5.036   2.286   3.179  1.00  0.00     0.340 C 
ATOM     76  O   UNL     1       5.714   1.331   3.485  1.00  0.00    -0.246 OA
BRANCH  75  77
ATOM     77  C   UNL     1       5.585   3.616   2.902  1.00  0.00     0.085 A 
ATOM     78  C   UNL     1       6.476   3.702   1.815  1.00  0.00     0.018 A 
ATOM     79  C   UNL     1       5.181   4.755   3.616  1.00  0.00     0.077 A 
ATOM     80  C   UNL     1       6.962   4.939   1.406  1.00  0.00     0.001 A 
ATOM     81  C   UNL     1       5.757   5.976   3.229  1.00  0.00     0.029 A 
ATOM     82  C   UNL     1       6.621   6.075   2.130  1.00  0.00     0.002 A 
BRANCH  79  83
ATOM     83  N   UNL     1       4.015   4.870   4.396  1.00  0.00    -0.255 NA
ATOM     84  C   UNL     1       3.448   3.918   5.065  1.00  0.00     0.127 C 
BRANCH  84  85
ATOM     85  C   UNL     1       1.929   3.828   5.136  1.00  0.00     0.076 A 
ATOM     86  C   UNL     1       1.348   4.721   5.962  1.00  0.00     0.209 A 
ATOM     87  C   UNL     1       1.253   4.078   3.799  1.00  0.00     0.201 A 
ATOM     88  O   UNL     1       1.305   6.098   5.645  1.00  0.00    -0.463 OA
ATOM     89  C   UNL     1       1.482   5.453   3.315  1.00  0.00     0.065 A 
ATOM     90  O   UNL     1       0.607   3.248   3.180  1.00  0.00    -0.288 OA
ATOM     91  C   UNL     1       1.591   6.417   4.327  1.00  0.00     0.137 A 
ATOM     92  C   UNL     1       1.917   5.703   2.014  1.00  0.00     0.016 A 
ATOM     93  C   UNL     1       2.157   7.652   4.049  1.00  0.00     0.048 A 
ATOM     94  C   UNL     1       2.525   6.932   1.750  1.00  0.00     0.001 A 
ATOM     95  C   UNL     1       2.650   7.895   2.763  1.00  0.00     0.004 A 
ENDBRANCH  84  85
ENDBRANCH  79  83
ENDBRANCH  75  77
ENDBRANCH  74  75
ENDBRANCH  73  74
ENDBRANCH  72  73
ENDBRANCH  71  72
ENDBRANCH   1  71
TORSDOF 19
