REMARK SMILES Cc1ccccc1C(=O)Nc1ccc(OCC(=O)OCCOCCOC(=O)c2ccc(-c3c4nc(c(-c5cccc(S(=O)(=O)[O-])c5F)c5ccc([nH]5)c(-c5cccc(S(=O)(=O)[O-])c5F)c5nc(c(-c6cccc(S(=O)(=O)[O-])c6F)c6ccc3[nH]6)C=C5)C=C4)cc2)c(-c2nc3ccccc3s2)c1
REMARK SMILES IDX 21 1 20 2 19 3 17 4 18 5 16 6 15 7 14 8 11 9 12 10 101 11
REMARK SMILES IDX 13 12 91 13 10 14 8 15 9 16 7 18 1 19 2 20 3 21 4 22 6 23
REMARK SMILES IDX 5 24 92 25 93 26 100 27 94 28 99 29 95 30 98 31 96 32 97 33
REMARK SMILES IDX 22 34 23 35 24 36 25 37 26 38 27 39 28 40 29 41 90 42 30 43
REMARK SMILES IDX 89 44 31 45 32 46 33 47 83 48 34 49 88 50 82 51 84 52 35 53
REMARK SMILES IDX 87 54 81 55 80 56 36 58 68 59 48 60 67 61 49 62 52 63 66 64
REMARK SMILES IDX 85 65 50 66 51 67 65 69 86 70 53 71 37 72 38 73 46 74 39 75
REMARK SMILES IDX 41 76 47 77 40 78 42 79 43 80 44 81 45 82 69 83 70 84 78 85
REMARK SMILES IDX 71 86 73 87 79 88 72 89 74 90 75 91 76 92 77 93 54 94 55 95
REMARK SMILES IDX 63 96 56 97 58 98 64 99 57 100 59 101 60 102 61 103 62 104
REMARK H PARENT 10 17 84 57 52 68
REMARK Flexibility Score: inf
ROOT
ATOM      1  C   UNL     1       3.483  -3.189   1.425  1.00  0.00     0.202 C 
ENDROOT
BRANCH   1   2
ATOM      2  C   UNL     1       4.635  -3.644   0.557  1.00  0.00     0.261 C 
BRANCH   2   3
ATOM      3  O   UNL     1       5.331  -2.497   0.055  1.00  0.00    -0.461 OA
BRANCH   3   4
ATOM      4  C   UNL     1       6.303  -2.855  -0.824  1.00  0.00     0.344 C 
ATOM      5  O   UNL     1       6.713  -3.997  -1.004  1.00  0.00    -0.248 OA
BRANCH   4   6
ATOM      6  C   UNL     1       6.887  -1.637  -1.513  1.00  0.00     0.352 C 
BRANCH   6   7
ATOM      7  O   UNL     1       6.018  -0.859  -2.319  1.00  0.00    -0.481 OA
BRANCH   7   8
ATOM      8  C   UNL     1       5.103  -0.017  -1.745  1.00  0.00     0.130 A 
ATOM      9  C   UNL     1       3.361   2.102  -1.039  1.00  0.00     0.042 A 
ATOM     10  C   UNL     1       4.602   1.939  -0.408  1.00  0.00     0.030 A 
ATOM     11  C   UNL     1       2.957   1.141  -1.966  1.00  0.00     0.041 A 
ATOM     12  C   UNL     1       5.466   0.888  -0.749  1.00  0.00     0.049 A 
ATOM     13  C   UNL     1       3.815   0.064  -2.330  1.00  0.00     0.055 A 
BRANCH   9  14
ATOM     14  N   UNL     1       2.677   3.313  -0.789  1.00  0.00    -0.322 N 
ATOM     15  C   UNL     1       1.381   3.733  -1.014  1.00  0.00     0.255 C 
ATOM     16  O   UNL     1       1.148   4.933  -1.157  1.00  0.00    -0.269 OA
ATOM     17  H   UNL     1       3.242   4.000  -0.368  1.00  0.00     0.170 HD
BRANCH  15  18
ATOM     18  C   UNL     1       0.237   2.799  -0.904  1.00  0.00     0.043 A 
ATOM     19  C   UNL     1       0.789   2.314   1.523  1.00  0.00     0.045 C 
ATOM     20  C   UNL     1       0.036   2.032   0.253  1.00  0.00    -0.038 A 
ATOM     21  C   UNL     1      -1.041   1.134   0.282  1.00  0.00     0.004 A 
ATOM     22  C   UNL     1      -1.972   1.085  -0.749  1.00  0.00     0.000 A 
ATOM     23  C   UNL     1      -0.777   2.854  -1.871  1.00  0.00     0.014 A 
ATOM     24  C   UNL     1      -1.882   2.001  -1.789  1.00  0.00     0.001 A 
ENDBRANCH  15  18
ENDBRANCH   9  14
BRANCH  13  25
ATOM     25  C   UNL     1       3.293  -0.943  -3.288  1.00  0.00     0.128 A 
ATOM     26  N   UNL     1       2.318  -0.707  -4.145  1.00  0.00    -0.236 NA
ATOM     27  S   UNL     1       3.811  -2.587  -3.237  1.00  0.00    -0.114 S 
ATOM     28  C   UNL     1       1.884  -1.898  -4.716  1.00  0.00     0.082 A 
ATOM     29  C   UNL     1       2.585  -3.040  -4.332  1.00  0.00     0.055 A 
ATOM     30  C   UNL     1       0.796  -2.046  -5.598  1.00  0.00     0.030 A 
ATOM     31  C   UNL     1       2.251  -4.323  -4.792  1.00  0.00     0.021 A 
ATOM     32  C   UNL     1       0.427  -3.323  -6.036  1.00  0.00     0.002 A 
ATOM     33  C   UNL     1       1.147  -4.446  -5.637  1.00  0.00     0.002 A 
ENDBRANCH  13  25
ENDBRANCH   7   8
ENDBRANCH   6   7
ENDBRANCH   4   6
ENDBRANCH   3   4
ENDBRANCH   2   3
ENDBRANCH   1   2
BRANCH   1  34
ATOM     34  O   UNL     1       2.435  -2.739   0.571  1.00  0.00    -0.374 OA
BRANCH  34  35
ATOM     35  C   UNL     1       2.179  -1.352   0.656  1.00  0.00     0.202 C 
BRANCH  35  36
ATOM     36  C   UNL     1       1.652  -0.969   2.032  1.00  0.00     0.261 C 
BRANCH  36  37
ATOM     37  O   UNL     1       0.216  -0.943   2.231  1.00  0.00    -0.460 OA
BRANCH  37  38
ATOM     38  C   UNL     1      -0.727  -1.915   2.175  1.00  0.00     0.338 C 
ATOM     39  O   UNL     1      -1.846  -1.728   2.640  1.00  0.00    -0.246 OA
BRANCH  38  40
ATOM     40  C   UNL     1      -0.478  -3.116   1.377  1.00  0.00     0.060 A 
ATOM     41  C   UNL     1      -0.386  -4.361   1.999  1.00  0.00     0.016 A 
ATOM     42  C   UNL     1      -0.402  -3.007  -0.011  1.00  0.00     0.016 A 
ATOM     43  C   UNL     1      -0.014  -5.478   1.253  1.00  0.00     0.010 A 
ATOM     44  C   UNL     1       0.019  -4.105  -0.748  1.00  0.00     0.010 A 
ATOM     45  C   UNL     1       0.266  -5.329  -0.109  1.00  0.00    -0.014 A 
BRANCH  45  46
ATOM     46  C   UNL     1       0.999  -6.336  -0.871  1.00  0.00     0.031 A 
ATOM     47  C   UNL     1       0.384  -7.133  -1.948  1.00  0.00     0.074 A 
ATOM     48  C   UNL     1       2.324  -6.486  -0.655  1.00  0.00     0.049 A 
ATOM     49  N   UNL     1       0.746  -8.345  -2.222  1.00  0.00    -0.248 NA
ATOM     50  C   UNL     1      -0.676  -6.626  -2.805  1.00  0.00     0.031 C 
ATOM     51  C   UNL     1       3.288  -7.166  -1.510  1.00  0.00     0.029 A 
ATOM     52  N   UNL     1       3.049  -6.156   0.486  1.00  0.00    -0.354 N 
ATOM     53  C   UNL     1       0.210  -8.652  -3.451  1.00  0.00     0.074 A 
ATOM     54  C   UNL     1      -0.744  -7.595  -3.723  1.00  0.00     0.031 C 
ATOM     55  C   UNL     1       4.409  -7.380  -0.808  1.00  0.00     0.029 A 
ATOM     56  C   UNL     1       4.158  -6.990   0.573  1.00  0.00     0.049 A 
ATOM     57  H   UNL     1       2.814  -5.447   1.127  1.00  0.00     0.167 HD
ATOM     58  C   UNL     1       0.758  -9.641  -4.217  1.00  0.00     0.034 A 
ATOM     59  C   UNL     1       4.523  -7.676   1.691  1.00  0.00     0.034 A 
ATOM     60  C   UNL     1       1.986 -10.193  -3.614  1.00  0.00     0.049 A 
ATOM     61  C   UNL     1       4.519  -9.162   1.436  1.00  0.00     0.074 A 
ATOM     62  C   UNL     1       3.330  -9.992  -3.898  1.00  0.00     0.029 A 
ATOM     63  N   UNL     1       1.953 -10.874  -2.397  1.00  0.00    -0.354 N 
ATOM     64  N   UNL     1       4.160  -9.668   0.290  1.00  0.00    -0.248 NA
ATOM     65  C   UNL     1       4.855 -10.204   2.403  1.00  0.00     0.031 C 
ATOM     66  C   UNL     1       4.100 -10.504  -2.825  1.00  0.00     0.029 A 
ATOM     67  C   UNL     1       3.236 -11.040  -1.886  1.00  0.00     0.049 A 
ATOM     68  H   UNL     1       1.132 -11.194  -1.959  1.00  0.00     0.167 HD
ATOM     69  C   UNL     1       4.054 -11.018   0.379  1.00  0.00     0.074 A 
ATOM     70  C   UNL     1       4.571 -11.320   1.703  1.00  0.00     0.031 C 
ATOM     71  C   UNL     1       3.472 -11.739  -0.622  1.00  0.00     0.034 A 
BRANCH  58  72
ATOM     72  C   UNL     1       0.402  -9.792  -5.690  1.00  0.00     0.023 A 
ATOM     73  C   UNL     1       1.392 -10.235  -6.593  1.00  0.00     0.012 A 
ATOM     74  C   UNL     1      -0.842  -9.449  -6.263  1.00  0.00     0.148 A 
ATOM     75  C   UNL     1       1.217 -10.189  -7.981  1.00  0.00     0.002 A 
ATOM     76  C   UNL     1      -0.987  -9.307  -7.646  1.00  0.00     0.091 A 
ATOM     77  F   UNL     1      -1.919  -9.314  -5.474  1.00  0.00    -0.205 F 
ATOM     78  C   UNL     1       0.045  -9.671  -8.511  1.00  0.00     0.022 A 
BRANCH  76  79
ATOM     79  S   UNL     1      -2.423  -8.468  -8.339  1.00  0.00     0.127 S 
ATOM     80  O   UNL     1      -1.869  -7.796  -9.518  1.00  0.00    -0.237 OA
ATOM     81  O   UNL     1      -3.330  -9.570  -8.637  1.00  0.00    -0.237 OA
ATOM     82  O   UNL     1      -2.848  -7.544  -7.291  1.00  0.00    -0.744 OA
ENDBRANCH  76  79
ENDBRANCH  58  72
BRANCH  59  83
ATOM     83  C   UNL     1       4.302  -6.961   2.978  1.00  0.00     0.023 A 
ATOM     84  C   UNL     1       5.252  -5.961   3.296  1.00  0.00     0.012 A 
ATOM     85  C   UNL     1       3.072  -6.958   3.662  1.00  0.00     0.148 A 
ATOM     86  C   UNL     1       4.954  -4.926   4.186  1.00  0.00     0.002 A 
ATOM     87  C   UNL     1       2.777  -5.915   4.544  1.00  0.00     0.091 A 
ATOM     88  F   UNL     1       2.178  -7.909   3.365  1.00  0.00    -0.205 F 
ATOM     89  C   UNL     1       3.704  -4.887   4.787  1.00  0.00     0.022 A 
BRANCH  87  90
ATOM     90  S   UNL     1       1.165  -5.699   5.313  1.00  0.00     0.127 S 
ATOM     91  O   UNL     1       1.441  -6.048   6.691  1.00  0.00    -0.237 OA
ATOM     92  O   UNL     1       0.909  -4.279   5.064  1.00  0.00    -0.237 OA
ATOM     93  O   UNL     1       0.275  -6.605   4.581  1.00  0.00    -0.744 OA
ENDBRANCH  87  90
ENDBRANCH  59  83
BRANCH  71  94
ATOM     94  C   UNL     1       3.052 -13.174  -0.491  1.00  0.00     0.023 A 
ATOM     95  C   UNL     1       2.599 -13.701   0.732  1.00  0.00     0.012 A 
ATOM     96  C   UNL     1       2.894 -13.968  -1.649  1.00  0.00     0.148 A 
ATOM     97  C   UNL     1       2.020 -14.971   0.805  1.00  0.00     0.002 A 
ATOM     98  C   UNL     1       2.220 -15.180  -1.588  1.00  0.00     0.091 A 
ATOM     99  F   UNL     1       3.402 -13.549  -2.819  1.00  0.00    -0.205 F 
ATOM    100  C   UNL     1       1.798 -15.696  -0.360  1.00  0.00     0.022 A 
BRANCH  98 101
ATOM    101  S   UNL     1       1.716 -16.000  -3.105  1.00  0.00     0.127 S 
ATOM    102  O   UNL     1       2.889 -16.810  -3.422  1.00  0.00    -0.237 OA
ATOM    103  O   UNL     1       0.543 -16.767  -2.680  1.00  0.00    -0.237 OA
ATOM    104  O   UNL     1       1.412 -14.911  -4.025  1.00  0.00    -0.744 OA
ENDBRANCH  98 101
ENDBRANCH  71  94
ENDBRANCH  45  46
ENDBRANCH  38  40
ENDBRANCH  37  38
ENDBRANCH  36  37
ENDBRANCH  35  36
ENDBRANCH  34  35
ENDBRANCH   1  34
TORSDOF 22
