REMARK SMILES COc1c(Cl)cc(C(=O)OCCOCCOC(=O)c2ccc(-c3c4nc(c(-c5cccc(S(=O)(=O)[O-])c5F)c5ccc([nH]5)c(-c5cccc(S(=O)(=O)[O-])c5F)c5nc(c(-c6cccc(S(=O)(=O)[O-])c6F)c6ccc3[nH]6)C=C5)C=C4)cc2)cc1NC(=S)NC(=O)c1ccccc1F
REMARK SMILES IDX 12 1 11 2 10 3 8 4 9 5 7 6 3 7 4 8 83 9 5 10 6 11 82 12 2 13
REMARK SMILES IDX 1 14 84 15 85 17 86 18 87 19 88 20 89 22 90 23 91 24 95 25
REMARK SMILES IDX 92 26 94 27 96 28 93 29 13 30 14 31 15 32 16 33 17 34 18 35
REMARK SMILES IDX 19 36 20 37 81 38 21 39 80 40 22 41 23 42 24 43 74 44 25 45
REMARK SMILES IDX 79 46 73 47 75 48 26 49 78 50 72 51 71 52 27 54 59 55 39 56
REMARK SMILES IDX 58 57 40 58 43 59 57 60 76 61 41 62 42 63 56 65 77 66 44 67
REMARK SMILES IDX 28 68 29 69 37 70 30 71 32 72 38 73 31 74 33 75 34 76 35 77
REMARK SMILES IDX 36 78 60 79 61 80 69 81 62 82 64 83 70 84 63 85 65 86 66 87
REMARK SMILES IDX 67 88 68 89 45 90 46 91 54 92 47 93 49 94 55 95 48 96 50 97
REMARK SMILES IDX 51 98 52 99 53 100
REMARK H PARENT 84 16 87 21 75 53 43 64
REMARK Flexibility Score: inf
ROOT
ATOM      1  C   UNL     1       2.783  -8.435   2.805  1.00  0.00     0.202 C 
ENDROOT
BRANCH   1   2
ATOM      2  C   UNL     1       2.805  -7.546   4.051  1.00  0.00     0.261 C 
BRANCH   2   3
ATOM      3  O   UNL     1       2.209  -6.283   3.727  1.00  0.00    -0.460 OA
BRANCH   3   4
ATOM      4  C   UNL     1       2.943  -5.159   3.626  1.00  0.00     0.338 C 
ATOM      5  O   UNL     1       4.131  -5.059   3.884  1.00  0.00    -0.246 OA
BRANCH   4   6
ATOM      6  C   UNL     1       2.152  -4.054   2.876  1.00  0.00     0.063 A 
ATOM      7  C   UNL     1       1.083  -1.244   0.842  1.00  0.00     0.160 A 
ATOM      8  C   UNL     1       2.784  -1.844   0.796  1.00  0.00     0.086 A 
ATOM      9  C   UNL     1      -0.154  -1.986   1.834  1.00  0.00     0.085 A 
ATOM     10  Cl  UNL     1       4.013  -1.021  -0.097  1.00  0.00    -0.080 Cl
ATOM     11  C   UNL     1       3.352  -3.247   1.762  1.00  0.00     0.040 A 
ATOM     12  C   UNL     1       0.316  -3.221   2.870  1.00  0.00     0.045 A 
BRANCH   7  13
ATOM     13  O   UNL     1       0.660  -0.004   0.423  1.00  0.00    -0.493 OA
ATOM     14  C   UNL     1       1.128   0.503  -0.805  1.00  0.00     0.278 C 
ENDBRANCH   7  13
BRANCH   9  15
ATOM     15  N   UNL     1      -1.556  -1.974   1.728  1.00  0.00    -0.329 N 
ATOM     16  H   UNL     1      -1.929  -1.217   1.220  1.00  0.00     0.169 HD
BRANCH  15  17
ATOM     17  C   UNL     1      -2.497  -2.865   2.229  1.00  0.00     0.177 C 
ATOM     18  S   UNL     1      -4.101  -2.372   2.123  1.00  0.00    -0.040 S 
BRANCH  17  19
ATOM     19  N   UNL     1      -2.285  -4.173   2.803  1.00  0.00    -0.299 N 
ATOM     20  C   UNL     1      -1.452  -5.322   3.285  1.00  0.00     0.260 C 
ATOM     21  H   UNL     1      -3.203  -4.486   2.975  1.00  0.00     0.172 HD
ATOM     22  O   UNL     1      -1.976  -6.395   3.568  1.00  0.00    -0.269 OA
BRANCH  20  23
ATOM     23  C   UNL     1       0.052  -5.240   3.331  1.00  0.00     0.075 A 
ATOM     24  C   UNL     1       0.481  -4.942   1.659  1.00  0.00     0.017 A 
ATOM     25  C   UNL     1       0.668  -4.248   4.711  1.00  0.00     0.135 A 
ATOM     26  C   UNL     1       1.319  -3.426   1.277  1.00  0.00     0.001 A 
ATOM     27  C   UNL     1       1.542  -2.707   4.478  1.00  0.00     0.040 A 
ATOM     28  F   UNL     1       0.029  -4.365   5.887  1.00  0.00    -0.206 F 
ATOM     29  C   UNL     1       1.852  -2.169   2.778  1.00  0.00     0.003 A 
ENDBRANCH  20  23
ENDBRANCH  17  19
ENDBRANCH  15  17
ENDBRANCH   9  15
ENDBRANCH   4   6
ENDBRANCH   3   4
ENDBRANCH   2   3
ENDBRANCH   1   2
BRANCH   1  30
ATOM     30  O   UNL     1       3.677  -8.058   1.754  1.00  0.00    -0.374 OA
BRANCH  30  31
ATOM     31  C   UNL     1       3.202  -7.071   0.841  1.00  0.00     0.202 C 
BRANCH  31  32
ATOM     32  C   UNL     1       2.260  -7.541  -0.278  1.00  0.00     0.261 C 
BRANCH  32  33
ATOM     33  O   UNL     1       1.005  -8.047   0.211  1.00  0.00    -0.460 OA
BRANCH  33  34
ATOM     34  C   UNL     1       0.949  -9.400   0.289  1.00  0.00     0.338 C 
ATOM     35  O   UNL     1       1.818 -10.184  -0.058  1.00  0.00    -0.246 OA
BRANCH  34  36
ATOM     36  C   UNL     1      -0.256  -9.842   1.018  1.00  0.00     0.060 A 
ATOM     37  C   UNL     1      -0.066 -10.738   2.078  1.00  0.00     0.016 A 
ATOM     38  C   UNL     1      -1.543  -9.500   0.603  1.00  0.00     0.016 A 
ATOM     39  C   UNL     1      -1.161 -11.362   2.670  1.00  0.00     0.010 A 
ATOM     40  C   UNL     1      -2.643 -10.123   1.207  1.00  0.00     0.010 A 
ATOM     41  C   UNL     1      -2.456 -11.098   2.206  1.00  0.00    -0.014 A 
BRANCH  41  42
ATOM     42  C   UNL     1      -3.593 -11.927   2.687  1.00  0.00     0.031 A 
ATOM     43  C   UNL     1      -4.239 -12.921   1.756  1.00  0.00     0.074 A 
ATOM     44  C   UNL     1      -4.034 -11.816   3.954  1.00  0.00     0.049 A 
ATOM     45  N   UNL     1      -5.252 -13.720   1.971  1.00  0.00    -0.248 NA
ATOM     46  C   UNL     1      -3.674 -13.027   0.400  1.00  0.00     0.031 C 
ATOM     47  C   UNL     1      -3.485 -10.908   4.960  1.00  0.00     0.029 A 
ATOM     48  N   UNL     1      -5.058 -12.460   4.605  1.00  0.00    -0.354 N 
ATOM     49  C   UNL     1      -5.475 -14.389   0.773  1.00  0.00     0.074 A 
ATOM     50  C   UNL     1      -4.494 -13.897  -0.171  1.00  0.00     0.031 C 
ATOM     51  C   UNL     1      -4.184 -11.045   6.099  1.00  0.00     0.029 A 
ATOM     52  C   UNL     1      -5.260 -12.010   5.889  1.00  0.00     0.049 A 
ATOM     53  H   UNL     1      -5.596 -13.174   4.192  1.00  0.00     0.167 HD
ATOM     54  C   UNL     1      -6.408 -15.328   0.483  1.00  0.00     0.034 A 
ATOM     55  C   UNL     1      -6.223 -12.313   6.782  1.00  0.00     0.034 A 
ATOM     56  C   UNL     1      -7.379 -15.819   1.425  1.00  0.00     0.049 A 
ATOM     57  C   UNL     1      -7.279 -13.322   6.415  1.00  0.00     0.074 A 
ATOM     58  C   UNL     1      -8.329 -16.808   1.238  1.00  0.00     0.029 A 
ATOM     59  N   UNL     1      -7.549 -15.340   2.713  1.00  0.00    -0.354 N 
ATOM     60  N   UNL     1      -7.417 -14.012   5.309  1.00  0.00    -0.248 NA
ATOM     61  C   UNL     1      -8.299 -13.617   7.433  1.00  0.00     0.031 C 
ATOM     62  C   UNL     1      -9.122 -16.874   2.387  1.00  0.00     0.029 A 
ATOM     63  C   UNL     1      -8.609 -15.991   3.322  1.00  0.00     0.049 A 
ATOM     64  H   UNL     1      -6.998 -14.641   3.134  1.00  0.00     0.167 HD
ATOM     65  C   UNL     1      -8.503 -14.856   5.517  1.00  0.00     0.074 A 
ATOM     66  C   UNL     1      -8.978 -14.600   6.860  1.00  0.00     0.031 C 
ATOM     67  C   UNL     1      -9.055 -15.761   4.672  1.00  0.00     0.034 A 
BRANCH  54  68
ATOM     68  C   UNL     1      -6.449 -15.878  -0.921  1.00  0.00     0.023 A 
ATOM     69  C   UNL     1      -5.413 -16.708  -1.394  1.00  0.00     0.012 A 
ATOM     70  C   UNL     1      -7.562 -15.624  -1.748  1.00  0.00     0.148 A 
ATOM     71  C   UNL     1      -5.465 -17.243  -2.682  1.00  0.00     0.002 A 
ATOM     72  C   UNL     1      -7.632 -16.203  -3.008  1.00  0.00     0.091 A 
ATOM     73  F   UNL     1      -8.532 -14.823  -1.285  1.00  0.00    -0.205 F 
ATOM     74  C   UNL     1      -6.579 -17.000  -3.483  1.00  0.00     0.022 A 
BRANCH  72  75
ATOM     75  S   UNL     1      -9.059 -16.017  -4.083  1.00  0.00     0.127 S 
ATOM     76  O   UNL     1      -8.491 -15.258  -5.197  1.00  0.00    -0.237 OA
ATOM     77  O   UNL     1      -9.388 -17.407  -4.396  1.00  0.00    -0.237 OA
ATOM     78  O   UNL     1     -10.066 -15.310  -3.303  1.00  0.00    -0.744 OA
ENDBRANCH  72  75
ENDBRANCH  54  68
BRANCH  55  79
ATOM     79  C   UNL     1      -6.243 -11.655   8.119  1.00  0.00     0.023 A 
ATOM     80  C   UNL     1      -6.036 -12.424   9.281  1.00  0.00     0.012 A 
ATOM     81  C   UNL     1      -6.491 -10.274   8.245  1.00  0.00     0.148 A 
ATOM     82  C   UNL     1      -6.124 -11.840  10.545  1.00  0.00     0.002 A 
ATOM     83  C   UNL     1      -6.517  -9.687   9.503  1.00  0.00     0.091 A 
ATOM     84  F   UNL     1      -6.694  -9.562   7.128  1.00  0.00    -0.205 F 
ATOM     85  C   UNL     1      -6.356 -10.471  10.655  1.00  0.00     0.022 A 
BRANCH  83  86
ATOM     86  S   UNL     1      -6.701  -7.917   9.739  1.00  0.00     0.127 S 
ATOM     87  O   UNL     1      -7.984  -7.841  10.435  1.00  0.00    -0.237 OA
ATOM     88  O   UNL     1      -5.534  -7.604  10.563  1.00  0.00    -0.237 OA
ATOM     89  O   UNL     1      -6.676  -7.332   8.406  1.00  0.00    -0.744 OA
ENDBRANCH  83  86
ENDBRANCH  55  79
BRANCH  67  90
ATOM     90  C   UNL     1     -10.189 -16.610   5.190  1.00  0.00     0.023 A 
ATOM     91  C   UNL     1     -11.447 -16.041   5.471  1.00  0.00     0.012 A 
ATOM     92  C   UNL     1     -10.011 -18.000   5.343  1.00  0.00     0.148 A 
ATOM     93  C   UNL     1     -12.495 -16.836   5.939  1.00  0.00     0.002 A 
ATOM     94  C   UNL     1     -11.075 -18.794   5.750  1.00  0.00     0.091 A 
ATOM     95  F   UNL     1      -8.804 -18.522   5.083  1.00  0.00    -0.205 F 
ATOM     96  C   UNL     1     -12.313 -18.211   6.067  1.00  0.00     0.022 A 
BRANCH  94  97
ATOM     97  S   UNL     1     -10.961 -20.583   5.851  1.00  0.00     0.127 S 
ATOM     98  O   UNL     1     -11.088 -20.808   7.290  1.00  0.00    -0.237 OA
ATOM     99  O   UNL     1     -12.118 -21.008   5.062  1.00  0.00    -0.237 OA
ATOM    100  O   UNL     1      -9.671 -20.941   5.279  1.00  0.00    -0.744 OA
ENDBRANCH  94  97
ENDBRANCH  67  90
ENDBRANCH  41  42
ENDBRANCH  34  36
ENDBRANCH  33  34
ENDBRANCH  32  33
ENDBRANCH  31  32
ENDBRANCH  30  31
ENDBRANCH   1  30
TORSDOF 22
