REMARK SMILES Cc1ccc(-c2cc(C(=O)OCCOCCOC(=O)c3ccc(-c4c5nc(c(-c6cccc(S(=O)(=O)[O-])c6F)c6ccc([nH]6)c(-c6cccc(S(=O)(=O)[O-])c6F)c6nc(c(-c7cccc(S(=O)(=O)[O-])c7F)c7ccc4[nH]7)C=C6)C=C5)cc3)c3c(-c4cccc([N+](=O)[O-])c4)[nH]nc3n2)cc1
REMARK SMILES IDX 15 1 14 2 13 3 12 4 11 5 9 6 10 7 8 8 6 9 7 10 97 11 96 12
REMARK SMILES IDX 83 13 95 14 84 15 94 16 5 18 1 19 2 20 3 21 99 22 4 23 98 24
REMARK SMILES IDX 85 25 86 26 93 27 87 28 89 29 88 30 90 31 91 32 92 33 16 34
REMARK SMILES IDX 17 35 18 36 19 37 20 38 21 39 82 40 22 41 81 42 23 43 24 44
REMARK SMILES IDX 25 45 75 46 26 47 80 48 74 49 76 50 27 51 79 52 73 53 72 54
REMARK SMILES IDX 28 56 60 57 40 58 59 59 41 60 44 61 58 62 77 63 42 64 43 65
REMARK SMILES IDX 57 67 78 68 45 69 29 70 30 71 38 72 31 73 33 74 39 75 32 76
REMARK SMILES IDX 34 77 35 78 36 79 37 80 61 81 62 82 70 83 63 84 65 85 71 86
REMARK SMILES IDX 64 87 66 88 67 89 68 90 69 91 46 92 47 93 55 94 48 95 50 96
REMARK SMILES IDX 56 97 49 98 51 99 52 100 53 101 54 102
REMARK H PARENT 94 17 76 55 44 66
REMARK Flexibility Score: inf
ROOT
ATOM      1  C   UNL     1      -6.410  -1.665  -4.295  1.00  0.00     0.202 C 
ENDROOT
BRANCH   1   2
ATOM      2  O   UNL     1      -6.141  -0.307  -4.456  1.00  0.00    -0.374 OA
BRANCH   2   3
ATOM      3  C   UNL     1      -4.893   0.048  -4.995  1.00  0.00     0.202 C 
BRANCH   3   4
ATOM      4  C   UNL     1      -4.571   1.251  -4.190  1.00  0.00     0.261 C 
BRANCH   4   5
ATOM      5  O   UNL     1      -4.583   0.936  -2.764  1.00  0.00    -0.460 OA
BRANCH   5   6
ATOM      6  C   UNL     1      -5.704   0.757  -1.990  1.00  0.00     0.339 C 
ATOM      7  O   UNL     1      -6.855   0.941  -2.261  1.00  0.00    -0.246 OA
BRANCH   6   8
ATOM      8  C   UNL     1      -5.267   0.237  -0.701  1.00  0.00     0.075 A 
ATOM      9  C   UNL     1      -3.350  -0.400   0.703  1.00  0.00     0.074 A 
ATOM     10  C   UNL     1      -3.905   0.235  -0.415  1.00  0.00     0.045 A 
ATOM     11  N   UNL     1      -4.053  -1.068   1.660  1.00  0.00    -0.226 NA
ATOM     12  C   UNL     1      -5.409  -0.998   1.470  1.00  0.00     0.182 A 
ATOM     13  C   UNL     1      -6.010  -0.361   0.321  1.00  0.00     0.061 A 
ATOM     14  N   UNL     1      -6.340  -1.518   2.272  1.00  0.00    -0.154 NA
ATOM     15  C   UNL     1      -7.382  -0.498   0.489  1.00  0.00     0.076 A 
ATOM     16  N   UNL     1      -7.502  -1.160   1.691  1.00  0.00    -0.275 N 
ATOM     17  H   UNL     1      -8.376  -1.358   2.098  1.00  0.00     0.190 HD
BRANCH   9  18
ATOM     18  C   UNL     1      -1.877  -0.367   0.742  1.00  0.00     0.000 A 
ATOM     19  C   UNL     1       2.378  -0.107  -0.037  1.00  0.00     0.044 C 
ATOM     20  C   UNL     1       0.904  -0.193   0.229  1.00  0.00    -0.051 A 
ATOM     21  C   UNL     1       0.262  -1.438   0.295  1.00  0.00     0.004 A 
ATOM     22  C   UNL     1       0.153   0.967   0.422  1.00  0.00     0.004 A 
ATOM     23  C   UNL     1      -1.114  -1.525   0.549  1.00  0.00     0.010 A 
ATOM     24  C   UNL     1      -1.214   0.878   0.685  1.00  0.00     0.010 A 
ENDBRANCH   9  18
BRANCH  15  25
ATOM     25  C   UNL     1      -8.582  -0.084  -0.249  1.00  0.00     0.007 A 
ATOM     26  C   UNL     1      -9.244   1.114   0.060  1.00  0.00     0.011 A 
ATOM     27  C   UNL     1      -9.094  -0.883  -1.281  1.00  0.00     0.096 A 
ATOM     28  C   UNL     1     -10.372   1.525  -0.668  1.00  0.00     0.008 A 
ATOM     29  C   UNL     1     -10.213  -0.455  -2.023  1.00  0.00     0.270 A 
ATOM     30  C   UNL     1     -10.858   0.749  -1.719  1.00  0.00     0.085 A 
BRANCH  29  31
ATOM     31  N   UNL     1     -10.663  -1.251  -3.172  1.00  0.00     0.062 N 
ATOM     32  O   UNL     1     -11.576  -0.802  -3.879  1.00  0.00    -0.258 OA
ATOM     33  O   UNL     1     -10.085  -2.329  -3.387  1.00  0.00    -0.258 OA
ENDBRANCH  29  31
ENDBRANCH  15  25
ENDBRANCH   6   8
ENDBRANCH   5   6
ENDBRANCH   4   5
ENDBRANCH   3   4
ENDBRANCH   2   3
ENDBRANCH   1   2
BRANCH   1  34
ATOM     34  C   UNL     1      -6.765  -2.216  -5.665  1.00  0.00     0.261 C 
BRANCH  34  35
ATOM     35  O   UNL     1      -7.835  -1.420  -6.248  1.00  0.00    -0.460 OA
BRANCH  35  36
ATOM     36  C   UNL     1      -7.459  -0.336  -7.006  1.00  0.00     0.338 C 
ATOM     37  O   UNL     1      -6.719  -0.416  -7.974  1.00  0.00    -0.246 OA
BRANCH  36  38
ATOM     38  C   UNL     1      -7.894   0.958  -6.360  1.00  0.00     0.060 A 
ATOM     39  C   UNL     1      -7.334   2.197  -6.720  1.00  0.00     0.016 A 
ATOM     40  C   UNL     1      -8.598   0.881  -5.170  1.00  0.00     0.016 A 
ATOM     41  C   UNL     1      -7.281   3.263  -5.791  1.00  0.00     0.010 A 
ATOM     42  C   UNL     1      -8.470   1.902  -4.244  1.00  0.00     0.010 A 
ATOM     43  C   UNL     1      -7.726   3.063  -4.495  1.00  0.00    -0.014 A 
BRANCH  43  44
ATOM     44  C   UNL     1      -7.564   3.944  -3.317  1.00  0.00     0.031 A 
ATOM     45  C   UNL     1      -8.813   4.542  -2.795  1.00  0.00     0.074 A 
ATOM     46  C   UNL     1      -6.469   3.924  -2.503  1.00  0.00     0.049 A 
ATOM     47  N   UNL     1      -8.865   5.284  -1.749  1.00  0.00    -0.248 NA
ATOM     48  C   UNL     1     -10.119   4.381  -3.437  1.00  0.00     0.031 C 
ATOM     49  C   UNL     1      -6.443   3.995  -1.032  1.00  0.00     0.029 A 
ATOM     50  N   UNL     1      -5.120   3.708  -2.794  1.00  0.00    -0.354 N 
ATOM     51  C   UNL     1     -10.185   5.407  -1.397  1.00  0.00     0.074 A 
ATOM     52  C   UNL     1     -10.924   4.977  -2.553  1.00  0.00     0.031 C 
ATOM     53  C   UNL     1      -5.172   4.025  -0.586  1.00  0.00     0.029 A 
ATOM     54  C   UNL     1      -4.309   4.153  -1.747  1.00  0.00     0.049 A 
ATOM     55  H   UNL     1      -4.787   3.297  -3.625  1.00  0.00     0.167 HD
ATOM     56  C   UNL     1     -10.466   5.713  -0.103  1.00  0.00     0.034 A 
ATOM     57  C   UNL     1      -3.308   5.049  -1.966  1.00  0.00     0.034 A 
ATOM     58  C   UNL     1      -9.225   6.070   0.621  1.00  0.00     0.049 A 
ATOM     59  C   UNL     1      -3.690   6.330  -1.274  1.00  0.00     0.074 A 
ATOM     60  C   UNL     1      -8.470   5.440   1.595  1.00  0.00     0.029 A 
ATOM     61  N   UNL     1      -8.429   7.111   0.130  1.00  0.00    -0.354 N 
ATOM     62  N   UNL     1      -4.878   6.505  -0.767  1.00  0.00    -0.248 NA
ATOM     63  C   UNL     1      -2.812   7.462  -1.012  1.00  0.00     0.031 C 
ATOM     64  C   UNL     1      -7.181   6.058   1.616  1.00  0.00     0.029 A 
ATOM     65  C   UNL     1      -7.163   7.100   0.698  1.00  0.00     0.049 A 
ATOM     66  H   UNL     1      -8.730   7.770  -0.536  1.00  0.00     0.167 HD
ATOM     67  C   UNL     1      -4.978   7.708  -0.165  1.00  0.00     0.074 A 
ATOM     68  C   UNL     1      -3.642   8.269  -0.322  1.00  0.00     0.031 C 
ATOM     69  C   UNL     1      -6.169   8.130   0.353  1.00  0.00     0.034 A 
BRANCH  56  70
ATOM     70  C   UNL     1     -11.815   5.542   0.580  1.00  0.00     0.023 A 
ATOM     71  C   UNL     1     -11.904   5.980   1.920  1.00  0.00     0.012 A 
ATOM     72  C   UNL     1     -12.982   4.923   0.057  1.00  0.00     0.148 A 
ATOM     73  C   UNL     1     -13.063   5.824   2.690  1.00  0.00     0.002 A 
ATOM     74  C   UNL     1     -14.164   4.831   0.803  1.00  0.00     0.091 A 
ATOM     75  F   UNL     1     -12.948   4.319  -1.133  1.00  0.00    -0.205 F 
ATOM     76  C   UNL     1     -14.201   5.269   2.127  1.00  0.00     0.022 A 
BRANCH  74  77
ATOM     77  S   UNL     1     -15.700   4.160   0.132  1.00  0.00     0.127 S 
ATOM     78  O   UNL     1     -15.900   2.969   0.958  1.00  0.00    -0.237 OA
ATOM     79  O   UNL     1     -16.651   5.242   0.386  1.00  0.00    -0.237 OA
ATOM     80  O   UNL     1     -15.449   3.894  -1.279  1.00  0.00    -0.744 OA
ENDBRANCH  74  77
ENDBRANCH  56  70
BRANCH  57  81
ATOM     81  C   UNL     1      -2.647   4.856  -3.300  1.00  0.00     0.023 A 
ATOM     82  C   UNL     1      -1.791   3.730  -3.443  1.00  0.00     0.012 A 
ATOM     83  C   UNL     1      -3.223   5.405  -4.461  1.00  0.00     0.148 A 
ATOM     84  C   UNL     1      -1.613   3.103  -4.684  1.00  0.00     0.002 A 
ATOM     85  C   UNL     1      -3.111   4.725  -5.675  1.00  0.00     0.091 A 
ATOM     86  F   UNL     1      -3.943   6.527  -4.343  1.00  0.00    -0.205 F 
ATOM     87  C   UNL     1      -2.326   3.565  -5.786  1.00  0.00     0.022 A 
BRANCH  85  88
ATOM     88  S   UNL     1      -4.140   5.148  -7.090  1.00  0.00     0.127 S 
ATOM     89  O   UNL     1      -3.195   5.862  -7.942  1.00  0.00    -0.237 OA
ATOM     90  O   UNL     1      -4.536   3.829  -7.587  1.00  0.00    -0.237 OA
ATOM     91  O   UNL     1      -5.234   5.941  -6.551  1.00  0.00    -0.744 OA
ENDBRANCH  85  88
ENDBRANCH  57  81
BRANCH  69  92
ATOM     92  C   UNL     1      -6.477   9.587   0.578  1.00  0.00     0.023 A 
ATOM     93  C   UNL     1      -5.704  10.604  -0.018  1.00  0.00     0.012 A 
ATOM     94  C   UNL     1      -7.654   9.990   1.249  1.00  0.00     0.148 A 
ATOM     95  C   UNL     1      -6.014  11.954   0.130  1.00  0.00     0.002 A 
ATOM     96  C   UNL     1      -8.036  11.323   1.267  1.00  0.00     0.091 A 
ATOM     97  F   UNL     1      -8.409   9.086   1.888  1.00  0.00    -0.205 F 
ATOM     98  C   UNL     1      -7.196  12.314   0.754  1.00  0.00     0.022 A 
BRANCH  96  99
ATOM     99  S   UNL     1      -9.684  11.812   1.784  1.00  0.00     0.127 S 
ATOM    100  O   UNL     1      -9.430  12.329   3.127  1.00  0.00    -0.237 OA
ATOM    101  O   UNL     1     -10.026  12.829   0.789  1.00  0.00    -0.237 OA
ATOM    102  O   UNL     1     -10.493  10.603   1.707  1.00  0.00    -0.744 OA
ENDBRANCH  96  99
ENDBRANCH  69  92
ENDBRANCH  43  44
ENDBRANCH  36  38
ENDBRANCH  35  36
ENDBRANCH  34  35
ENDBRANCH   1  34
TORSDOF 20
