REMARK SMILES O=C(OCCOCCOC(=O)c1ccc(-c2c3nc(c(-c4cccc(S(=O)(=O)[O-])c4F)c4ccc([nH]4)c(-c4cccc(S(=O)(=O)[O-])c4F)c4nc(c(-c5cccc(S(=O)(=O)[O-])c5F)c5ccc2[nH]5)C=C4)C=C3)cc1)C1=Cc2cc(Cl)cc(Cl)c2O[C@@H]1C(F)(F)F
REMARK SMILES IDX 7 1 6 2 5 3 4 4 3 5 2 6 1 7 75 8 76 9 86 10 77 11 85 12
REMARK SMILES IDX 78 13 84 14 79 15 82 16 80 17 81 18 83 19 87 20 88 21 89 22
REMARK SMILES IDX 90 23 8 24 9 25 10 26 11 27 12 28 13 29 74 30 14 31 73 32
REMARK SMILES IDX 15 33 16 34 17 35 67 36 18 37 72 38 66 39 68 40 19 41 71 42
REMARK SMILES IDX 65 43 64 44 20 46 52 47 32 48 51 49 33 50 36 51 50 52 69 53
REMARK SMILES IDX 34 54 35 55 49 57 70 58 37 59 21 60 22 61 30 62 23 63 25 64
REMARK SMILES IDX 31 65 24 66 26 67 27 68 28 69 29 70 53 71 54 72 62 73 55 74
REMARK SMILES IDX 57 75 63 76 56 77 58 78 59 79 60 80 61 81 38 82 39 83 47 84
REMARK SMILES IDX 40 85 42 86 48 87 41 88 43 89 44 90 45 91 46 92
REMARK H PARENT 68 45 36 56
REMARK Flexibility Score: inf
ROOT
ATOM      1  C   UNL     1       2.687   1.324   2.663  1.00  0.00     0.202 C 
ENDROOT
BRANCH   1   2
ATOM      2  O   UNL     1       3.674   0.319   2.387  1.00  0.00    -0.374 OA
BRANCH   2   3
ATOM      3  C   UNL     1       4.250  -0.319   1.073  1.00  0.00     0.202 C 
BRANCH   3   4
ATOM      4  C   UNL     1       3.361  -0.759  -0.869  1.00  0.00     0.261 C 
BRANCH   4   5
ATOM      5  O   UNL     1       2.538  -2.018  -1.247  1.00  0.00    -0.460 OA
BRANCH   5   6
ATOM      6  C   UNL     1       2.805  -3.074  -0.475  1.00  0.00     0.338 C 
ATOM      7  O   UNL     1       2.320  -4.174  -0.453  1.00  0.00    -0.246 OA
BRANCH   6   8
ATOM      8  C   UNL     1       3.623  -2.345   0.462  1.00  0.00     0.087 C 
ATOM      9  C   UNL     1       4.982  -2.109  -0.131  1.00  0.00     0.027 C 
ATOM     10  C   UNL     1       2.340  -0.947   0.868  1.00  0.00     0.316 C 
ATOM     11  C   UNL     1       5.562  -0.465  -0.674  1.00  0.00     0.020 A 
ATOM     12  O   UNL     1       2.927   0.775   0.243  1.00  0.00    -0.474 OA
ATOM     13  C   UNL     1       6.729  -0.370  -1.385  1.00  0.00     0.032 A 
ATOM     14  C   UNL     1       4.524   0.927  -0.617  1.00  0.00     0.146 A 
ATOM     15  C   UNL     1       6.929   0.859  -2.045  1.00  0.00     0.043 A 
ATOM     16  C   UNL     1       4.743   2.013  -1.414  1.00  0.00     0.085 A 
ATOM     17  Cl  UNL     1       8.405   1.025  -2.945  1.00  0.00    -0.084 Cl
ATOM     18  C   UNL     1       5.981   1.963  -2.097  1.00  0.00     0.045 A 
ATOM     19  Cl  UNL     1       3.533   3.138  -1.812  1.00  0.00    -0.080 Cl
BRANCH  10  20
ATOM     20  C   UNL     1       1.812  -1.389   2.283  1.00  0.00     0.430 C 
ATOM     21  F   UNL     1       0.925  -0.555   2.854  1.00  0.00    -0.167 F 
ATOM     22  F   UNL     1       1.131  -2.562   2.107  1.00  0.00    -0.167 F 
ATOM     23  F   UNL     1       2.777  -1.700   3.179  1.00  0.00    -0.167 F 
ENDBRANCH  10  20
ENDBRANCH   6   8
ENDBRANCH   5   6
ENDBRANCH   4   5
ENDBRANCH   3   4
ENDBRANCH   2   3
ENDBRANCH   1   2
BRANCH   1  24
ATOM     24  C   UNL     1       3.045   2.767   2.952  1.00  0.00     0.261 C 
BRANCH  24  25
ATOM     25  O   UNL     1       3.541   3.442   1.816  1.00  0.00    -0.460 OA
BRANCH  25  26
ATOM     26  C   UNL     1       4.860   3.715   1.854  1.00  0.00     0.338 C 
ATOM     27  O   UNL     1       5.697   3.256   2.609  1.00  0.00    -0.246 OA
BRANCH  26  28
ATOM     28  C   UNL     1       5.131   4.660   0.763  1.00  0.00     0.060 A 
ATOM     29  C   UNL     1       6.349   4.559   0.086  1.00  0.00     0.016 A 
ATOM     30  C   UNL     1       4.155   5.589   0.372  1.00  0.00     0.016 A 
ATOM     31  C   UNL     1       6.578   5.362  -1.026  1.00  0.00     0.010 A 
ATOM     32  C   UNL     1       4.382   6.386  -0.738  1.00  0.00     0.010 A 
ATOM     33  C   UNL     1       5.598   6.278  -1.430  1.00  0.00    -0.014 A 
BRANCH  33  34
ATOM     34  C   UNL     1       5.912   7.321  -2.417  1.00  0.00     0.031 A 
ATOM     35  C   UNL     1       6.379   8.633  -1.873  1.00  0.00     0.074 A 
ATOM     36  C   UNL     1       5.676   7.140  -3.725  1.00  0.00     0.049 A 
ATOM     37  N   UNL     1       6.610   9.752  -2.499  1.00  0.00    -0.248 NA
ATOM     38  C   UNL     1       6.591   8.693  -0.415  1.00  0.00     0.031 C 
ATOM     39  C   UNL     1       5.189   5.905  -4.336  1.00  0.00     0.029 A 
ATOM     40  N   UNL     1       5.766   8.024  -4.768  1.00  0.00    -0.354 N 
ATOM     41  C   UNL     1       6.960  10.658  -1.509  1.00  0.00     0.074 A 
ATOM     42  C   UNL     1       6.896   9.967  -0.243  1.00  0.00     0.031 C 
ATOM     43  C   UNL     1       4.981   6.122  -5.646  1.00  0.00     0.029 A 
ATOM     44  C   UNL     1       5.288   7.518  -5.953  1.00  0.00     0.049 A 
ATOM     45  H   UNL     1       6.136   8.932  -4.677  1.00  0.00     0.167 HD
ATOM     46  C   UNL     1       7.305  11.957  -1.647  1.00  0.00     0.034 A 
ATOM     47  C   UNL     1       5.089   8.132  -7.136  1.00  0.00     0.034 A 
ATOM     48  C   UNL     1       7.319  12.637  -2.908  1.00  0.00     0.049 A 
ATOM     49  C   UNL     1       5.455   9.587  -7.268  1.00  0.00     0.074 A 
ATOM     50  C   UNL     1       7.693  13.938  -3.179  1.00  0.00     0.029 A 
ATOM     51  N   UNL     1       6.899  12.076  -4.106  1.00  0.00    -0.354 N 
ATOM     52  N   UNL     1       5.920  10.406  -6.354  1.00  0.00    -0.248 NA
ATOM     53  C   UNL     1       5.304  10.197  -8.596  1.00  0.00     0.031 C 
ATOM     54  C   UNL     1       7.445  14.181  -4.534  1.00  0.00     0.029 A 
ATOM     55  C   UNL     1       6.982  13.011  -5.119  1.00  0.00     0.049 A 
ATOM     56  H   UNL     1       6.587  11.149  -4.217  1.00  0.00     0.167 HD
ATOM     57  C   UNL     1       6.159  11.612  -7.003  1.00  0.00     0.074 A 
ATOM     58  C   UNL     1       5.786  11.416  -8.390  1.00  0.00     0.031 C 
ATOM     59  C   UNL     1       6.646  12.774  -6.501  1.00  0.00     0.034 A 
BRANCH  46  60
ATOM     60  C   UNL     1       7.652  12.704  -0.389  1.00  0.00     0.023 A 
ATOM     61  C   UNL     1       8.811  12.364   0.340  1.00  0.00     0.012 A 
ATOM     62  C   UNL     1       6.806  13.719   0.091  1.00  0.00     0.148 A 
ATOM     63  C   UNL     1       9.089  12.980   1.559  1.00  0.00     0.002 A 
ATOM     64  C   UNL     1       7.120  14.370   1.276  1.00  0.00     0.091 A 
ATOM     65  F   UNL     1       5.692  14.004  -0.598  1.00  0.00    -0.205 F 
ATOM     66  C   UNL     1       8.248  13.989   2.022  1.00  0.00     0.022 A 
BRANCH  64  67
ATOM     67  S   UNL     1       6.144  15.734   1.911  1.00  0.00     0.127 S 
ATOM     68  O   UNL     1       5.508  15.124   3.078  1.00  0.00    -0.237 OA
ATOM     69  O   UNL     1       7.174  16.725   2.225  1.00  0.00    -0.237 OA
ATOM     70  O   UNL     1       5.241  16.118   0.835  1.00  0.00    -0.744 OA
ENDBRANCH  64  67
ENDBRANCH  46  60
BRANCH  47  71
ATOM     71  C   UNL     1       4.538   7.361  -8.284  1.00  0.00     0.023 A 
ATOM     72  C   UNL     1       5.373   7.034  -9.370  1.00  0.00     0.012 A 
ATOM     73  C   UNL     1       3.204   6.908  -8.281  1.00  0.00     0.148 A 
ATOM     74  C   UNL     1       4.883   6.289 -10.444  1.00  0.00     0.002 A 
ATOM     75  C   UNL     1       2.737   6.123  -9.328  1.00  0.00     0.091 A 
ATOM     76  F   UNL     1       2.428   7.234  -7.238  1.00  0.00    -0.205 F 
ATOM     77  C   UNL     1       3.570   5.825 -10.418  1.00  0.00     0.022 A 
BRANCH  75  78
ATOM     78  S   UNL     1       1.102   5.380  -9.329  1.00  0.00     0.127 S 
ATOM     79  O   UNL     1       0.495   5.994 -10.508  1.00  0.00    -0.237 OA
ATOM     80  O   UNL     1       1.423   3.960  -9.470  1.00  0.00    -0.237 OA
ATOM     81  O   UNL     1       0.499   5.743  -8.055  1.00  0.00    -0.744 OA
ENDBRANCH  75  78
ENDBRANCH  47  71
BRANCH  59  82
ATOM     82  C   UNL     1       6.879  13.916  -7.454  1.00  0.00     0.023 A 
ATOM     83  C   UNL     1       5.795  14.645  -7.977  1.00  0.00     0.012 A 
ATOM     84  C   UNL     1       8.197  14.340  -7.723  1.00  0.00     0.148 A 
ATOM     85  C   UNL     1       6.020  15.771  -8.770  1.00  0.00     0.002 A 
ATOM     86  C   UNL     1       8.412  15.493  -8.464  1.00  0.00     0.091 A 
ATOM     87  F   UNL     1       9.212  13.619  -7.226  1.00  0.00    -0.205 F 
ATOM     88  C   UNL     1       7.326  16.203  -8.999  1.00  0.00     0.022 A 
BRANCH  86  89
ATOM     89  S   UNL     1      10.050  16.185  -8.712  1.00  0.00     0.127 S 
ATOM     90  O   UNL     1      10.241  15.990 -10.148  1.00  0.00    -0.237 OA
ATOM     91  O   UNL     1       9.861  17.577  -8.304  1.00  0.00    -0.237 OA
ATOM     92  O   UNL     1      10.948  15.419  -7.857  1.00  0.00    -0.744 OA
ENDBRANCH  86  89
ENDBRANCH  59  82
ENDBRANCH  33  34
ENDBRANCH  26  28
ENDBRANCH  25  26
ENDBRANCH  24  25
ENDBRANCH   1  24
TORSDOF 18
