REMARK SMILES Cc1cc(C)cc(N2C(=O)NC(=O)/C(=C\c3ccc(OCC(=O)OCCOCCOC(=O)c4ccc(-c5c6nc(c(-c7cccc(S(=O)(=O)[O-])c7F)c7ccc([nH]7)c(-c7cccc(S(=O)(=O)[O-])c7F)c7nc(c(-c8cccc(S(=O)(=O)[O-])c8F)c8ccc5[nH]8)C=C7)C=C6)cc4)c(Br)c3)C2=O)c1
REMARK SMILES IDX 26 1 25 2 24 3 22 4 23 5 21 6 20 7 19 8 16 9 17 10 98 11
REMARK SMILES IDX 18 12 96 13 97 14 15 15 8 16 9 17 99 18 10 19 11 20 14 21
REMARK SMILES IDX 100 22 12 23 13 25 7 26 1 27 2 28 3 29 101 30 4 31 5 32 6 33
REMARK SMILES IDX 27 34 28 35 29 36 30 37 31 38 32 39 33 40 34 41 95 42 35 43
REMARK SMILES IDX 94 44 36 45 37 46 38 47 88 48 39 49 93 50 87 51 89 52 40 53
REMARK SMILES IDX 92 54 86 55 85 56 41 58 73 59 53 60 72 61 54 62 57 63 71 64
REMARK SMILES IDX 90 65 55 66 56 67 70 69 91 70 58 71 42 72 43 73 51 74 44 75
REMARK SMILES IDX 46 76 52 77 45 78 47 79 48 80 49 81 50 82 74 83 75 84 83 85
REMARK SMILES IDX 76 86 78 87 84 88 77 89 79 90 80 91 81 92 82 93 59 94 60 95
REMARK SMILES IDX 68 96 61 97 63 98 69 99 62 100 64 101 65 102 66 103 67 104
REMARK H PARENT 11 24 89 57 57 68
REMARK Flexibility Score: inf
ROOT
ATOM      1  C   UNL     1      -3.482 -10.972  -6.761  1.00  0.00     0.202 C 
ENDROOT
BRANCH   1   2
ATOM      2  C   UNL     1      -3.053 -12.319  -6.167  1.00  0.00     0.261 C 
BRANCH   2   3
ATOM      3  O   UNL     1      -2.602 -12.229  -4.799  1.00  0.00    -0.461 OA
BRANCH   3   4
ATOM      4  C   UNL     1      -1.337 -12.678  -4.557  1.00  0.00     0.344 C 
ATOM      5  O   UNL     1      -0.554 -13.067  -5.418  1.00  0.00    -0.248 OA
BRANCH   4   6
ATOM      6  C   UNL     1      -1.012 -12.741  -3.063  1.00  0.00     0.352 C 
BRANCH   6   7
ATOM      7  O   UNL     1      -1.538 -11.807  -2.152  1.00  0.00    -0.481 OA
BRANCH   7   8
ATOM      8  C   UNL     1      -1.176 -10.497  -2.079  1.00  0.00     0.134 A 
ATOM      9  C   UNL     1      -0.984  -7.688  -1.721  1.00  0.00    -0.023 A 
ATOM     10  C   UNL     1      -2.020  -8.399  -1.124  1.00  0.00     0.012 A 
ATOM     11  C   UNL     1      -0.009  -8.389  -2.439  1.00  0.00     0.027 A 
ATOM     12  C   UNL     1      -2.105  -9.781  -1.301  1.00  0.00     0.048 A 
ATOM     13  C   UNL     1      -0.092  -9.790  -2.613  1.00  0.00     0.060 A 
ATOM     14  Br  UNL     1       1.350 -10.543  -3.591  1.00  0.00    -0.047 Br
BRANCH   9  15
ATOM     15  C   UNL     1      -0.978  -6.222  -1.646  1.00  0.00     0.027 C 
ATOM     16  N   UNL     1       0.106  -3.199   0.129  1.00  0.00    -0.228 N 
ATOM     17  C   UNL     1       0.851  -3.737   1.173  1.00  0.00     0.335 C 
ATOM     18  C   UNL     1      -0.585  -3.969  -0.811  1.00  0.00     0.272 C 
ATOM     19  O   UNL     1       1.450  -3.099   2.040  1.00  0.00    -0.247 OA
ATOM     20  N   UNL     1       0.898  -5.096   1.265  1.00  0.00    -0.273 N 
ATOM     21  C   UNL     1      -0.414  -5.452  -0.693  1.00  0.00     0.106 C 
ATOM     22  O   UNL     1      -1.258  -3.505  -1.732  1.00  0.00    -0.268 OA
ATOM     23  C   UNL     1       0.361  -6.019   0.425  1.00  0.00     0.264 C 
ATOM     24  H   UNL     1       1.385  -5.457   2.042  1.00  0.00     0.175 HD
ATOM     25  O   UNL     1       0.562  -7.211   0.617  1.00  0.00    -0.269 OA
BRANCH  16  26
ATOM     26  C   UNL     1       0.050  -1.765   0.026  1.00  0.00     0.054 A 
ATOM     27  C   UNL     1       2.482   1.179   0.077  1.00  0.00     0.044 C 
ATOM     28  C   UNL     1       1.210   0.388   0.031  1.00  0.00    -0.049 A 
ATOM     29  C   UNL     1      -0.023   1.042  -0.057  1.00  0.00     0.007 A 
ATOM     30  C   UNL     1       1.233  -1.011   0.095  1.00  0.00     0.030 A 
ATOM     31  C   UNL     1      -1.218   0.314  -0.114  1.00  0.00    -0.049 A 
ATOM     32  C   UNL     1      -2.528   1.047  -0.159  1.00  0.00     0.044 C 
ATOM     33  C   UNL     1      -1.172  -1.089  -0.106  1.00  0.00     0.030 A 
ENDBRANCH  16  26
ENDBRANCH   9  15
ENDBRANCH   7   8
ENDBRANCH   6   7
ENDBRANCH   4   6
ENDBRANCH   3   4
ENDBRANCH   2   3
ENDBRANCH   1   2
BRANCH   1  34
ATOM     34  O   UNL     1      -2.455 -10.002  -6.972  1.00  0.00    -0.374 OA
BRANCH  34  35
ATOM     35  C   UNL     1      -1.851  -9.439  -5.812  1.00  0.00     0.202 C 
BRANCH  35  36
ATOM     36  C   UNL     1      -2.671  -8.396  -5.049  1.00  0.00     0.261 C 
BRANCH  36  37
ATOM     37  O   UNL     1      -3.962  -8.868  -4.654  1.00  0.00    -0.460 OA
BRANCH  37  38
ATOM     38  C   UNL     1      -4.987  -8.164  -5.182  1.00  0.00     0.338 C 
ATOM     39  O   UNL     1      -4.921  -7.136  -5.845  1.00  0.00    -0.246 OA
BRANCH  38  40
ATOM     40  C   UNL     1      -6.246  -8.893  -4.991  1.00  0.00     0.060 A 
ATOM     41  C   UNL     1      -6.972  -9.221  -6.141  1.00  0.00     0.016 A 
ATOM     42  C   UNL     1      -6.748  -9.165  -3.717  1.00  0.00     0.016 A 
ATOM     43  C   UNL     1      -8.242  -9.769  -6.020  1.00  0.00     0.010 A 
ATOM     44  C   UNL     1      -8.027  -9.714  -3.598  1.00  0.00     0.010 A 
ATOM     45  C   UNL     1      -8.792  -9.975  -4.747  1.00  0.00    -0.014 A 
BRANCH  45  46
ATOM     46  C   UNL     1     -10.225 -10.324  -4.638  1.00  0.00     0.031 A 
ATOM     47  C   UNL     1     -11.216  -9.235  -4.336  1.00  0.00     0.074 A 
ATOM     48  C   UNL     1     -10.629 -11.589  -4.845  1.00  0.00     0.049 A 
ATOM     49  N   UNL     1     -12.518  -9.303  -4.251  1.00  0.00    -0.248 NA
ATOM     50  C   UNL     1     -10.668  -7.889  -4.097  1.00  0.00     0.031 C 
ATOM     51  C   UNL     1      -9.746 -12.716  -5.141  1.00  0.00     0.029 A 
ATOM     52  N   UNL     1     -11.885 -12.138  -4.828  1.00  0.00    -0.354 N 
ATOM     53  C   UNL     1     -12.944  -8.019  -3.930  1.00  0.00     0.074 A 
ATOM     54  C   UNL     1     -11.761  -7.196  -3.815  1.00  0.00     0.031 C 
ATOM     55  C   UNL     1     -10.489 -13.829  -5.266  1.00  0.00     0.029 A 
ATOM     56  C   UNL     1     -11.893 -13.495  -5.044  1.00  0.00     0.049 A 
ATOM     57  H   UNL     1     -12.702 -11.610  -4.675  1.00  0.00     0.167 HD
ATOM     58  C   UNL     1     -14.208  -7.565  -3.767  1.00  0.00     0.034 A 
ATOM     59  C   UNL     1     -12.922 -14.364  -5.056  1.00  0.00     0.034 A 
ATOM     60  C   UNL     1     -15.376  -8.392  -3.902  1.00  0.00     0.049 A 
ATOM     61  C   UNL     1     -14.318 -13.835  -4.859  1.00  0.00     0.074 A 
ATOM     62  C   UNL     1     -16.707  -8.028  -3.804  1.00  0.00     0.029 A 
ATOM     63  N   UNL     1     -15.350  -9.756  -4.153  1.00  0.00    -0.354 N 
ATOM     64  N   UNL     1     -14.714 -12.596  -4.683  1.00  0.00    -0.248 NA
ATOM     65  C   UNL     1     -15.412 -14.815  -4.897  1.00  0.00     0.031 C 
ATOM     66  C   UNL     1     -17.485  -9.179  -3.971  1.00  0.00     0.029 A 
ATOM     67  C   UNL     1     -16.640 -10.254  -4.200  1.00  0.00     0.049 A 
ATOM     68  H   UNL     1     -14.533 -10.291  -4.280  1.00  0.00     0.167 HD
ATOM     69  C   UNL     1     -16.103 -12.643  -4.625  1.00  0.00     0.074 A 
ATOM     70  C   UNL     1     -16.478 -14.031  -4.805  1.00  0.00     0.031 C 
ATOM     71  C   UNL     1     -16.988 -11.634  -4.429  1.00  0.00     0.034 A 
BRANCH  58  72
ATOM     72  C   UNL     1     -14.389  -6.103  -3.451  1.00  0.00     0.023 A 
ATOM     73  C   UNL     1     -14.158  -5.139  -4.454  1.00  0.00     0.012 A 
ATOM     74  C   UNL     1     -14.818  -5.684  -2.177  1.00  0.00     0.148 A 
ATOM     75  C   UNL     1     -14.317  -3.780  -4.185  1.00  0.00     0.002 A 
ATOM     76  C   UNL     1     -15.014  -4.330  -1.928  1.00  0.00     0.091 A 
ATOM     77  F   UNL     1     -15.007  -6.612  -1.228  1.00  0.00    -0.205 F 
ATOM     78  C   UNL     1     -14.754  -3.376  -2.926  1.00  0.00     0.022 A 
BRANCH  76  79
ATOM     79  S   UNL     1     -15.641  -3.716  -0.360  1.00  0.00     0.127 S 
ATOM     80  O   UNL     1     -14.445  -3.101   0.215  1.00  0.00    -0.237 OA
ATOM     81  O   UNL     1     -16.669  -2.767  -0.788  1.00  0.00    -0.237 OA
ATOM     82  O   UNL     1     -16.150  -4.881   0.351  1.00  0.00    -0.744 OA
ENDBRANCH  76  79
ENDBRANCH  58  72
BRANCH  59  83
ATOM     83  C   UNL     1     -12.672 -15.809  -5.317  1.00  0.00     0.023 A 
ATOM     84  C   UNL     1     -13.110 -16.383  -6.527  1.00  0.00     0.012 A 
ATOM     85  C   UNL     1     -11.975 -16.610  -4.391  1.00  0.00     0.148 A 
ATOM     86  C   UNL     1     -12.880 -17.732  -6.798  1.00  0.00     0.002 A 
ATOM     87  C   UNL     1     -11.702 -17.939  -4.691  1.00  0.00     0.091 A 
ATOM     88  F   UNL     1     -11.581 -16.050  -3.238  1.00  0.00    -0.205 F 
ATOM     89  C   UNL     1     -12.167 -18.507  -5.887  1.00  0.00     0.022 A 
BRANCH  87  90
ATOM     90  S   UNL     1     -10.678 -18.972  -3.636  1.00  0.00     0.127 S 
ATOM     91  O   UNL     1     -11.665 -19.884  -3.063  1.00  0.00    -0.237 OA
ATOM     92  O   UNL     1      -9.764 -19.581  -4.603  1.00  0.00    -0.237 OA
ATOM     93  O   UNL     1     -10.037 -18.060  -2.699  1.00  0.00    -0.744 OA
ENDBRANCH  87  90
ENDBRANCH  59  83
BRANCH  71  94
ATOM     94  C   UNL     1     -18.452 -11.986  -4.426  1.00  0.00     0.023 A 
ATOM     95  C   UNL     1     -19.005 -12.668  -3.324  1.00  0.00     0.012 A 
ATOM     96  C   UNL     1     -19.293 -11.569  -5.477  1.00  0.00     0.148 A 
ATOM     97  C   UNL     1     -20.368 -12.959  -3.284  1.00  0.00     0.002 A 
ATOM     98  C   UNL     1     -20.658 -11.819  -5.406  1.00  0.00     0.091 A 
ATOM     99  F   UNL     1     -18.743 -10.938  -6.524  1.00  0.00    -0.205 F 
ATOM    100  C   UNL     1     -21.195 -12.524  -4.317  1.00  0.00     0.022 A 
BRANCH  98 101
ATOM    101  S   UNL     1     -21.810 -11.210  -6.642  1.00  0.00     0.127 S 
ATOM    102  O   UNL     1     -22.147 -12.435  -7.365  1.00  0.00    -0.237 OA
ATOM    103  O   UNL     1     -22.893 -10.670  -5.818  1.00  0.00    -0.237 OA
ATOM    104  O   UNL     1     -21.082 -10.210  -7.410  1.00  0.00    -0.744 OA
ENDBRANCH  98 101
ENDBRANCH  71  94
ENDBRANCH  45  46
ENDBRANCH  38  40
ENDBRANCH  37  38
ENDBRANCH  36  37
ENDBRANCH  35  36
ENDBRANCH  34  35
ENDBRANCH   1  34
TORSDOF 21
