REMARK SMILES CN(C)S(=O)(=O)c1c[nH]c(C(=O)OCCOCCOC(=O)c2ccc(-c3c4nc(c(-c5cccc(S(=O)(=O)[O-])c5F)c5ccc([nH]5)c(-c5cccc(S(=O)(=O)[O-])c5F)c5nc(c(-c6cccc(S(=O)(=O)[O-])c6F)c6ccc3[nH]6)C=C5)C=C4)cc2)c1
REMARK SMILES IDX 17 1 16 2 15 3 14 4 13 5 11 6 12 7 10 8 7 9 8 10 85 11 9 12
REMARK SMILES IDX 4 14 5 15 6 16 2 17 1 18 3 19 18 20 19 21 20 22 21 23 22 24
REMARK SMILES IDX 23 25 84 26 24 27 83 28 25 29 26 30 27 31 77 32 28 33 82 34
REMARK SMILES IDX 76 35 78 36 29 37 81 38 75 39 74 40 30 42 62 43 42 44 61 45
REMARK SMILES IDX 43 46 46 47 60 48 79 49 44 50 45 51 59 53 80 54 47 55 31 56
REMARK SMILES IDX 32 57 40 58 33 59 35 60 41 61 34 62 36 63 37 64 38 65 39 66
REMARK SMILES IDX 63 67 64 68 72 69 65 70 67 71 73 72 66 73 68 74 69 75 70 76
REMARK SMILES IDX 71 77 48 78 49 79 57 80 50 81 52 82 58 83 51 84 53 85 54 86
REMARK SMILES IDX 55 87 56 88
REMARK H PARENT 9 13 78 41 46 52
REMARK Flexibility Score: inf
ROOT
ATOM      1  C   UNL     1      -2.644   7.992   1.993  1.00  0.00     0.202 C 
ENDROOT
BRANCH   1   2
ATOM      2  O   UNL     1      -3.484   8.627   1.035  1.00  0.00    -0.374 OA
BRANCH   2   3
ATOM      3  C   UNL     1      -4.333   7.798   0.237  1.00  0.00     0.202 C 
BRANCH   3   4
ATOM      4  C   UNL     1      -3.677   7.156  -0.987  1.00  0.00     0.261 C 
BRANCH   4   5
ATOM      5  O   UNL     1      -2.689   6.187  -0.610  1.00  0.00    -0.459 OA
BRANCH   5   6
ATOM      6  C   UNL     1      -1.398   6.629  -0.676  1.00  0.00     0.354 C 
ATOM      7  O   UNL     1      -1.026   7.677  -1.144  1.00  0.00    -0.244 OA
BRANCH   6   8
ATOM      8  C   UNL     1      -0.531   5.698   0.016  1.00  0.00     0.126 A 
ATOM      9  C   UNL     1       0.537   3.918   0.914  1.00  0.00     0.100 A 
ATOM     10  C   UNL     1       1.376   5.013   0.990  1.00  0.00     0.105 A 
ATOM     11  C   UNL     1      -0.708   4.386   0.420  1.00  0.00     0.057 A 
ATOM     12  N   UNL     1       0.721   6.081   0.446  1.00  0.00    -0.354 N 
ATOM     13  H   UNL     1       1.089   6.991   0.371  1.00  0.00     0.166 HD
BRANCH   9  14
ATOM     14  S   UNL     1       0.956   2.291   1.340  1.00  0.00     0.244 S 
ATOM     15  O   UNL     1       0.185   2.014   2.529  1.00  0.00    -0.207 OA
ATOM     16  O   UNL     1       2.406   2.311   1.359  1.00  0.00    -0.207 OA
BRANCH  14  17
ATOM     17  N   UNL     1       0.470   1.222   0.088  1.00  0.00    -0.204 NA
ATOM     18  C   UNL     1       1.150  -0.091   0.173  1.00  0.00     0.124 C 
ATOM     19  C   UNL     1      -0.992   1.050  -0.074  1.00  0.00     0.124 C 
ENDBRANCH  14  17
ENDBRANCH   9  14
ENDBRANCH   6   8
ENDBRANCH   5   6
ENDBRANCH   4   5
ENDBRANCH   3   4
ENDBRANCH   2   3
ENDBRANCH   1   2
BRANCH   1  20
ATOM     20  C   UNL     1      -3.253   7.433   3.273  1.00  0.00     0.261 C 
BRANCH  20  21
ATOM     21  O   UNL     1      -4.308   6.500   3.082  1.00  0.00    -0.460 OA
BRANCH  21  22
ATOM     22  C   UNL     1      -5.520   7.093   3.178  1.00  0.00     0.338 C 
ATOM     23  O   UNL     1      -5.815   8.217   2.803  1.00  0.00    -0.246 OA
BRANCH  22  24
ATOM     24  C   UNL     1      -6.432   6.274   3.973  1.00  0.00     0.060 A 
ATOM     25  C   UNL     1      -7.794   6.578   3.889  1.00  0.00     0.016 A 
ATOM     26  C   UNL     1      -5.930   5.391   4.934  1.00  0.00     0.016 A 
ATOM     27  C   UNL     1      -8.663   6.034   4.814  1.00  0.00     0.010 A 
ATOM     28  C   UNL     1      -6.794   4.884   5.885  1.00  0.00     0.010 A 
ATOM     29  C   UNL     1      -8.156   5.198   5.817  1.00  0.00    -0.014 A 
BRANCH  29  30
ATOM     30  C   UNL     1      -9.124   4.416   6.606  1.00  0.00     0.031 A 
ATOM     31  C   UNL     1      -9.500   3.124   5.805  1.00  0.00     0.074 A 
ATOM     32  C   UNL     1      -9.518   4.977   7.799  1.00  0.00     0.049 A 
ATOM     33  N   UNL     1     -10.571   2.389   5.833  1.00  0.00    -0.248 NA
ATOM     34  C   UNL     1      -8.584   2.631   4.723  1.00  0.00     0.031 C 
ATOM     35  C   UNL     1      -8.951   6.215   8.399  1.00  0.00     0.029 A 
ATOM     36  N   UNL     1     -10.453   4.645   8.759  1.00  0.00    -0.354 N 
ATOM     37  C   UNL     1     -10.314   1.236   5.039  1.00  0.00     0.074 A 
ATOM     38  C   UNL     1      -9.163   1.525   4.257  1.00  0.00     0.031 C 
ATOM     39  C   UNL     1      -9.612   6.568   9.530  1.00  0.00     0.029 A 
ATOM     40  C   UNL     1     -10.644   5.588   9.816  1.00  0.00     0.049 A 
ATOM     41  H   UNL     1     -10.960   3.802   8.719  1.00  0.00     0.167 HD
ATOM     42  C   UNL     1     -10.958   0.046   5.230  1.00  0.00     0.034 A 
ATOM     43  C   UNL     1     -11.593   5.578  10.815  1.00  0.00     0.034 A 
ATOM     44  C   UNL     1     -11.941   0.226   6.241  1.00  0.00     0.049 A 
ATOM     45  C   UNL     1     -12.185   4.241  10.719  1.00  0.00     0.074 A 
ATOM     46  C   UNL     1     -13.154   0.857   6.242  1.00  0.00     0.029 A 
ATOM     47  N   UNL     1     -11.486   0.058   7.527  1.00  0.00    -0.354 N 
ATOM     48  N   UNL     1     -11.579   3.148  11.078  1.00  0.00    -0.248 NA
ATOM     49  C   UNL     1     -13.478   4.093  10.044  1.00  0.00     0.031 C 
ATOM     50  C   UNL     1     -13.158   1.492   7.497  1.00  0.00     0.029 A 
ATOM     51  C   UNL     1     -12.125   0.987   8.299  1.00  0.00     0.049 A 
ATOM     52  H   UNL     1     -10.826  -0.605   7.833  1.00  0.00     0.167 HD
ATOM     53  C   UNL     1     -12.237   2.213  10.324  1.00  0.00     0.074 A 
ATOM     54  C   UNL     1     -13.542   2.766  10.031  1.00  0.00     0.031 C 
ATOM     55  C   UNL     1     -11.529   1.341   9.559  1.00  0.00     0.034 A 
BRANCH  42  56
ATOM     56  C   UNL     1     -10.670  -1.391   4.855  1.00  0.00     0.023 A 
ATOM     57  C   UNL     1     -11.729  -2.304   5.141  1.00  0.00     0.012 A 
ATOM     58  C   UNL     1      -9.397  -1.935   4.623  1.00  0.00     0.148 A 
ATOM     59  C   UNL     1     -11.502  -3.653   5.395  1.00  0.00     0.002 A 
ATOM     60  C   UNL     1      -9.190  -3.307   4.808  1.00  0.00     0.091 A 
ATOM     61  F   UNL     1      -8.382  -1.128   4.304  1.00  0.00    -0.205 F 
ATOM     62  C   UNL     1     -10.222  -4.149   5.252  1.00  0.00     0.022 A 
BRANCH  60  63
ATOM     63  S   UNL     1      -7.609  -4.109   4.519  1.00  0.00     0.127 S 
ATOM     64  O   UNL     1      -7.205  -4.482   5.872  1.00  0.00    -0.237 OA
ATOM     65  O   UNL     1      -8.003  -5.238   3.672  1.00  0.00    -0.237 OA
ATOM     66  O   UNL     1      -6.780  -3.121   3.844  1.00  0.00    -0.744 OA
ENDBRANCH  60  63
ENDBRANCH  42  56
BRANCH  43  67
ATOM     67  C   UNL     1     -12.219   6.502  11.853  1.00  0.00     0.023 A 
ATOM     68  C   UNL     1     -11.670   7.711  12.300  1.00  0.00     0.012 A 
ATOM     69  C   UNL     1     -13.528   6.205  12.367  1.00  0.00     0.148 A 
ATOM     70  C   UNL     1     -12.423   8.604  13.104  1.00  0.00     0.002 A 
ATOM     71  C   UNL     1     -14.320   7.144  13.020  1.00  0.00     0.091 A 
ATOM     72  F   UNL     1     -14.013   4.963  12.278  1.00  0.00    -0.205 F 
ATOM     73  C   UNL     1     -13.763   8.352  13.410  1.00  0.00     0.022 A 
BRANCH  71  74
ATOM     74  S   UNL     1     -16.103   6.911  13.217  1.00  0.00     0.127 S 
ATOM     75  O   UNL     1     -16.296   7.131  14.649  1.00  0.00    -0.237 OA
ATOM     76  O   UNL     1     -16.632   7.970  12.357  1.00  0.00    -0.237 OA
ATOM     77  O   UNL     1     -16.395   5.560  12.755  1.00  0.00    -0.744 OA
ENDBRANCH  71  74
ENDBRANCH  43  67
BRANCH  55  78
ATOM     78  C   UNL     1     -10.101   1.055  10.033  1.00  0.00     0.023 A 
ATOM     79  C   UNL     1      -9.982   0.480  11.315  1.00  0.00     0.012 A 
ATOM     80  C   UNL     1      -8.894   1.390   9.365  1.00  0.00     0.148 A 
ATOM     81  C   UNL     1      -8.741   0.260  11.919  1.00  0.00     0.002 A 
ATOM     82  C   UNL     1      -7.648   1.189   9.982  1.00  0.00     0.091 A 
ATOM     83  F   UNL     1      -8.959   1.894   8.132  1.00  0.00    -0.205 F 
ATOM     84  C   UNL     1      -7.575   0.617  11.257  1.00  0.00     0.022 A 
BRANCH  82  85
ATOM     85  S   UNL     1      -6.060   1.681   9.273  1.00  0.00     0.127 S 
ATOM     86  O   UNL     1      -5.490   2.525  10.326  1.00  0.00    -0.237 OA
ATOM     87  O   UNL     1      -5.382   0.398   9.104  1.00  0.00    -0.237 OA
ATOM     88  O   UNL     1      -6.368   2.389   8.040  1.00  0.00    -0.744 OA
ENDBRANCH  82  85
ENDBRANCH  55  78
ENDBRANCH  29  30
ENDBRANCH  22  24
ENDBRANCH  21  22
ENDBRANCH  20  21
ENDBRANCH   1  20
TORSDOF 19
