REMARK SMILES O=C(OCCOCCOC(=O)C1CN(c2cnccn2)C1)c1ccc(-c2c3nc(c(-c4cccc(S(=O)(=O)[O-])c4F)c4ccc([nH]4)c(-c4cccc(S(=O)(=O)[O-])c4F)c4nc(c(-c5cccc(S(=O)(=O)[O-])c5F)c5ccc2[nH]5)C=C4)C=C3)cc1
REMARK SMILES IDX 5 1 4 2 3 3 2 4 1 5 22 6 23 7 84 8 24 9 83 10 25 11 26 12
REMARK SMILES IDX 27 13 77 14 28 15 82 16 76 17 78 18 29 19 81 20 75 21 74 22
REMARK SMILES IDX 30 24 62 25 42 26 61 27 43 28 46 29 60 30 79 31 44 32 45 33
REMARK SMILES IDX 59 35 80 36 47 37 31 38 32 39 40 40 33 41 35 42 41 43 34 44
REMARK SMILES IDX 36 45 37 46 38 47 39 48 63 49 64 50 72 51 65 52 67 53 73 54
REMARK SMILES IDX 66 55 68 56 69 57 70 58 71 59 48 60 49 61 57 62 50 63 52 64
REMARK SMILES IDX 58 65 51 66 53 67 54 68 55 69 56 70 6 71 7 72 8 73 9 74
REMARK SMILES IDX 10 75 11 76 12 77 13 78 21 79 14 80 15 81 16 82 20 83 17 84
REMARK SMILES IDX 19 85 18 86
REMARK H PARENT 78 23 46 34
REMARK Flexibility Score: inf
ROOT
ATOM      1  C   UNL     1       4.462   1.470  -0.919  1.00  0.00     0.202 C 
ENDROOT
BRANCH   1   2
ATOM      2  C   UNL     1       4.122   0.077  -1.466  1.00  0.00     0.261 C 
BRANCH   2   3
ATOM      3  O   UNL     1       2.740  -0.246  -1.238  1.00  0.00    -0.460 OA
BRANCH   3   4
ATOM      4  C   UNL     1       2.226  -1.110  -0.326  1.00  0.00     0.338 C 
ATOM      5  O   UNL     1       1.022  -1.352  -0.356  1.00  0.00    -0.246 OA
BRANCH   4   6
ATOM      6  C   UNL     1       3.061  -1.763   0.727  1.00  0.00     0.060 A 
ATOM      7  C   UNL     1       4.269  -1.245   1.190  1.00  0.00     0.016 A 
ATOM      8  C   UNL     1       2.567  -2.924   1.342  1.00  0.00     0.016 A 
ATOM      9  C   UNL     1       5.028  -1.899   2.134  1.00  0.00     0.010 A 
ATOM     10  C   UNL     1       3.291  -3.554   2.362  1.00  0.00     0.010 A 
ATOM     11  C   UNL     1       4.538  -3.048   2.740  1.00  0.00    -0.014 A 
BRANCH  11  12
ATOM     12  C   UNL     1       5.440  -3.692   3.705  1.00  0.00     0.031 A 
ATOM     13  C   UNL     1       6.160  -4.933   3.290  1.00  0.00     0.074 A 
ATOM     14  C   UNL     1       5.753  -3.022   4.832  1.00  0.00     0.049 A 
ATOM     15  N   UNL     1       7.070  -5.606   3.935  1.00  0.00    -0.248 NA
ATOM     16  C   UNL     1       5.836  -5.474   1.958  1.00  0.00     0.031 C 
ATOM     17  C   UNL     1       5.168  -1.738   5.238  1.00  0.00     0.029 A 
ATOM     18  N   UNL     1       6.667  -3.294   5.811  1.00  0.00    -0.354 N 
ATOM     19  C   UNL     1       7.403  -6.669   3.108  1.00  0.00     0.074 A 
ATOM     20  C   UNL     1       6.603  -6.552   1.910  1.00  0.00     0.031 C 
ATOM     21  C   UNL     1       5.753  -1.327   6.373  1.00  0.00     0.029 A 
ATOM     22  C   UNL     1       6.695  -2.348   6.809  1.00  0.00     0.049 A 
ATOM     23  H   UNL     1       7.249  -4.088   5.803  1.00  0.00     0.167 HD
ATOM     24  C   UNL     1       8.302  -7.652   3.337  1.00  0.00     0.034 A 
ATOM     25  C   UNL     1       7.381  -2.338   7.967  1.00  0.00     0.034 A 
ATOM     26  C   UNL     1       9.079  -7.737   4.541  1.00  0.00     0.049 A 
ATOM     27  C   UNL     1       8.316  -3.486   8.225  1.00  0.00     0.074 A 
ATOM     28  C   UNL     1       9.965  -8.722   4.931  1.00  0.00     0.029 A 
ATOM     29  N   UNL     1       9.053  -6.790   5.558  1.00  0.00    -0.354 N 
ATOM     30  N   UNL     1       8.617  -4.496   7.442  1.00  0.00    -0.248 NA
ATOM     31  C   UNL     1       9.020  -3.490   9.512  1.00  0.00     0.031 C 
ATOM     32  C   UNL     1      10.456  -8.382   6.196  1.00  0.00     0.029 A 
ATOM     33  C   UNL     1       9.905  -7.167   6.578  1.00  0.00     0.049 A 
ATOM     34  H   UNL     1       8.507  -5.971   5.553  1.00  0.00     0.167 HD
ATOM     35  C   UNL     1       9.556  -5.247   8.132  1.00  0.00     0.074 A 
ATOM     36  C   UNL     1       9.804  -4.551   9.381  1.00  0.00     0.031 C 
ATOM     37  C   UNL     1      10.147  -6.418   7.786  1.00  0.00     0.034 A 
BRANCH  24  38
ATOM     38  C   UNL     1       8.446  -8.710   2.280  1.00  0.00     0.023 A 
ATOM     39  C   UNL     1       9.102  -8.414   1.067  1.00  0.00     0.012 A 
ATOM     40  C   UNL     1       7.913  -9.997   2.482  1.00  0.00     0.148 A 
ATOM     41  C   UNL     1       9.196  -9.374   0.059  1.00  0.00     0.002 A 
ATOM     42  C   UNL     1       8.047 -10.961   1.490  1.00  0.00     0.091 A 
ATOM     43  F   UNL     1       7.267 -10.246   3.630  1.00  0.00    -0.205 F 
ATOM     44  C   UNL     1       8.676 -10.648   0.274  1.00  0.00     0.022 A 
BRANCH  42  45
ATOM     45  S   UNL     1       7.458 -12.645   1.688  1.00  0.00     0.127 S 
ATOM     46  O   UNL     1       6.417 -12.716   0.663  1.00  0.00    -0.237 OA
ATOM     47  O   UNL     1       8.661 -13.423   1.392  1.00  0.00    -0.237 OA
ATOM     48  O   UNL     1       6.983 -12.750   3.061  1.00  0.00    -0.744 OA
ENDBRANCH  42  45
ENDBRANCH  24  38
BRANCH  25  49
ATOM     49  C   UNL     1       7.173  -1.249   8.964  1.00  0.00     0.023 A 
ATOM     50  C   UNL     1       8.233  -0.394   9.319  1.00  0.00     0.012 A 
ATOM     51  C   UNL     1       5.913  -1.061   9.571  1.00  0.00     0.148 A 
ATOM     52  C   UNL     1       8.054   0.597  10.287  1.00  0.00     0.002 A 
ATOM     53  C   UNL     1       5.725  -0.034  10.487  1.00  0.00     0.091 A 
ATOM     54  F   UNL     1       4.917  -1.897   9.242  1.00  0.00    -0.205 F 
ATOM     55  C   UNL     1       6.799   0.784  10.863  1.00  0.00     0.022 A 
BRANCH  53  56
ATOM     56  S   UNL     1       4.109   0.349  11.171  1.00  0.00     0.127 S 
ATOM     57  O   UNL     1       4.228  -0.175  12.529  1.00  0.00    -0.237 OA
ATOM     58  O   UNL     1       4.073   1.809  11.075  1.00  0.00    -0.237 OA
ATOM     59  O   UNL     1       3.150  -0.329  10.309  1.00  0.00    -0.744 OA
ENDBRANCH  53  56
ENDBRANCH  25  49
BRANCH  37  60
ATOM     60  C   UNL     1      11.134  -6.992   8.763  1.00  0.00     0.023 A 
ATOM     61  C   UNL     1      10.679  -7.554   9.972  1.00  0.00     0.012 A 
ATOM     62  C   UNL     1      12.505  -7.026   8.451  1.00  0.00     0.148 A 
ATOM     63  C   UNL     1      11.583  -8.104  10.877  1.00  0.00     0.002 A 
ATOM     64  C   UNL     1      13.393  -7.628   9.331  1.00  0.00     0.091 A 
ATOM     65  F   UNL     1      12.916  -6.466   7.303  1.00  0.00    -0.205 F 
ATOM     66  C   UNL     1      12.937  -8.153  10.551  1.00  0.00     0.022 A 
BRANCH  64  67
ATOM     67  S   UNL     1      15.133  -7.832   8.941  1.00  0.00     0.127 S 
ATOM     68  O   UNL     1      15.751  -6.829   9.806  1.00  0.00    -0.237 OA
ATOM     69  O   UNL     1      15.379  -9.218   9.339  1.00  0.00    -0.237 OA
ATOM     70  O   UNL     1      15.253  -7.586   7.510  1.00  0.00    -0.744 OA
ENDBRANCH  64  67
ENDBRANCH  37  60
ENDBRANCH  11  12
ENDBRANCH   4   6
ENDBRANCH   3   4
ENDBRANCH   2   3
ENDBRANCH   1   2
BRANCH   1  71
ATOM     71  O   UNL     1       4.168   1.727   0.457  1.00  0.00    -0.374 OA
BRANCH  71  72
ATOM     72  C   UNL     1       2.789   1.917   0.801  1.00  0.00     0.202 C 
BRANCH  72  73
ATOM     73  C   UNL     1       2.653   3.062   1.813  1.00  0.00     0.261 C 
BRANCH  73  74
ATOM     74  O   UNL     1       2.997   4.284   1.147  1.00  0.00    -0.463 OA
BRANCH  74  75
ATOM     75  C   UNL     1       4.343   4.471   1.008  1.00  0.00     0.312 C 
ATOM     76  O   UNL     1       5.159   4.249   1.899  1.00  0.00    -0.252 OA
BRANCH  75  77
ATOM     77  C   UNL     1       4.651   4.881  -0.428  1.00  0.00     0.138 C 
ATOM     78  C   UNL     1       4.635   6.366  -0.742  1.00  0.00     0.135 C 
ATOM     79  C   UNL     1       6.092   4.889  -0.953  1.00  0.00     0.135 C 
ATOM     80  N   UNL     1       5.745   6.114  -1.598  1.00  0.00    -0.353 N 
BRANCH  80  81
ATOM     81  C   UNL     1       6.543   7.071  -2.215  1.00  0.00     0.147 A 
ATOM     82  C   UNL     1       7.402   6.742  -3.263  1.00  0.00     0.157 A 
ATOM     83  N   UNL     1       6.389   8.362  -1.840  1.00  0.00    -0.236 NA
ATOM     84  N   UNL     1       8.106   7.663  -3.973  1.00  0.00    -0.259 NA
ATOM     85  C   UNL     1       7.109   9.279  -2.516  1.00  0.00     0.133 A 
ATOM     86  C   UNL     1       7.935   8.940  -3.570  1.00  0.00     0.131 A 
ENDBRANCH  80  81
ENDBRANCH  75  77
ENDBRANCH  74  75
ENDBRANCH  73  74
ENDBRANCH  72  73
ENDBRANCH  71  72
ENDBRANCH   1  71
TORSDOF 18
