REMARK SMILES N#Cc1ccc(C(=O)N2CCC(Oc3ccccc3)(C(=O)OCCOCCOC(=O)c3ccc(-c4c5nc(c(-c6cccc(S(=O)(=O)[O-])c6F)c6ccc([nH]6)c(-c6cccc(S(=O)(=O)[O-])c6F)c6nc(c(-c7cccc(S(=O)(=O)[O-])c7F)c7ccc4[nH]7)C=C6)C=C5)cc3)CC2)cc1
REMARK SMILES IDX 26 1 25 2 24 3 23 4 22 5 20 6 21 7 12 8 7 9 8 10 9 11 10 12
REMARK SMILES IDX 95 13 11 14 94 15 6 16 3 17 4 18 97 19 5 20 96 21 2 22 1 23
REMARK SMILES IDX 13 24 14 25 15 26 19 27 16 28 18 29 17 30 27 31 28 32 29 33
REMARK SMILES IDX 30 34 31 35 32 36 93 37 33 38 92 39 34 40 35 41 36 42 86 43
REMARK SMILES IDX 37 44 91 45 85 46 87 47 38 48 90 49 84 50 83 51 39 53 71 54
REMARK SMILES IDX 51 55 70 56 52 57 55 58 69 59 88 60 53 61 54 62 68 64 89 65
REMARK SMILES IDX 56 66 40 67 41 68 49 69 42 70 44 71 50 72 43 73 45 74 46 75
REMARK SMILES IDX 47 76 48 77 72 78 73 79 81 80 74 81 76 82 82 83 75 84 77 85
REMARK SMILES IDX 78 86 79 87 80 88 57 89 58 90 66 91 59 92 61 93 67 94 60 95
REMARK SMILES IDX 62 96 63 97 64 98 65 99
REMARK H PARENT 87 52 55 63
REMARK Flexibility Score: inf
ROOT
ATOM      1  C   UNL     1       3.066  -5.106   0.700  1.00  0.00     0.202 C 
ENDROOT
BRANCH   1   2
ATOM      2  O   UNL     1       3.140  -6.519   0.713  1.00  0.00    -0.374 OA
BRANCH   2   3
ATOM      3  C   UNL     1       4.352  -7.140   1.123  1.00  0.00     0.202 C 
BRANCH   3   4
ATOM      4  C   UNL     1       5.691  -6.749   0.484  1.00  0.00     0.261 C 
BRANCH   4   5
ATOM      5  O   UNL     1       6.035  -5.354   0.602  1.00  0.00    -0.460 OA
BRANCH   5   6
ATOM      6  C   UNL     1       6.079  -4.651  -0.566  1.00  0.00     0.350 C 
ATOM      7  O   UNL     1       5.697  -5.111  -1.641  1.00  0.00    -0.247 OA
BRANCH   6   8
ATOM      8  C   UNL     1       6.671  -3.226  -0.425  1.00  0.00     0.209 C 
ATOM      9  C   UNL     1       3.809  -0.017   0.246  1.00  0.00     0.253 C 
ATOM     10  O   UNL     1       4.276   1.001   0.755  1.00  0.00    -0.269 OA
ATOM     11  N   UNL     1       4.566  -1.184   0.094  1.00  0.00    -0.338 N 
ATOM     12  C   UNL     1       5.546  -1.438   1.134  1.00  0.00     0.124 C 
ATOM     13  C   UNL     1       4.595  -1.958  -1.139  1.00  0.00     0.124 C 
ATOM     14  C   UNL     1       6.511  -2.609   0.975  1.00  0.00     0.082 C 
ATOM     15  C   UNL     1       6.021  -2.352  -1.522  1.00  0.00     0.082 C 
BRANCH   9  16
ATOM     16  C   UNL     1       2.343  -0.039  -0.036  1.00  0.00     0.040 A 
ATOM     17  C   UNL     1      -0.472   0.036  -0.113  1.00  0.00     0.052 A 
ATOM     18  C   UNL     1       0.262   1.225  -0.147  1.00  0.00     0.020 A 
ATOM     19  C   UNL     1       0.202  -1.188  -0.051  1.00  0.00     0.020 A 
ATOM     20  C   UNL     1       1.661   1.187  -0.108  1.00  0.00     0.015 A 
ATOM     21  C   UNL     1       1.601  -1.224  -0.006  1.00  0.00     0.015 A 
BRANCH  17  22
ATOM     22  C   UNL     1      -1.904   0.072  -0.109  1.00  0.00     0.099 C 
ATOM     23  N   UNL     1      -3.067   0.103  -0.110  1.00  0.00    -0.192 NA
ENDBRANCH  17  22
ENDBRANCH   9  16
BRANCH   8  24
ATOM     24  O   UNL     1       8.059  -3.608  -0.675  1.00  0.00    -0.475 OA
BRANCH  24  25
ATOM     25  C   UNL     1       8.921  -2.624  -1.056  1.00  0.00     0.121 A 
ATOM     26  C   UNL     1       9.278  -2.539  -2.400  1.00  0.00     0.046 A 
ATOM     27  C   UNL     1       9.553  -1.814  -0.117  1.00  0.00     0.046 A 
ATOM     28  C   UNL     1      10.195  -1.570  -2.812  1.00  0.00     0.004 A 
ATOM     29  C   UNL     1      10.441  -0.824  -0.530  1.00  0.00     0.004 A 
ATOM     30  C   UNL     1      10.755  -0.696  -1.880  1.00  0.00     0.000 A 
ENDBRANCH  24  25
ENDBRANCH   8  24
ENDBRANCH   6   8
ENDBRANCH   5   6
ENDBRANCH   4   5
ENDBRANCH   3   4
ENDBRANCH   2   3
ENDBRANCH   1   2
BRANCH   1  31
ATOM     31  C   UNL     1       3.268  -4.297   1.991  1.00  0.00     0.261 C 
BRANCH  31  32
ATOM     32  O   UNL     1       4.157  -4.858   2.957  1.00  0.00    -0.460 OA
BRANCH  32  33
ATOM     33  C   UNL     1       3.514  -5.467   3.984  1.00  0.00     0.338 C 
ATOM     34  O   UNL     1       2.309  -5.516   4.167  1.00  0.00    -0.246 OA
BRANCH  33  35
ATOM     35  C   UNL     1       4.465  -6.240   4.795  1.00  0.00     0.060 A 
ATOM     36  C   UNL     1       4.319  -7.631   4.778  1.00  0.00     0.016 A 
ATOM     37  C   UNL     1       5.397  -5.626   5.633  1.00  0.00     0.016 A 
ATOM     38  C   UNL     1       5.073  -8.414   5.640  1.00  0.00     0.010 A 
ATOM     39  C   UNL     1       6.153  -6.419   6.505  1.00  0.00     0.010 A 
ATOM     40  C   UNL     1       5.963  -7.812   6.540  1.00  0.00    -0.014 A 
BRANCH  40  41
ATOM     41  C   UNL     1       6.590  -8.671   7.572  1.00  0.00     0.031 A 
ATOM     42  C   UNL     1       6.091  -8.624   8.990  1.00  0.00     0.074 A 
ATOM     43  C   UNL     1       7.526  -9.566   7.211  1.00  0.00     0.049 A 
ATOM     44  N   UNL     1       6.407  -9.390  10.001  1.00  0.00    -0.248 NA
ATOM     45  C   UNL     1       5.105  -7.581   9.311  1.00  0.00     0.031 C 
ATOM     46  C   UNL     1       8.077  -9.708   5.864  1.00  0.00     0.029 A 
ATOM     47  N   UNL     1       8.165 -10.534   7.941  1.00  0.00    -0.354 N 
ATOM     48  C   UNL     1       5.678  -8.912  11.084  1.00  0.00     0.074 A 
ATOM     49  C   UNL     1       4.923  -7.772  10.609  1.00  0.00     0.031 C 
ATOM     50  C   UNL     1       8.962 -10.717   5.859  1.00  0.00     0.029 A 
ATOM     51  C   UNL     1       9.063 -11.269   7.207  1.00  0.00     0.049 A 
ATOM     52  H   UNL     1       7.997 -10.687   8.899  1.00  0.00     0.167 HD
ATOM     53  C   UNL     1       5.630  -9.385  12.353  1.00  0.00     0.034 A 
ATOM     54  C   UNL     1       9.882 -12.270   7.582  1.00  0.00     0.034 A 
ATOM     55  C   UNL     1       6.392 -10.517  12.817  1.00  0.00     0.049 A 
ATOM     56  C   UNL     1       9.835 -12.755   9.004  1.00  0.00     0.074 A 
ATOM     57  C   UNL     1       6.394 -11.097  14.073  1.00  0.00     0.029 A 
ATOM     58  N   UNL     1       7.308 -11.224  12.052  1.00  0.00    -0.354 N 
ATOM     59  N   UNL     1       9.070 -12.355   9.991  1.00  0.00    -0.248 NA
ATOM     60  C   UNL     1      10.740 -13.858   9.351  1.00  0.00     0.031 C 
ATOM     61  C   UNL     1       7.352 -12.118  14.082  1.00  0.00     0.029 A 
ATOM     62  C   UNL     1       7.898 -12.221  12.813  1.00  0.00     0.049 A 
ATOM     63  H   UNL     1       7.509 -11.045  11.105  1.00  0.00     0.167 HD
ATOM     64  C   UNL     1       9.374 -13.181  11.067  1.00  0.00     0.074 A 
ATOM     65  C   UNL     1      10.373 -14.121  10.596  1.00  0.00     0.031 C 
ATOM     66  C   UNL     1       8.879 -13.161  12.330  1.00  0.00     0.034 A 
BRANCH  53  67
ATOM     67  C   UNL     1       4.731  -8.667  13.331  1.00  0.00     0.023 A 
ATOM     68  C   UNL     1       3.330  -8.716  13.176  1.00  0.00     0.012 A 
ATOM     69  C   UNL     1       5.277  -7.959  14.420  1.00  0.00     0.148 A 
ATOM     70  C   UNL     1       2.491  -8.030  14.056  1.00  0.00     0.002 A 
ATOM     71  C   UNL     1       4.434  -7.324  15.323  1.00  0.00     0.091 A 
ATOM     72  F   UNL     1       6.611  -7.907  14.545  1.00  0.00    -0.205 F 
ATOM     73  C   UNL     1       3.042  -7.342  15.133  1.00  0.00     0.022 A 
BRANCH  71  74
ATOM     74  S   UNL     1       5.041  -6.481  16.788  1.00  0.00     0.127 S 
ATOM     75  O   UNL     1       4.750  -5.084  16.466  1.00  0.00    -0.237 OA
ATOM     76  O   UNL     1       4.199  -7.051  17.840  1.00  0.00    -0.237 OA
ATOM     77  O   UNL     1       6.454  -6.816  16.890  1.00  0.00    -0.744 OA
ENDBRANCH  71  74
ENDBRANCH  53  67
BRANCH  54  78
ATOM     78  C   UNL     1      10.789 -12.899   6.583  1.00  0.00     0.023 A 
ATOM     79  C   UNL     1      10.575 -14.231   6.179  1.00  0.00     0.012 A 
ATOM     80  C   UNL     1      11.851 -12.170   6.015  1.00  0.00     0.148 A 
ATOM     81  C   UNL     1      11.423 -14.835   5.250  1.00  0.00     0.002 A 
ATOM     82  C   UNL     1      12.654 -12.757   5.047  1.00  0.00     0.091 A 
ATOM     83  F   UNL     1      12.039 -10.906   6.422  1.00  0.00    -0.205 F 
ATOM     84  C   UNL     1      12.455 -14.095   4.676  1.00  0.00     0.022 A 
BRANCH  82  85
ATOM     85  S   UNL     1      13.922 -11.843   4.165  1.00  0.00     0.127 S 
ATOM     86  O   UNL     1      15.138 -12.532   4.591  1.00  0.00    -0.237 OA
ATOM     87  O   UNL     1      13.538 -12.072   2.772  1.00  0.00    -0.237 OA
ATOM     88  O   UNL     1      13.797 -10.461   4.606  1.00  0.00    -0.744 OA
ENDBRANCH  82  85
ENDBRANCH  54  78
BRANCH  66  89
ATOM     89  C   UNL     1       9.380 -14.222  13.281  1.00  0.00     0.023 A 
ATOM     90  C   UNL     1      10.726 -14.224  13.704  1.00  0.00     0.012 A 
ATOM     91  C   UNL     1       8.508 -15.219  13.761  1.00  0.00     0.148 A 
ATOM     92  C   UNL     1      11.210 -15.241  14.527  1.00  0.00     0.002 A 
ATOM     93  C   UNL     1       8.982 -16.192  14.633  1.00  0.00     0.091 A 
ATOM     94  F   UNL     1       7.234 -15.212  13.342  1.00  0.00    -0.205 F 
ATOM     95  C   UNL     1      10.338 -16.219  14.997  1.00  0.00     0.022 A 
BRANCH  93  96
ATOM     96  S   UNL     1       7.909 -17.429  15.369  1.00  0.00     0.127 S 
ATOM     97  O   UNL     1       8.322 -18.640  14.661  1.00  0.00    -0.237 OA
ATOM     98  O   UNL     1       8.305 -17.381  16.777  1.00  0.00    -0.237 OA
ATOM     99  O   UNL     1       6.546 -16.985  15.109  1.00  0.00    -0.744 OA
ENDBRANCH  93  96
ENDBRANCH  66  89
ENDBRANCH  40  41
ENDBRANCH  33  35
ENDBRANCH  32  33
ENDBRANCH  31  32
ENDBRANCH   1  31
TORSDOF 21
