REMARK SMILES O=C(Cc1ccc(CBr)cc1)OCCOCCOC(=O)c1ccc(-c2c3nc(c(-c4cccc(S(=O)(=O)[O-])c4F)c4ccc([nH]4)c(-c4cccc(S(=O)(=O)[O-])c4F)c4nc(c(-c5cccc(S(=O)(=O)[O-])c5F)c5ccc2[nH]5)C=C4)C=C3)cc1
REMARK SMILES IDX 16 1 15 2 14 3 13 4 12 5 2 6 1 7 3 8 4 9 5 10 11 11 6 12
REMARK SMILES IDX 10 13 7 14 8 15 9 16 17 17 18 18 19 19 20 20 21 21 22 22
REMARK SMILES IDX 83 23 23 24 82 25 24 26 25 27 26 28 76 29 27 30 81 31 75 32
REMARK SMILES IDX 77 33 28 34 80 35 74 36 73 37 29 39 61 40 41 41 60 42 42 43
REMARK SMILES IDX 45 44 59 45 78 46 43 47 44 48 58 50 79 51 46 52 30 53 31 54
REMARK SMILES IDX 39 55 32 56 34 57 40 58 33 59 35 60 36 61 37 62 38 63 62 64
REMARK SMILES IDX 63 65 71 66 64 67 66 68 72 69 65 70 67 71 68 72 69 73 70 74
REMARK SMILES IDX 47 75 48 76 56 77 49 78 51 79 57 80 50 81 52 82 53 83 54 84
REMARK SMILES IDX 55 85
REMARK H PARENT 77 38 45 49
REMARK Flexibility Score: inf
ROOT
ATOM      1  C   UNL     1       2.864  -2.402  -0.255  1.00  0.00     0.202 C 
ENDROOT
BRANCH   1   2
ATOM      2  O   UNL     1       4.099  -1.702  -0.459  1.00  0.00    -0.374 OA
BRANCH   2   3
ATOM      3  C   UNL     1       4.545  -0.901   0.634  1.00  0.00     0.202 C 
BRANCH   3   4
ATOM      4  C   UNL     1       3.981   0.514   0.743  1.00  0.00     0.261 C 
BRANCH   4   5
ATOM      5  O   UNL     1       2.555   0.595   0.587  1.00  0.00    -0.463 OA
BRANCH   5   6
ATOM      6  C   UNL     1       1.882   0.693  -0.581  1.00  0.00     0.310 C 
ATOM      7  O   UNL     1       0.649   0.713  -0.563  1.00  0.00    -0.252 OA
BRANCH   6   8
ATOM      8  C   UNL     1       2.612   0.684  -1.908  1.00  0.00     0.158 C 
BRANCH   8   9
ATOM      9  C   UNL     1       3.647   1.758  -2.090  1.00  0.00    -0.037 A 
ATOM     10  C   UNL     1       4.981   1.419  -2.358  1.00  0.00     0.004 A 
ATOM     11  C   UNL     1       3.300   3.100  -1.905  1.00  0.00     0.004 A 
ATOM     12  C   UNL     1       5.966   2.405  -2.360  1.00  0.00     0.005 A 
ATOM     13  C   UNL     1       4.285   4.084  -1.917  1.00  0.00     0.005 A 
ATOM     14  C   UNL     1       5.629   3.747  -2.126  1.00  0.00    -0.037 A 
BRANCH  14  15
ATOM     15  C   UNL     1       6.687   4.807  -2.081  1.00  0.00     0.116 C 
ATOM     16  Br  UNL     1       7.695   4.669  -0.425  1.00  0.00    -0.088 Br
ENDBRANCH  14  15
ENDBRANCH   8   9
ENDBRANCH   6   8
ENDBRANCH   5   6
ENDBRANCH   4   5
ENDBRANCH   3   4
ENDBRANCH   2   3
ENDBRANCH   1   2
BRANCH   1  17
ATOM     17  C   UNL     1       2.942  -3.728   0.510  1.00  0.00     0.261 C 
BRANCH  17  18
ATOM     18  O   UNL     1       3.328  -3.532   1.877  1.00  0.00    -0.460 OA
BRANCH  18  19
ATOM     19  C   UNL     1       4.637  -3.762   2.135  1.00  0.00     0.338 C 
ATOM     20  O   UNL     1       5.470  -4.218   1.365  1.00  0.00    -0.246 OA
BRANCH  19  21
ATOM     21  C   UNL     1       4.982  -3.169   3.441  1.00  0.00     0.060 A 
ATOM     22  C   UNL     1       6.176  -2.439   3.524  1.00  0.00     0.016 A 
ATOM     23  C   UNL     1       4.162  -3.324   4.561  1.00  0.00     0.016 A 
ATOM     24  C   UNL     1       6.595  -1.927   4.747  1.00  0.00     0.010 A 
ATOM     25  C   UNL     1       4.584  -2.813   5.788  1.00  0.00     0.010 A 
ATOM     26  C   UNL     1       5.826  -2.160   5.893  1.00  0.00    -0.014 A 
BRANCH  26  27
ATOM     27  C   UNL     1       6.407  -1.894   7.226  1.00  0.00     0.031 A 
ATOM     28  C   UNL     1       6.928  -3.059   8.022  1.00  0.00     0.074 A 
ATOM     29  C   UNL     1       6.465  -0.644   7.714  1.00  0.00     0.049 A 
ATOM     30  N   UNL     1       7.432  -3.080   9.226  1.00  0.00    -0.248 NA
ATOM     31  C   UNL     1       6.865  -4.381   7.374  1.00  0.00     0.031 C 
ATOM     32  C   UNL     1       5.993   0.555   7.025  1.00  0.00     0.029 A 
ATOM     33  N   UNL     1       6.924  -0.183   8.921  1.00  0.00    -0.354 N 
ATOM     34  C   UNL     1       7.708  -4.415   9.496  1.00  0.00     0.074 A 
ATOM     35  C   UNL     1       7.306  -5.177   8.336  1.00  0.00     0.031 C 
ATOM     36  C   UNL     1       6.156   1.615   7.835  1.00  0.00     0.029 A 
ATOM     37  C   UNL     1       6.716   1.162   9.107  1.00  0.00     0.049 A 
ATOM     38  H   UNL     1       7.359  -0.760   9.590  1.00  0.00     0.167 HD
ATOM     39  C   UNL     1       8.257  -4.955  10.608  1.00  0.00     0.034 A 
ATOM     40  C   UNL     1       6.926   1.931  10.193  1.00  0.00     0.034 A 
ATOM     41  C   UNL     1       8.668  -4.184  11.749  1.00  0.00     0.049 A 
ATOM     42  C   UNL     1       7.524   1.303  11.425  1.00  0.00     0.074 A 
ATOM     43  C   UNL     1       9.286  -4.622  12.906  1.00  0.00     0.029 A 
ATOM     44  N   UNL     1       8.487  -2.816  11.884  1.00  0.00    -0.354 N 
ATOM     45  N   UNL     1       7.883   0.058  11.626  1.00  0.00    -0.248 NA
ATOM     46  C   UNL     1       7.778   2.193  12.566  1.00  0.00     0.031 C 
ATOM     47  C   UNL     1       9.440  -3.525  13.759  1.00  0.00     0.029 A 
ATOM     48  C   UNL     1       8.965  -2.395  13.112  1.00  0.00     0.049 A 
ATOM     49  H   UNL     1       8.079  -2.231  11.206  1.00  0.00     0.167 HD
ATOM     50  C   UNL     1       8.441   0.022  12.900  1.00  0.00     0.074 A 
ATOM     51  C   UNL     1       8.388   1.375  13.414  1.00  0.00     0.031 C 
ATOM     52  C   UNL     1       8.944  -1.034  13.587  1.00  0.00     0.034 A 
BRANCH  39  53
ATOM     53  C   UNL     1       8.451  -6.448  10.643  1.00  0.00     0.023 A 
ATOM     54  C   UNL     1       9.434  -7.051   9.832  1.00  0.00     0.012 A 
ATOM     55  C   UNL     1       7.693  -7.248  11.520  1.00  0.00     0.148 A 
ATOM     56  C   UNL     1       9.637  -8.431   9.870  1.00  0.00     0.002 A 
ATOM     57  C   UNL     1       7.936  -8.615  11.589  1.00  0.00     0.091 A 
ATOM     58  F   UNL     1       6.747  -6.660  12.265  1.00  0.00    -0.205 F 
ATOM     59  C   UNL     1       8.897  -9.209  10.755  1.00  0.00     0.022 A 
BRANCH  57  60
ATOM     60  S   UNL     1       7.094  -9.691  12.754  1.00  0.00     0.127 S 
ATOM     61  O   UNL     1       6.285 -10.519  11.860  1.00  0.00    -0.237 OA
ATOM     62  O   UNL     1       8.213 -10.391  13.386  1.00  0.00    -0.237 OA
ATOM     63  O   UNL     1       6.342  -8.816  13.642  1.00  0.00    -0.744 OA
ENDBRANCH  57  60
ENDBRANCH  39  53
BRANCH  40  64
ATOM     64  C   UNL     1       6.588   3.381  10.156  1.00  0.00     0.023 A 
ATOM     65  C   UNL     1       7.617   4.340  10.188  1.00  0.00     0.012 A 
ATOM     66  C   UNL     1       5.249   3.812  10.069  1.00  0.00     0.148 A 
ATOM     67  C   UNL     1       7.319   5.703  10.168  1.00  0.00     0.002 A 
ATOM     68  C   UNL     1       4.962   5.169   9.992  1.00  0.00     0.091 A 
ATOM     69  F   UNL     1       4.283   2.882  10.052  1.00  0.00    -0.205 F 
ATOM     70  C   UNL     1       5.994   6.117  10.059  1.00  0.00     0.022 A 
BRANCH  68  71
ATOM     71  S   UNL     1       3.299   5.790   9.724  1.00  0.00     0.127 S 
ATOM     72  O   UNL     1       3.019   6.453  10.995  1.00  0.00    -0.237 OA
ATOM     73  O   UNL     1       3.495   6.690   8.588  1.00  0.00    -0.237 OA
ATOM     74  O   UNL     1       2.482   4.619   9.430  1.00  0.00    -0.744 OA
ENDBRANCH  68  71
ENDBRANCH  40  64
BRANCH  52  75
ATOM     75  C   UNL     1       9.526  -0.767  14.951  1.00  0.00     0.023 A 
ATOM     76  C   UNL     1       8.681  -0.448  16.032  1.00  0.00     0.012 A 
ATOM     77  C   UNL     1      10.911  -0.906  15.172  1.00  0.00     0.148 A 
ATOM     78  C   UNL     1       9.211  -0.231  17.303  1.00  0.00     0.002 A 
ATOM     79  C   UNL     1      11.424  -0.744  16.452  1.00  0.00     0.091 A 
ATOM     80  F   UNL     1      11.700  -1.197  14.127  1.00  0.00    -0.205 F 
ATOM     81  C   UNL     1      10.579  -0.391  17.516  1.00  0.00     0.022 A 
BRANCH  79  82
ATOM     82  S   UNL     1      13.154  -1.031  16.840  1.00  0.00     0.127 S 
ATOM     83  O   UNL     1      13.629   0.327  17.103  1.00  0.00    -0.237 OA
ATOM     84  O   UNL     1      13.068  -1.887  18.023  1.00  0.00    -0.237 OA
ATOM     85  O   UNL     1      13.729  -1.675  15.667  1.00  0.00    -0.744 OA
ENDBRANCH  79  82
ENDBRANCH  52  75
ENDBRANCH  26  27
ENDBRANCH  19  21
ENDBRANCH  18  19
ENDBRANCH  17  18
ENDBRANCH   1  17
TORSDOF 19
