REMARK SMILES C[C@@H]1CN(C(=O)C[NH+]2CCC(CC(=O)OCCOCCOC(=O)c3ccc(-c4c5nc(c(-c6cccc(S(=O)(=O)[O-])c6F)c6ccc([nH]6)c(-c6cccc(S(=O)(=O)[O-])c6F)c6nc(c(-c7cccc(S(=O)(=O)[O-])c7F)c7ccc4[nH]7)C=C6)C=C5)cc3)CC2)C[C@@H](C)O1
REMARK SMILES IDX 18 1 17 2 16 3 15 4 13 5 14 6 12 7 11 8 8 9 9 10 88 11 10 13
REMARK SMILES IDX 87 14 7 15 5 16 1 17 2 18 3 19 92 20 4 21 90 22 89 23 91 24
REMARK SMILES IDX 6 25 19 26 20 27 21 28 22 29 23 30 24 31 25 32 86 33 26 34
REMARK SMILES IDX 85 35 27 36 28 37 29 38 79 39 30 40 84 41 78 42 80 43 31 44
REMARK SMILES IDX 83 45 77 46 76 47 32 49 64 50 44 51 63 52 45 53 48 54 62 55
REMARK SMILES IDX 81 56 46 57 47 58 61 60 82 61 49 62 33 63 34 64 42 65 35 66
REMARK SMILES IDX 37 67 43 68 36 69 38 70 39 71 40 72 41 73 65 74 66 75 74 76
REMARK SMILES IDX 67 77 69 78 75 79 68 80 70 81 71 82 72 83 73 84 50 85 51 86
REMARK SMILES IDX 59 87 52 88 54 89 60 90 53 91 55 92 56 93 57 94 58 95
REMARK H PARENT 8 12 80 48 48 59
REMARK Flexibility Score: inf
ROOT
ATOM      1  O   UNL     1       1.901   3.778  -1.465  1.00  0.00    -0.374 OA
ENDROOT
BRANCH   1   2
ATOM      2  C   UNL     1       0.878   3.590  -0.483  1.00  0.00     0.202 C 
BRANCH   2   3
ATOM      3  C   UNL     1      -0.522   3.489  -1.095  1.00  0.00     0.261 C 
BRANCH   3   4
ATOM      4  O   UNL     1      -0.775   2.179  -1.641  1.00  0.00    -0.463 OA
BRANCH   4   5
ATOM      5  C   UNL     1      -0.708   2.037  -2.992  1.00  0.00     0.306 C 
ATOM      6  O   UNL     1      -0.405   2.917  -3.785  1.00  0.00    -0.252 OA
BRANCH   5   7
ATOM      7  C   UNL     1      -1.123   0.640  -3.412  1.00  0.00     0.126 C 
BRANCH   7   8
ATOM      8  C   UNL     1      -0.136  -0.501  -3.090  1.00  0.00     0.011 C 
ATOM      9  N   UNL     1       0.297  -3.087  -1.621  1.00  0.00    -0.327 N 
ATOM     10  C   UNL     1      -0.025  -3.084  -3.045  1.00  0.00     0.262 C 
ATOM     11  C   UNL     1       0.944  -1.854  -1.212  1.00  0.00     0.262 C 
ATOM     12  H   UNL     1       0.993  -3.825  -1.518  1.00  0.00     0.348 HD
ATOM     13  C   UNL     1      -0.726  -1.833  -3.590  1.00  0.00     0.066 C 
ATOM     14  C   UNL     1       0.163  -0.602  -1.598  1.00  0.00     0.066 C 
BRANCH   9  15
ATOM     15  C   UNL     1      -0.738  -3.605  -0.696  1.00  0.00     0.363 C 
BRANCH  15  16
ATOM     16  C   UNL     1      -1.887  -2.639  -0.370  1.00  0.00     0.277 C 
ATOM     17  C   UNL     1       0.649  -0.063   1.881  1.00  0.00     0.040 C 
ATOM     18  C   UNL     1      -0.530  -0.703   2.592  1.00  0.00     0.135 C 
ATOM     19  C   UNL     1      -0.957  -2.054   1.959  1.00  0.00     0.151 C 
ATOM     20  O   UNL     1      -1.594   0.260   2.681  1.00  0.00    -0.372 OA
ATOM     21  N   UNL     1      -1.866  -1.901   0.810  1.00  0.00    -0.333 N 
ATOM     22  C   UNL     1      -2.299   0.425   1.443  1.00  0.00     0.135 C 
ATOM     23  C   UNL     1      -2.930  -0.914   1.047  1.00  0.00     0.151 C 
ATOM     24  C   UNL     1      -3.322   1.539   1.605  1.00  0.00     0.040 C 
ATOM     25  O   UNL     1      -2.797  -2.495  -1.196  1.00  0.00    -0.268 OA
ENDBRANCH  15  16
ENDBRANCH   9  15
ENDBRANCH   7   8
ENDBRANCH   5   7
ENDBRANCH   4   5
ENDBRANCH   3   4
ENDBRANCH   2   3
ENDBRANCH   1   2
BRANCH   1  26
ATOM     26  C   UNL     1       2.530   2.579  -1.910  1.00  0.00     0.202 C 
BRANCH  26  27
ATOM     27  C   UNL     1       3.790   2.217  -1.117  1.00  0.00     0.261 C 
BRANCH  27  28
ATOM     28  O   UNL     1       3.488   1.918   0.258  1.00  0.00    -0.460 OA
BRANCH  28  29
ATOM     29  C   UNL     1       3.768   2.908   1.143  1.00  0.00     0.338 C 
ATOM     30  O   UNL     1       4.292   3.984   0.903  1.00  0.00    -0.246 OA
BRANCH  29  31
ATOM     31  C   UNL     1       3.220   2.553   2.468  1.00  0.00     0.060 A 
ATOM     32  C   UNL     1       2.525   3.534   3.184  1.00  0.00     0.016 A 
ATOM     33  C   UNL     1       3.372   1.272   3.005  1.00  0.00     0.016 A 
ATOM     34  C   UNL     1       1.994   3.241   4.444  1.00  0.00     0.010 A 
ATOM     35  C   UNL     1       2.795   0.969   4.246  1.00  0.00     0.010 A 
ATOM     36  C   UNL     1       2.135   1.959   4.997  1.00  0.00    -0.014 A 
BRANCH  36  37
ATOM     37  C   UNL     1       1.747   1.703   6.415  1.00  0.00     0.031 A 
ATOM     38  C   UNL     1       2.830   1.383   7.418  1.00  0.00     0.074 A 
ATOM     39  C   UNL     1       0.464   1.758   6.829  1.00  0.00     0.049 A 
ATOM     40  N   UNL     1       2.729   1.134   8.699  1.00  0.00    -0.248 NA
ATOM     41  C   UNL     1       4.208   1.302   6.904  1.00  0.00     0.031 C 
ATOM     42  C   UNL     1      -0.701   1.994   5.976  1.00  0.00     0.029 A 
ATOM     43  N   UNL     1      -0.073   1.607   8.088  1.00  0.00    -0.354 N 
ATOM     44  C   UNL     1       4.015   0.822   9.125  1.00  0.00     0.074 A 
ATOM     45  C   UNL     1       4.869   0.860   7.961  1.00  0.00     0.031 C 
ATOM     46  C   UNL     1      -1.811   1.990   6.738  1.00  0.00     0.029 A 
ATOM     47  C   UNL     1      -1.443   1.737   8.130  1.00  0.00     0.049 A 
ATOM     48  H   UNL     1       0.473   1.423   8.886  1.00  0.00     0.167 HD
ATOM     49  C   UNL     1       4.469   0.576  10.376  1.00  0.00     0.034 A 
ATOM     50  C   UNL     1      -2.300   1.670   9.172  1.00  0.00     0.034 A 
ATOM     51  C   UNL     1       3.655   0.626  11.556  1.00  0.00     0.049 A 
ATOM     52  C   UNL     1      -1.763   1.453  10.568  1.00  0.00     0.074 A 
ATOM     53  C   UNL     1       4.046   0.480  12.875  1.00  0.00     0.029 A 
ATOM     54  N   UNL     1       2.289   0.849  11.563  1.00  0.00    -0.354 N 
ATOM     55  N   UNL     1      -0.522   1.317  10.966  1.00  0.00    -0.248 NA
ATOM     56  C   UNL     1      -2.747   1.420  11.664  1.00  0.00     0.031 C 
ATOM     57  C   UNL     1       2.910   0.609  13.682  1.00  0.00     0.029 A 
ATOM     58  C   UNL     1       1.818   0.846  12.863  1.00  0.00     0.049 A 
ATOM     59  H   UNL     1       1.735   0.988  10.761  1.00  0.00     0.167 HD
ATOM     60  C   UNL     1      -0.573   1.224  12.355  1.00  0.00     0.074 A 
ATOM     61  C   UNL     1      -1.965   1.339  12.732  1.00  0.00     0.031 C 
ATOM     62  C   UNL     1       0.441   1.039  13.236  1.00  0.00     0.034 A 
BRANCH  49  63
ATOM     63  C   UNL     1       5.940   0.302  10.532  1.00  0.00     0.023 A 
ATOM     64  C   UNL     1       6.863   1.357  10.373  1.00  0.00     0.012 A 
ATOM     65  C   UNL     1       6.407  -0.985  10.856  1.00  0.00     0.148 A 
ATOM     66  C   UNL     1       8.232   1.125  10.490  1.00  0.00     0.002 A 
ATOM     67  C   UNL     1       7.771  -1.198  11.017  1.00  0.00     0.091 A 
ATOM     68  F   UNL     1       5.515  -1.979  10.977  1.00  0.00    -0.205 F 
ATOM     69  C   UNL     1       8.684  -0.149  10.821  1.00  0.00     0.022 A 
BRANCH  67  70
ATOM     70  S   UNL     1       8.445  -2.784  11.519  1.00  0.00     0.127 S 
ATOM     71  O   UNL     1       9.042  -3.259  10.271  1.00  0.00    -0.237 OA
ATOM     72  O   UNL     1       9.411  -2.397  12.548  1.00  0.00    -0.237 OA
ATOM     73  O   UNL     1       7.316  -3.561  12.011  1.00  0.00    -0.744 OA
ENDBRANCH  67  70
ENDBRANCH  49  63
BRANCH  50  74
ATOM     74  C   UNL     1      -3.762   1.889   8.962  1.00  0.00     0.023 A 
ATOM     75  C   UNL     1      -4.364   3.061   9.464  1.00  0.00     0.012 A 
ATOM     76  C   UNL     1      -4.560   0.944   8.289  1.00  0.00     0.148 A 
ATOM     77  C   UNL     1      -5.738   3.270   9.335  1.00  0.00     0.002 A 
ATOM     78  C   UNL     1      -5.920   1.184   8.117  1.00  0.00     0.091 A 
ATOM     79  F   UNL     1      -3.977  -0.175   7.838  1.00  0.00    -0.205 F 
ATOM     80  C   UNL     1      -6.514   2.337   8.654  1.00  0.00     0.022 A 
BRANCH  78  81
ATOM     81  S   UNL     1      -6.976   0.093   7.156  1.00  0.00     0.127 S 
ATOM     82  O   UNL     1      -7.782  -0.539   8.197  1.00  0.00    -0.237 OA
ATOM     83  O   UNL     1      -7.699   1.042   6.308  1.00  0.00    -0.237 OA
ATOM     84  O   UNL     1      -6.071  -0.788   6.431  1.00  0.00    -0.744 OA
ENDBRANCH  78  81
ENDBRANCH  50  74
BRANCH  62  85
ATOM     85  C   UNL     1       0.110   0.989  14.706  1.00  0.00     0.023 A 
ATOM     86  C   UNL     1      -0.523  -0.149  15.241  1.00  0.00     0.012 A 
ATOM     87  C   UNL     1       0.520   2.023  15.572  1.00  0.00     0.148 A 
ATOM     88  C   UNL     1      -0.765  -0.248  16.611  1.00  0.00     0.002 A 
ATOM     89  C   UNL     1       0.317   1.898  16.942  1.00  0.00     0.091 A 
ATOM     90  F   UNL     1       1.106   3.107  15.043  1.00  0.00    -0.205 F 
ATOM     91  C   UNL     1      -0.334   0.768  17.462  1.00  0.00     0.022 A 
BRANCH  89  92
ATOM     92  S   UNL     1       0.930   3.111  18.117  1.00  0.00     0.127 S 
ATOM     93  O   UNL     1      -0.295   3.822  18.478  1.00  0.00    -0.237 OA
ATOM     94  O   UNL     1       1.480   2.268  19.180  1.00  0.00    -0.237 OA
ATOM     95  O   UNL     1       1.924   3.896  17.398  1.00  0.00    -0.744 OA
ENDBRANCH  89  92
ENDBRANCH  62  85
ENDBRANCH  36  37
ENDBRANCH  29  31
ENDBRANCH  28  29
ENDBRANCH  27  28
ENDBRANCH  26  27
ENDBRANCH   1  26
TORSDOF 20
