REMARK SMILES Cc1cc(Cl)ccc1Oc1cc(C)c(N)c(C(=O)OCCOCCOC(=O)c2ccc(-c3c4nc(c(-c5cccc(S(=O)(=O)[O-])c5F)c5ccc([nH]5)c(-c5cccc(S(=O)(=O)[O-])c5F)c5nc(c(-c6cccc(S(=O)(=O)[O-])c6F)c6ccc3[nH]6)C=C5)C=C4)cc2)c1
REMARK SMILES IDX 23 1 22 2 21 3 20 4 19 5 17 6 18 7 16 8 10 9 11 10 91 11
REMARK SMILES IDX 12 12 13 13 14 14 9 15 8 16 1 17 2 18 3 19 4 20 7 21 5 22
REMARK SMILES IDX 6 23 15 24 24 27 25 28 26 29 27 30 28 31 29 32 90 33 30 34
REMARK SMILES IDX 89 35 31 36 32 37 33 38 83 39 34 40 88 41 82 42 84 43 35 44
REMARK SMILES IDX 87 45 81 46 80 47 36 49 68 50 48 51 67 52 49 53 52 54 66 55
REMARK SMILES IDX 85 56 50 57 51 58 65 60 86 61 53 62 37 63 38 64 46 65 39 66
REMARK SMILES IDX 41 67 47 68 40 69 42 70 43 71 44 72 45 73 69 74 70 75 78 76
REMARK SMILES IDX 71 77 73 78 79 79 72 80 74 81 75 82 76 83 77 84 54 85 55 86
REMARK SMILES IDX 63 87 56 88 58 89 64 90 57 91 59 92 60 93 61 94 62 95
REMARK H PARENT 15 25 15 26 84 48 52 59
REMARK Flexibility Score: inf
ROOT
ATOM      1  C   UNL     1      -7.015   2.621   3.448  1.00  0.00     0.202 C 
ENDROOT
BRANCH   1   2
ATOM      2  O   UNL     1      -8.254   2.269   4.067  1.00  0.00    -0.374 OA
BRANCH   2   3
ATOM      3  C   UNL     1      -8.340   0.958   4.632  1.00  0.00     0.202 C 
BRANCH   3   4
ATOM      4  C   UNL     1      -8.651  -0.177   3.651  1.00  0.00     0.261 C 
BRANCH   4   5
ATOM      5  O   UNL     1      -7.620  -0.305   2.658  1.00  0.00    -0.460 OA
BRANCH   5   6
ATOM      6  C   UNL     1      -7.976   0.086   1.410  1.00  0.00     0.340 C 
ATOM      7  O   UNL     1      -9.105   0.383   1.042  1.00  0.00    -0.246 OA
BRANCH   6   8
ATOM      8  C   UNL     1      -6.775   0.270   0.549  1.00  0.00     0.086 A 
ATOM      9  C   UNL     1      -4.520  -0.340  -0.086  1.00  0.00     0.128 A 
ATOM     10  C   UNL     1      -4.591   0.535  -1.168  1.00  0.00     0.052 A 
ATOM     11  C   UNL     1      -5.633  -0.518   0.736  1.00  0.00     0.065 A 
ATOM     12  C   UNL     1      -5.700   1.386  -1.325  1.00  0.00    -0.024 A 
ATOM     13  C   UNL     1      -5.654   2.449  -2.389  1.00  0.00     0.047 C 
ATOM     14  C   UNL     1      -6.802   1.270  -0.453  1.00  0.00     0.049 A 
BRANCH   9  15
ATOM     15  O   UNL     1      -3.426  -1.104   0.221  1.00  0.00    -0.457 OA
BRANCH  15  16
ATOM     16  C   UNL     1      -2.130  -0.645   0.102  1.00  0.00     0.130 A 
ATOM     17  C   UNL     1      -2.461   1.877   0.592  1.00  0.00     0.048 C 
ATOM     18  C   UNL     1      -1.634   0.661   0.276  1.00  0.00    -0.007 A 
ATOM     19  C   UNL     1      -0.243   0.876   0.147  1.00  0.00     0.027 A 
ATOM     20  C   UNL     1       0.638  -0.182  -0.069  1.00  0.00     0.041 A 
ATOM     21  C   UNL     1      -1.220  -1.701  -0.101  1.00  0.00     0.049 A 
ATOM     22  Cl  UNL     1       2.329   0.119  -0.176  1.00  0.00    -0.084 Cl
ATOM     23  C   UNL     1       0.155  -1.477  -0.179  1.00  0.00     0.024 A 
ENDBRANCH  15  16
ENDBRANCH   9  15
BRANCH  14  24
ATOM     24  N   UNL     1      -7.799   2.254  -0.453  1.00  0.00    -0.398 N 
ATOM     25  H   UNL     1      -7.809   2.945  -1.154  1.00  0.00     0.156 HD
ATOM     26  H   UNL     1      -8.491   2.254   0.248  1.00  0.00     0.156 HD
ENDBRANCH  14  24
ENDBRANCH   6   8
ENDBRANCH   5   6
ENDBRANCH   4   5
ENDBRANCH   3   4
ENDBRANCH   2   3
ENDBRANCH   1   2
BRANCH   1  27
ATOM     27  C   UNL     1      -5.884   3.057   4.386  1.00  0.00     0.261 C 
BRANCH  27  28
ATOM     28  O   UNL     1      -5.453   1.985   5.243  1.00  0.00    -0.460 OA
BRANCH  28  29
ATOM     29  C   UNL     1      -5.795   2.132   6.544  1.00  0.00     0.338 C 
ATOM     30  O   UNL     1      -6.316   3.115   7.059  1.00  0.00    -0.246 OA
BRANCH  29  31
ATOM     31  C   UNL     1      -5.620   0.863   7.274  1.00  0.00     0.060 A 
ATOM     32  C   UNL     1      -6.678   0.452   8.093  1.00  0.00     0.016 A 
ATOM     33  C   UNL     1      -4.435   0.124   7.224  1.00  0.00     0.016 A 
ATOM     34  C   UNL     1      -6.528  -0.655   8.923  1.00  0.00     0.010 A 
ATOM     35  C   UNL     1      -4.287  -0.991   8.060  1.00  0.00     0.010 A 
ATOM     36  C   UNL     1      -5.314  -1.354   8.949  1.00  0.00    -0.014 A 
BRANCH  36  37
ATOM     37  C   UNL     1      -5.102  -2.370  10.008  1.00  0.00     0.031 A 
ATOM     38  C   UNL     1      -4.294  -2.011  11.226  1.00  0.00     0.074 A 
ATOM     39  C   UNL     1      -5.665  -3.587   9.911  1.00  0.00     0.049 A 
ATOM     40  N   UNL     1      -4.088  -2.706  12.315  1.00  0.00    -0.248 NA
ATOM     41  C   UNL     1      -3.628  -0.699  11.216  1.00  0.00     0.031 C 
ATOM     42  C   UNL     1      -6.439  -4.068   8.769  1.00  0.00     0.029 A 
ATOM     43  N   UNL     1      -5.660  -4.644  10.786  1.00  0.00    -0.354 N 
ATOM     44  C   UNL     1      -3.252  -1.930  13.108  1.00  0.00     0.074 A 
ATOM     45  C   UNL     1      -2.972  -0.719  12.367  1.00  0.00     0.031 C 
ATOM     46  C   UNL     1      -6.818  -5.336   9.003  1.00  0.00     0.029 A 
ATOM     47  C   UNL     1      -6.313  -5.755  10.310  1.00  0.00     0.049 A 
ATOM     48  H   UNL     1      -5.229  -4.610  11.671  1.00  0.00     0.167 HD
ATOM     49  C   UNL     1      -2.776  -2.190  14.349  1.00  0.00     0.034 A 
ATOM     50  C   UNL     1      -6.485  -6.972  10.864  1.00  0.00     0.034 A 
ATOM     51  C   UNL     1      -3.077  -3.382  15.096  1.00  0.00     0.049 A 
ATOM     52  C   UNL     1      -5.982  -7.226  12.260  1.00  0.00     0.074 A 
ATOM     53  C   UNL     1      -2.712  -3.701  16.392  1.00  0.00     0.029 A 
ATOM     54  N   UNL     1      -3.801  -4.459  14.608  1.00  0.00    -0.354 N 
ATOM     55  N   UNL     1      -5.339  -6.414  13.065  1.00  0.00    -0.248 NA
ATOM     56  C   UNL     1      -6.271  -8.544  12.843  1.00  0.00     0.031 C 
ATOM     57  C   UNL     1      -3.192  -4.984  16.678  1.00  0.00     0.029 A 
ATOM     58  C   UNL     1      -3.881  -5.452  15.570  1.00  0.00     0.049 A 
ATOM     59  H   UNL     1      -4.199  -4.511  13.709  1.00  0.00     0.167 HD
ATOM     60  C   UNL     1      -5.176  -7.109  14.259  1.00  0.00     0.074 A 
ATOM     61  C   UNL     1      -5.805  -8.401  14.078  1.00  0.00     0.031 C 
ATOM     62  C   UNL     1      -4.551  -6.716  15.397  1.00  0.00     0.034 A 
BRANCH  49  63
ATOM     63  C   UNL     1      -1.901  -1.147  14.992  1.00  0.00     0.023 A 
ATOM     64  C   UNL     1      -2.471   0.058  15.452  1.00  0.00     0.012 A 
ATOM     65  C   UNL     1      -0.524  -1.375  15.180  1.00  0.00     0.148 A 
ATOM     66  C   UNL     1      -1.679   1.034  16.056  1.00  0.00     0.002 A 
ATOM     67  C   UNL     1       0.252  -0.415  15.821  1.00  0.00     0.091 A 
ATOM     68  F   UNL     1       0.007  -2.514  14.712  1.00  0.00    -0.205 F 
ATOM     69  C   UNL     1      -0.321   0.793  16.250  1.00  0.00     0.022 A 
BRANCH  67  70
ATOM     70  S   UNL     1       1.992  -0.673  16.183  1.00  0.00     0.127 S 
ATOM     71  O   UNL     1       2.632   0.156  15.163  1.00  0.00    -0.237 OA
ATOM     72  O   UNL     1       2.106  -0.157  17.548  1.00  0.00    -0.237 OA
ATOM     73  O   UNL     1       2.215  -2.107  16.061  1.00  0.00    -0.744 OA
ENDBRANCH  67  70
ENDBRANCH  49  63
BRANCH  50  74
ATOM     74  C   UNL     1      -7.222  -8.020  10.105  1.00  0.00     0.023 A 
ATOM     75  C   UNL     1      -8.516  -8.400  10.509  1.00  0.00     0.012 A 
ATOM     76  C   UNL     1      -6.665  -8.599   8.948  1.00  0.00     0.148 A 
ATOM     77  C   UNL     1      -9.235  -9.352   9.786  1.00  0.00     0.002 A 
ATOM     78  C   UNL     1      -7.407  -9.505   8.201  1.00  0.00     0.091 A 
ATOM     79  F   UNL     1      -5.425  -8.235   8.591  1.00  0.00    -0.205 F 
ATOM     80  C   UNL     1      -8.687  -9.895   8.626  1.00  0.00     0.022 A 
BRANCH  78  81
ATOM     81  S   UNL     1      -6.837 -10.144   6.622  1.00  0.00     0.127 S 
ATOM     82  O   UNL     1      -6.579 -11.546   6.942  1.00  0.00    -0.237 OA
ATOM     83  O   UNL     1      -8.001  -9.911   5.766  1.00  0.00    -0.237 OA
ATOM     84  O   UNL     1      -5.668  -9.349   6.273  1.00  0.00    -0.744 OA
ENDBRANCH  78  81
ENDBRANCH  50  74
BRANCH  62  85
ATOM     85  C   UNL     1      -4.534  -7.679  16.557  1.00  0.00     0.023 A 
ATOM     86  C   UNL     1      -3.716  -8.825  16.505  1.00  0.00     0.012 A 
ATOM     87  C   UNL     1      -5.273  -7.411  17.727  1.00  0.00     0.148 A 
ATOM     88  C   UNL     1      -3.660  -9.707  17.585  1.00  0.00     0.002 A 
ATOM     89  C   UNL     1      -5.176  -8.269  18.817  1.00  0.00     0.091 A 
ATOM     90  F   UNL     1      -6.062  -6.328  17.752  1.00  0.00    -0.205 F 
ATOM     91  C   UNL     1      -4.380  -9.423  18.743  1.00  0.00     0.022 A 
BRANCH  89  92
ATOM     92  S   UNL     1      -5.993  -7.925  20.379  1.00  0.00     0.127 S 
ATOM     93  O   UNL     1      -7.138  -8.832  20.323  1.00  0.00    -0.237 OA
ATOM     94  O   UNL     1      -4.970  -8.295  21.358  1.00  0.00    -0.237 OA
ATOM     95  O   UNL     1      -6.313  -6.504  20.355  1.00  0.00    -0.744 OA
ENDBRANCH  89  92
ENDBRANCH  62  85
ENDBRANCH  36  37
ENDBRANCH  29  31
ENDBRANCH  28  29
ENDBRANCH  27  28
ENDBRANCH   1  27
TORSDOF 20
