REMARK SMILES COc1ccc(-c2cc(C(=O)OCCOCCOC(=O)c3ccc(-c4c5nc(c(-c6cccc(S(=O)(=O)[O-])c6F)c6ccc([nH]6)c(-c6cccc(S(=O)(=O)[O-])c6F)c6nc(c(-c7cccc(S(=O)(=O)[O-])c7F)c7ccc4[nH]7)C=C6)C=C5)cc3)nn2C)cc1
REMARK SMILES IDX 16 1 15 2 14 3 13 4 12 5 10 6 11 7 9 8 7 9 8 10 85 11 84 12
REMARK SMILES IDX 86 13 6 14 3 15 4 16 88 17 5 18 87 19 2 20 1 21 17 22 18 23
REMARK SMILES IDX 19 24 20 25 21 26 22 27 83 28 23 29 82 30 24 31 25 32 26 33
REMARK SMILES IDX 76 34 27 35 81 36 75 37 77 38 28 39 80 40 74 41 73 42 29 44
REMARK SMILES IDX 61 45 41 46 60 47 42 48 45 49 59 50 78 51 43 52 44 53 58 55
REMARK SMILES IDX 79 56 46 57 30 58 31 59 39 60 32 61 34 62 40 63 33 64 35 65
REMARK SMILES IDX 36 66 37 67 38 68 62 69 63 70 71 71 64 72 66 73 72 74 65 75
REMARK SMILES IDX 67 76 68 77 69 78 70 79 47 80 48 81 56 82 49 83 51 84 57 85
REMARK SMILES IDX 50 86 52 87 53 88 54 89 55 90
REMARK H PARENT 77 43 45 54
REMARK Flexibility Score: inf
ROOT
ATOM      1  C   UNL     1       4.094  10.007  -1.861  1.00  0.00     0.202 C 
ENDROOT
BRANCH   1   2
ATOM      2  O   UNL     1       3.583  11.284  -2.254  1.00  0.00    -0.374 OA
BRANCH   2   3
ATOM      3  C   UNL     1       2.223  11.547  -1.896  1.00  0.00     0.202 C 
BRANCH   3   4
ATOM      4  C   UNL     1       1.204  11.087  -2.944  1.00  0.00     0.261 C 
BRANCH   4   5
ATOM      5  O   UNL     1       1.143   9.652  -2.979  1.00  0.00    -0.458 OA
BRANCH   5   6
ATOM      6  C   UNL     1       1.742   9.057  -4.055  1.00  0.00     0.358 C 
ATOM      7  O   UNL     1       2.108   9.661  -5.061  1.00  0.00    -0.244 OA
BRANCH   6   8
ATOM      8  C   UNL     1       1.992   7.626  -3.823  1.00  0.00     0.170 A 
ATOM      9  C   UNL     1       1.941   5.511  -3.067  1.00  0.00     0.069 A 
ATOM     10  C   UNL     1       1.347   6.751  -2.906  1.00  0.00     0.066 A 
ATOM     11  N   UNL     1       2.914   5.714  -4.016  1.00  0.00    -0.267 N 
ATOM     12  N   UNL     1       2.969   6.974  -4.478  1.00  0.00    -0.165 NA
ATOM     13  C   UNL     1       3.842   4.757  -4.572  1.00  0.00     0.174 C 
BRANCH   9  14
ATOM     14  C   UNL     1       1.587   4.217  -2.488  1.00  0.00     0.000 A 
ATOM     15  C   UNL     1       0.881   1.669  -1.532  1.00  0.00     0.118 A 
ATOM     16  C   UNL     1      -0.064   2.463  -2.179  1.00  0.00     0.047 A 
ATOM     17  C   UNL     1       2.180   2.145  -1.356  1.00  0.00     0.047 A 
ATOM     18  C   UNL     1       0.282   3.735  -2.641  1.00  0.00     0.014 A 
ATOM     19  C   UNL     1       2.529   3.419  -1.826  1.00  0.00     0.014 A 
BRANCH  15  20
ATOM     20  O   UNL     1       0.458   0.421  -1.167  1.00  0.00    -0.497 OA
ATOM     21  C   UNL     1       0.945  -0.019   0.096  1.00  0.00     0.278 C 
ENDBRANCH  15  20
ENDBRANCH   9  14
ENDBRANCH   6   8
ENDBRANCH   5   6
ENDBRANCH   4   5
ENDBRANCH   3   4
ENDBRANCH   2   3
ENDBRANCH   1   2
BRANCH   1  22
ATOM     22  C   UNL     1       4.684   9.972  -0.448  1.00  0.00     0.261 C 
BRANCH  22  23
ATOM     23  O   UNL     1       3.641  10.070   0.539  1.00  0.00    -0.460 OA
BRANCH  23  24
ATOM     24  C   UNL     1       3.583  11.253   1.196  1.00  0.00     0.338 C 
ATOM     25  O   UNL     1       4.382  12.172   1.127  1.00  0.00    -0.246 OA
BRANCH  24  26
ATOM     26  C   UNL     1       2.295  11.365   1.914  1.00  0.00     0.060 A 
ATOM     27  C   UNL     1       1.621  12.590   1.833  1.00  0.00     0.016 A 
ATOM     28  C   UNL     1       1.772  10.321   2.683  1.00  0.00     0.016 A 
ATOM     29  C   UNL     1       0.452  12.795   2.562  1.00  0.00     0.010 A 
ATOM     30  C   UNL     1       0.599  10.530   3.417  1.00  0.00     0.010 A 
ATOM     31  C   UNL     1      -0.046  11.780   3.389  1.00  0.00    -0.014 A 
BRANCH  31  32
ATOM     32  C   UNL     1      -1.163  12.077   4.317  1.00  0.00     0.031 A 
ATOM     33  C   UNL     1      -0.856  12.396   5.755  1.00  0.00     0.074 A 
ATOM     34  C   UNL     1      -2.436  12.073   3.884  1.00  0.00     0.049 A 
ATOM     35  N   UNL     1      -1.675  12.709   6.725  1.00  0.00    -0.248 NA
ATOM     36  C   UNL     1       0.561  12.357   6.152  1.00  0.00     0.031 C 
ATOM     37  C   UNL     1      -2.863  11.768   2.519  1.00  0.00     0.029 A 
ATOM     38  N   UNL     1      -3.607  12.317   4.558  1.00  0.00    -0.354 N 
ATOM     39  C   UNL     1      -0.879  12.885   7.850  1.00  0.00     0.074 A 
ATOM     40  C   UNL     1       0.487  12.629   7.447  1.00  0.00     0.031 C 
ATOM     41  C   UNL     1      -4.205  11.819   2.462  1.00  0.00     0.029 A 
ATOM     42  C   UNL     1      -4.731  12.149   3.786  1.00  0.00     0.049 A 
ATOM     43  H   UNL     1      -3.638  12.587   5.504  1.00  0.00     0.167 HD
ATOM     44  C   UNL     1      -1.247  13.251   9.101  1.00  0.00     0.034 A 
ATOM     45  C   UNL     1      -6.036  12.241   4.112  1.00  0.00     0.034 A 
ATOM     46  C   UNL     1      -2.600  13.531   9.497  1.00  0.00     0.049 A 
ATOM     47  C   UNL     1      -6.420  12.641   5.514  1.00  0.00     0.074 A 
ATOM     48  C   UNL     1      -3.064  13.963  10.727  1.00  0.00     0.029 A 
ATOM     49  N   UNL     1      -3.708  13.397   8.676  1.00  0.00    -0.354 N 
ATOM     50  N   UNL     1      -5.646  12.945   6.527  1.00  0.00    -0.248 NA
ATOM     51  C   UNL     1      -7.858  12.745   5.806  1.00  0.00     0.031 C 
ATOM     52  C   UNL     1      -4.457  14.075  10.653  1.00  0.00     0.029 A 
ATOM     53  C   UNL     1      -4.857  13.726   9.374  1.00  0.00     0.049 A 
ATOM     54  H   UNL     1      -3.682  13.110   7.735  1.00  0.00     0.167 HD
ATOM     55  C   UNL     1      -6.498  13.307   7.565  1.00  0.00     0.074 A 
ATOM     56  C   UNL     1      -7.848  13.204   7.051  1.00  0.00     0.031 C 
ATOM     57  C   UNL     1      -6.192  13.675   8.834  1.00  0.00     0.034 A 
BRANCH  44  58
ATOM     58  C   UNL     1      -0.157  13.414  10.125  1.00  0.00     0.023 A 
ATOM     59  C   UNL     1       0.674  14.551  10.074  1.00  0.00     0.012 A 
ATOM     60  C   UNL     1       0.013  12.478  11.162  1.00  0.00     0.148 A 
ATOM     61  C   UNL     1       1.676  14.741  11.024  1.00  0.00     0.002 A 
ATOM     62  C   UNL     1       0.990  12.692  12.128  1.00  0.00     0.091 A 
ATOM     63  F   UNL     1      -0.769  11.389  11.177  1.00  0.00    -0.205 F 
ATOM     64  C   UNL     1       1.827  13.818  12.056  1.00  0.00     0.022 A 
BRANCH  62  65
ATOM     65  S   UNL     1       1.215  11.592  13.530  1.00  0.00     0.127 S 
ATOM     66  O   UNL     1       2.420  10.861  13.141  1.00  0.00    -0.237 OA
ATOM     67  O   UNL     1       1.402  12.531  14.636  1.00  0.00    -0.237 OA
ATOM     68  O   UNL     1      -0.003  10.798  13.611  1.00  0.00    -0.744 OA
ENDBRANCH  62  65
ENDBRANCH  44  58
BRANCH  45  69
ATOM     69  C   UNL     1      -7.078  12.001   3.075  1.00  0.00     0.023 A 
ATOM     70  C   UNL     1      -7.840  13.082   2.594  1.00  0.00     0.012 A 
ATOM     71  C   UNL     1      -7.298  10.714   2.546  1.00  0.00     0.148 A 
ATOM     72  C   UNL     1      -8.820  12.883   1.620  1.00  0.00     0.002 A 
ATOM     73  C   UNL     1      -8.239  10.532   1.539  1.00  0.00     0.091 A 
ATOM     74  F   UNL     1      -6.579   9.694   3.034  1.00  0.00    -0.205 F 
ATOM     75  C   UNL     1      -9.012  11.612   1.085  1.00  0.00     0.022 A 
BRANCH  73  76
ATOM     76  S   UNL     1      -8.456   8.955   0.707  1.00  0.00     0.127 S 
ATOM     77  O   UNL     1      -9.716   8.486   1.277  1.00  0.00    -0.237 OA
ATOM     78  O   UNL     1      -8.527   9.358  -0.698  1.00  0.00    -0.237 OA
ATOM     79  O   UNL     1      -7.274   8.172   1.043  1.00  0.00    -0.744 OA
ENDBRANCH  73  76
ENDBRANCH  45  69
BRANCH  57  80
ATOM     80  C   UNL     1      -7.331  14.016   9.759  1.00  0.00     0.023 A 
ATOM     81  C   UNL     1      -8.132  12.984  10.286  1.00  0.00     0.012 A 
ATOM     82  C   UNL     1      -7.557  15.345  10.171  1.00  0.00     0.148 A 
ATOM     83  C   UNL     1      -9.158  13.271  11.186  1.00  0.00     0.002 A 
ATOM     84  C   UNL     1      -8.553  15.618  11.101  1.00  0.00     0.091 A 
ATOM     85  F   UNL     1      -6.799  16.317   9.644  1.00  0.00    -0.205 F 
ATOM     86  C   UNL     1      -9.361  14.584  11.602  1.00  0.00     0.022 A 
BRANCH  84  87
ATOM     87  S   UNL     1      -8.820  17.269  11.758  1.00  0.00     0.127 S 
ATOM     88  O   UNL     1      -9.994  17.705  11.005  1.00  0.00    -0.237 OA
ATOM     89  O   UNL     1      -9.068  17.008  13.177  1.00  0.00    -0.237 OA
ATOM     90  O   UNL     1      -7.591  18.004  11.491  1.00  0.00    -0.744 OA
ENDBRANCH  84  87
ENDBRANCH  57  80
ENDBRANCH  31  32
ENDBRANCH  24  26
ENDBRANCH  23  24
ENDBRANCH  22  23
ENDBRANCH   1  22
TORSDOF 19
