REMARK SMILES CC(C)([NH2+]C[C@@H]1CCCO1)C(=O)OCCOCCOC(=O)c1ccc(-c2c3nc(c(-c4cccc(S(=O)(=O)[O-])c4F)c4ccc([nH]4)c(-c4cccc(S(=O)(=O)[O-])c4F)c4nc(c(-c5cccc(S(=O)(=O)[O-])c5F)c5ccc2[nH]5)C=C4)C=C3)cc1
REMARK SMILES IDX 16 1 15 2 14 3 13 4 11 5 12 6 2 7 1 8 3 9 4 10 5 13 6 14
REMARK SMILES IDX 7 15 10 16 8 17 9 18 17 19 18 20 19 21 20 22 21 23 22 24
REMARK SMILES IDX 23 25 84 26 24 27 83 28 25 29 26 30 27 31 77 32 28 33 82 34
REMARK SMILES IDX 76 35 78 36 29 37 81 38 75 39 74 40 30 42 62 43 42 44 61 45
REMARK SMILES IDX 43 46 46 47 60 48 79 49 44 50 45 51 59 53 80 54 47 55 31 56
REMARK SMILES IDX 32 57 40 58 33 59 35 60 41 61 34 62 36 63 37 64 38 65 39 66
REMARK SMILES IDX 63 67 64 68 72 69 65 70 67 71 73 72 66 73 68 74 69 75 70 76
REMARK SMILES IDX 71 77 48 78 49 79 57 80 50 81 52 82 58 83 51 84 53 85 54 86
REMARK SMILES IDX 55 87 56 88
REMARK H PARENT 4 11 4 12 78 41 46 52
REMARK Flexibility Score: inf
ROOT
ATOM      1  O   UNL     1       1.087  -2.749   3.691  1.00  0.00    -0.374 OA
ENDROOT
BRANCH   1   2
ATOM      2  C   UNL     1       1.197  -1.768   4.726  1.00  0.00     0.202 C 
BRANCH   2   3
ATOM      3  C   UNL     1       2.067  -0.552   4.397  1.00  0.00     0.261 C 
BRANCH   3   4
ATOM      4  O   UNL     1       1.441   0.250   3.381  1.00  0.00    -0.459 OA
BRANCH   4   5
ATOM      5  C   UNL     1       2.035   0.234   2.162  1.00  0.00     0.367 C 
ATOM      6  O   UNL     1       3.158  -0.225   1.959  1.00  0.00    -0.245 OA
BRANCH   5   7
ATOM      7  C   UNL     1       1.185   0.868   1.036  1.00  0.00     0.188 C 
ATOM      8  C   UNL     1       1.345  -0.067  -0.191  1.00  0.00     0.092 C 
ATOM      9  C   UNL     1       1.833   2.209   0.674  1.00  0.00     0.092 C 
BRANCH   7  10
ATOM     10  N   UNL     1      -0.299   0.888   1.226  1.00  0.00    -0.330 N 
ATOM     11  H   UNL     1      -0.586  -0.085   1.339  1.00  0.00     0.347 HD
ATOM     12  H   UNL     1      -0.616   1.403   0.405  1.00  0.00     0.347 HD
BRANCH  10  13
ATOM     13  C   UNL     1      -0.931   1.636   2.328  1.00  0.00     0.293 C 
BRANCH  13  14
ATOM     14  C   UNL     1      -0.693   3.147   2.317  1.00  0.00     0.173 C 
ATOM     15  C   UNL     1      -1.714   3.995   3.049  1.00  0.00     0.040 C 
ATOM     16  O   UNL     1      -0.747   3.663   0.971  1.00  0.00    -0.372 OA
ATOM     17  C   UNL     1      -1.357   5.366   2.510  1.00  0.00     0.031 C 
ATOM     18  C   UNL     1      -0.938   5.081   1.077  1.00  0.00     0.161 C 
ENDBRANCH  13  14
ENDBRANCH  10  13
ENDBRANCH   7  10
ENDBRANCH   5   7
ENDBRANCH   4   5
ENDBRANCH   3   4
ENDBRANCH   2   3
ENDBRANCH   1   2
BRANCH   1  19
ATOM     19  C   UNL     1       0.136  -2.476   2.659  1.00  0.00     0.202 C 
BRANCH  19  20
ATOM     20  C   UNL     1      -1.314  -2.871   2.952  1.00  0.00     0.261 C 
BRANCH  20  21
ATOM     21  O   UNL     1      -1.858  -2.120   4.050  1.00  0.00    -0.460 OA
BRANCH  21  22
ATOM     22  C   UNL     1      -1.950  -2.810   5.207  1.00  0.00     0.338 C 
ATOM     23  O   UNL     1      -1.741  -4.009   5.369  1.00  0.00    -0.246 OA
BRANCH  22  24
ATOM     24  C   UNL     1      -2.172  -1.891   6.337  1.00  0.00     0.060 A 
ATOM     25  C   UNL     1      -1.380  -2.084   7.475  1.00  0.00     0.016 A 
ATOM     26  C   UNL     1      -3.164  -0.905   6.321  1.00  0.00     0.016 A 
ATOM     27  C   UNL     1      -1.631  -1.352   8.630  1.00  0.00     0.010 A 
ATOM     28  C   UNL     1      -3.415  -0.170   7.486  1.00  0.00     0.010 A 
ATOM     29  C   UNL     1      -2.684  -0.428   8.659  1.00  0.00    -0.014 A 
BRANCH  29  30
ATOM     30  C   UNL     1      -3.103   0.126   9.969  1.00  0.00     0.031 A 
ATOM     31  C   UNL     1      -4.293  -0.475  10.669  1.00  0.00     0.074 A 
ATOM     32  C   UNL     1      -2.394   1.104  10.559  1.00  0.00     0.049 A 
ATOM     33  N   UNL     1      -4.773  -0.211  11.856  1.00  0.00    -0.248 NA
ATOM     34  C   UNL     1      -5.039  -1.512   9.936  1.00  0.00     0.031 C 
ATOM     35  C   UNL     1      -1.226   1.767   9.981  1.00  0.00     0.029 A 
ATOM     36  N   UNL     1      -2.558   1.711  11.778  1.00  0.00    -0.354 N 
ATOM     37  C   UNL     1      -5.883  -1.034  12.007  1.00  0.00     0.074 A 
ATOM     38  C   UNL     1      -6.021  -1.789  10.781  1.00  0.00     0.031 C 
ATOM     39  C   UNL     1      -0.785   2.700  10.842  1.00  0.00     0.029 A 
ATOM     40  C   UNL     1      -1.642   2.706  12.025  1.00  0.00     0.049 A 
ATOM     41  H   UNL     1      -3.265   1.459  12.415  1.00  0.00     0.167 HD
ATOM     42  C   UNL     1      -6.701  -1.169  13.079  1.00  0.00     0.034 A 
ATOM     43  C   UNL     1      -1.513   3.527  13.086  1.00  0.00     0.034 A 
ATOM     44  C   UNL     1      -6.550  -0.435  14.306  1.00  0.00     0.049 A 
ATOM     45  C   UNL     1      -2.438   3.359  14.264  1.00  0.00     0.074 A 
ATOM     46  C   UNL     1      -7.300  -0.533  15.465  1.00  0.00     0.029 A 
ATOM     47  N   UNL     1      -5.590   0.539  14.533  1.00  0.00    -0.354 N 
ATOM     48  N   UNL     1      -3.400   2.486  14.441  1.00  0.00    -0.248 NA
ATOM     49  C   UNL     1      -2.231   4.263  15.405  1.00  0.00     0.031 C 
ATOM     50  C   UNL     1      -6.807   0.399  16.385  1.00  0.00     0.029 A 
ATOM     51  C   UNL     1      -5.734   1.058  15.808  1.00  0.00     0.049 A 
ATOM     52  H   UNL     1      -4.907   0.820  13.882  1.00  0.00     0.167 HD
ATOM     53  C   UNL     1      -3.889   2.711  15.724  1.00  0.00     0.074 A 
ATOM     54  C   UNL     1      -3.099   3.788  16.287  1.00  0.00     0.031 C 
ATOM     55  C   UNL     1      -4.909   2.095  16.373  1.00  0.00     0.034 A 
BRANCH  42  56
ATOM     56  C   UNL     1      -7.816  -2.176  12.981  1.00  0.00     0.023 A 
ATOM     57  C   UNL     1      -7.517  -3.553  13.039  1.00  0.00     0.012 A 
ATOM     58  C   UNL     1      -9.159  -1.764  12.886  1.00  0.00     0.148 A 
ATOM     59  C   UNL     1      -8.534  -4.504  12.973  1.00  0.00     0.002 A 
ATOM     60  C   UNL     1     -10.171  -2.717  12.863  1.00  0.00     0.091 A 
ATOM     61  F   UNL     1      -9.421  -0.452  12.806  1.00  0.00    -0.205 F 
ATOM     62  C   UNL     1      -9.860  -4.086  12.896  1.00  0.00     0.022 A 
BRANCH  60  63
ATOM     63  S   UNL     1     -11.912  -2.277  12.840  1.00  0.00     0.127 S 
ATOM     64  O   UNL     1     -12.289  -2.635  11.473  1.00  0.00    -0.237 OA
ATOM     65  O   UNL     1     -12.466  -3.152  13.874  1.00  0.00    -0.237 OA
ATOM     66  O   UNL     1     -11.971  -0.856  13.153  1.00  0.00    -0.744 OA
ENDBRANCH  60  63
ENDBRANCH  42  56
BRANCH  43  67
ATOM     67  C   UNL     1      -0.429   4.550  13.105  1.00  0.00     0.023 A 
ATOM     68  C   UNL     1       0.648   4.408  14.000  1.00  0.00     0.012 A 
ATOM     69  C   UNL     1      -0.453   5.650  12.226  1.00  0.00     0.148 A 
ATOM     70  C   UNL     1       1.668   5.361  14.041  1.00  0.00     0.002 A 
ATOM     71  C   UNL     1       0.594   6.564  12.232  1.00  0.00     0.091 A 
ATOM     72  F   UNL     1      -1.497   5.777  11.396  1.00  0.00    -0.205 F 
ATOM     73  C   UNL     1       1.647   6.431  13.150  1.00  0.00     0.022 A 
BRANCH  71  74
ATOM     74  S   UNL     1       0.713   7.892  11.029  1.00  0.00     0.127 S 
ATOM     75  O   UNL     1       0.407   9.064  11.845  1.00  0.00    -0.237 OA
ATOM     76  O   UNL     1       2.107   7.787  10.598  1.00  0.00    -0.237 OA
ATOM     77  O   UNL     1      -0.258   7.569   9.992  1.00  0.00    -0.744 OA
ENDBRANCH  71  74
ENDBRANCH  43  67
BRANCH  55  78
ATOM     78  C   UNL     1      -5.215   2.547  17.778  1.00  0.00     0.023 A 
ATOM     79  C   UNL     1      -5.820   3.801  17.994  1.00  0.00     0.012 A 
ATOM     80  C   UNL     1      -4.959   1.706  18.880  1.00  0.00     0.148 A 
ATOM     81  C   UNL     1      -6.128   4.228  19.285  1.00  0.00     0.002 A 
ATOM     82  C   UNL     1      -5.314   2.118  20.159  1.00  0.00     0.091 A 
ATOM     83  F   UNL     1      -4.366   0.523  18.660  1.00  0.00    -0.205 F 
ATOM     84  C   UNL     1      -5.885   3.383  20.366  1.00  0.00     0.022 A 
BRANCH  82  85
ATOM     85  S   UNL     1      -5.123   1.053  21.594  1.00  0.00     0.127 S 
ATOM     86  O   UNL     1      -3.925   1.609  22.221  1.00  0.00    -0.237 OA
ATOM     87  O   UNL     1      -6.364   1.293  22.331  1.00  0.00    -0.237 OA
ATOM     88  O   UNL     1      -4.989  -0.299  21.068  1.00  0.00    -0.744 OA
ENDBRANCH  82  85
ENDBRANCH  55  78
ENDBRANCH  29  30
ENDBRANCH  22  24
ENDBRANCH  21  22
ENDBRANCH  20  21
ENDBRANCH  19  20
ENDBRANCH   1  19
TORSDOF 20
