REMARK SMILES C[C@@H]1[C@@H](C)CCC[C@H]1NC(=O)N[C@@](C)(C(=O)OCCOCCOC(=O)c1ccc(-c2c3nc(c(-c4cccc(S(=O)(=O)[O-])c4F)c4ccc([nH]4)c(-c4cccc(S(=O)(=O)[O-])c4F)c4nc(c(-c5cccc(S(=O)(=O)[O-])c5F)c5ccc2[nH]5)C=C4)C=C3)cc1)C(F)(F)F
REMARK SMILES IDX 21 1 20 2 19 3 18 4 17 5 15 6 16 7 13 8 14 9 12 10 9 11
REMARK SMILES IDX 10 12 11 14 8 16 1 17 2 18 3 19 5 20 4 21 7 22 6 23 89 24
REMARK SMILES IDX 90 25 91 26 92 27 22 28 23 29 24 30 25 31 26 32 27 33 88 34
REMARK SMILES IDX 28 35 87 36 29 37 30 38 31 39 81 40 32 41 86 42 80 43 82 44
REMARK SMILES IDX 33 45 85 46 79 47 78 48 34 50 66 51 46 52 65 53 47 54 50 55
REMARK SMILES IDX 64 56 83 57 48 58 49 59 63 61 84 62 51 63 35 64 36 65 44 66
REMARK SMILES IDX 37 67 39 68 45 69 38 70 40 71 41 72 42 73 43 74 67 75 68 76
REMARK SMILES IDX 76 77 69 78 71 79 77 80 70 81 72 82 73 83 74 84 75 85 52 86
REMARK SMILES IDX 53 87 61 88 54 89 56 90 62 91 55 92 57 93 58 94 59 95 60 96
REMARK H PARENT 9 13 12 15 82 49 50 60
REMARK Flexibility Score: inf
ROOT
ATOM      1  C   UNL     1      -0.342   0.038  -3.891  1.00  0.00     0.202 C 
ENDROOT
BRANCH   1   2
ATOM      2  O   UNL     1       0.313   1.171  -4.462  1.00  0.00    -0.374 OA
BRANCH   2   3
ATOM      3  C   UNL     1       0.775   1.067  -5.805  1.00  0.00     0.202 C 
BRANCH   3   4
ATOM      4  C   UNL     1       1.951   0.122  -6.098  1.00  0.00     0.261 C 
BRANCH   4   5
ATOM      5  O   UNL     1       1.897  -1.100  -5.347  1.00  0.00    -0.461 OA
BRANCH   5   6
ATOM      6  C   UNL     1       3.055  -1.469  -4.720  1.00  0.00     0.341 C 
ATOM      7  O   UNL     1       4.138  -0.941  -4.939  1.00  0.00    -0.249 OA
BRANCH   6   8
ATOM      8  C   UNL     1       2.839  -2.633  -3.732  1.00  0.00     0.232 C 
ATOM      9  C   UNL     1       3.526  -3.874  -4.318  1.00  0.00     0.058 C 
BRANCH   8  10
ATOM     10  N   UNL     1       1.349  -2.937  -3.661  1.00  0.00    -0.315 N 
ATOM     11  N   UNL     1       0.344  -3.435  -1.562  1.00  0.00    -0.335 N 
ATOM     12  C   UNL     1       0.446  -3.539  -2.889  1.00  0.00     0.316 C 
ATOM     13  H   UNL     1      -0.241  -4.118  -1.160  1.00  0.00     0.165 HD
ATOM     14  O   UNL     1      -0.448  -4.165  -3.463  1.00  0.00    -0.249 OA
ATOM     15  H   UNL     1       0.902  -2.564  -4.455  1.00  0.00     0.166 HD
BRANCH  11  16
ATOM     16  C   UNL     1       0.918  -2.523  -0.589  1.00  0.00     0.087 C 
ATOM     17  C   UNL     1       0.707  -0.134   0.156  1.00  0.00     0.010 C 
ATOM     18  C   UNL     1      -0.076  -1.445  -0.069  1.00  0.00     0.011 C 
ATOM     19  C   UNL     1      -0.839  -1.815   1.229  1.00  0.00    -0.009 C 
ATOM     20  C   UNL     1       0.065  -2.494   2.263  1.00  0.00     0.004 C 
ATOM     21  C   UNL     1      -2.085  -2.658   0.941  1.00  0.00     0.008 C 
ATOM     22  C   UNL     1       1.652  -3.304   0.507  1.00  0.00     0.025 C 
ATOM     23  C   UNL     1       0.779  -3.705   1.686  1.00  0.00     0.002 C 
ENDBRANCH  11  16
ENDBRANCH   8  10
BRANCH   8  24
ATOM     24  C   UNL     1       3.626  -2.182  -2.497  1.00  0.00     0.422 C 
ATOM     25  F   UNL     1       3.202  -0.992  -2.011  1.00  0.00    -0.168 F 
ATOM     26  F   UNL     1       3.539  -3.095  -1.500  1.00  0.00    -0.168 F 
ATOM     27  F   UNL     1       4.954  -2.050  -2.731  1.00  0.00    -0.168 F 
ENDBRANCH   8  24
ENDBRANCH   6   8
ENDBRANCH   5   6
ENDBRANCH   4   5
ENDBRANCH   3   4
ENDBRANCH   2   3
ENDBRANCH   1   2
BRANCH   1  28
ATOM     28  C   UNL     1      -1.575  -0.542  -4.600  1.00  0.00     0.261 C 
BRANCH  28  29
ATOM     29  O   UNL     1      -1.296  -1.046  -5.921  1.00  0.00    -0.460 OA
BRANCH  29  30
ATOM     30  C   UNL     1      -2.088  -0.533  -6.899  1.00  0.00     0.338 C 
ATOM     31  O   UNL     1      -3.000   0.264  -6.769  1.00  0.00    -0.246 OA
BRANCH  30  32
ATOM     32  C   UNL     1      -1.580  -0.932  -8.224  1.00  0.00     0.060 A 
ATOM     33  C   UNL     1      -1.056   0.067  -9.056  1.00  0.00     0.016 A 
ATOM     34  C   UNL     1      -1.735  -2.237  -8.689  1.00  0.00     0.016 A 
ATOM     35  C   UNL     1      -0.703  -0.235 -10.371  1.00  0.00     0.010 A 
ATOM     36  C   UNL     1      -1.393  -2.534 -10.013  1.00  0.00     0.010 A 
ATOM     37  C   UNL     1      -0.903  -1.529 -10.867  1.00  0.00    -0.014 A 
BRANCH  37  38
ATOM     38  C   UNL     1      -0.711  -1.805 -12.312  1.00  0.00     0.031 A 
ATOM     39  C   UNL     1      -1.908  -1.830 -13.221  1.00  0.00     0.074 A 
ATOM     40  C   UNL     1       0.518  -2.045 -12.802  1.00  0.00     0.049 A 
ATOM     41  N   UNL     1      -1.968  -2.093 -14.500  1.00  0.00    -0.248 NA
ATOM     42  C   UNL     1      -3.209  -1.516 -12.608  1.00  0.00     0.031 C 
ATOM     43  C   UNL     1       1.753  -2.041 -12.020  1.00  0.00     0.029 A 
ATOM     44  N   UNL     1       0.924  -2.368 -14.073  1.00  0.00    -0.354 N 
ATOM     45  C   UNL     1      -3.313  -2.004 -14.842  1.00  0.00     0.074 A 
ATOM     46  C   UNL     1      -4.035  -1.668 -13.634  1.00  0.00     0.031 C 
ATOM     47  C   UNL     1       2.776  -2.384 -12.822  1.00  0.00     0.029 A 
ATOM     48  C   UNL     1       2.266  -2.653 -14.165  1.00  0.00     0.049 A 
ATOM     49  H   UNL     1       0.313  -2.393 -14.845  1.00  0.00     0.167 HD
ATOM     50  C   UNL     1      -3.891  -2.173 -16.055  1.00  0.00     0.034 A 
ATOM     51  C   UNL     1       2.993  -3.104 -15.206  1.00  0.00     0.034 A 
ATOM     52  C   UNL     1      -3.169  -2.490 -17.257  1.00  0.00     0.049 A 
ATOM     53  C   UNL     1       2.319  -3.318 -16.537  1.00  0.00     0.074 A 
ATOM     54  C   UNL     1      -3.660  -2.628 -18.544  1.00  0.00     0.029 A 
ATOM     55  N   UNL     1      -1.806  -2.733 -17.320  1.00  0.00    -0.354 N 
ATOM     56  N   UNL     1       1.069  -3.104 -16.873  1.00  0.00    -0.248 NA
ATOM     57  C   UNL     1       3.160  -3.809 -17.639  1.00  0.00     0.031 C 
ATOM     58  C   UNL     1      -2.595  -2.979 -19.381  1.00  0.00     0.029 A 
ATOM     59  C   UNL     1      -1.439  -3.038 -18.619  1.00  0.00     0.049 A 
ATOM     60  H   UNL     1      -1.190  -2.694 -16.553  1.00  0.00     0.167 HD
ATOM     61  C   UNL     1       0.981  -3.404 -18.229  1.00  0.00     0.074 A 
ATOM     62  C   UNL     1       2.309  -3.795 -18.657  1.00  0.00     0.031 C 
ATOM     63  C   UNL     1      -0.104  -3.374 -19.042  1.00  0.00     0.034 A 
BRANCH  50  64
ATOM     64  C   UNL     1      -5.382  -1.988 -16.148  1.00  0.00     0.023 A 
ATOM     65  C   UNL     1      -5.925  -0.688 -16.100  1.00  0.00     0.012 A 
ATOM     66  C   UNL     1      -6.239  -3.089 -16.340  1.00  0.00     0.148 A 
ATOM     67  C   UNL     1      -7.300  -0.488 -16.214  1.00  0.00     0.002 A 
ATOM     68  C   UNL     1      -7.605  -2.879 -16.491  1.00  0.00     0.091 A 
ATOM     69  F   UNL     1      -5.706  -4.319 -16.359  1.00  0.00    -0.205 F 
ATOM     70  C   UNL     1      -8.138  -1.581 -16.419  1.00  0.00     0.022 A 
BRANCH  68  71
ATOM     71  S   UNL     1      -8.757  -4.215 -16.829  1.00  0.00     0.127 S 
ATOM     72  O   UNL     1      -9.451  -4.337 -15.548  1.00  0.00    -0.237 OA
ATOM     73  O   UNL     1      -9.569  -3.659 -17.912  1.00  0.00    -0.237 OA
ATOM     74  O   UNL     1      -7.941  -5.360 -17.210  1.00  0.00    -0.744 OA
ENDBRANCH  68  71
ENDBRANCH  50  64
BRANCH  51  75
ATOM     75  C   UNL     1       4.451  -3.358 -15.039  1.00  0.00     0.023 A 
ATOM     76  C   UNL     1       5.381  -2.520 -15.683  1.00  0.00     0.012 A 
ATOM     77  C   UNL     1       4.922  -4.409 -14.226  1.00  0.00     0.148 A 
ATOM     78  C   UNL     1       6.752  -2.738 -15.541  1.00  0.00     0.002 A 
ATOM     79  C   UNL     1       6.288  -4.587 -14.046  1.00  0.00     0.091 A 
ATOM     80  F   UNL     1       4.021  -5.210 -13.639  1.00  0.00    -0.205 F 
ATOM     81  C   UNL     1       7.206  -3.763 -14.715  1.00  0.00     0.022 A 
BRANCH  79  82
ATOM     82  S   UNL     1       6.954  -5.796 -12.896  1.00  0.00     0.127 S 
ATOM     83  O   UNL     1       7.485  -6.811 -13.803  1.00  0.00    -0.237 OA
ATOM     84  O   UNL     1       7.966  -5.014 -12.185  1.00  0.00    -0.237 OA
ATOM     85  O   UNL     1       5.829  -6.209 -12.068  1.00  0.00    -0.744 OA
ENDBRANCH  79  82
ENDBRANCH  51  75
BRANCH  63  86
ATOM     86  C   UNL     1       0.092  -3.752 -20.487  1.00  0.00     0.023 A 
ATOM     87  C   UNL     1       0.277  -5.105 -20.834  1.00  0.00     0.012 A 
ATOM     88  C   UNL     1       0.004  -2.782 -21.506  1.00  0.00     0.148 A 
ATOM     89  C   UNL     1       0.395  -5.484 -22.171  1.00  0.00     0.002 A 
ATOM     90  C   UNL     1       0.078  -3.173 -22.838  1.00  0.00     0.091 A 
ATOM     91  F   UNL     1      -0.154  -1.498 -21.154  1.00  0.00    -0.205 F 
ATOM     92  C   UNL     1       0.284  -4.521 -23.172  1.00  0.00     0.022 A 
BRANCH  90  93
ATOM     93  S   UNL     1      -0.148  -2.017 -24.195  1.00  0.00     0.127 S 
ATOM     94  O   UNL     1       1.214  -1.892 -24.710  1.00  0.00    -0.237 OA
ATOM     95  O   UNL     1      -1.068  -2.742 -25.072  1.00  0.00    -0.237 OA
ATOM     96  O   UNL     1      -0.705  -0.808 -23.603  1.00  0.00    -0.744 OA
ENDBRANCH  90  93
ENDBRANCH  63  86
ENDBRANCH  37  38
ENDBRANCH  30  32
ENDBRANCH  29  30
ENDBRANCH  28  29
ENDBRANCH   1  28
TORSDOF 20
