REMARK SMILES CC(C)[NH2+][C@]1(C(=O)OCCOCCOC(=O)c2ccc(-c3c4nc(c(-c5cccc(S(=O)(=O)[O-])c5F)c5ccc([nH]5)c(-c5cccc(S(=O)(=O)[O-])c5F)c5nc(c(-c6cccc(S(=O)(=O)[O-])c6F)c6ccc3[nH]6)C=C5)C=C4)cc2)CCC[C@@H](Sc2ccc(Cl)cc2)C1
REMARK SMILES IDX 12 1 11 2 10 3 9 4 8 5 6 6 7 7 5 8 80 9 92 10 81 11 83 12
REMARK SMILES IDX 82 13 4 14 2 17 1 18 3 19 84 20 85 21 86 22 91 23 87 24
REMARK SMILES IDX 90 25 88 26 89 27 13 28 14 29 15 30 16 31 17 32 18 33 79 34
REMARK SMILES IDX 19 35 78 36 20 37 21 38 22 39 72 40 23 41 77 42 71 43 73 44
REMARK SMILES IDX 24 45 76 46 70 47 69 48 25 50 57 51 37 52 56 53 38 54 41 55
REMARK SMILES IDX 55 56 74 57 39 58 40 59 54 61 75 62 42 63 26 64 27 65 35 66
REMARK SMILES IDX 28 67 30 68 36 69 29 70 31 71 32 72 33 73 34 74 58 75 59 76
REMARK SMILES IDX 67 77 60 78 62 79 68 80 61 81 63 82 64 83 65 84 66 85 43 86
REMARK SMILES IDX 44 87 52 88 45 89 47 90 53 91 46 92 48 93 49 94 50 95 51 96
REMARK H PARENT 4 15 4 16 73 49 41 60
REMARK Flexibility Score: inf
ROOT
ATOM      1  C   UNL     1       0.789  -0.388   2.138  1.00  0.00     0.202 C 
ENDROOT
BRANCH   1   2
ATOM      2  O   UNL     1       1.135   0.659   1.234  1.00  0.00    -0.374 OA
BRANCH   2   3
ATOM      3  C   UNL     1       0.046   1.282   0.545  1.00  0.00     0.202 C 
BRANCH   3   4
ATOM      4  C   UNL     1      -0.503   0.490  -0.643  1.00  0.00     0.261 C 
BRANCH   4   5
ATOM      5  O   UNL     1      -1.276  -0.632  -0.175  1.00  0.00    -0.459 OA
BRANCH   5   6
ATOM      6  C   UNL     1      -0.847  -1.875  -0.512  1.00  0.00     0.368 C 
ATOM      7  O   UNL     1       0.180  -2.070  -1.157  1.00  0.00    -0.245 OA
BRANCH   6   8
ATOM      8  C   UNL     1      -1.711  -3.027   0.116  1.00  0.00     0.195 C 
ATOM      9  C   UNL     1      -1.291  -4.300  -0.696  1.00  0.00     0.081 C 
ATOM     10  C   UNL     1      -1.310  -3.276   1.601  1.00  0.00     0.096 C 
ATOM     11  C   UNL     1      -1.741  -5.637  -0.115  1.00  0.00     0.008 C 
ATOM     12  C   UNL     1      -1.809  -4.618   2.163  1.00  0.00     0.058 C 
ATOM     13  C   UNL     1      -1.293  -5.793   1.337  1.00  0.00     0.015 C 
BRANCH   8  14
ATOM     14  N   UNL     1      -3.181  -2.882  -0.072  1.00  0.00    -0.330 N 
ATOM     15  H   UNL     1      -3.374  -3.166  -1.033  1.00  0.00     0.347 HD
ATOM     16  H   UNL     1      -3.549  -3.441   0.697  1.00  0.00     0.347 HD
BRANCH  14  17
ATOM     17  C   UNL     1      -3.874  -1.600   0.123  1.00  0.00     0.176 C 
ATOM     18  C   UNL     1      -5.362  -1.827  -0.191  1.00  0.00     0.075 C 
ATOM     19  C   UNL     1      -3.777  -0.986   1.522  1.00  0.00     0.075 C 
ENDBRANCH  14  17
ENDBRANCH   8  14
BRANCH  12  20
ATOM     20  S   UNL     1      -1.551  -4.857   3.977  1.00  0.00    -0.122 SA
BRANCH  20  21
ATOM     21  C   UNL     1       0.211  -5.001   4.191  1.00  0.00     0.008 A 
ATOM     22  C   UNL     1       0.758  -6.200   4.663  1.00  0.00     0.016 A 
ATOM     23  C   UNL     1       1.040  -3.884   4.077  1.00  0.00     0.016 A 
ATOM     24  C   UNL     1       2.117  -6.280   4.995  1.00  0.00     0.021 A 
ATOM     25  C   UNL     1       2.397  -3.958   4.401  1.00  0.00     0.021 A 
ATOM     26  C   UNL     1       2.930  -5.157   4.862  1.00  0.00     0.041 A 
ATOM     27  Cl  UNL     1       4.591  -5.242   5.301  1.00  0.00    -0.084 Cl
ENDBRANCH  20  21
ENDBRANCH  12  20
ENDBRANCH   6   8
ENDBRANCH   5   6
ENDBRANCH   4   5
ENDBRANCH   3   4
ENDBRANCH   2   3
ENDBRANCH   1   2
BRANCH   1  28
ATOM     28  C   UNL     1       0.435   0.057   3.559  1.00  0.00     0.261 C 
BRANCH  28  29
ATOM     29  O   UNL     1      -0.816   0.757   3.588  1.00  0.00    -0.460 OA
BRANCH  29  30
ATOM     30  C   UNL     1      -0.695   2.097   3.698  1.00  0.00     0.338 C 
ATOM     31  O   UNL     1       0.342   2.734   3.847  1.00  0.00    -0.246 OA
BRANCH  30  32
ATOM     32  C   UNL     1      -1.991   2.741   3.440  1.00  0.00     0.060 A 
ATOM     33  C   UNL     1      -1.988   3.853   2.590  1.00  0.00     0.016 A 
ATOM     34  C   UNL     1      -3.167   2.322   4.069  1.00  0.00     0.016 A 
ATOM     35  C   UNL     1      -3.143   4.610   2.438  1.00  0.00     0.010 A 
ATOM     36  C   UNL     1      -4.327   3.083   3.913  1.00  0.00     0.010 A 
ATOM     37  C   UNL     1      -4.301   4.260   3.144  1.00  0.00    -0.014 A 
BRANCH  37  38
ATOM     38  C   UNL     1      -5.413   5.234   3.218  1.00  0.00     0.031 A 
ATOM     39  C   UNL     1      -5.562   6.069   4.460  1.00  0.00     0.074 A 
ATOM     40  C   UNL     1      -6.248   5.399   2.179  1.00  0.00     0.049 A 
ATOM     41  N   UNL     1      -6.441   6.997   4.732  1.00  0.00    -0.248 NA
ATOM     42  C   UNL     1      -4.592   5.824   5.540  1.00  0.00     0.031 C 
ATOM     43  C   UNL     1      -6.189   4.654   0.922  1.00  0.00     0.029 A 
ATOM     44  N   UNL     1      -7.318   6.242   2.024  1.00  0.00    -0.354 N 
ATOM     45  C   UNL     1      -6.151   7.425   6.022  1.00  0.00     0.074 A 
ATOM     46  C   UNL     1      -5.027   6.641   6.487  1.00  0.00     0.031 C 
ATOM     47  C   UNL     1      -7.191   5.064   0.127  1.00  0.00     0.029 A 
ATOM     48  C   UNL     1      -7.973   6.081   0.828  1.00  0.00     0.049 A 
ATOM     49  H   UNL     1      -7.590   6.899   2.705  1.00  0.00     0.167 HD
ATOM     50  C   UNL     1      -6.751   8.397   6.748  1.00  0.00     0.034 A 
ATOM     51  C   UNL     1      -9.085   6.681   0.360  1.00  0.00     0.034 A 
ATOM     52  C   UNL     1      -7.855   9.186   6.273  1.00  0.00     0.049 A 
ATOM     53  C   UNL     1      -9.753   7.740   1.196  1.00  0.00     0.074 A 
ATOM     54  C   UNL     1      -8.508  10.226   6.909  1.00  0.00     0.029 A 
ATOM     55  N   UNL     1      -8.479   9.011   5.047  1.00  0.00    -0.354 N 
ATOM     56  N   UNL     1      -9.400   8.213   2.368  1.00  0.00    -0.248 NA
ATOM     57  C   UNL     1     -10.953   8.373   0.630  1.00  0.00     0.031 C 
ATOM     58  C   UNL     1      -9.548  10.659   6.080  1.00  0.00     0.029 A 
ATOM     59  C   UNL     1      -9.520   9.913   4.912  1.00  0.00     0.049 A 
ATOM     60  H   UNL     1      -8.220   8.344   4.371  1.00  0.00     0.167 HD
ATOM     61  C   UNL     1     -10.309   9.224   2.662  1.00  0.00     0.074 A 
ATOM     62  C   UNL     1     -11.219   9.304   1.537  1.00  0.00     0.031 C 
ATOM     63  C   UNL     1     -10.388  10.011   3.765  1.00  0.00     0.034 A 
BRANCH  50  64
ATOM     64  C   UNL     1      -6.212   8.665   8.130  1.00  0.00     0.023 A 
ATOM     65  C   UNL     1      -4.950   9.277   8.284  1.00  0.00     0.012 A 
ATOM     66  C   UNL     1      -6.961   8.333   9.274  1.00  0.00     0.148 A 
ATOM     67  C   UNL     1      -4.425   9.512   9.554  1.00  0.00     0.002 A 
ATOM     68  C   UNL     1      -6.451   8.614  10.537  1.00  0.00     0.091 A 
ATOM     69  F   UNL     1      -8.146   7.728   9.111  1.00  0.00    -0.205 F 
ATOM     70  C   UNL     1      -5.178   9.190  10.679  1.00  0.00     0.022 A 
BRANCH  68  71
ATOM     71  S   UNL     1      -7.382   8.307  12.042  1.00  0.00     0.127 S 
ATOM     72  O   UNL     1      -6.692   7.137  12.582  1.00  0.00    -0.237 OA
ATOM     73  O   UNL     1      -7.168   9.543  12.796  1.00  0.00    -0.237 OA
ATOM     74  O   UNL     1      -8.759   8.086  11.622  1.00  0.00    -0.744 OA
ENDBRANCH  68  71
ENDBRANCH  50  64
BRANCH  51  75
ATOM     75  C   UNL     1      -9.603   6.323  -0.989  1.00  0.00     0.023 A 
ATOM     76  C   UNL     1      -9.508   7.256  -2.039  1.00  0.00     0.012 A 
ATOM     77  C   UNL     1     -10.151   5.051  -1.246  1.00  0.00     0.148 A 
ATOM     78  C   UNL     1      -9.971   6.937  -3.316  1.00  0.00     0.002 A 
ATOM     79  C   UNL     1     -10.560   4.721  -2.532  1.00  0.00     0.091 A 
ATOM     80  F   UNL     1     -10.241   4.183  -0.228  1.00  0.00    -0.205 F 
ATOM     81  C   UNL     1     -10.486   5.668  -3.565  1.00  0.00     0.022 A 
BRANCH  79  82
ATOM     82  S   UNL     1     -11.116   3.071  -2.975  1.00  0.00     0.127 S 
ATOM     83  O   UNL     1     -12.520   3.307  -3.301  1.00  0.00    -0.237 OA
ATOM     84  O   UNL     1     -10.258   2.765  -4.120  1.00  0.00    -0.237 OA
ATOM     85  O   UNL     1     -10.873   2.243  -1.802  1.00  0.00    -0.744 OA
ENDBRANCH  79  82
ENDBRANCH  51  75
BRANCH  63  86
ATOM     86  C   UNL     1     -11.471  11.058   3.801  1.00  0.00     0.023 A 
ATOM     87  C   UNL     1     -12.815  10.676   3.978  1.00  0.00     0.012 A 
ATOM     88  C   UNL     1     -11.144  12.428   3.737  1.00  0.00     0.148 A 
ATOM     89  C   UNL     1     -13.821  11.640   4.056  1.00  0.00     0.002 A 
ATOM     90  C   UNL     1     -12.145  13.383   3.868  1.00  0.00     0.091 A 
ATOM     91  F   UNL     1      -9.861  12.771   3.550  1.00  0.00    -0.205 F 
ATOM     92  C   UNL     1     -13.485  12.991   4.014  1.00  0.00     0.022 A 
BRANCH  90  93
ATOM     93  S   UNL     1     -11.793  15.144   3.925  1.00  0.00     0.127 S 
ATOM     94  O   UNL     1     -12.290  15.589   2.624  1.00  0.00    -0.237 OA
ATOM     95  O   UNL     1     -12.595  15.583   5.067  1.00  0.00    -0.237 OA
ATOM     96  O   UNL     1     -10.354  15.260   4.118  1.00  0.00    -0.744 OA
ENDBRANCH  90  93
ENDBRANCH  63  86
ENDBRANCH  37  38
ENDBRANCH  30  32
ENDBRANCH  29  30
ENDBRANCH  28  29
ENDBRANCH   1  28
TORSDOF 21
