REMARK SMILES CC1=C([C@@H](NC(=O)c2cc3c(s2)CCCCC3)C(=O)OCCOCCOC(=O)c2ccc(-c3c4nc(c(-c5cccc(S(=O)(=O)[O-])c5F)c5ccc([nH]5)c(-c5cccc(S(=O)(=O)[O-])c5F)c5nc(c(-c6cccc(S(=O)(=O)[O-])c6F)c6ccc3[nH]6)C=C5)C=C4)cc2)[C@H](C)N=N1
REMARK SMILES IDX 22 1 21 2 20 3 18 4 19 5 4 6 3 7 1 8 2 9 95 10 92 11 94 12
REMARK SMILES IDX 93 13 5 14 6 15 7 17 8 18 9 19 12 20 10 21 11 22 17 23 16 24
REMARK SMILES IDX 13 26 14 27 15 28 23 30 24 31 25 32 26 33 27 34 28 35 29 36
REMARK SMILES IDX 30 37 91 38 31 39 90 40 32 41 33 42 34 43 84 44 35 45 89 46
REMARK SMILES IDX 83 47 85 48 36 49 88 50 82 51 81 52 37 54 69 55 49 56 68 57
REMARK SMILES IDX 50 58 53 59 67 60 86 61 51 62 52 63 66 65 87 66 54 67 38 68
REMARK SMILES IDX 39 69 47 70 40 71 42 72 48 73 41 74 43 75 44 76 45 77 46 78
REMARK SMILES IDX 70 79 71 80 79 81 72 82 74 83 80 84 73 85 75 86 76 87 77 88
REMARK SMILES IDX 78 89 55 90 56 91 64 92 57 93 59 94 65 95 58 96 60 97 61 98
REMARK SMILES IDX 62 99 63 100
REMARK H PARENT 5 16 85 53 53 64
REMARK Flexibility Score: 90.00
ROOT
ATOM      1  C   UNL     1       3.379   3.179   4.769  1.00  0.00     0.202 C 
ENDROOT
BRANCH   1   2
ATOM      2  C   UNL     1       1.876   3.030   4.997  1.00  0.00     0.261 C 
BRANCH   2   3
ATOM      3  O   UNL     1       1.077   2.288   4.080  1.00  0.00    -0.461 OA
BRANCH   3   4
ATOM      4  C   UNL     1       0.651   2.960   2.980  1.00  0.00     0.333 C 
ATOM      5  O   UNL     1       1.191   3.967   2.534  1.00  0.00    -0.249 OA
BRANCH   4   6
ATOM      6  C   UNL     1      -0.620   2.361   2.345  1.00  0.00     0.223 C 
BRANCH   6   7
ATOM      7  C   UNL     1      -0.544   0.862   2.313  1.00  0.00     0.012 C 
ATOM      8  C   UNL     1       0.765   0.358   0.163  1.00  0.00     0.069 C 
ATOM      9  C   UNL     1       0.030   0.043   1.420  1.00  0.00     0.064 C 
ATOM     10  N   UNL     1      -0.117  -1.278   1.752  1.00  0.00    -0.160 NA
ATOM     11  C   UNL     1      -1.156  -0.054   3.332  1.00  0.00     0.156 C 
ATOM     12  N   UNL     1      -0.772  -1.395   2.821  1.00  0.00    -0.181 NA
ATOM     13  C   UNL     1      -0.653   0.073   4.759  1.00  0.00     0.040 C 
ENDBRANCH   6   7
BRANCH   6  14
ATOM     14  N   UNL     1      -1.949   2.741   2.845  1.00  0.00    -0.334 N 
ATOM     15  C   UNL     1      -2.440   3.901   3.401  1.00  0.00     0.262 C 
ATOM     16  H   UNL     1      -2.620   2.025   2.766  1.00  0.00     0.165 HD
ATOM     17  O   UNL     1      -3.661   4.060   3.378  1.00  0.00    -0.268 OA
BRANCH  15  18
ATOM     18  C   UNL     1      -1.556   4.785   4.117  1.00  0.00     0.092 A 
ATOM     19  C   UNL     1      -1.342   4.857   5.479  1.00  0.00     0.029 A 
ATOM     20  S   UNL     1      -0.756   6.069   3.340  1.00  0.00    -0.135 S 
ATOM     21  C   UNL     1      -0.217   5.698   5.832  1.00  0.00    -0.033 A 
ATOM     22  C   UNL     1       0.341   6.229   4.675  1.00  0.00     0.009 A 
BRANCH  21  23
ATOM     23  C   UNL     1       0.306   5.710   7.242  1.00  0.00     0.037 C 
BRANCH  23  24
ATOM     24  C   UNL     1       1.333   6.749   7.685  1.00  0.00     0.005 CG0
ATOM     25  G   UNL     1       1.724   7.854   6.713  1.00  0.00     0.000 G0
ENDBRANCH  23  24
ENDBRANCH  21  23
BRANCH  22  26
ATOM     26  C   UNL     1       1.700   6.793   4.372  1.00  0.00     0.047 C 
BRANCH  26  27
ATOM     27  C   UNL     1       2.524   7.314   5.539  1.00  0.00     0.006 C 
BRANCH  27  28
ATOM     28  C   UNL     1       1.724   7.854   6.713  1.00  0.00     0.001 CG0
ATOM     29  G   UNL     1       1.333   6.749   7.685  1.00  0.00     0.000 G0
ENDBRANCH  27  28
ENDBRANCH  26  27
ENDBRANCH  22  26
ENDBRANCH  15  18
ENDBRANCH   6  14
ENDBRANCH   4   6
ENDBRANCH   3   4
ENDBRANCH   2   3
ENDBRANCH   1   2
BRANCH   1  30
ATOM     30  O   UNL     1       3.903   3.313   3.459  1.00  0.00    -0.374 OA
BRANCH  30  31
ATOM     31  C   UNL     1       3.796   2.231   2.537  1.00  0.00     0.202 C 
BRANCH  31  32
ATOM     32  C   UNL     1       4.519   0.942   2.877  1.00  0.00     0.261 C 
BRANCH  32  33
ATOM     33  O   UNL     1       3.866   0.323   3.972  1.00  0.00    -0.460 OA
BRANCH  33  34
ATOM     34  C   UNL     1       4.542   0.292   5.128  1.00  0.00     0.338 C 
ATOM     35  O   UNL     1       5.633   0.813   5.375  1.00  0.00    -0.246 OA
BRANCH  34  36
ATOM     36  C   UNL     1       3.776  -0.507   6.077  1.00  0.00     0.060 A 
ATOM     37  C   UNL     1       4.360  -0.720   7.327  1.00  0.00     0.016 A 
ATOM     38  C   UNL     1       2.703  -1.277   5.601  1.00  0.00     0.016 A 
ATOM     39  C   UNL     1       4.088  -1.908   7.952  1.00  0.00     0.010 A 
ATOM     40  C   UNL     1       2.401  -2.440   6.245  1.00  0.00     0.010 A 
ATOM     41  C   UNL     1       3.213  -2.792   7.314  1.00  0.00    -0.014 A 
BRANCH  41  42
ATOM     42  C   UNL     1       3.232  -4.172   7.718  1.00  0.00     0.031 A 
ATOM     43  C   UNL     1       2.510  -4.401   8.974  1.00  0.00     0.074 A 
ATOM     44  C   UNL     1       3.777  -5.106   6.916  1.00  0.00     0.049 A 
ATOM     45  N   UNL     1       3.018  -4.711  10.118  1.00  0.00    -0.248 NA
ATOM     46  C   UNL     1       1.090  -4.025   9.016  1.00  0.00     0.031 C 
ATOM     47  C   UNL     1       4.257  -4.938   5.537  1.00  0.00     0.029 A 
ATOM     48  N   UNL     1       3.857  -6.447   7.106  1.00  0.00    -0.354 N 
ATOM     49  C   UNL     1       1.920  -4.845  10.956  1.00  0.00     0.074 A 
ATOM     50  C   UNL     1       0.832  -4.155  10.317  1.00  0.00     0.031 C 
ATOM     51  C   UNL     1       4.310  -6.148   4.940  1.00  0.00     0.029 A 
ATOM     52  C   UNL     1       3.986  -7.167   5.923  1.00  0.00     0.049 A 
ATOM     53  H   UNL     1       3.827  -6.870   7.994  1.00  0.00     0.167 HD
ATOM     54  C   UNL     1       1.905  -5.798  11.923  1.00  0.00     0.034 A 
ATOM     55  C   UNL     1       3.730  -8.488   5.761  1.00  0.00     0.034 A 
ATOM     56  C   UNL     1       3.229  -6.303  12.189  1.00  0.00     0.049 A 
ATOM     57  C   UNL     1       3.744  -9.105   7.112  1.00  0.00     0.074 A 
ATOM     58  C   UNL     1       4.429  -5.728  12.558  1.00  0.00     0.029 A 
ATOM     59  N   UNL     1       3.537  -7.544  11.682  1.00  0.00    -0.354 N 
ATOM     60  N   UNL     1       4.819  -9.216   7.841  1.00  0.00    -0.248 NA
ATOM     61  C   UNL     1       2.487  -9.188   7.843  1.00  0.00     0.031 C 
ATOM     62  C   UNL     1       5.425  -6.462  11.853  1.00  0.00     0.029 A 
ATOM     63  C   UNL     1       4.793  -7.483  11.140  1.00  0.00     0.049 A 
ATOM     64  H   UNL     1       2.955  -8.338  11.706  1.00  0.00     0.167 HD
ATOM     65  C   UNL     1       4.397  -8.910   9.130  1.00  0.00     0.074 A 
ATOM     66  C   UNL     1       2.941  -9.033   9.090  1.00  0.00     0.031 C 
ATOM     67  C   UNL     1       5.231  -8.283  10.014  1.00  0.00     0.034 A 
BRANCH  54  68
ATOM     68  C   UNL     1       0.667  -6.555  12.332  1.00  0.00     0.023 A 
ATOM     69  C   UNL     1       0.766  -7.368  13.479  1.00  0.00     0.012 A 
ATOM     70  C   UNL     1      -0.482  -6.722  11.523  1.00  0.00     0.148 A 
ATOM     71  C   UNL     1      -0.204  -8.330  13.777  1.00  0.00     0.002 A 
ATOM     72  C   UNL     1      -1.487  -7.613  11.873  1.00  0.00     0.091 A 
ATOM     73  F   UNL     1      -0.561  -6.136  10.326  1.00  0.00    -0.205 F 
ATOM     74  C   UNL     1      -1.337  -8.445  12.981  1.00  0.00     0.022 A 
BRANCH  72  75
ATOM     75  S   UNL     1      -2.990  -7.745  10.898  1.00  0.00     0.127 S 
ATOM     76  O   UNL     1      -2.741  -8.966  10.140  1.00  0.00    -0.237 OA
ATOM     77  O   UNL     1      -4.014  -7.854  11.938  1.00  0.00    -0.237 OA
ATOM     78  O   UNL     1      -3.060  -6.509  10.127  1.00  0.00    -0.744 OA
ENDBRANCH  72  75
ENDBRANCH  54  68
BRANCH  55  79
ATOM     79  C   UNL     1       3.234  -9.207   4.563  1.00  0.00     0.023 A 
ATOM     80  C   UNL     1       3.380 -10.605   4.484  1.00  0.00     0.012 A 
ATOM     81  C   UNL     1       2.405  -8.573   3.609  1.00  0.00     0.148 A 
ATOM     82  C   UNL     1       2.704 -11.349   3.508  1.00  0.00     0.002 A 
ATOM     83  C   UNL     1       1.751  -9.313   2.628  1.00  0.00     0.091 A 
ATOM     84  F   UNL     1       2.175  -7.258   3.717  1.00  0.00    -0.205 F 
ATOM     85  C   UNL     1       1.888 -10.704   2.582  1.00  0.00     0.022 A 
BRANCH  83  86
ATOM     86  S   UNL     1       0.681  -8.539   1.407  1.00  0.00     0.127 S 
ATOM     87  O   UNL     1       1.069  -9.229   0.176  1.00  0.00    -0.237 OA
ATOM     88  O   UNL     1      -0.647  -8.881   1.908  1.00  0.00    -0.237 OA
ATOM     89  O   UNL     1       1.025  -7.122   1.426  1.00  0.00    -0.744 OA
ENDBRANCH  83  86
ENDBRANCH  55  79
BRANCH  67  90
ATOM     90  C   UNL     1       6.694  -8.165   9.649  1.00  0.00     0.023 A 
ATOM     91  C   UNL     1       7.130  -7.448   8.515  1.00  0.00     0.012 A 
ATOM     92  C   UNL     1       7.655  -8.621  10.568  1.00  0.00     0.148 A 
ATOM     93  C   UNL     1       8.488  -7.212   8.289  1.00  0.00     0.002 A 
ATOM     94  C   UNL     1       9.002  -8.340  10.367  1.00  0.00     0.091 A 
ATOM     95  F   UNL     1       7.231  -9.297  11.648  1.00  0.00    -0.205 F 
ATOM     96  C   UNL     1       9.424  -7.646   9.223  1.00  0.00     0.022 A 
BRANCH  94  97
ATOM     97  S   UNL     1      10.236  -8.748  11.605  1.00  0.00     0.127 S 
ATOM     98  O   UNL     1      10.856  -9.943  11.038  1.00  0.00    -0.237 OA
ATOM     99  O   UNL     1      11.089  -7.558  11.606  1.00  0.00    -0.237 OA
ATOM    100  O   UNL     1       9.501  -8.947  12.848  1.00  0.00    -0.744 OA
ENDBRANCH  94  97
ENDBRANCH  67  90
ENDBRANCH  41  42
ENDBRANCH  34  36
ENDBRANCH  33  34
ENDBRANCH  32  33
ENDBRANCH  31  32
ENDBRANCH  30  31
ENDBRANCH   1  30
TORSDOF 20
