REMARK SMILES O=C(OCCOCCOC(=O)[C@@H]1CCCC[C@@H]1C(=O)Nc1cccc(Br)c1)c1ccc(-c2c3nc(c(-c4cccc(S(=O)(=O)[O-])c4F)c4ccc([nH]4)c(-c4cccc(S(=O)(=O)[O-])c4F)c4nc(c(-c5cccc(S(=O)(=O)[O-])c5F)c5ccc2[nH]5)C=C4)C=C3)cc1
REMARK SMILES IDX 5 1 4 2 3 3 2 4 1 5 28 6 29 7 90 8 30 9 89 10 31 11 32 12
REMARK SMILES IDX 33 13 83 14 34 15 88 16 82 17 84 18 35 19 87 20 81 21 80 22
REMARK SMILES IDX 36 24 68 25 48 26 67 27 49 28 52 29 66 30 85 31 50 32 51 33
REMARK SMILES IDX 65 35 86 36 53 37 37 38 38 39 46 40 39 41 41 42 47 43 40 44
REMARK SMILES IDX 42 45 43 46 44 47 45 48 69 49 70 50 78 51 71 52 73 53 79 54
REMARK SMILES IDX 72 55 74 56 75 57 76 58 77 59 54 60 55 61 63 62 56 63 58 64
REMARK SMILES IDX 64 65 57 66 59 67 60 68 61 69 62 70 6 71 7 72 8 73 9 74
REMARK SMILES IDX 10 75 11 76 12 77 13 78 17 79 14 80 16 81 15 82 18 83 19 84
REMARK SMILES IDX 20 85 21 87 22 88 27 89 23 90 25 91 24 92 26 93
REMARK H PARENT 84 23 52 34 20 86
REMARK Flexibility Score: inf
ROOT
ATOM      1  C   UNL     1       4.023  -0.454  -0.987  1.00  0.00     0.202 C 
ENDROOT
BRANCH   1   2
ATOM      2  C   UNL     1       3.506  -0.702   0.430  1.00  0.00     0.261 C 
BRANCH   2   3
ATOM      3  O   UNL     1       2.096  -0.422   0.518  1.00  0.00    -0.460 OA
BRANCH   3   4
ATOM      4  C   UNL     1       1.547   0.678   1.098  1.00  0.00     0.338 C 
ATOM      5  O   UNL     1       0.332   0.749   1.256  1.00  0.00    -0.246 OA
BRANCH   4   6
ATOM      6  C   UNL     1       2.413   1.778   1.597  1.00  0.00     0.060 A 
ATOM      7  C   UNL     1       3.542   2.193   0.903  1.00  0.00     0.016 A 
ATOM      8  C   UNL     1       2.084   2.449   2.774  1.00  0.00     0.016 A 
ATOM      9  C   UNL     1       4.441   3.087   1.415  1.00  0.00     0.010 A 
ATOM     10  C   UNL     1       2.911   3.480   3.236  1.00  0.00     0.010 A 
ATOM     11  C   UNL     1       4.104   3.781   2.559  1.00  0.00    -0.014 A 
BRANCH  11  12
ATOM     12  C   UNL     1       5.087   4.766   3.020  1.00  0.00     0.031 A 
ATOM     13  C   UNL     1       5.808   4.490   4.293  1.00  0.00     0.074 A 
ATOM     14  C   UNL     1       5.408   5.794   2.210  1.00  0.00     0.049 A 
ATOM     15  N   UNL     1       6.630   5.254   4.950  1.00  0.00    -0.248 NA
ATOM     16  C   UNL     1       5.571   3.174   4.915  1.00  0.00     0.031 C 
ATOM     17  C   UNL     1       4.848   6.029   0.870  1.00  0.00     0.029 A 
ATOM     18  N   UNL     1       6.303   6.813   2.370  1.00  0.00    -0.354 N 
ATOM     19  C   UNL     1       6.923   4.562   6.115  1.00  0.00     0.074 A 
ATOM     20  C   UNL     1       6.232   3.295   6.055  1.00  0.00     0.031 C 
ATOM     21  C   UNL     1       5.438   7.101   0.323  1.00  0.00     0.029 A 
ATOM     22  C   UNL     1       6.325   7.691   1.311  1.00  0.00     0.049 A 
ATOM     23  H   UNL     1       6.877   6.909   3.165  1.00  0.00     0.167 HD
ATOM     24  C   UNL     1       7.683   4.981   7.149  1.00  0.00     0.034 A 
ATOM     25  C   UNL     1       6.955   8.872   1.190  1.00  0.00     0.034 A 
ATOM     26  C   UNL     1       8.374   6.239   7.135  1.00  0.00     0.049 A 
ATOM     27  C   UNL     1       7.769   9.328   2.367  1.00  0.00     0.074 A 
ATOM     28  C   UNL     1       9.148   6.815   8.122  1.00  0.00     0.029 A 
ATOM     29  N   UNL     1       8.367   7.120   6.058  1.00  0.00    -0.354 N 
ATOM     30  N   UNL     1       8.009   8.697   3.494  1.00  0.00    -0.248 NA
ATOM     31  C   UNL     1       8.397  10.647   2.266  1.00  0.00     0.031 C 
ATOM     32  C   UNL     1       9.587   8.058   7.650  1.00  0.00     0.029 A 
ATOM     33  C   UNL     1       9.121   8.237   6.353  1.00  0.00     0.049 A 
ATOM     34  H   UNL     1       7.893   6.968   5.209  1.00  0.00     0.167 HD
ATOM     35  C   UNL     1       8.845   9.525   4.225  1.00  0.00     0.074 A 
ATOM     36  C   UNL     1       9.081  10.698   3.401  1.00  0.00     0.031 C 
ATOM     37  C   UNL     1       9.363   9.350   5.466  1.00  0.00     0.034 A 
BRANCH  24  38
ATOM     38  C   UNL     1       7.714   4.106   8.371  1.00  0.00     0.023 A 
ATOM     39  C   UNL     1       8.391   2.870   8.356  1.00  0.00     0.012 A 
ATOM     40  C   UNL     1       7.008   4.493   9.527  1.00  0.00     0.148 A 
ATOM     41  C   UNL     1       8.321   2.011   9.454  1.00  0.00     0.002 A 
ATOM     42  C   UNL     1       6.983   3.654  10.633  1.00  0.00     0.091 A 
ATOM     43  F   UNL     1       6.339   5.655   9.508  1.00  0.00    -0.205 F 
ATOM     44  C   UNL     1       7.624   2.405  10.593  1.00  0.00     0.022 A 
BRANCH  42  45
ATOM     45  S   UNL     1       6.162   4.103  12.166  1.00  0.00     0.127 S 
ATOM     46  O   UNL     1       5.022   3.187  12.170  1.00  0.00    -0.237 OA
ATOM     47  O   UNL     1       7.191   3.801  13.162  1.00  0.00    -0.237 OA
ATOM     48  O   UNL     1       5.830   5.515  12.046  1.00  0.00    -0.744 OA
ENDBRANCH  42  45
ENDBRANCH  24  38
BRANCH  25  49
ATOM     49  C   UNL     1       6.827   9.682  -0.055  1.00  0.00     0.023 A 
ATOM     50  C   UNL     1       7.963   9.901  -0.858  1.00  0.00     0.012 A 
ATOM     51  C   UNL     1       5.587  10.211  -0.470  1.00  0.00     0.148 A 
ATOM     52  C   UNL     1       7.872  10.652  -2.032  1.00  0.00     0.002 A 
ATOM     53  C   UNL     1       5.492  10.910  -1.668  1.00  0.00     0.091 A 
ATOM     54  F   UNL     1       4.516  10.006   0.310  1.00  0.00    -0.205 F 
ATOM     55  C   UNL     1       6.637  11.147  -2.442  1.00  0.00     0.022 A 
BRANCH  53  56
ATOM     56  S   UNL     1       3.924  11.480  -2.336  1.00  0.00     0.127 S 
ATOM     57  O   UNL     1       4.047  12.928  -2.192  1.00  0.00    -0.237 OA
ATOM     58  O   UNL     1       3.985  10.990  -3.713  1.00  0.00    -0.237 OA
ATOM     59  O   UNL     1       2.895  10.849  -1.520  1.00  0.00    -0.744 OA
ENDBRANCH  53  56
ENDBRANCH  25  49
BRANCH  37  60
ATOM     60  C   UNL     1      10.287  10.420   5.969  1.00  0.00     0.023 A 
ATOM     61  C   UNL     1       9.772  11.660   6.388  1.00  0.00     0.012 A 
ATOM     62  C   UNL     1      11.662  10.149   6.101  1.00  0.00     0.148 A 
ATOM     63  C   UNL     1      10.624  12.633   6.906  1.00  0.00     0.002 A 
ATOM     64  C   UNL     1      12.493  11.100   6.672  1.00  0.00     0.091 A 
ATOM     65  F   UNL     1      12.128   8.968   5.669  1.00  0.00    -0.205 F 
ATOM     66  C   UNL     1      11.979  12.348   7.062  1.00  0.00     0.022 A 
BRANCH  64  67
ATOM     67  S   UNL     1      14.222  10.765   7.016  1.00  0.00     0.127 S 
ATOM     68  O   UNL     1      14.889  11.527   5.962  1.00  0.00    -0.237 OA
ATOM     69  O   UNL     1      14.383  11.314   8.363  1.00  0.00    -0.237 OA
ATOM     70  O   UNL     1      14.372   9.318   6.936  1.00  0.00    -0.744 OA
ENDBRANCH  64  67
ENDBRANCH  37  60
ENDBRANCH  11  12
ENDBRANCH   4   6
ENDBRANCH   3   4
ENDBRANCH   2   3
ENDBRANCH   1   2
BRANCH   1  71
ATOM     71  O   UNL     1       3.598   0.737  -1.634  1.00  0.00    -0.374 OA
BRANCH  71  72
ATOM     72  C   UNL     1       2.421   0.645  -2.419  1.00  0.00     0.202 C 
BRANCH  72  73
ATOM     73  C   UNL     1       2.829   0.603  -3.888  1.00  0.00     0.261 C 
BRANCH  73  74
ATOM     74  O   UNL     1       3.450  -0.667  -4.163  1.00  0.00    -0.463 OA
BRANCH  74  75
ATOM     75  C   UNL     1       4.791  -0.789  -3.930  1.00  0.00     0.309 C 
ATOM     76  O   UNL     1       5.580   0.130  -3.787  1.00  0.00    -0.252 OA
BRANCH  75  77
ATOM     77  C   UNL     1       5.184  -2.258  -3.981  1.00  0.00     0.111 C 
ATOM     78  C   UNL     1       4.103  -3.236  -3.481  1.00  0.00     0.016 C 
ATOM     79  C   UNL     1       6.596  -2.589  -3.410  1.00  0.00     0.093 C 
ATOM     80  C   UNL     1       4.467  -4.680  -3.796  1.00  0.00     0.001 C 
ATOM     81  C   UNL     1       6.904  -4.011  -3.923  1.00  0.00     0.014 C 
ATOM     82  C   UNL     1       5.894  -5.029  -3.392  1.00  0.00     0.001 C 
BRANCH  79  83
ATOM     83  C   UNL     1       6.751  -2.548  -1.871  1.00  0.00     0.228 C 
ATOM     84  O   UNL     1       5.779  -2.528  -1.113  1.00  0.00    -0.274 OA
ATOM     85  N   UNL     1       7.962  -2.695  -1.243  1.00  0.00    -0.326 N 
ATOM     86  H   UNL     1       8.001  -2.424  -0.297  1.00  0.00     0.169 HD
BRANCH  85  87
ATOM     87  C   UNL     1       9.145  -3.186  -1.798  1.00  0.00     0.042 A 
ATOM     88  C   UNL     1       9.790  -2.548  -2.855  1.00  0.00     0.026 A 
ATOM     89  C   UNL     1       9.603  -4.420  -1.325  1.00  0.00     0.041 A 
ATOM     90  C   UNL     1      10.842  -3.192  -3.507  1.00  0.00     0.003 A 
ATOM     91  C   UNL     1      10.624  -5.072  -2.009  1.00  0.00     0.020 A 
ATOM     92  C   UNL     1      11.240  -4.468  -3.105  1.00  0.00     0.016 A 
ATOM     93  Br  UNL     1      11.113  -6.827  -1.503  1.00  0.00    -0.051 Br
ENDBRANCH  85  87
ENDBRANCH  79  83
ENDBRANCH  75  77
ENDBRANCH  74  75
ENDBRANCH  73  74
ENDBRANCH  72  73
ENDBRANCH  71  72
ENDBRANCH   1  71
TORSDOF 19
