REMARK SMILES CC1(C)C[C@@H](Nc2ccc(Cl)c(C(=O)OCCOCCOC(=O)c3ccc(-c4c5nc(c(-c6cccc(S(=O)(=O)[O-])c6F)c6ccc([nH]6)c(-c6cccc(S(=O)(=O)[O-])c6F)c6nc(c(-c7cccc(S(=O)(=O)[O-])c7F)c7ccc4[nH]7)C=C6)C=C5)cc3)c2)C(C)(C)O1
REMARK SMILES IDX 19 1 18 2 17 3 16 4 15 5 13 6 14 7 12 8 7 9 8 10 87 11 9 12
REMARK SMILES IDX 10 13 11 14 6 15 5 17 1 18 2 19 3 20 4 21 91 22 88 23 89 24
REMARK SMILES IDX 90 25 20 26 21 27 22 28 23 29 24 30 25 31 86 32 26 33 85 34
REMARK SMILES IDX 27 35 28 36 29 37 79 38 30 39 84 40 78 41 80 42 31 43 83 44
REMARK SMILES IDX 77 45 76 46 32 48 64 49 44 50 63 51 45 52 48 53 62 54 81 55
REMARK SMILES IDX 46 56 47 57 61 59 82 60 49 61 33 62 34 63 42 64 35 65 37 66
REMARK SMILES IDX 43 67 36 68 38 69 39 70 40 71 41 72 65 73 66 74 74 75 67 76
REMARK SMILES IDX 69 77 75 78 68 79 70 80 71 81 72 82 73 83 50 84 51 85 59 86
REMARK SMILES IDX 52 87 54 88 60 89 53 90 55 91 56 92 57 93 58 94
REMARK H PARENT 6 16 80 47 48 58
REMARK Flexibility Score: inf
ROOT
ATOM      1  C   UNL     1      -5.985   8.045  -1.278  1.00  0.00     0.202 C 
ENDROOT
BRANCH   1   2
ATOM      2  O   UNL     1      -5.779   9.365  -1.784  1.00  0.00    -0.374 OA
BRANCH   2   3
ATOM      3  C   UNL     1      -6.176   9.607  -3.138  1.00  0.00     0.202 C 
BRANCH   3   4
ATOM      4  C   UNL     1      -5.202   9.104  -4.205  1.00  0.00     0.261 C 
BRANCH   4   5
ATOM      5  O   UNL     1      -5.169   7.668  -4.201  1.00  0.00    -0.460 OA
BRANCH   5   6
ATOM      6  C   UNL     1      -3.952   7.101  -4.067  1.00  0.00     0.339 C 
ATOM      7  O   UNL     1      -2.871   7.675  -4.047  1.00  0.00    -0.246 OA
BRANCH   6   8
ATOM      8  C   UNL     1      -4.090   5.680  -3.698  1.00  0.00     0.080 A 
ATOM      9  C   UNL     1      -3.306   3.930  -2.190  1.00  0.00     0.035 A 
ATOM     10  C   UNL     1      -4.096   3.012  -2.883  1.00  0.00     0.027 A 
ATOM     11  C   UNL     1      -3.304   5.260  -2.609  1.00  0.00     0.043 A 
ATOM     12  C   UNL     1      -4.908   3.426  -3.945  1.00  0.00     0.023 A 
ATOM     13  C   UNL     1      -4.907   4.761  -4.360  1.00  0.00     0.055 A 
ATOM     14  Cl  UNL     1      -5.889   5.171  -5.716  1.00  0.00    -0.083 Cl
BRANCH   9  15
ATOM     15  N   UNL     1      -2.444   3.518  -1.180  1.00  0.00    -0.379 N 
ATOM     16  H   UNL     1      -2.642   3.688  -0.231  1.00  0.00     0.160 HD
BRANCH  15  17
ATOM     17  C   UNL     1      -1.229   2.819  -1.599  1.00  0.00     0.113 C 
ATOM     18  C   UNL     1       0.889   0.260   0.051  1.00  0.00     0.042 C 
ATOM     19  C   UNL     1       0.377   1.164  -1.066  1.00  0.00     0.065 C 
ATOM     20  C   UNL     1       0.706   0.543  -2.429  1.00  0.00     0.042 C 
ATOM     21  C   UNL     1      -1.109   1.476  -0.909  1.00  0.00     0.062 C 
ATOM     22  O   UNL     1       1.060   2.431  -0.986  1.00  0.00    -0.367 OA
ATOM     23  C   UNL     1       0.105   3.503  -1.205  1.00  0.00     0.083 C 
ATOM     24  C   UNL     1       0.067   4.306   0.101  1.00  0.00     0.044 C 
ATOM     25  C   UNL     1       0.640   4.387  -2.332  1.00  0.00     0.044 C 
ENDBRANCH  15  17
ENDBRANCH   9  15
ENDBRANCH   6   8
ENDBRANCH   5   6
ENDBRANCH   4   5
ENDBRANCH   3   4
ENDBRANCH   2   3
ENDBRANCH   1   2
BRANCH   1  26
ATOM     26  C   UNL     1      -7.407   7.712  -0.810  1.00  0.00     0.261 C 
BRANCH  26  27
ATOM     27  O   UNL     1      -8.352   7.704  -1.893  1.00  0.00    -0.460 OA
BRANCH  27  28
ATOM     28  C   UNL     1      -9.209   8.753  -1.906  1.00  0.00     0.338 C 
ATOM     29  O   UNL     1      -9.296   9.643  -1.070  1.00  0.00    -0.246 OA
BRANCH  28  30
ATOM     30  C   UNL     1      -9.948   8.791  -3.182  1.00  0.00     0.060 A 
ATOM     31  C   UNL     1      -9.966  10.004  -3.883  1.00  0.00     0.016 A 
ATOM     32  C   UNL     1     -10.665   7.689  -3.654  1.00  0.00     0.016 A 
ATOM     33  C   UNL     1     -10.743  10.136  -5.032  1.00  0.00     0.010 A 
ATOM     34  C   UNL     1     -11.449   7.826  -4.805  1.00  0.00     0.010 A 
ATOM     35  C   UNL     1     -11.520   9.059  -5.478  1.00  0.00    -0.014 A 
BRANCH  35  36
ATOM     36  C   UNL     1     -12.498   9.261  -6.575  1.00  0.00     0.031 A 
ATOM     37  C   UNL     1     -13.952   9.446  -6.236  1.00  0.00     0.074 A 
ATOM     38  C   UNL     1     -12.095   9.279  -7.858  1.00  0.00     0.049 A 
ATOM     39  N   UNL     1     -14.972   9.617  -7.035  1.00  0.00    -0.248 NA
ATOM     40  C   UNL     1     -14.303   9.432  -4.806  1.00  0.00     0.031 C 
ATOM     41  C   UNL     1     -10.716   9.108  -8.312  1.00  0.00     0.029 A 
ATOM     42  N   UNL     1     -12.817   9.424  -9.016  1.00  0.00    -0.354 N 
ATOM     43  C   UNL     1     -16.089   9.704  -6.212  1.00  0.00     0.074 A 
ATOM     44  C   UNL     1     -15.623   9.554  -4.850  1.00  0.00     0.031 C 
ATOM     45  C   UNL     1     -10.695   9.130  -9.656  1.00  0.00     0.029 A 
ATOM     46  C   UNL     1     -12.059   9.295 -10.155  1.00  0.00     0.049 A 
ATOM     47  H   UNL     1     -13.785   9.604  -9.030  1.00  0.00     0.167 HD
ATOM     48  C   UNL     1     -17.383   9.907  -6.556  1.00  0.00     0.034 A 
ATOM     49  C   UNL     1     -12.426   9.290 -11.452  1.00  0.00     0.034 A 
ATOM     50  C   UNL     1     -17.842  10.079  -7.908  1.00  0.00     0.049 A 
ATOM     51  C   UNL     1     -13.875   9.501 -11.809  1.00  0.00     0.074 A 
ATOM     52  C   UNL     1     -19.125  10.344  -8.353  1.00  0.00     0.029 A 
ATOM     53  N   UNL     1     -17.038   9.990  -9.034  1.00  0.00    -0.354 N 
ATOM     54  N   UNL     1     -14.899   9.712 -11.017  1.00  0.00    -0.248 NA
ATOM     55  C   UNL     1     -14.215   9.507 -13.240  1.00  0.00     0.031 C 
ATOM     56  C   UNL     1     -19.101  10.392  -9.751  1.00  0.00     0.029 A 
ATOM     57  C   UNL     1     -17.798  10.181 -10.175  1.00  0.00     0.049 A 
ATOM     58  H   UNL     1     -16.069   9.816  -9.024  1.00  0.00     0.167 HD
ATOM     59  C   UNL     1     -15.994   9.911 -11.851  1.00  0.00     0.074 A 
ATOM     60  C   UNL     1     -15.505   9.814 -13.211  1.00  0.00     0.031 C 
ATOM     61  C   UNL     1     -17.290  10.138 -11.522  1.00  0.00     0.034 A 
BRANCH  48  62
ATOM     62  C   UNL     1     -18.396   9.988  -5.445  1.00  0.00     0.023 A 
ATOM     63  C   UNL     1     -18.442  11.135  -4.628  1.00  0.00     0.012 A 
ATOM     64  C   UNL     1     -19.337   8.958  -5.247  1.00  0.00     0.148 A 
ATOM     65  C   UNL     1     -19.390  11.244  -3.610  1.00  0.00     0.002 A 
ATOM     66  C   UNL     1     -20.304   9.092  -4.257  1.00  0.00     0.091 A 
ATOM     67  F   UNL     1     -19.262   7.865  -6.019  1.00  0.00    -0.205 F 
ATOM     68  C   UNL     1     -20.326  10.229  -3.432  1.00  0.00     0.022 A 
BRANCH  66  69
ATOM     69  S   UNL     1     -21.598   7.873  -3.999  1.00  0.00     0.127 S 
ATOM     70  O   UNL     1     -21.171   7.250  -2.747  1.00  0.00    -0.237 OA
ATOM     71  O   UNL     1     -22.793   8.710  -3.887  1.00  0.00    -0.237 OA
ATOM     72  O   UNL     1     -21.573   7.008  -5.170  1.00  0.00    -0.744 OA
ENDBRANCH  66  69
ENDBRANCH  48  62
BRANCH  49  73
ATOM     73  C   UNL     1     -11.397   9.117 -12.516  1.00  0.00     0.023 A 
ATOM     74  C   UNL     1     -11.074  10.203 -13.352  1.00  0.00     0.012 A 
ATOM     75  C   UNL     1     -10.724   7.892 -12.689  1.00  0.00     0.148 A 
ATOM     76  C   UNL     1     -10.120  10.064 -14.361  1.00  0.00     0.002 A 
ATOM     77  C   UNL     1      -9.736   7.776 -13.661  1.00  0.00     0.091 A 
ATOM     78  F   UNL     1     -11.059   6.865 -11.896  1.00  0.00    -0.205 F 
ATOM     79  C   UNL     1      -9.444   8.856 -14.508  1.00  0.00     0.022 A 
BRANCH  77  80
ATOM     80  S   UNL     1      -8.730   6.299 -13.839  1.00  0.00     0.127 S 
ATOM     81  O   UNL     1      -9.230   5.746 -15.095  1.00  0.00    -0.237 OA
ATOM     82  O   UNL     1      -7.380   6.859 -13.906  1.00  0.00    -0.237 OA
ATOM     83  O   UNL     1      -8.989   5.501 -12.648  1.00  0.00    -0.744 OA
ENDBRANCH  77  80
ENDBRANCH  49  73
BRANCH  61  84
ATOM     84  C   UNL     1     -18.276  10.334 -12.645  1.00  0.00     0.023 A 
ATOM     85  C   UNL     1     -18.683   9.230 -13.419  1.00  0.00     0.012 A 
ATOM     86  C   UNL     1     -18.860  11.595 -12.879  1.00  0.00     0.148 A 
ATOM     87  C   UNL     1     -19.634   9.383 -14.428  1.00  0.00     0.002 A 
ATOM     88  C   UNL     1     -19.842  11.731 -13.854  1.00  0.00     0.091 A 
ATOM     89  F   UNL     1     -18.447  12.638 -12.144  1.00  0.00    -0.205 F 
ATOM     90  C   UNL     1     -20.221  10.629 -14.637  1.00  0.00     0.022 A 
BRANCH  88  91
ATOM     91  S   UNL     1     -20.720  13.274 -14.128  1.00  0.00     0.127 S 
ATOM     92  O   UNL     1     -20.135  13.731 -15.388  1.00  0.00    -0.237 OA
ATOM     93  O   UNL     1     -22.110  12.829 -14.227  1.00  0.00    -0.237 OA
ATOM     94  O   UNL     1     -20.435  14.108 -12.967  1.00  0.00    -0.744 OA
ENDBRANCH  88  91
ENDBRANCH  61  84
ENDBRANCH  35  36
ENDBRANCH  28  30
ENDBRANCH  27  28
ENDBRANCH  26  27
ENDBRANCH   1  26
TORSDOF 19
