REMARK SMILES O=C(OCCOCCOC(=O)c1cc(S(=O)(=O)Nc2ccccc2-n2cc(Br)cn2)c[nH]1)c1ccc(-c2c3nc(c(-c4cccc(S(=O)(=O)[O-])c4F)c4ccc([nH]4)c(-c4cccc(S(=O)(=O)[O-])c4F)c4nc(c(-c5cccc(S(=O)(=O)[O-])c5F)c5ccc2[nH]5)C=C4)C=C3)cc1
REMARK SMILES IDX 7 1 6 2 5 3 4 4 3 5 2 6 1 7 33 8 34 9 95 10 35 11 94 12
REMARK SMILES IDX 36 13 37 14 38 15 88 16 39 17 93 18 87 19 89 20 40 21 92 22
REMARK SMILES IDX 86 23 85 24 41 26 73 27 53 28 72 29 54 30 57 31 71 32 90 33
REMARK SMILES IDX 55 34 56 35 70 37 91 38 58 39 42 40 43 41 51 42 44 43 46 44
REMARK SMILES IDX 52 45 45 46 47 47 48 48 49 49 50 50 74 51 75 52 83 53 76 54
REMARK SMILES IDX 78 55 84 56 77 57 79 58 80 59 81 60 82 61 59 62 60 63 68 64
REMARK SMILES IDX 61 65 63 66 69 67 62 68 64 69 65 70 66 71 67 72 8 73 9 74
REMARK SMILES IDX 10 75 11 76 12 77 13 78 32 79 14 80 31 81 15 83 16 84 17 85
REMARK SMILES IDX 18 86 19 88 20 89 24 90 21 91 23 92 22 93 25 94 26 95 30 96
REMARK SMILES IDX 27 97 29 98 28 99
REMARK H PARENT 89 25 57 36 32 82 18 87
REMARK Flexibility Score: inf
ROOT
ATOM      1  C   UNL     1       3.132  -1.938   0.446  1.00  0.00     0.202 C 
ENDROOT
BRANCH   1   2
ATOM      2  O   UNL     1       4.334  -1.293   0.004  1.00  0.00    -0.374 OA
BRANCH   2   3
ATOM      3  C   UNL     1       4.805  -0.167   0.743  1.00  0.00     0.202 C 
BRANCH   3   4
ATOM      4  C   UNL     1       4.219   1.216   0.465  1.00  0.00     0.261 C 
BRANCH   4   5
ATOM      5  O   UNL     1       2.785   1.182   0.557  1.00  0.00    -0.460 OA
BRANCH   5   6
ATOM      6  C   UNL     1       1.954   0.830  -0.461  1.00  0.00     0.338 C 
ATOM      7  O   UNL     1       0.823   0.413  -0.236  1.00  0.00    -0.246 OA
BRANCH   6   8
ATOM      8  C   UNL     1       2.376   1.163  -1.828  1.00  0.00     0.060 A 
ATOM      9  C   UNL     1       3.630   0.834  -2.348  1.00  0.00     0.016 A 
ATOM     10  C   UNL     1       1.473   1.927  -2.570  1.00  0.00     0.016 A 
ATOM     11  C   UNL     1       4.089   1.488  -3.467  1.00  0.00     0.010 A 
ATOM     12  C   UNL     1       1.890   2.501  -3.755  1.00  0.00     0.010 A 
ATOM     13  C   UNL     1       3.212   2.321  -4.166  1.00  0.00    -0.014 A 
BRANCH  13  14
ATOM     14  C   UNL     1       3.660   2.745  -5.497  1.00  0.00     0.031 A 
ATOM     15  C   UNL     1       3.694   1.503  -6.428  1.00  0.00     0.074 A 
ATOM     16  C   UNL     1       4.018   4.061  -5.615  1.00  0.00     0.049 A 
ATOM     17  N   UNL     1       4.521   1.184  -7.379  1.00  0.00    -0.248 NA
ATOM     18  C   UNL     1       2.764   0.365  -6.144  1.00  0.00     0.031 C 
ATOM     19  C   UNL     1       3.876   5.094  -4.557  1.00  0.00     0.029 A 
ATOM     20  N   UNL     1       4.571   4.808  -6.630  1.00  0.00    -0.354 N 
ATOM     21  C   UNL     1       4.034  -0.017  -7.959  1.00  0.00     0.074 A 
ATOM     22  C   UNL     1       3.102  -0.570  -7.032  1.00  0.00     0.031 C 
ATOM     23  C   UNL     1       4.390   6.280  -4.957  1.00  0.00     0.029 A 
ATOM     24  C   UNL     1       4.890   6.156  -6.313  1.00  0.00     0.049 A 
ATOM     25  H   UNL     1       4.736   4.431  -7.524  1.00  0.00     0.167 HD
ATOM     26  C   UNL     1       4.271  -0.368  -9.258  1.00  0.00     0.034 A 
ATOM     27  C   UNL     1       5.543   7.083  -7.087  1.00  0.00     0.034 A 
ATOM     28  C   UNL     1       5.051   0.656  -9.870  1.00  0.00     0.049 A 
ATOM     29  C   UNL     1       5.661   6.444  -8.403  1.00  0.00     0.074 A 
ATOM     30  C   UNL     1       6.369   1.004  -9.759  1.00  0.00     0.029 A 
ATOM     31  N   UNL     1       4.327   1.707 -10.389  1.00  0.00    -0.354 N 
ATOM     32  N   UNL     1       4.665   6.258  -9.217  1.00  0.00    -0.248 NA
ATOM     33  C   UNL     1       6.944   5.846  -8.788  1.00  0.00     0.031 C 
ATOM     34  C   UNL     1       6.322   2.411  -9.776  1.00  0.00     0.029 A 
ATOM     35  C   UNL     1       5.044   2.849 -10.151  1.00  0.00     0.049 A 
ATOM     36  H   UNL     1       3.457   1.647 -10.846  1.00  0.00     0.167 HD
ATOM     37  C   UNL     1       5.120   5.215  -9.982  1.00  0.00     0.074 A 
ATOM     38  C   UNL     1       6.564   5.265  -9.922  1.00  0.00     0.031 C 
ATOM     39  C   UNL     1       4.343   4.111 -10.146  1.00  0.00     0.034 A 
BRANCH  26  40
ATOM     40  C   UNL     1       3.676  -1.392 -10.198  1.00  0.00     0.023 A 
ATOM     41  C   UNL     1       4.407  -1.601 -11.404  1.00  0.00     0.012 A 
ATOM     42  C   UNL     1       2.371  -1.910 -10.143  1.00  0.00     0.148 A 
ATOM     43  C   UNL     1       3.833  -2.160 -12.543  1.00  0.00     0.002 A 
ATOM     44  C   UNL     1       1.816  -2.520 -11.273  1.00  0.00     0.091 A 
ATOM     45  F   UNL     1       1.640  -1.745  -9.037  1.00  0.00    -0.205 F 
ATOM     46  C   UNL     1       2.526  -2.604 -12.481  1.00  0.00     0.022 A 
BRANCH  44  47
ATOM     47  S   UNL     1       0.161  -3.221 -11.294  1.00  0.00     0.127 S 
ATOM     48  O   UNL     1      -0.561  -2.268 -12.132  1.00  0.00    -0.237 OA
ATOM     49  O   UNL     1       0.397  -4.523 -11.923  1.00  0.00    -0.237 OA
ATOM     50  O   UNL     1      -0.253  -3.302  -9.901  1.00  0.00    -0.744 OA
ENDBRANCH  44  47
ENDBRANCH  26  40
BRANCH  27  51
ATOM     51  C   UNL     1       6.203   8.440  -6.935  1.00  0.00     0.023 A 
ATOM     52  C   UNL     1       6.035   9.293  -5.837  1.00  0.00     0.012 A 
ATOM     53  C   UNL     1       7.146   8.882  -7.919  1.00  0.00     0.148 A 
ATOM     54  C   UNL     1       6.826  10.456  -5.686  1.00  0.00     0.002 A 
ATOM     55  C   UNL     1       8.015   9.945  -7.705  1.00  0.00     0.091 A 
ATOM     56  F   UNL     1       7.186   8.290  -9.116  1.00  0.00    -0.205 F 
ATOM     57  C   UNL     1       7.849  10.753  -6.589  1.00  0.00     0.022 A 
BRANCH  55  58
ATOM     58  S   UNL     1       9.461  10.214  -8.755  1.00  0.00     0.127 S 
ATOM     59  O   UNL     1       9.307  11.613  -9.148  1.00  0.00    -0.237 OA
ATOM     60  O   UNL     1      10.553   9.955  -7.816  1.00  0.00    -0.237 OA
ATOM     61  O   UNL     1       9.364   9.251  -9.845  1.00  0.00    -0.744 OA
ENDBRANCH  55  58
ENDBRANCH  27  51
BRANCH  39  62
ATOM     62  C   UNL     1       2.836   4.351  -9.988  1.00  0.00     0.023 A 
ATOM     63  C   UNL     1       2.255   5.322 -10.829  1.00  0.00     0.012 A 
ATOM     64  C   UNL     1       1.992   3.780  -9.004  1.00  0.00     0.148 A 
ATOM     65  C   UNL     1       0.924   5.730 -10.687  1.00  0.00     0.002 A 
ATOM     66  C   UNL     1       0.664   4.203  -8.844  1.00  0.00     0.091 A 
ATOM     67  F   UNL     1       2.479   2.817  -8.228  1.00  0.00    -0.205 F 
ATOM     68  C   UNL     1       0.130   5.178  -9.692  1.00  0.00     0.022 A 
BRANCH  66  69
ATOM     69  S   UNL     1      -0.440   3.613  -7.540  1.00  0.00     0.127 S 
ATOM     70  O   UNL     1      -0.855   4.858  -6.889  1.00  0.00    -0.237 OA
ATOM     71  O   UNL     1      -1.499   2.958  -8.304  1.00  0.00    -0.237 OA
ATOM     72  O   UNL     1       0.356   2.736  -6.692  1.00  0.00    -0.744 OA
ENDBRANCH  66  69
ENDBRANCH  39  62
ENDBRANCH  13  14
ENDBRANCH   6   8
ENDBRANCH   5   6
ENDBRANCH   4   5
ENDBRANCH   3   4
ENDBRANCH   2   3
ENDBRANCH   1   2
BRANCH   1  73
ATOM     73  C   UNL     1       3.246  -2.902   1.632  1.00  0.00     0.261 C 
BRANCH  73  74
ATOM     74  O   UNL     1       3.506  -2.195   2.854  1.00  0.00    -0.459 OA
BRANCH  74  75
ATOM     75  C   UNL     1       4.832  -2.041   3.140  1.00  0.00     0.354 C 
ATOM     76  O   UNL     1       5.754  -2.568   2.561  1.00  0.00    -0.244 OA
BRANCH  75  77
ATOM     77  C   UNL     1       4.994  -1.000   4.137  1.00  0.00     0.126 A 
ATOM     78  C   UNL     1       4.115  -0.428   5.036  1.00  0.00     0.057 A 
ATOM     79  N   UNL     1       6.209  -0.381   4.340  1.00  0.00    -0.354 N 
ATOM     80  C   UNL     1       4.930   0.082   6.080  1.00  0.00     0.106 A 
ATOM     81  C   UNL     1       6.200   0.238   5.561  1.00  0.00     0.105 A 
ATOM     82  H   UNL     1       6.964  -0.384   3.707  1.00  0.00     0.166 HD
BRANCH  80  83
ATOM     83  S   UNL     1       4.427   0.297   7.718  1.00  0.00     0.263 S 
ATOM     84  O   UNL     1       5.637   0.624   8.443  1.00  0.00    -0.201 OA
ATOM     85  O   UNL     1       3.310   1.212   7.661  1.00  0.00    -0.201 OA
BRANCH  83  86
ATOM     86  N   UNL     1       3.853  -1.174   8.398  1.00  0.00    -0.277 N 
ATOM     87  H   UNL     1       4.051  -1.413   9.332  1.00  0.00     0.180 HD
BRANCH  86  88
ATOM     88  C   UNL     1       3.073  -2.046   7.556  1.00  0.00     0.075 A 
ATOM     89  C   UNL     1       1.705  -1.763   7.420  1.00  0.00     0.029 A 
ATOM     90  C   UNL     1       3.662  -3.022   6.723  1.00  0.00     0.089 A 
ATOM     91  C   UNL     1       0.933  -2.422   6.459  1.00  0.00     0.002 A 
ATOM     92  C   UNL     1       2.875  -3.662   5.745  1.00  0.00     0.030 A 
ATOM     93  C   UNL     1       1.519  -3.361   5.616  1.00  0.00     0.002 A 
BRANCH  90  94
ATOM     94  N   UNL     1       5.057  -3.304   6.747  1.00  0.00    -0.238 N 
ATOM     95  C   UNL     1       5.966  -3.089   7.760  1.00  0.00     0.130 A 
ATOM     96  N   UNL     1       5.683  -3.784   5.634  1.00  0.00    -0.175 NA
ATOM     97  C   UNL     1       7.204  -3.179   7.187  1.00  0.00     0.056 A 
ATOM     98  C   UNL     1       6.982  -3.572   5.868  1.00  0.00     0.151 A 
ATOM     99  Br  UNL     1       8.861  -2.851   7.972  1.00  0.00    -0.047 Br
ENDBRANCH  90  94
ENDBRANCH  86  88
ENDBRANCH  83  86
ENDBRANCH  80  83
ENDBRANCH  75  77
ENDBRANCH  74  75
ENDBRANCH  73  74
ENDBRANCH   1  73
TORSDOF 21
