REMARK SMILES COC(=O)c1ccccc1N1C(=O)/C(=C\c2ccc(-c3ccc(Cl)c(C(=O)OCCOCCOC(=O)c4ccc(-c5c6nc(c(-c7cccc(S(=O)(=O)[O-])c7F)c7ccc([nH]7)c(-c7cccc(S(=O)(=O)[O-])c7F)c7nc(c(-c8cccc(S(=O)(=O)[O-])c8F)c8ccc5[nH]8)C=C7)C=C6)cc4)c3)o2)SC1=S
REMARK SMILES IDX 30 1 29 2 28 3 26 4 27 5 25 6 20 7 21 8 100 9 22 10 23 11
REMARK SMILES IDX 24 12 19 13 16 14 17 15 101 16 18 17 15 18 11 19 12 20
REMARK SMILES IDX 103 21 13 22 14 23 102 24 104 25 10 26 5 27 6 28 7 29 9 30
REMARK SMILES IDX 8 31 3 32 4 33 2 34 1 35 31 36 32 37 33 38 34 39 35 40 36 41
REMARK SMILES IDX 37 42 38 43 99 44 39 45 98 46 40 47 41 48 42 49 92 50 43 51
REMARK SMILES IDX 97 52 91 53 93 54 44 55 96 56 90 57 89 58 45 60 77 61 57 62
REMARK SMILES IDX 76 63 58 64 61 65 75 66 94 67 59 68 60 69 74 71 95 72 62 73
REMARK SMILES IDX 46 74 47 75 55 76 48 77 50 78 56 79 49 80 51 81 52 82 53 83
REMARK SMILES IDX 54 84 78 85 79 86 87 87 80 88 82 89 88 90 81 91 83 92 84 93
REMARK SMILES IDX 85 94 86 95 63 96 64 97 72 98 65 99 67 100 73 101 66 102
REMARK SMILES IDX 68 103 69 104 70 105 71 106
REMARK H PARENT 93 59 61 70
REMARK Flexibility Score: inf
ROOT
ATOM      1  C   UNL     1      -6.388  -5.870  10.494  1.00  0.00     0.202 C 
ENDROOT
BRANCH   1   2
ATOM      2  C   UNL     1      -5.365  -6.737   9.754  1.00  0.00     0.261 C 
BRANCH   2   3
ATOM      3  O   UNL     1      -5.313  -6.398   8.361  1.00  0.00    -0.460 OA
BRANCH   3   4
ATOM      4  C   UNL     1      -5.642  -7.392   7.499  1.00  0.00     0.339 C 
ATOM      5  O   UNL     1      -5.809  -8.570   7.765  1.00  0.00    -0.246 OA
BRANCH   4   6
ATOM      6  C   UNL     1      -5.875  -6.793   6.167  1.00  0.00     0.079 A 
ATOM      7  C   UNL     1      -5.122  -5.290   4.403  1.00  0.00     0.018 A 
ATOM      8  C   UNL     1      -6.268  -5.612   3.664  1.00  0.00     0.013 A 
ATOM      9  C   UNL     1      -4.936  -5.883   5.659  1.00  0.00     0.029 A 
ATOM     10  C   UNL     1      -7.210  -6.511   4.170  1.00  0.00     0.022 A 
ATOM     11  C   UNL     1      -7.019  -7.102   5.422  1.00  0.00     0.055 A 
ATOM     12  Cl  UNL     1      -8.278  -8.136   6.000  1.00  0.00    -0.083 Cl
BRANCH   7  13
ATOM     13  C   UNL     1      -4.111  -4.394   3.867  1.00  0.00     0.134 A 
ATOM     14  C   UNL     1      -3.458  -2.671   2.629  1.00  0.00     0.128 A 
ATOM     15  C   UNL     1      -2.327  -3.236   3.205  1.00  0.00     0.051 A 
ATOM     16  O   UNL     1      -4.552  -3.382   3.067  1.00  0.00    -0.457 OA
ATOM     17  C   UNL     1      -2.743  -4.334   3.988  1.00  0.00     0.051 A 
BRANCH  14  18
ATOM     18  C   UNL     1      -3.558  -1.559   1.755  1.00  0.00     0.068 C 
ATOM     19  N   UNL     1      -1.763  -2.222  -1.354  1.00  0.00    -0.260 N 
ATOM     20  C   UNL     1      -2.331  -2.675  -0.169  1.00  0.00     0.270 C 
ATOM     21  C   UNL     1      -2.089  -0.937  -1.750  1.00  0.00     0.152 C 
ATOM     22  O   UNL     1      -2.304  -3.826   0.245  1.00  0.00    -0.268 OA
ATOM     23  C   UNL     1      -3.027  -1.552   0.525  1.00  0.00     0.084 C 
ATOM     24  S   UNL     1      -3.056  -0.161  -0.497  1.00  0.00    -0.054 SA
ATOM     25  S   UNL     1      -1.772  -0.174  -3.205  1.00  0.00    -0.051 S 
BRANCH  19  26
ATOM     26  C   UNL     1      -0.900  -3.096  -2.076  1.00  0.00     0.065 A 
ATOM     27  C   UNL     1       0.459  -2.808  -2.321  1.00  0.00     0.084 A 
ATOM     28  C   UNL     1       1.246  -3.728  -3.037  1.00  0.00     0.018 A 
ATOM     29  C   UNL     1       0.703  -4.934  -3.484  1.00  0.00     0.001 A 
ATOM     30  C   UNL     1      -1.423  -4.325  -2.518  1.00  0.00     0.028 A 
ATOM     31  C   UNL     1      -0.629  -5.234  -3.220  1.00  0.00     0.002 A 
BRANCH  27  32
ATOM     32  C   UNL     1       1.171  -1.608  -1.809  1.00  0.00     0.339 C 
ATOM     33  O   UNL     1       2.107  -1.085  -2.392  1.00  0.00    -0.246 OA
BRANCH  32  34
ATOM     34  O   UNL     1       0.662  -1.232  -0.610  1.00  0.00    -0.465 OA
ATOM     35  C   UNL     1       1.263  -0.060  -0.053  1.00  0.00     0.282 C 
ENDBRANCH  32  34
ENDBRANCH  27  32
ENDBRANCH  19  26
ENDBRANCH  14  18
ENDBRANCH   7  13
ENDBRANCH   4   6
ENDBRANCH   3   4
ENDBRANCH   2   3
ENDBRANCH   1   2
BRANCH   1  36
ATOM     36  O   UNL     1      -7.746  -5.950  10.059  1.00  0.00    -0.374 OA
BRANCH  36  37
ATOM     37  C   UNL     1      -8.095  -5.284   8.846  1.00  0.00     0.202 C 
BRANCH  37  38
ATOM     38  C   UNL     1      -8.234  -3.756   8.882  1.00  0.00     0.261 C 
BRANCH  38  39
ATOM     39  O   UNL     1      -7.009  -3.086   9.218  1.00  0.00    -0.460 OA
BRANCH  39  40
ATOM     40  C   UNL     1      -6.978  -2.565  10.470  1.00  0.00     0.338 C 
ATOM     41  O   UNL     1      -7.875  -2.575  11.296  1.00  0.00    -0.246 OA
BRANCH  40  42
ATOM     42  C   UNL     1      -5.611  -2.116  10.787  1.00  0.00     0.060 A 
ATOM     43  C   UNL     1      -5.005  -2.633  11.940  1.00  0.00     0.016 A 
ATOM     44  C   UNL     1      -4.966  -1.150  10.014  1.00  0.00     0.016 A 
ATOM     45  C   UNL     1      -3.766  -2.149  12.353  1.00  0.00     0.010 A 
ATOM     46  C   UNL     1      -3.727  -0.661  10.434  1.00  0.00     0.010 A 
ATOM     47  C   UNL     1      -3.141  -1.130  11.625  1.00  0.00    -0.014 A 
BRANCH  47  48
ATOM     48  C   UNL     1      -1.952  -0.442  12.180  1.00  0.00     0.031 A 
ATOM     49  C   UNL     1      -2.125   0.917  12.802  1.00  0.00     0.074 A 
ATOM     50  C   UNL     1      -0.733  -1.005  12.108  1.00  0.00     0.049 A 
ATOM     51  N   UNL     1      -1.222   1.729  13.282  1.00  0.00    -0.248 NA
ATOM     52  C   UNL     1      -3.502   1.431  12.883  1.00  0.00     0.031 C 
ATOM     53  C   UNL     1      -0.445  -2.324  11.549  1.00  0.00     0.029 A 
ATOM     54  N   UNL     1       0.493  -0.522  12.487  1.00  0.00    -0.354 N 
ATOM     55  C   UNL     1      -1.911   2.869  13.678  1.00  0.00     0.074 A 
ATOM     56  C   UNL     1      -3.309   2.644  13.377  1.00  0.00     0.031 C 
ATOM     57  C   UNL     1       0.881  -2.538  11.602  1.00  0.00     0.029 A 
ATOM     58  C   UNL     1       1.535  -1.359  12.166  1.00  0.00     0.049 A 
ATOM     59  H   UNL     1       0.616   0.341  12.945  1.00  0.00     0.167 HD
ATOM     60  C   UNL     1      -1.426   4.000  14.244  1.00  0.00     0.034 A 
ATOM     61  C   UNL     1       2.865  -1.182  12.292  1.00  0.00     0.034 A 
ATOM     62  C   UNL     1      -0.039   4.208  14.559  1.00  0.00     0.049 A 
ATOM     63  C   UNL     1       3.383   0.099  12.893  1.00  0.00     0.074 A 
ATOM     64  C   UNL     1       0.546   5.288  15.194  1.00  0.00     0.029 A 
ATOM     65  N   UNL     1       0.984   3.328  14.242  1.00  0.00    -0.354 N 
ATOM     66  N   UNL     1       2.712   1.122  13.365  1.00  0.00    -0.248 NA
ATOM     67  C   UNL     1       4.843   0.238  13.004  1.00  0.00     0.031 C 
ATOM     68  C   UNL     1       1.929   5.082  15.219  1.00  0.00     0.029 A 
ATOM     69  C   UNL     1       2.201   3.851  14.645  1.00  0.00     0.049 A 
ATOM     70  H   UNL     1       0.864   2.458  13.796  1.00  0.00     0.167 HD
ATOM     71  C   UNL     1       3.662   2.002  13.873  1.00  0.00     0.074 A 
ATOM     72  C   UNL     1       4.956   1.390  13.653  1.00  0.00     0.031 C 
ATOM     73  C   UNL     1       3.478   3.207  14.467  1.00  0.00     0.034 A 
BRANCH  60  74
ATOM     74  C   UNL     1      -2.406   5.102  14.551  1.00  0.00     0.023 A 
ATOM     75  C   UNL     1      -3.352   4.944  15.584  1.00  0.00     0.012 A 
ATOM     76  C   UNL     1      -2.370   6.311  13.829  1.00  0.00     0.148 A 
ATOM     77  C   UNL     1      -4.276   5.951  15.862  1.00  0.00     0.002 A 
ATOM     78  C   UNL     1      -3.260   7.330  14.145  1.00  0.00     0.091 A 
ATOM     79  F   UNL     1      -1.481   6.436  12.833  1.00  0.00    -0.205 F 
ATOM     80  C   UNL     1      -4.224   7.147  15.150  1.00  0.00     0.022 A 
BRANCH  78  81
ATOM     81  S   UNL     1      -3.214   8.934  13.339  1.00  0.00     0.127 S 
ATOM     82  O   UNL     1      -4.400   8.870  12.486  1.00  0.00    -0.237 OA
ATOM     83  O   UNL     1      -3.327   9.853  14.472  1.00  0.00    -0.237 OA
ATOM     84  O   UNL     1      -1.940   8.993  12.637  1.00  0.00    -0.744 OA
ENDBRANCH  78  81
ENDBRANCH  60  74
BRANCH  61  85
ATOM     85  C   UNL     1       3.800  -2.267  11.884  1.00  0.00     0.023 A 
ATOM     86  C   UNL     1       4.514  -2.968  12.875  1.00  0.00     0.012 A 
ATOM     87  C   UNL     1       3.965  -2.627  10.533  1.00  0.00     0.148 A 
ATOM     88  C   UNL     1       5.395  -3.992  12.527  1.00  0.00     0.002 A 
ATOM     89  C   UNL     1       4.804  -3.683  10.196  1.00  0.00     0.091 A 
ATOM     90  F   UNL     1       3.283  -1.941   9.605  1.00  0.00    -0.205 F 
ATOM     91  C   UNL     1       5.533  -4.356  11.190  1.00  0.00     0.022 A 
BRANCH  89  92
ATOM     92  S   UNL     1       4.953  -4.304   8.517  1.00  0.00     0.127 S 
ATOM     93  O   UNL     1       6.350  -4.006   8.211  1.00  0.00    -0.237 OA
ATOM     94  O   UNL     1       4.649  -5.724   8.697  1.00  0.00    -0.237 OA
ATOM     95  O   UNL     1       3.969  -3.570   7.733  1.00  0.00    -0.744 OA
ENDBRANCH  89  92
ENDBRANCH  61  85
BRANCH  73  96
ATOM     96  C   UNL     1       4.694   3.933  14.985  1.00  0.00     0.023 A 
ATOM     97  C   UNL     1       5.599   4.533  14.087  1.00  0.00     0.012 A 
ATOM     98  C   UNL     1       4.883   4.100  16.372  1.00  0.00     0.148 A 
ATOM     99  C   UNL     1       6.688   5.264  14.563  1.00  0.00     0.002 A 
ATOM    100  C   UNL     1       5.938   4.874  16.837  1.00  0.00     0.091 A 
ATOM    101  F   UNL     1       4.019   3.507  17.209  1.00  0.00    -0.205 F 
ATOM    102  C   UNL     1       6.849   5.446  15.935  1.00  0.00     0.022 A 
BRANCH 100 103
ATOM    103  S   UNL     1       6.164   5.250  18.580  1.00  0.00     0.127 S 
ATOM    104  O   UNL     1       7.374   4.493  18.893  1.00  0.00    -0.237 OA
ATOM    105  O   UNL     1       6.340   6.703  18.561  1.00  0.00    -0.237 OA
ATOM    106  O   UNL     1       4.954   4.796  19.251  1.00  0.00    -0.744 OA
ENDBRANCH 100 103
ENDBRANCH  73  96
ENDBRANCH  47  48
ENDBRANCH  40  42
ENDBRANCH  39  40
ENDBRANCH  38  39
ENDBRANCH  37  38
ENDBRANCH  36  37
ENDBRANCH   1  36
TORSDOF 22
