REMARK SMILES O=C(CCC(=O)OCCOCCOC(=O)c1ccc(-c2c3nc(c(-c4cccc(S(=O)(=O)[O-])c4F)c4ccc([nH]4)c(-c4cccc(S(=O)(=O)[O-])c4F)c4nc(c(-c5cccc(S(=O)(=O)[O-])c5F)c5ccc2[nH]5)C=C4)C=C3)cc1)/[NH+]=C1\S[C@H]2CS(=O)(=O)C[C@@H]2N1c1ccc(Oc2ccccc2)cc1
REMARK SMILES IDX 9 1 8 2 7 3 5 4 6 5 4 6 3 7 2 8 1 9 79 10 80 11 81 13 89 14
REMARK SMILES IDX 82 15 88 16 83 17 87 18 84 19 85 20 86 21 90 22 91 23 102 24
REMARK SMILES IDX 92 25 101 26 93 27 94 28 95 29 96 30 100 31 97 32 99 33
REMARK SMILES IDX 98 34 10 35 11 36 12 37 13 38 14 39 15 40 16 41 17 42 78 43
REMARK SMILES IDX 18 44 77 45 19 46 20 47 21 48 71 49 22 50 76 51 70 52 72 53
REMARK SMILES IDX 23 54 75 55 69 56 68 57 24 59 56 60 36 61 55 62 37 63 40 64
REMARK SMILES IDX 54 65 73 66 38 67 39 68 53 70 74 71 41 72 25 73 26 74 34 75
REMARK SMILES IDX 27 76 29 77 35 78 28 79 30 80 31 81 32 82 33 83 57 84 58 85
REMARK SMILES IDX 66 86 59 87 61 88 67 89 60 90 62 91 63 92 64 93 65 94 42 95
REMARK SMILES IDX 43 96 51 97 44 98 46 99 52 100 45 101 47 102 48 103 49 104
REMARK SMILES IDX 50 105
REMARK H PARENT 79 12 72 58 40 69
REMARK Flexibility Score: inf
ROOT
ATOM      1  C   UNL     1       6.251  -0.679   1.182  1.00  0.00     0.202 C 
ENDROOT
BRANCH   1   2
ATOM      2  C   UNL     1       6.171  -2.071   1.872  1.00  0.00     0.261 C 
BRANCH   2   3
ATOM      3  O   UNL     1       4.824  -2.549   1.865  1.00  0.00    -0.463 OA
BRANCH   3   4
ATOM      4  C   UNL     1       4.042  -1.800   2.668  1.00  0.00     0.306 C 
ATOM      5  O   UNL     1       4.290  -1.576   3.846  1.00  0.00    -0.252 OA
BRANCH   4   6
ATOM      6  C   UNL     1       2.890  -1.218   1.901  1.00  0.00     0.135 C 
BRANCH   6   7
ATOM      7  C   UNL     1       3.117  -0.945   0.407  1.00  0.00     0.139 C 
BRANCH   7   8
ATOM      8  C   UNL     1       3.380  -1.993  -0.693  1.00  0.00     0.308 C 
ATOM      9  O   UNL     1       2.362  -2.413  -1.250  1.00  0.00    -0.247 OA
ATOM     10  N   UNL     1       4.621  -2.507  -1.109  1.00  0.00    -0.204 N 
ATOM     11  C   UNL     1       5.629  -1.958  -1.729  1.00  0.00     0.319 C 
ATOM     12  H   UNL     1       4.754  -3.458  -0.893  1.00  0.00     0.316 HD
ATOM     13  S   UNL     1       6.016  -0.228  -1.872  1.00  0.00    -0.029 SA
ATOM     14  N   UNL     1       6.692  -2.612  -2.379  1.00  0.00    -0.217 N 
ATOM     15  C   UNL     1       7.705  -0.407  -2.322  1.00  0.00     0.120 C 
ATOM     16  C   UNL     1       7.960  -1.899  -2.147  1.00  0.00     0.212 C 
ATOM     17  C   UNL     1       8.834   0.249  -1.560  1.00  0.00     0.156 C 
ATOM     18  C   UNL     1       9.230  -2.063  -2.950  1.00  0.00     0.188 C 
ATOM     19  S   UNL     1      10.222  -0.712  -2.208  1.00  0.00     0.155 S 
ATOM     20  O   UNL     1      10.860   0.057  -3.240  1.00  0.00    -0.229 OA
ATOM     21  O   UNL     1      10.951  -1.253  -1.069  1.00  0.00    -0.229 OA
BRANCH  14  22
ATOM     22  C   UNL     1       6.477  -3.031  -3.711  1.00  0.00     0.128 A 
ATOM     23  C   UNL     1       6.556  -4.386  -4.014  1.00  0.00     0.056 A 
ATOM     24  C   UNL     1       6.143  -2.136  -4.744  1.00  0.00     0.056 A 
ATOM     25  C   UNL     1       6.323  -4.827  -5.317  1.00  0.00     0.051 A 
ATOM     26  C   UNL     1       5.864  -2.582  -6.035  1.00  0.00     0.051 A 
ATOM     27  C   UNL     1       5.981  -3.931  -6.336  1.00  0.00     0.127 A 
BRANCH  27  28
ATOM     28  O   UNL     1       5.777  -4.521  -7.557  1.00  0.00    -0.457 OA
BRANCH  28  29
ATOM     29  C   UNL     1       5.316  -3.799  -8.626  1.00  0.00     0.127 A 
ATOM     30  C   UNL     1       4.205  -4.324  -9.286  1.00  0.00     0.047 A 
ATOM     31  C   UNL     1       5.984  -2.685  -9.144  1.00  0.00     0.047 A 
ATOM     32  C   UNL     1       3.754  -3.731 -10.460  1.00  0.00     0.004 A 
ATOM     33  C   UNL     1       5.502  -2.062 -10.290  1.00  0.00     0.004 A 
ATOM     34  C   UNL     1       4.405  -2.601 -10.954  1.00  0.00     0.000 A 
ENDBRANCH  28  29
ENDBRANCH  27  28
ENDBRANCH  14  22
ENDBRANCH   7   8
ENDBRANCH   6   7
ENDBRANCH   4   6
ENDBRANCH   3   4
ENDBRANCH   2   3
ENDBRANCH   1   2
BRANCH   1  35
ATOM     35  O   UNL     1       5.457   0.395   1.673  1.00  0.00    -0.374 OA
BRANCH  35  36
ATOM     36  C   UNL     1       5.253   1.648   0.956  1.00  0.00     0.202 C 
BRANCH  36  37
ATOM     37  C   UNL     1       4.689   2.051  -0.549  1.00  0.00     0.261 C 
BRANCH  37  38
ATOM     38  O   UNL     1       3.685   1.268  -1.341  1.00  0.00    -0.460 OA
BRANCH  38  39
ATOM     39  C   UNL     1       3.567   1.537  -2.713  1.00  0.00     0.338 C 
ATOM     40  O   UNL     1       4.143   2.481  -3.247  1.00  0.00    -0.246 OA
BRANCH  39  41
ATOM     41  C   UNL     1       2.801   0.526  -3.599  1.00  0.00     0.060 A 
ATOM     42  C   UNL     1       3.203  -0.801  -3.697  1.00  0.00     0.016 A 
ATOM     43  C   UNL     1       1.854   0.884  -4.561  1.00  0.00     0.016 A 
ATOM     44  C   UNL     1       2.713  -1.754  -4.622  1.00  0.00     0.010 A 
ATOM     45  C   UNL     1       1.298  -0.086  -5.477  1.00  0.00     0.010 A 
ATOM     46  C   UNL     1       1.718  -1.437  -5.528  1.00  0.00    -0.014 A 
BRANCH  46  47
ATOM     47  C   UNL     1       1.217  -2.465  -6.535  1.00  0.00     0.031 A 
ATOM     48  C   UNL     1       1.169  -2.102  -8.010  1.00  0.00     0.074 A 
ATOM     49  C   UNL     1       0.837  -3.732  -6.210  1.00  0.00     0.049 A 
ATOM     50  N   UNL     1       0.501  -2.653  -8.993  1.00  0.00    -0.248 NA
ATOM     51  C   UNL     1       2.006  -0.965  -8.430  1.00  0.00     0.031 C 
ATOM     52  C   UNL     1       0.944  -4.362  -4.890  1.00  0.00     0.029 A 
ATOM     53  N   UNL     1       0.237  -4.725  -6.977  1.00  0.00    -0.354 N 
ATOM     54  C   UNL     1       0.764  -1.877 -10.121  1.00  0.00     0.074 A 
ATOM     55  C   UNL     1       1.674  -0.832  -9.709  1.00  0.00     0.031 C 
ATOM     56  C   UNL     1       0.403  -5.592  -4.928  1.00  0.00     0.029 A 
ATOM     57  C   UNL     1      -0.199  -5.812  -6.237  1.00  0.00     0.049 A 
ATOM     58  H   UNL     1       0.132  -4.662  -7.954  1.00  0.00     0.167 HD
ATOM     59  C   UNL     1       0.313  -2.032 -11.390  1.00  0.00     0.034 A 
ATOM     60  C   UNL     1      -1.060  -6.817  -6.527  1.00  0.00     0.034 A 
ATOM     61  C   UNL     1      -0.497  -3.129 -11.837  1.00  0.00     0.049 A 
ATOM     62  C   UNL     1      -1.694  -6.870  -7.899  1.00  0.00     0.074 A 
ATOM     63  C   UNL     1      -0.985  -3.369 -13.110  1.00  0.00     0.029 A 
ATOM     64  N   UNL     1      -0.936  -4.164 -11.033  1.00  0.00    -0.354 N 
ATOM     65  N   UNL     1      -1.447  -6.130  -8.951  1.00  0.00    -0.248 NA
ATOM     66  C   UNL     1      -2.731  -7.894  -8.127  1.00  0.00     0.031 C 
ATOM     67  C   UNL     1      -1.762  -4.528 -13.064  1.00  0.00     0.029 A 
ATOM     68  C   UNL     1      -1.723  -5.027 -11.773  1.00  0.00     0.049 A 
ATOM     69  H   UNL     1      -0.721  -4.271 -10.078  1.00  0.00     0.167 HD
ATOM     70  C   UNL     1      -2.259  -6.624  -9.967  1.00  0.00     0.074 A 
ATOM     71  C   UNL     1      -2.999  -7.736  -9.416  1.00  0.00     0.031 C 
ATOM     72  C   UNL     1      -2.390  -6.184 -11.241  1.00  0.00     0.034 A 
BRANCH  59  73
ATOM     73  C   UNL     1       0.664  -0.991 -12.419  1.00  0.00     0.023 A 
ATOM     74  C   UNL     1       1.816  -1.139 -13.211  1.00  0.00     0.012 A 
ATOM     75  C   UNL     1      -0.232   0.054 -12.704  1.00  0.00     0.148 A 
ATOM     76  C   UNL     1       2.132  -0.210 -14.201  1.00  0.00     0.002 A 
ATOM     77  C   UNL     1       0.043   0.929 -13.749  1.00  0.00     0.091 A 
ATOM     78  F   UNL     1      -1.347   0.157 -11.967  1.00  0.00    -0.205 F 
ATOM     79  C   UNL     1       1.242   0.823 -14.473  1.00  0.00     0.022 A 
BRANCH  77  80
ATOM     80  S   UNL     1      -1.143   2.150 -14.319  1.00  0.00     0.127 S 
ATOM     81  O   UNL     1      -0.525   3.396 -13.868  1.00  0.00    -0.237 OA
ATOM     82  O   UNL     1      -1.122   1.947 -15.768  1.00  0.00    -0.237 OA
ATOM     83  O   UNL     1      -2.406   1.808 -13.678  1.00  0.00    -0.744 OA
ENDBRANCH  77  80
ENDBRANCH  59  73
BRANCH  60  84
ATOM     84  C   UNL     1      -1.492  -7.812  -5.483  1.00  0.00     0.023 A 
ATOM     85  C   UNL     1      -1.286  -9.194  -5.681  1.00  0.00     0.012 A 
ATOM     86  C   UNL     1      -2.193  -7.398  -4.329  1.00  0.00     0.148 A 
ATOM     87  C   UNL     1      -1.802 -10.136  -4.782  1.00  0.00     0.002 A 
ATOM     88  C   UNL     1      -2.642  -8.336  -3.404  1.00  0.00     0.091 A 
ATOM     89  F   UNL     1      -2.437  -6.090  -4.169  1.00  0.00    -0.205 F 
ATOM     90  C   UNL     1      -2.469  -9.707  -3.639  1.00  0.00     0.022 A 
BRANCH  88  91
ATOM     91  S   UNL     1      -3.407  -7.861  -1.848  1.00  0.00     0.127 S 
ATOM     92  O   UNL     1      -4.804  -8.219  -2.078  1.00  0.00    -0.237 OA
ATOM     93  O   UNL     1      -2.703  -8.717  -0.891  1.00  0.00    -0.237 OA
ATOM     94  O   UNL     1      -3.132  -6.439  -1.694  1.00  0.00    -0.744 OA
ENDBRANCH  88  91
ENDBRANCH  60  84
BRANCH  72  95
ATOM     95  C   UNL     1      -3.294  -6.943 -12.174  1.00  0.00     0.023 A 
ATOM     96  C   UNL     1      -4.692  -6.833 -12.056  1.00  0.00     0.012 A 
ATOM     97  C   UNL     1      -2.742  -7.668 -13.249  1.00  0.00     0.148 A 
ATOM     98  C   UNL     1      -5.529  -7.449 -12.987  1.00  0.00     0.002 A 
ATOM     99  C   UNL     1      -3.579  -8.228 -14.204  1.00  0.00     0.091 A 
ATOM    100  F   UNL     1      -1.407  -7.772 -13.330  1.00  0.00    -0.205 F 
ATOM    101  C   UNL     1      -4.973  -8.131 -14.069  1.00  0.00     0.022 A 
BRANCH  99 102
ATOM    102  S   UNL     1      -2.948  -9.014 -15.691  1.00  0.00     0.127 S 
ATOM    103  O   UNL     1      -3.297 -10.414 -15.460  1.00  0.00    -0.237 OA
ATOM    104  O   UNL     1      -3.726  -8.355 -16.741  1.00  0.00    -0.237 OA
ATOM    105  O   UNL     1      -1.521  -8.725 -15.726  1.00  0.00    -0.744 OA
ENDBRANCH  99 102
ENDBRANCH  72  95
ENDBRANCH  46  47
ENDBRANCH  39  41
ENDBRANCH  38  39
ENDBRANCH  37  38
ENDBRANCH  36  37
ENDBRANCH  35  36
ENDBRANCH   1  35
TORSDOF 22
