REMARK SMILES CN1C(=O)N(CC(=O)OCCOCCOC(=O)c2ccc(-c3c4nc(c(-c5cccc(S(=O)(=O)[O-])c5F)c5ccc([nH]5)c(-c5cccc(S(=O)(=O)[O-])c5F)c5nc(c(-c6cccc(S(=O)(=O)[O-])c6F)c6ccc3[nH]6)C=C5)C=C4)cc2)C(=O)C12CCCCC2
REMARK SMILES IDX 13 1 12 2 11 3 10 4 9 5 7 6 8 7 6 8 5 9 1 10 2 11 3 12 83 13
REMARK SMILES IDX 4 14 81 15 84 16 88 17 82 18 85 19 87 20 86 21 14 22 15 23
REMARK SMILES IDX 16 24 17 25 18 26 19 27 80 28 20 29 79 30 21 31 22 32 23 33
REMARK SMILES IDX 73 34 24 35 78 36 72 37 74 38 25 39 77 40 71 41 70 42 26 44
REMARK SMILES IDX 58 45 38 46 57 47 39 48 42 49 56 50 75 51 40 52 41 53 55 55
REMARK SMILES IDX 76 56 43 57 27 58 28 59 36 60 29 61 31 62 37 63 30 64 32 65
REMARK SMILES IDX 33 66 34 67 35 68 59 69 60 70 68 71 61 72 63 73 69 74 62 75
REMARK SMILES IDX 64 76 65 77 66 78 67 79 44 80 45 81 53 82 46 83 48 84 54 85
REMARK SMILES IDX 47 86 49 87 50 88 51 89 52 90
REMARK H PARENT 74 43 42 54
REMARK Flexibility Score: inf
ROOT
ATOM      1  C   UNL     1       4.310  -2.126   2.830  1.00  0.00     0.202 C 
ENDROOT
BRANCH   1   2
ATOM      2  O   UNL     1       5.086  -3.322   2.714  1.00  0.00    -0.374 OA
BRANCH   2   3
ATOM      3  C   UNL     1       4.603  -4.312   1.804  1.00  0.00     0.202 C 
BRANCH   3   4
ATOM      4  C   UNL     1       3.402  -5.137   2.283  1.00  0.00     0.261 C 
BRANCH   4   5
ATOM      5  O   UNL     1       2.226  -4.329   2.485  1.00  0.00    -0.462 OA
BRANCH   5   6
ATOM      6  C   UNL     1       1.648  -4.405   3.717  1.00  0.00     0.326 C 
ATOM      7  O   UNL     1       2.020  -5.155   4.616  1.00  0.00    -0.250 OA
BRANCH   6   8
ATOM      8  C   UNL     1       0.523  -3.396   3.932  1.00  0.00     0.253 C 
BRANCH   8   9
ATOM      9  N   UNL     1       0.153  -2.640   2.755  1.00  0.00    -0.251 N 
ATOM     10  C   UNL     1       0.513   0.137   0.480  1.00  0.00     0.150 C 
ATOM     11  N   UNL     1       0.172  -1.095   1.158  1.00  0.00    -0.313 N 
ATOM     12  C   UNL     1       0.705  -1.458   2.380  1.00  0.00     0.327 C 
ATOM     13  C   UNL     1      -0.882  -2.014   0.711  1.00  0.00     0.124 C 
ATOM     14  O   UNL     1       1.496  -0.795   3.035  1.00  0.00    -0.248 OA
ATOM     15  C   UNL     1      -0.867  -2.981   1.918  1.00  0.00     0.257 C 
ATOM     16  C   UNL     1      -2.230  -1.298   0.558  1.00  0.00     0.039 C 
ATOM     17  C   UNL     1      -0.473  -2.787  -0.551  1.00  0.00     0.039 C 
ATOM     18  O   UNL     1      -1.639  -3.911   2.109  1.00  0.00    -0.272 OA
ATOM     19  C   UNL     1      -3.331  -2.189  -0.013  1.00  0.00     0.003 C 
ATOM     20  C   UNL     1      -1.591  -3.687  -1.077  1.00  0.00     0.003 C 
ATOM     21  C   UNL     1      -2.889  -2.913  -1.280  1.00  0.00     0.000 C 
ENDBRANCH   8   9
ENDBRANCH   6   8
ENDBRANCH   5   6
ENDBRANCH   4   5
ENDBRANCH   3   4
ENDBRANCH   2   3
ENDBRANCH   1   2
BRANCH   1  22
ATOM     22  C   UNL     1       4.394  -1.163   1.638  1.00  0.00     0.261 C 
BRANCH  22  23
ATOM     23  O   UNL     1       3.765  -1.708   0.460  1.00  0.00    -0.460 OA
BRANCH  23  24
ATOM     24  C   UNL     1       4.526  -1.659  -0.658  1.00  0.00     0.338 C 
ATOM     25  O   UNL     1       5.608  -1.098  -0.794  1.00  0.00    -0.246 OA
BRANCH  24  26
ATOM     26  C   UNL     1       3.959  -2.522  -1.706  1.00  0.00     0.060 A 
ATOM     27  C   UNL     1       4.735  -3.598  -2.156  1.00  0.00     0.016 A 
ATOM     28  C   UNL     1       2.748  -2.214  -2.326  1.00  0.00     0.016 A 
ATOM     29  C   UNL     1       4.326  -4.338  -3.266  1.00  0.00     0.010 A 
ATOM     30  C   UNL     1       2.338  -2.960  -3.437  1.00  0.00     0.010 A 
ATOM     31  C   UNL     1       3.146  -3.997  -3.939  1.00  0.00    -0.014 A 
BRANCH  31  32
ATOM     32  C   UNL     1       2.828  -4.620  -5.250  1.00  0.00     0.031 A 
ATOM     33  C   UNL     1       3.085  -3.839  -6.512  1.00  0.00     0.074 A 
ATOM     34  C   UNL     1       2.295  -5.854  -5.319  1.00  0.00     0.049 A 
ATOM     35  N   UNL     1       2.816  -4.159  -7.751  1.00  0.00    -0.248 NA
ATOM     36  C   UNL     1       3.722  -2.520  -6.358  1.00  0.00     0.031 C 
ATOM     37  C   UNL     1       1.995  -6.710  -4.173  1.00  0.00     0.029 A 
ATOM     38  N   UNL     1       1.876  -6.584  -6.405  1.00  0.00    -0.354 N 
ATOM     39  C   UNL     1       3.206  -3.067  -8.518  1.00  0.00     0.074 A 
ATOM     40  C   UNL     1       3.737  -2.077  -7.607  1.00  0.00     0.031 C 
ATOM     41  C   UNL     1       1.401  -7.833  -4.612  1.00  0.00     0.029 A 
ATOM     42  C   UNL     1       1.256  -7.764  -6.066  1.00  0.00     0.049 A 
ATOM     43  H   UNL     1       2.006  -6.291  -7.335  1.00  0.00     0.167 HD
ATOM     44  C   UNL     1       3.140  -2.908  -9.860  1.00  0.00     0.034 A 
ATOM     45  C   UNL     1       0.616  -8.669  -6.835  1.00  0.00     0.034 A 
ATOM     46  C   UNL     1       2.662  -3.911 -10.772  1.00  0.00     0.049 A 
ATOM     47  C   UNL     1       0.561  -8.467  -8.328  1.00  0.00     0.074 A 
ATOM     48  C   UNL     1       2.642  -3.872 -12.155  1.00  0.00     0.029 A 
ATOM     49  N   UNL     1       2.111  -5.123 -10.396  1.00  0.00    -0.354 N 
ATOM     50  N   UNL     1       1.071  -7.497  -9.048  1.00  0.00    -0.248 NA
ATOM     51  C   UNL     1      -0.132  -9.496  -9.118  1.00  0.00     0.031 C 
ATOM     52  C   UNL     1       2.054  -5.053 -12.616  1.00  0.00     0.029 A 
ATOM     53  C   UNL     1       1.728  -5.835 -11.520  1.00  0.00     0.049 A 
ATOM     54  H   UNL     1       2.006  -5.434  -9.468  1.00  0.00     0.167 HD
ATOM     55  C   UNL     1       0.794  -7.819 -10.373  1.00  0.00     0.074 A 
ATOM     56  C   UNL     1       0.085  -9.081 -10.360  1.00  0.00     0.031 C 
ATOM     57  C   UNL     1       1.088  -7.123 -11.499  1.00  0.00     0.034 A 
BRANCH  44  58
ATOM     58  C   UNL     1       3.620  -1.608 -10.445  1.00  0.00     0.023 A 
ATOM     59  C   UNL     1       5.003  -1.365 -10.565  1.00  0.00     0.012 A 
ATOM     60  C   UNL     1       2.703  -0.674 -10.964  1.00  0.00     0.148 A 
ATOM     61  C   UNL     1       5.465  -0.203 -11.180  1.00  0.00     0.002 A 
ATOM     62  C   UNL     1       3.171   0.464 -11.609  1.00  0.00     0.091 A 
ATOM     63  F   UNL     1       1.392  -0.917 -10.818  1.00  0.00    -0.205 F 
ATOM     64  C   UNL     1       4.551   0.704 -11.712  1.00  0.00     0.022 A 
BRANCH  62  65
ATOM     65  S   UNL     1       2.075   1.654 -12.390  1.00  0.00     0.127 S 
ATOM     66  O   UNL     1       2.204   2.803 -11.495  1.00  0.00    -0.237 OA
ATOM     67  O   UNL     1       2.697   1.830 -13.703  1.00  0.00    -0.237 OA
ATOM     68  O   UNL     1       0.760   1.030 -12.419  1.00  0.00    -0.744 OA
ENDBRANCH  62  65
ENDBRANCH  44  58
BRANCH  45  69
ATOM     69  C   UNL     1      -0.017  -9.864  -6.209  1.00  0.00     0.023 A 
ATOM     70  C   UNL     1       0.524 -11.144  -6.441  1.00  0.00     0.012 A 
ATOM     71  C   UNL     1      -1.148  -9.738  -5.380  1.00  0.00     0.148 A 
ATOM     72  C   UNL     1      -0.070 -12.278  -5.885  1.00  0.00     0.002 A 
ATOM     73  C   UNL     1      -1.700 -10.866  -4.784  1.00  0.00     0.091 A 
ATOM     74  F   UNL     1      -1.667  -8.516  -5.191  1.00  0.00    -0.205 F 
ATOM     75  C   UNL     1      -1.174 -12.138  -5.047  1.00  0.00     0.022 A 
BRANCH  73  76
ATOM     76  S   UNL     1      -3.037 -10.746  -3.590  1.00  0.00     0.127 S 
ATOM     77  O   UNL     1      -4.196 -11.115  -4.399  1.00  0.00    -0.237 OA
ATOM     78  O   UNL     1      -2.644 -11.737  -2.587  1.00  0.00    -0.237 OA
ATOM     79  O   UNL     1      -3.001  -9.370  -3.112  1.00  0.00    -0.744 OA
ENDBRANCH  73  76
ENDBRANCH  45  69
BRANCH  57  80
ATOM     80  C   UNL     1       0.689  -7.714 -12.825  1.00  0.00     0.023 A 
ATOM     81  C   UNL     1      -0.659  -7.678 -13.229  1.00  0.00     0.012 A 
ATOM     82  C   UNL     1       1.667  -8.198 -13.717  1.00  0.00     0.148 A 
ATOM     83  C   UNL     1      -1.032  -8.131 -14.494  1.00  0.00     0.002 A 
ATOM     84  C   UNL     1       1.295  -8.606 -14.992  1.00  0.00     0.091 A 
ATOM     85  F   UNL     1       2.943  -8.239 -13.306  1.00  0.00    -0.205 F 
ATOM     86  C   UNL     1      -0.055  -8.581 -15.379  1.00  0.00     0.022 A 
BRANCH  84  87
ATOM     87  S   UNL     1       2.494  -9.109 -16.232  1.00  0.00     0.127 S 
ATOM     88  O   UNL     1       2.259 -10.550 -16.308  1.00  0.00    -0.237 OA
ATOM     89  O   UNL     1       2.059  -8.356 -17.409  1.00  0.00    -0.237 OA
ATOM     90  O   UNL     1       3.797  -8.716 -15.713  1.00  0.00    -0.744 OA
ENDBRANCH  84  87
ENDBRANCH  57  80
ENDBRANCH  31  32
ENDBRANCH  24  26
ENDBRANCH  23  24
ENDBRANCH  22  23
ENDBRANCH   1  22
TORSDOF 18
