REMARK SMILES O=C(Cn1ccc(C(=O)NCCC[NH+]2CCOCC2)n1)OCCOCCOC(=O)c1ccc(-c2c3nc(c(-c4cccc(S(=O)(=O)[O-])c4F)c4ccc([nH]4)c(-c4cccc(S(=O)(=O)[O-])c4F)c4nc(c(-c5cccc(S(=O)(=O)[O-])c5F)c5ccc2[nH]5)C=C4)C=C3)cc1
REMARK SMILES IDX 22 1 21 2 2 3 1 4 3 5 4 6 5 7 20 8 6 9 7 10 8 11 9 12 10 13
REMARK SMILES IDX 11 15 12 16 13 17 14 18 15 19 19 20 16 22 18 23 17 24 23 25
REMARK SMILES IDX 24 26 25 27 26 28 27 29 28 30 29 31 30 32 31 33 92 34 32 35
REMARK SMILES IDX 91 36 33 37 34 38 35 39 85 40 36 41 90 42 84 43 86 44 37 45
REMARK SMILES IDX 89 46 83 47 82 48 38 50 70 51 50 52 69 53 51 54 54 55 68 56
REMARK SMILES IDX 87 57 52 58 53 59 67 61 88 62 55 63 39 64 40 65 48 66 41 67
REMARK SMILES IDX 43 68 49 69 42 70 44 71 45 72 46 73 47 74 71 75 72 76 80 77
REMARK SMILES IDX 73 78 75 79 81 80 74 81 76 82 77 83 78 84 79 85 56 86 57 87
REMARK SMILES IDX 65 88 58 89 60 90 66 91 59 92 61 93 62 94 63 95 64 96
REMARK H PARENT 10 14 14 21 86 49 54 60
REMARK Flexibility Score: inf
ROOT
ATOM      1  C   UNL     1       4.331   0.878  -0.189  1.00  0.00     0.261 C 
ENDROOT
BRANCH   1   2
ATOM      2  O   UNL     1       2.905   1.028  -0.159  1.00  0.00    -0.462 OA
BRANCH   2   3
ATOM      3  C   UNL     1       2.059   0.375  -0.994  1.00  0.00     0.327 C 
ATOM      4  O   UNL     1       0.932   0.823  -1.198  1.00  0.00    -0.250 OA
BRANCH   3   5
ATOM      5  C   UNL     1       2.450  -0.960  -1.540  1.00  0.00     0.266 C 
BRANCH   5   6
ATOM      6  N   UNL     1       3.374  -0.976  -2.650  1.00  0.00    -0.261 N 
ATOM      7  C   UNL     1       3.892   0.036  -3.396  1.00  0.00     0.110 A 
ATOM      8  N   UNL     1       3.891  -2.171  -2.961  1.00  0.00    -0.167 NA
ATOM      9  C   UNL     1       4.941  -0.523  -4.093  1.00  0.00     0.056 A 
ATOM     10  C   UNL     1       4.913  -1.911  -3.786  1.00  0.00     0.150 A 
BRANCH  10  11
ATOM     11  C   UNL     1       5.811  -2.946  -4.305  1.00  0.00     0.271 C 
ATOM     12  O   UNL     1       6.651  -2.697  -5.173  1.00  0.00    -0.267 OA
ATOM     13  N   UNL     1       5.741  -4.243  -3.854  1.00  0.00    -0.350 N 
ATOM     14  H   UNL     1       6.287  -4.876  -4.373  1.00  0.00     0.163 HD
BRANCH  13  15
ATOM     15  C   UNL     1       5.007  -4.858  -2.750  1.00  0.00     0.122 C 
BRANCH  15  16
ATOM     16  C   UNL     1       3.922  -5.816  -3.226  1.00  0.00     0.083 C 
BRANCH  16  17
ATOM     17  C   UNL     1       4.391  -6.994  -4.095  1.00  0.00     0.264 C 
BRANCH  17  18
ATOM     18  N   UNL     1       5.388  -7.883  -3.462  1.00  0.00    -0.331 N 
ATOM     19  C   UNL     1       6.797  -7.488  -3.712  1.00  0.00     0.291 C 
ATOM     20  C   UNL     1       5.263  -9.271  -3.974  1.00  0.00     0.291 C 
ATOM     21  H   UNL     1       5.185  -7.812  -2.465  1.00  0.00     0.348 HD
ATOM     22  C   UNL     1       7.240  -7.641  -5.177  1.00  0.00     0.221 C 
ATOM     23  C   UNL     1       5.720  -9.430  -5.436  1.00  0.00     0.221 C 
ATOM     24  O   UNL     1       7.072  -8.991  -5.624  1.00  0.00    -0.370 OA
ENDBRANCH  17  18
ENDBRANCH  16  17
ENDBRANCH  15  16
ENDBRANCH  13  15
ENDBRANCH  10  11
ENDBRANCH   5   6
ENDBRANCH   3   5
ENDBRANCH   2   3
ENDBRANCH   1   2
BRANCH   1  25
ATOM     25  C   UNL     1       4.938  -0.034   0.870  1.00  0.00     0.202 C 
BRANCH  25  26
ATOM     26  O   UNL     1       4.344  -1.301   1.121  1.00  0.00    -0.374 OA
BRANCH  26  27
ATOM     27  C   UNL     1       3.074  -1.402   1.770  1.00  0.00     0.202 C 
BRANCH  27  28
ATOM     28  C   UNL     1       2.947  -0.978   3.217  1.00  0.00     0.261 C 
BRANCH  28  29
ATOM     29  O   UNL     1       3.176   0.413   3.308  1.00  0.00    -0.460 OA
BRANCH  29  30
ATOM     30  C   UNL     1       4.372   0.752   3.812  1.00  0.00     0.338 C 
ATOM     31  O   UNL     1       5.326   0.003   4.035  1.00  0.00    -0.246 OA
BRANCH  30  32
ATOM     32  C   UNL     1       4.334   2.170   4.158  1.00  0.00     0.060 A 
ATOM     33  C   UNL     1       5.434   2.588   4.907  1.00  0.00     0.016 A 
ATOM     34  C   UNL     1       3.059   2.736   4.289  1.00  0.00     0.016 A 
ATOM     35  C   UNL     1       5.168   3.282   6.055  1.00  0.00     0.010 A 
ATOM     36  C   UNL     1       2.784   3.361   5.470  1.00  0.00     0.010 A 
ATOM     37  C   UNL     1       3.832   3.549   6.369  1.00  0.00    -0.014 A 
BRANCH  37  38
ATOM     38  C   UNL     1       3.563   4.280   7.578  1.00  0.00     0.031 A 
ATOM     39  C   UNL     1       3.828   5.712   7.340  1.00  0.00     0.074 A 
ATOM     40  C   UNL     1       3.035   3.709   8.673  1.00  0.00     0.049 A 
ATOM     41  N   UNL     1       4.907   6.359   7.642  1.00  0.00    -0.248 NA
ATOM     42  C   UNL     1       2.977   6.400   6.350  1.00  0.00     0.031 C 
ATOM     43  C   UNL     1       2.492   2.357   8.812  1.00  0.00     0.029 A 
ATOM     44  N   UNL     1       2.734   4.287   9.863  1.00  0.00    -0.354 N 
ATOM     45  C   UNL     1       4.675   7.634   7.140  1.00  0.00     0.074 A 
ATOM     46  C   UNL     1       3.736   7.460   6.075  1.00  0.00     0.031 C 
ATOM     47  C   UNL     1       1.700   2.317   9.909  1.00  0.00     0.029 A 
ATOM     48  C   UNL     1       1.768   3.599  10.590  1.00  0.00     0.049 A 
ATOM     49  H   UNL     1       3.160   5.115  10.182  1.00  0.00     0.167 HD
ATOM     50  C   UNL     1       4.874   8.718   7.942  1.00  0.00     0.034 A 
ATOM     51  C   UNL     1       1.011   4.115  11.594  1.00  0.00     0.034 A 
ATOM     52  C   UNL     1       5.727   8.357   9.060  1.00  0.00     0.049 A 
ATOM     53  C   UNL     1       1.682   5.356  12.055  1.00  0.00     0.074 A 
ATOM     54  C   UNL     1       6.971   7.772   9.203  1.00  0.00     0.029 A 
ATOM     55  N   UNL     1       5.100   8.219  10.276  1.00  0.00    -0.354 N 
ATOM     56  N   UNL     1       2.834   5.370  12.665  1.00  0.00    -0.248 NA
ATOM     57  C   UNL     1       1.291   6.612  11.433  1.00  0.00     0.031 C 
ATOM     58  C   UNL     1       6.875   6.957  10.371  1.00  0.00     0.029 A 
ATOM     59  C   UNL     1       5.610   7.137  10.933  1.00  0.00     0.049 A 
ATOM     60  H   UNL     1       4.392   8.810  10.620  1.00  0.00     0.167 HD
ATOM     61  C   UNL     1       3.510   6.440  12.092  1.00  0.00     0.074 A 
ATOM     62  C   UNL     1       2.470   7.239  11.443  1.00  0.00     0.031 C 
ATOM     63  C   UNL     1       4.866   6.394  11.927  1.00  0.00     0.034 A 
BRANCH  50  64
ATOM     64  C   UNL     1       3.897   9.894   8.047  1.00  0.00     0.023 A 
ATOM     65  C   UNL     1       4.230  10.880   9.003  1.00  0.00     0.012 A 
ATOM     66  C   UNL     1       2.577   9.946   7.533  1.00  0.00     0.148 A 
ATOM     67  C   UNL     1       3.271  11.748   9.533  1.00  0.00     0.002 A 
ATOM     68  C   UNL     1       1.630  10.826   8.042  1.00  0.00     0.091 A 
ATOM     69  F   UNL     1       2.175   9.126   6.569  1.00  0.00    -0.205 F 
ATOM     70  C   UNL     1       1.962  11.704   9.071  1.00  0.00     0.022 A 
BRANCH  68  71
ATOM     71  S   UNL     1      -0.080  10.818   7.468  1.00  0.00     0.127 S 
ATOM     72  O   UNL     1      -0.789  10.444   8.689  1.00  0.00    -0.237 OA
ATOM     73  O   UNL     1      -0.249  12.207   7.046  1.00  0.00    -0.237 OA
ATOM     74  O   UNL     1      -0.144   9.843   6.386  1.00  0.00    -0.744 OA
ENDBRANCH  68  71
ENDBRANCH  50  64
BRANCH  51  75
ATOM     75  C   UNL     1      -0.385   3.804  11.995  1.00  0.00     0.023 A 
ATOM     76  C   UNL     1      -0.862   4.257  13.243  1.00  0.00     0.012 A 
ATOM     77  C   UNL     1      -1.330   3.322  11.063  1.00  0.00     0.148 A 
ATOM     78  C   UNL     1      -2.231   4.265  13.538  1.00  0.00     0.002 A 
ATOM     79  C   UNL     1      -2.689   3.319  11.365  1.00  0.00     0.091 A 
ATOM     80  F   UNL     1      -0.913   2.957   9.845  1.00  0.00    -0.205 F 
ATOM     81  C   UNL     1      -3.146   3.803  12.597  1.00  0.00     0.022 A 
BRANCH  79  82
ATOM     82  S   UNL     1      -3.927   2.751  10.190  1.00  0.00     0.127 S 
ATOM     83  O   UNL     1      -4.734   1.849  11.013  1.00  0.00    -0.237 OA
ATOM     84  O   UNL     1      -4.589   3.998   9.819  1.00  0.00    -0.237 OA
ATOM     85  O   UNL     1      -3.188   2.085   9.124  1.00  0.00    -0.744 OA
ENDBRANCH  79  82
ENDBRANCH  51  75
BRANCH  63  86
ATOM     86  C   UNL     1       5.633   5.348  12.692  1.00  0.00     0.023 A 
ATOM     87  C   UNL     1       5.464   3.963  12.493  1.00  0.00     0.012 A 
ATOM     88  C   UNL     1       6.657   5.794  13.543  1.00  0.00     0.148 A 
ATOM     89  C   UNL     1       6.284   3.043  13.154  1.00  0.00     0.002 A 
ATOM     90  C   UNL     1       7.499   4.881  14.160  1.00  0.00     0.091 A 
ATOM     91  F   UNL     1       6.801   7.116  13.722  1.00  0.00    -0.205 F 
ATOM     92  C   UNL     1       7.311   3.502  13.977  1.00  0.00     0.022 A 
BRANCH  90  93
ATOM     93  S   UNL     1       8.903   5.426  15.132  1.00  0.00     0.127 S 
ATOM     94  O   UNL     1       8.427   5.218  16.498  1.00  0.00    -0.237 OA
ATOM     95  O   UNL     1       9.959   4.506  14.705  1.00  0.00    -0.237 OA
ATOM     96  O   UNL     1       9.137   6.814  14.752  1.00  0.00    -0.744 OA
ENDBRANCH  90  93
ENDBRANCH  63  86
ENDBRANCH  37  38
ENDBRANCH  30  32
ENDBRANCH  29  30
ENDBRANCH  28  29
ENDBRANCH  27  28
ENDBRANCH  26  27
ENDBRANCH  25  26
ENDBRANCH   1  25
TORSDOF 23
