REMARK SMILES Cc1ccc(C)c([C@@H](O)[C@@H](C)[C@@H](C)C(=O)OCCOCCOC(=O)c2ccc(-c3c4nc(c(-c5cccc(S(=O)(=O)[O-])c5F)c5ccc([nH]5)c(-c5cccc(S(=O)(=O)[O-])c5F)c5nc(c(-c6cccc(S(=O)(=O)[O-])c6F)c6ccc3[nH]6)C=C5)C=C4)cc2)c1
REMARK SMILES IDX 19 1 18 2 17 3 16 4 14 5 15 6 12 7 13 8 10 9 11 10 8 11 7 12
REMARK SMILES IDX 1 13 2 14 3 15 88 16 4 17 5 18 6 19 9 20 20 22 21 23 22 24
REMARK SMILES IDX 23 25 24 26 25 27 26 28 87 29 27 30 86 31 28 32 29 33 30 34
REMARK SMILES IDX 80 35 31 36 85 37 79 38 81 39 32 40 84 41 78 42 77 43 33 45
REMARK SMILES IDX 65 46 45 47 64 48 46 49 49 50 63 51 82 52 47 53 48 54 62 56
REMARK SMILES IDX 83 57 50 58 34 59 35 60 43 61 36 62 38 63 44 64 37 65 39 66
REMARK SMILES IDX 40 67 41 68 42 69 66 70 67 71 75 72 68 73 70 74 76 75 69 76
REMARK SMILES IDX 71 77 72 78 73 79 74 80 51 81 52 82 60 83 53 84 55 85 61 86
REMARK SMILES IDX 54 87 56 88 57 89 58 90 59 91
REMARK H PARENT 9 21 81 44 49 55
REMARK Flexibility Score: inf
ROOT
ATOM      1  O   UNL     1      -3.786   2.401   4.409  1.00  0.00    -0.374 OA
ENDROOT
BRANCH   1   2
ATOM      2  C   UNL     1      -4.238   1.223   3.781  1.00  0.00     0.202 C 
BRANCH   2   3
ATOM      3  C   UNL     1      -5.256   1.630   2.698  1.00  0.00     0.261 C 
BRANCH   3   4
ATOM      4  O   UNL     1      -4.636   1.846   1.416  1.00  0.00    -0.463 OA
BRANCH   4   5
ATOM      5  C   UNL     1      -3.768   2.897   1.362  1.00  0.00     0.309 C 
ATOM      6  O   UNL     1      -3.489   3.631   2.273  1.00  0.00    -0.252 OA
BRANCH   5   7
ATOM      7  C   UNL     1      -3.022   2.956   0.043  1.00  0.00     0.102 C 
ATOM      8  C   UNL     1      -4.003   2.866  -1.122  1.00  0.00     0.020 C 
BRANCH   7   9
ATOM      9  C   UNL     1      -1.927   1.900   0.175  1.00  0.00     0.033 C 
ATOM     10  C   UNL     1      -1.061   2.164   1.434  1.00  0.00     0.011 C 
BRANCH   9  11
ATOM     11  C   UNL     1      -1.023   1.712  -1.050  1.00  0.00     0.148 C 
BRANCH  11  12
ATOM     12  C   UNL     1      -0.279   0.398  -0.882  1.00  0.00    -0.016 A 
ATOM     13  C   UNL     1       3.324  -0.448   0.006  1.00  0.00     0.044 C 
ATOM     14  C   UNL     1       1.860  -0.602  -0.262  1.00  0.00    -0.051 A 
ATOM     15  C   UNL     1       1.219  -1.829  -0.082  1.00  0.00     0.004 A 
ATOM     16  C   UNL     1       1.112   0.494  -0.687  1.00  0.00     0.010 A 
ATOM     17  C   UNL     1      -0.151  -1.954  -0.317  1.00  0.00     0.004 A 
ATOM     18  C   UNL     1      -0.919  -0.857  -0.730  1.00  0.00    -0.045 A 
ATOM     19  C   UNL     1      -2.407  -1.074  -0.869  1.00  0.00     0.045 C 
ENDBRANCH  11  12
BRANCH  11  20
ATOM     20  O   UNL     1      -1.710   1.673  -2.288  1.00  0.00    -0.388 OA
ATOM     21  H   UNL     1      -2.312   0.912  -2.300  1.00  0.00     0.211 HD
ENDBRANCH  11  20
ENDBRANCH   9  11
ENDBRANCH   7   9
ENDBRANCH   5   7
ENDBRANCH   4   5
ENDBRANCH   3   4
ENDBRANCH   2   3
ENDBRANCH   1   2
BRANCH   1  22
ATOM     22  C   UNL     1      -2.474   2.485   4.917  1.00  0.00     0.202 C 
BRANCH  22  23
ATOM     23  C   UNL     1      -2.434   2.161   6.408  1.00  0.00     0.261 C 
BRANCH  23  24
ATOM     24  O   UNL     1      -3.362   2.828   7.310  1.00  0.00    -0.460 OA
BRANCH  24  25
ATOM     25  C   UNL     1      -4.671   2.999   6.970  1.00  0.00     0.338 C 
ATOM     26  O   UNL     1      -5.577   2.308   7.412  1.00  0.00    -0.246 OA
BRANCH  25  27
ATOM     27  C   UNL     1      -4.883   4.167   6.069  1.00  0.00     0.060 A 
ATOM     28  C   UNL     1      -6.009   4.192   5.232  1.00  0.00     0.016 A 
ATOM     29  C   UNL     1      -3.842   5.077   5.874  1.00  0.00     0.016 A 
ATOM     30  C   UNL     1      -6.016   5.031   4.112  1.00  0.00     0.010 A 
ATOM     31  C   UNL     1      -3.809   5.830   4.709  1.00  0.00     0.010 A 
ATOM     32  C   UNL     1      -4.886   5.806   3.810  1.00  0.00    -0.014 A 
BRANCH  32  33
ATOM     33  C   UNL     1      -4.968   6.926   2.858  1.00  0.00     0.031 A 
ATOM     34  C   UNL     1      -5.618   8.057   3.517  1.00  0.00     0.074 A 
ATOM     35  C   UNL     1      -4.491   7.086   1.606  1.00  0.00     0.049 A 
ATOM     36  N   UNL     1      -6.862   8.362   3.346  1.00  0.00    -0.248 NA
ATOM     37  C   UNL     1      -4.952   8.750   4.625  1.00  0.00     0.031 C 
ATOM     38  C   UNL     1      -3.885   6.071   0.788  1.00  0.00     0.029 A 
ATOM     39  N   UNL     1      -4.365   8.187   0.798  1.00  0.00    -0.354 N 
ATOM     40  C   UNL     1      -7.005   9.515   4.082  1.00  0.00     0.074 A 
ATOM     41  C   UNL     1      -5.949   9.520   5.063  1.00  0.00     0.031 C 
ATOM     42  C   UNL     1      -3.155   6.592  -0.214  1.00  0.00     0.029 A 
ATOM     43  C   UNL     1      -3.445   8.005  -0.241  1.00  0.00     0.049 A 
ATOM     44  H   UNL     1      -4.871   9.021   0.934  1.00  0.00     0.167 HD
ATOM     45  C   UNL     1      -7.667  10.564   3.538  1.00  0.00     0.034 A 
ATOM     46  C   UNL     1      -3.042   8.859  -1.209  1.00  0.00     0.034 A 
ATOM     47  C   UNL     1      -8.423  10.200   2.368  1.00  0.00     0.049 A 
ATOM     48  C   UNL     1      -4.206   9.724  -1.472  1.00  0.00     0.074 A 
ATOM     49  C   UNL     1      -9.474   9.349   2.103  1.00  0.00     0.029 A 
ATOM     50  N   UNL     1      -7.802  10.470   1.174  1.00  0.00    -0.354 N 
ATOM     51  N   UNL     1      -5.308   9.290  -2.024  1.00  0.00    -0.248 NA
ATOM     52  C   UNL     1      -4.305  11.002  -0.785  1.00  0.00     0.031 C 
ATOM     53  C   UNL     1      -9.351   8.977   0.735  1.00  0.00     0.029 A 
ATOM     54  C   UNL     1      -8.241   9.622   0.190  1.00  0.00     0.049 A 
ATOM     55  H   UNL     1      -7.130  11.178   1.042  1.00  0.00     0.167 HD
ATOM     56  C   UNL     1      -6.299   9.967  -1.332  1.00  0.00     0.074 A 
ATOM     57  C   UNL     1      -5.634  11.119  -0.740  1.00  0.00     0.031 C 
ATOM     58  C   UNL     1      -7.481   9.363  -1.022  1.00  0.00     0.034 A 
BRANCH  45  59
ATOM     59  C   UNL     1      -7.249  11.973   3.805  1.00  0.00     0.023 A 
ATOM     60  C   UNL     1      -8.206  12.983   3.639  1.00  0.00     0.012 A 
ATOM     61  C   UNL     1      -5.907  12.365   4.018  1.00  0.00     0.148 A 
ATOM     62  C   UNL     1      -7.846  14.329   3.733  1.00  0.00     0.002 A 
ATOM     63  C   UNL     1      -5.577  13.690   4.234  1.00  0.00     0.091 A 
ATOM     64  F   UNL     1      -4.918  11.473   3.871  1.00  0.00    -0.205 F 
ATOM     65  C   UNL     1      -6.541  14.683   4.070  1.00  0.00     0.022 A 
BRANCH  63  66
ATOM     66  S   UNL     1      -3.931  14.149   4.779  1.00  0.00     0.127 S 
ATOM     67  O   UNL     1      -3.334  14.638   3.540  1.00  0.00    -0.237 OA
ATOM     68  O   UNL     1      -4.219  15.177   5.780  1.00  0.00    -0.237 OA
ATOM     69  O   UNL     1      -3.361  12.926   5.334  1.00  0.00    -0.744 OA
ENDBRANCH  63  66
ENDBRANCH  45  59
BRANCH  46  70
ATOM     70  C   UNL     1      -1.759   8.939  -1.949  1.00  0.00     0.023 A 
ATOM     71  C   UNL     1      -1.683   9.634  -3.172  1.00  0.00     0.012 A 
ATOM     72  C   UNL     1      -0.543   8.575  -1.320  1.00  0.00     0.148 A 
ATOM     73  C   UNL     1      -0.448  10.011  -3.717  1.00  0.00     0.002 A 
ATOM     74  C   UNL     1       0.683   8.956  -1.865  1.00  0.00     0.091 A 
ATOM     75  F   UNL     1      -0.589   7.934  -0.144  1.00  0.00    -0.205 F 
ATOM     76  C   UNL     1       0.734   9.688  -3.057  1.00  0.00     0.022 A 
BRANCH  74  77
ATOM     77  S   UNL     1       2.244   8.587  -1.048  1.00  0.00     0.127 S 
ATOM     78  O   UNL     1       3.124   8.280  -2.177  1.00  0.00    -0.237 OA
ATOM     79  O   UNL     1       2.538   9.846  -0.371  1.00  0.00    -0.237 OA
ATOM     80  O   UNL     1       1.969   7.443  -0.187  1.00  0.00    -0.744 OA
ENDBRANCH  74  77
ENDBRANCH  46  70
BRANCH  58  81
ATOM     81  C   UNL     1      -7.947   8.217  -1.881  1.00  0.00     0.023 A 
ATOM     82  C   UNL     1      -7.314   6.960  -1.895  1.00  0.00     0.012 A 
ATOM     83  C   UNL     1      -9.166   8.377  -2.567  1.00  0.00     0.148 A 
ATOM     84  C   UNL     1      -7.889   5.884  -2.582  1.00  0.00     0.002 A 
ATOM     85  C   UNL     1      -9.759   7.295  -3.203  1.00  0.00     0.091 A 
ATOM     86  F   UNL     1      -9.745   9.588  -2.553  1.00  0.00    -0.205 F 
ATOM     87  C   UNL     1      -9.119   6.047  -3.220  1.00  0.00     0.022 A 
BRANCH  85  88
ATOM     88  S   UNL     1     -11.402   7.412  -3.918  1.00  0.00     0.127 S 
ATOM     89  O   UNL     1     -11.113   7.419  -5.351  1.00  0.00    -0.237 OA
ATOM     90  O   UNL     1     -12.044   6.190  -3.430  1.00  0.00    -0.237 OA
ATOM     91  O   UNL     1     -11.984   8.640  -3.390  1.00  0.00    -0.744 OA
ENDBRANCH  85  88
ENDBRANCH  58  81
ENDBRANCH  32  33
ENDBRANCH  25  27
ENDBRANCH  24  25
ENDBRANCH  23  24
ENDBRANCH  22  23
ENDBRANCH   1  22
TORSDOF 21
