REMARK SMILES CC[C@H](C)CN(CC)c1nc(C(=O)OCCOCCOC(=O)c2ccc(-c3c4nc(c(-c5cccc(S(=O)(=O)[O-])c5F)c5ccc([nH]5)c(-c5cccc(S(=O)(=O)[O-])c5F)c5nc(c(-c6cccc(S(=O)(=O)[O-])c6F)c6ccc3[nH]6)C=C5)C=C4)cc2)cc2ccccc12
REMARK SMILES IDX 16 1 15 2 14 3 12 4 13 5 11 6 9 7 10 8 92 9 87 10 91 11
REMARK SMILES IDX 86 12 88 13 90 14 89 15 6 16 5 17 3 18 4 19 2 20 1 21 7 22
REMARK SMILES IDX 8 23 17 24 18 25 19 26 20 27 21 28 22 29 23 30 24 31 85 32
REMARK SMILES IDX 25 33 84 34 26 35 27 36 28 37 78 38 29 39 83 40 77 41 79 42
REMARK SMILES IDX 30 43 82 44 76 45 75 46 31 48 63 49 43 50 62 51 44 52 47 53
REMARK SMILES IDX 61 54 80 55 45 56 46 57 60 59 81 60 48 61 32 62 33 63 41 64
REMARK SMILES IDX 34 65 36 66 42 67 35 68 37 69 38 70 39 71 40 72 64 73 65 74
REMARK SMILES IDX 73 75 66 76 68 77 74 78 67 79 69 80 70 81 71 82 72 83 49 84
REMARK SMILES IDX 50 85 58 86 51 87 53 88 59 89 52 90 54 91 55 92 56 93 57 94
REMARK H PARENT 79 47 47 58
REMARK Flexibility Score: inf
ROOT
ATOM      1  C   UNL     1      -2.465  -8.101   3.577  1.00  0.00     0.202 C 
ENDROOT
BRANCH   1   2
ATOM      2  C   UNL     1      -0.952  -7.999   3.805  1.00  0.00     0.261 C 
BRANCH   2   3
ATOM      3  O   UNL     1      -0.440  -6.680   3.564  1.00  0.00    -0.459 OA
BRANCH   3   4
ATOM      4  C   UNL     1       0.189  -6.550   2.370  1.00  0.00     0.357 C 
ATOM      5  O   UNL     1       0.410  -7.457   1.574  1.00  0.00    -0.244 OA
BRANCH   4   6
ATOM      6  C   UNL     1       0.482  -5.134   2.019  1.00  0.00     0.151 A 
ATOM      7  C   UNL     1       1.253  -3.021   2.589  1.00  0.00     0.137 A 
ATOM      8  N   UNL     1       0.777  -4.228   2.984  1.00  0.00    -0.223 NA
ATOM      9  C   UNL     1       1.540  -2.758   1.218  1.00  0.00     0.024 A 
ATOM     10  C   UNL     1       1.017  -3.638   0.251  1.00  0.00    -0.012 A 
ATOM     11  C   UNL     1       2.302  -1.668   0.742  1.00  0.00     0.012 A 
ATOM     12  C   UNL     1       0.482  -4.845   0.665  1.00  0.00     0.045 A 
ATOM     13  C   UNL     1       1.060  -3.312  -1.113  1.00  0.00     0.009 A 
ATOM     14  C   UNL     1       2.378  -1.364  -0.619  1.00  0.00     0.001 A 
ATOM     15  C   UNL     1       1.715  -2.162  -1.542  1.00  0.00     0.001 A 
BRANCH   7  16
ATOM     16  N   UNL     1       1.402  -1.998   3.544  1.00  0.00    -0.356 N 
BRANCH  16  17
ATOM     17  C   UNL     1       0.302  -0.997   3.671  1.00  0.00     0.121 C 
BRANCH  17  18
ATOM     18  C   UNL     1       0.200   0.046   2.523  1.00  0.00     0.005 C 
ATOM     19  C   UNL     1      -0.775  -0.416   1.432  1.00  0.00     0.009 C 
BRANCH  18  20
ATOM     20  C   UNL     1      -0.098   1.488   3.034  1.00  0.00     0.002 C 
ATOM     21  C   UNL     1      -1.260   2.229   2.382  1.00  0.00     0.004 C 
ENDBRANCH  18  20
ENDBRANCH  17  18
ENDBRANCH  16  17
BRANCH  16  22
ATOM     22  C   UNL     1       2.038  -2.413   4.811  1.00  0.00     0.114 C 
ATOM     23  C   UNL     1       1.107  -3.120   5.791  1.00  0.00     0.027 C 
ENDBRANCH  16  22
ENDBRANCH   7  16
ENDBRANCH   4   6
ENDBRANCH   3   4
ENDBRANCH   2   3
ENDBRANCH   1   2
BRANCH   1  24
ATOM     24  O   UNL     1      -2.973  -7.631   2.329  1.00  0.00    -0.374 OA
BRANCH  24  25
ATOM     25  C   UNL     1      -3.148  -6.220   2.185  1.00  0.00     0.202 C 
BRANCH  25  26
ATOM     26  C   UNL     1      -4.334  -5.582   2.919  1.00  0.00     0.261 C 
BRANCH  26  27
ATOM     27  O   UNL     1      -4.159  -5.598   4.347  1.00  0.00    -0.460 OA
BRANCH  27  28
ATOM     28  C   UNL     1      -5.027  -6.386   5.021  1.00  0.00     0.338 C 
ATOM     29  O   UNL     1      -5.979  -7.001   4.553  1.00  0.00    -0.246 OA
BRANCH  28  30
ATOM     30  C   UNL     1      -4.568  -6.577   6.408  1.00  0.00     0.060 A 
ATOM     31  C   UNL     1      -4.463  -7.893   6.880  1.00  0.00     0.016 A 
ATOM     32  C   UNL     1      -4.309  -5.497   7.255  1.00  0.00     0.016 A 
ATOM     33  C   UNL     1      -4.157  -8.133   8.217  1.00  0.00     0.010 A 
ATOM     34  C   UNL     1      -4.010  -5.741   8.599  1.00  0.00     0.010 A 
ATOM     35  C   UNL     1      -3.973  -7.058   9.094  1.00  0.00    -0.014 A 
BRANCH  35  36
ATOM     36  C   UNL     1      -3.884  -7.311  10.552  1.00  0.00     0.031 A 
ATOM     37  C   UNL     1      -5.104  -7.097  11.407  1.00  0.00     0.074 A 
ATOM     38  C   UNL     1      -2.734  -7.734  11.107  1.00  0.00     0.049 A 
ATOM     39  N   UNL     1      -5.247  -7.247  12.697  1.00  0.00    -0.248 NA
ATOM     40  C   UNL     1      -6.324  -6.650  10.714  1.00  0.00     0.031 C 
ATOM     41  C   UNL     1      -1.487  -7.976  10.384  1.00  0.00     0.029 A 
ATOM     42  N   UNL     1      -2.426  -8.011  12.415  1.00  0.00    -0.354 N 
ATOM     43  C   UNL     1      -6.561  -6.889  12.977  1.00  0.00     0.074 A 
ATOM     44  C   UNL     1      -7.170  -6.501  11.723  1.00  0.00     0.031 C 
ATOM     45  C   UNL     1      -0.538  -8.339  11.263  1.00  0.00     0.029 A 
ATOM     46  C   UNL     1      -1.105  -8.338  12.610  1.00  0.00     0.049 A 
ATOM     47  H   UNL     1      -3.087  -7.980  13.144  1.00  0.00     0.167 HD
ATOM     48  C   UNL     1      -7.207  -6.899  14.167  1.00  0.00     0.034 A 
ATOM     49  C   UNL     1      -0.428  -8.588  13.749  1.00  0.00     0.034 A 
ATOM     50  C   UNL     1      -6.607  -7.308  15.407  1.00  0.00     0.049 A 
ATOM     51  C   UNL     1      -1.168  -8.580  15.062  1.00  0.00     0.074 A 
ATOM     52  C   UNL     1      -7.193  -7.403  16.657  1.00  0.00     0.029 A 
ATOM     53  N   UNL     1      -5.280  -7.680  15.559  1.00  0.00    -0.354 N 
ATOM     54  N   UNL     1      -2.440  -8.363  15.292  1.00  0.00    -0.248 NA
ATOM     55  C   UNL     1      -0.385  -8.887  16.269  1.00  0.00     0.031 C 
ATOM     56  C   UNL     1      -6.214  -7.810  17.569  1.00  0.00     0.029 A 
ATOM     57  C   UNL     1      -5.024  -7.993  16.883  1.00  0.00     0.049 A 
ATOM     58  H   UNL     1      -4.617  -7.715  14.832  1.00  0.00     0.167 HD
ATOM     59  C   UNL     1      -2.618  -8.543  16.660  1.00  0.00     0.074 A 
ATOM     60  C   UNL     1      -1.326  -8.905  17.204  1.00  0.00     0.031 C 
ATOM     61  C   UNL     1      -3.746  -8.408  17.401  1.00  0.00     0.034 A 
BRANCH  48  62
ATOM     62  C   UNL     1      -8.654  -6.482  14.179  1.00  0.00     0.023 A 
ATOM     63  C   UNL     1      -9.632  -7.346  13.648  1.00  0.00     0.012 A 
ATOM     64  C   UNL     1      -9.051  -5.265  14.766  1.00  0.00     0.148 A 
ATOM     65  C   UNL     1     -10.981  -6.993  13.673  1.00  0.00     0.002 A 
ATOM     66  C   UNL     1     -10.401  -4.938  14.825  1.00  0.00     0.091 A 
ATOM     67  F   UNL     1      -8.104  -4.445  15.243  1.00  0.00    -0.205 F 
ATOM     68  C   UNL     1     -11.366  -5.796  14.270  1.00  0.00     0.022 A 
BRANCH  66  69
ATOM     69  S   UNL     1     -11.002  -3.454  15.639  1.00  0.00     0.127 S 
ATOM     70  O   UNL     1     -11.414  -2.637  14.498  1.00  0.00    -0.237 OA
ATOM     71  O   UNL     1     -12.107  -3.971  16.448  1.00  0.00    -0.237 OA
ATOM     72  O   UNL     1      -9.880  -2.936  16.408  1.00  0.00    -0.744 OA
ENDBRANCH  66  69
ENDBRANCH  48  62
BRANCH  49  73
ATOM     73  C   UNL     1       1.026  -8.908  13.694  1.00  0.00     0.023 A 
ATOM     74  C   UNL     1       1.463 -10.213  13.993  1.00  0.00     0.012 A 
ATOM     75  C   UNL     1       1.974  -7.933  13.327  1.00  0.00     0.148 A 
ATOM     76  C   UNL     1       2.820 -10.534  13.956  1.00  0.00     0.002 A 
ATOM     77  C   UNL     1       3.319  -8.273  13.240  1.00  0.00     0.091 A 
ATOM     78  F   UNL     1       1.541  -6.692  13.065  1.00  0.00    -0.205 F 
ATOM     79  C   UNL     1       3.746  -9.569  13.570  1.00  0.00     0.022 A 
BRANCH  77  80
ATOM     80  S   UNL     1       4.563  -7.130  12.630  1.00  0.00     0.127 S 
ATOM     81  O   UNL     1       5.301  -6.811  13.849  1.00  0.00    -0.237 OA
ATOM     82  O   UNL     1       5.290  -7.958  11.667  1.00  0.00    -0.237 OA
ATOM     83  O   UNL     1       3.822  -6.027  12.031  1.00  0.00    -0.744 OA
ENDBRANCH  77  80
ENDBRANCH  49  73
BRANCH  61  84
ATOM     84  C   UNL     1      -3.652  -8.686  18.879  1.00  0.00     0.023 A 
ATOM     85  C   UNL     1      -3.002  -7.767  19.726  1.00  0.00     0.012 A 
ATOM     86  C   UNL     1      -4.279  -9.818  19.439  1.00  0.00     0.148 A 
ATOM     87  C   UNL     1      -2.950  -7.985  21.102  1.00  0.00     0.002 A 
ATOM     88  C   UNL     1      -4.264 -10.004  20.816  1.00  0.00     0.091 A 
ATOM     89  F   UNL     1      -4.877 -10.691  18.615  1.00  0.00    -0.205 F 
ATOM     90  C   UNL     1      -3.591  -9.095  21.648  1.00  0.00     0.022 A 
BRANCH  88  91
ATOM     91  S   UNL     1      -5.144 -11.353  21.614  1.00  0.00     0.127 S 
ATOM     92  O   UNL     1      -4.046 -12.240  21.996  1.00  0.00    -0.237 OA
ATOM     93  O   UNL     1      -5.801 -10.678  22.733  1.00  0.00    -0.237 OA
ATOM     94  O   UNL     1      -6.057 -11.883  20.610  1.00  0.00    -0.744 OA
ENDBRANCH  88  91
ENDBRANCH  61  84
ENDBRANCH  35  36
ENDBRANCH  28  30
ENDBRANCH  27  28
ENDBRANCH  26  27
ENDBRANCH  25  26
ENDBRANCH  24  25
ENDBRANCH   1  24
TORSDOF 22
