REMARK SMILES Cc1nc([C@]2(C)CCCO2)nc(C)c1C(=O)OCCOCCOC(=O)c1ccc(-c2c3nc(c(-c4cccc(S(=O)(=O)[O-])c4F)c4ccc([nH]4)c(-c4cccc(S(=O)(=O)[O-])c4F)c4nc(c(-c5cccc(S(=O)(=O)[O-])c5F)c5ccc2[nH]5)C=C4)C=C3)cc1
REMARK SMILES IDX 21 1 20 2 19 3 18 4 17 5 15 6 16 7 14 8 1 9 2 10 3 11 4 12
REMARK SMILES IDX 12 13 11 14 13 15 5 16 7 17 10 18 6 19 8 20 9 21 22 22 23 23
REMARK SMILES IDX 24 24 25 25 26 26 27 27 88 28 28 29 87 30 29 31 30 32 31 33
REMARK SMILES IDX 81 34 32 35 86 36 80 37 82 38 33 39 85 40 79 41 78 42 34 44
REMARK SMILES IDX 66 45 46 46 65 47 47 48 50 49 64 50 83 51 48 52 49 53 63 55
REMARK SMILES IDX 84 56 51 57 35 58 36 59 44 60 37 61 39 62 45 63 38 64 40 65
REMARK SMILES IDX 41 66 42 67 43 68 67 69 68 70 76 71 69 72 71 73 77 74 70 75
REMARK SMILES IDX 72 76 73 77 74 78 75 79 52 80 53 81 61 82 54 83 56 84 62 85
REMARK SMILES IDX 55 86 57 87 58 88 59 89 60 90
REMARK H PARENT 82 43 50 54
REMARK Flexibility Score: inf
ROOT
ATOM      1  C   UNL     1      -5.167  -2.269   4.653  1.00  0.00     0.202 C 
ENDROOT
BRANCH   1   2
ATOM      2  O   UNL     1      -6.586  -2.120   4.603  1.00  0.00    -0.374 OA
BRANCH   2   3
ATOM      3  C   UNL     1      -7.357  -3.213   4.101  1.00  0.00     0.202 C 
BRANCH   3   4
ATOM      4  C   UNL     1      -7.326  -3.448   2.590  1.00  0.00     0.261 C 
BRANCH   4   5
ATOM      5  O   UNL     1      -5.985  -3.698   2.143  1.00  0.00    -0.460 OA
BRANCH   5   6
ATOM      6  C   UNL     1      -5.516  -2.836   1.216  1.00  0.00     0.341 C 
ATOM      7  O   UNL     1      -6.163  -1.976   0.632  1.00  0.00    -0.246 OA
BRANCH   6   8
ATOM      8  C   UNL     1      -4.057  -2.956   1.068  1.00  0.00     0.102 A 
ATOM      9  C   UNL     1      -4.046  -5.500   1.073  1.00  0.00     0.068 C 
ATOM     10  C   UNL     1      -3.391  -4.160   0.896  1.00  0.00     0.056 A 
ATOM     11  N   UNL     1      -2.068  -4.206   0.599  1.00  0.00    -0.234 NA
ATOM     12  C   UNL     1      -1.392  -3.044   0.487  1.00  0.00     0.160 A 
ATOM     13  C   UNL     1      -3.267  -1.810   1.046  1.00  0.00     0.056 A 
ATOM     14  N   UNL     1      -1.949  -1.846   0.742  1.00  0.00    -0.234 NA
ATOM     15  C   UNL     1      -3.762  -0.463   1.492  1.00  0.00     0.068 C 
BRANCH  12  16
ATOM     16  C   UNL     1       0.060  -3.082  -0.017  1.00  0.00     0.125 C 
ATOM     17  C   UNL     1       0.151  -3.657  -1.432  1.00  0.00     0.046 C 
ATOM     18  O   UNL     1       0.867  -3.969   0.792  1.00  0.00    -0.367 OA
ATOM     19  C   UNL     1       0.708  -1.692   0.040  1.00  0.00     0.051 C 
ATOM     20  C   UNL     1       0.253  -5.147  -1.203  1.00  0.00     0.032 C 
ATOM     21  C   UNL     1       0.887  -5.262   0.170  1.00  0.00     0.161 C 
ENDBRANCH  12  16
ENDBRANCH   6   8
ENDBRANCH   5   6
ENDBRANCH   4   5
ENDBRANCH   3   4
ENDBRANCH   2   3
ENDBRANCH   1   2
BRANCH   1  22
ATOM     22  C   UNL     1      -4.564  -3.182   5.727  1.00  0.00     0.261 C 
BRANCH  22  23
ATOM     23  O   UNL     1      -4.985  -4.549   5.610  1.00  0.00    -0.460 OA
BRANCH  23  24
ATOM     24  C   UNL     1      -5.865  -4.947   6.560  1.00  0.00     0.338 C 
ATOM     25  O   UNL     1      -6.290  -4.284   7.497  1.00  0.00    -0.246 OA
BRANCH  24  26
ATOM     26  C   UNL     1      -6.419  -6.265   6.208  1.00  0.00     0.060 A 
ATOM     27  C   UNL     1      -7.811  -6.374   6.097  1.00  0.00     0.016 A 
ATOM     28  C   UNL     1      -5.601  -7.386   6.061  1.00  0.00     0.016 A 
ATOM     29  C   UNL     1      -8.397  -7.617   5.883  1.00  0.00     0.010 A 
ATOM     30  C   UNL     1      -6.193  -8.636   5.856  1.00  0.00     0.010 A 
ATOM     31  C   UNL     1      -7.593  -8.761   5.803  1.00  0.00    -0.014 A 
BRANCH  31  32
ATOM     32  C   UNL     1      -8.227 -10.100   5.803  1.00  0.00     0.031 A 
ATOM     33  C   UNL     1      -8.239 -10.902   7.075  1.00  0.00     0.074 A 
ATOM     34  C   UNL     1      -8.790 -10.589   4.684  1.00  0.00     0.049 A 
ATOM     35  N   UNL     1      -8.702 -12.105   7.289  1.00  0.00    -0.248 NA
ATOM     36  C   UNL     1      -7.649 -10.264   8.264  1.00  0.00     0.031 C 
ATOM     37  C   UNL     1      -8.845  -9.900   3.396  1.00  0.00     0.029 A 
ATOM     38  N   UNL     1      -9.400 -11.796   4.448  1.00  0.00    -0.354 N 
ATOM     39  C   UNL     1      -8.435 -12.382   8.625  1.00  0.00     0.074 A 
ATOM     40  C   UNL     1      -7.757 -11.225   9.169  1.00  0.00     0.031 C 
ATOM     41  C   UNL     1      -9.426 -10.709   2.493  1.00  0.00     0.029 A 
ATOM     42  C   UNL     1      -9.758 -11.980   3.134  1.00  0.00     0.049 A 
ATOM     43  H   UNL     1      -9.566 -12.464   5.152  1.00  0.00     0.167 HD
ATOM     44  C   UNL     1      -8.740 -13.492   9.337  1.00  0.00     0.034 A 
ATOM     45  C   UNL     1     -10.268 -13.063   2.514  1.00  0.00     0.034 A 
ATOM     46  C   UNL     1      -9.428 -14.632   8.795  1.00  0.00     0.049 A 
ATOM     47  C   UNL     1     -10.572 -14.296   3.324  1.00  0.00     0.074 A 
ATOM     48  C   UNL     1      -9.819 -15.789   9.445  1.00  0.00     0.029 A 
ATOM     49  N   UNL     1      -9.816 -14.766   7.471  1.00  0.00    -0.354 N 
ATOM     50  N   UNL     1     -10.415 -14.501   4.609  1.00  0.00    -0.248 NA
ATOM     51  C   UNL     1     -11.158 -15.437   2.604  1.00  0.00     0.031 C 
ATOM     52  C   UNL     1     -10.416 -16.636   8.506  1.00  0.00     0.029 A 
ATOM     53  C   UNL     1     -10.432 -15.991   7.280  1.00  0.00     0.049 A 
ATOM     54  H   UNL     1      -9.674 -14.090   6.770  1.00  0.00     0.167 HD
ATOM     55  C   UNL     1     -10.915 -15.774   4.859  1.00  0.00     0.074 A 
ATOM     56  C   UNL     1     -11.401 -16.286   3.594  1.00  0.00     0.031 C 
ATOM     57  C   UNL     1     -10.959 -16.464   6.026  1.00  0.00     0.034 A 
BRANCH  44  58
ATOM     58  C   UNL     1      -8.352 -13.520  10.792  1.00  0.00     0.023 A 
ATOM     59  C   UNL     1      -9.055 -12.723  11.719  1.00  0.00     0.012 A 
ATOM     60  C   UNL     1      -7.339 -14.384  11.252  1.00  0.00     0.148 A 
ATOM     61  C   UNL     1      -8.736 -12.763  13.075  1.00  0.00     0.002 A 
ATOM     62  C   UNL     1      -7.057 -14.452  12.611  1.00  0.00     0.091 A 
ATOM     63  F   UNL     1      -6.668 -15.118  10.353  1.00  0.00    -0.205 F 
ATOM     64  C   UNL     1      -7.747 -13.634  13.523  1.00  0.00     0.022 A 
BRANCH  62  65
ATOM     65  S   UNL     1      -5.857 -15.598  13.298  1.00  0.00     0.127 S 
ATOM     66  O   UNL     1      -4.810 -14.687  13.759  1.00  0.00    -0.237 OA
ATOM     67  O   UNL     1      -6.622 -16.239  14.367  1.00  0.00    -0.237 OA
ATOM     68  O   UNL     1      -5.475 -16.483  12.207  1.00  0.00    -0.744 OA
ENDBRANCH  62  65
ENDBRANCH  44  58
BRANCH  45  69
ATOM     69  C   UNL     1     -10.539 -13.026   1.049  1.00  0.00     0.023 A 
ATOM     70  C   UNL     1     -11.866 -13.068   0.581  1.00  0.00     0.012 A 
ATOM     71  C   UNL     1      -9.485 -12.945   0.118  1.00  0.00     0.148 A 
ATOM     72  C   UNL     1     -12.137 -13.067  -0.788  1.00  0.00     0.002 A 
ATOM     73  C   UNL     1      -9.764 -12.885  -1.242  1.00  0.00     0.091 A 
ATOM     74  F   UNL     1      -8.227 -12.923   0.582  1.00  0.00    -0.205 F 
ATOM     75  C   UNL     1     -11.089 -12.966  -1.698  1.00  0.00     0.022 A 
BRANCH  73  76
ATOM     76  S   UNL     1      -8.486 -12.620  -2.475  1.00  0.00     0.127 S 
ATOM     77  O   UNL     1      -8.432 -13.922  -3.135  1.00  0.00    -0.237 OA
ATOM     78  O   UNL     1      -9.062 -11.543  -3.280  1.00  0.00    -0.237 OA
ATOM     79  O   UNL     1      -7.294 -12.238  -1.729  1.00  0.00    -0.744 OA
ENDBRANCH  73  76
ENDBRANCH  45  69
BRANCH  57  80
ATOM     80  C   UNL     1     -11.594 -17.831   6.009  1.00  0.00     0.023 A 
ATOM     81  C   UNL     1     -10.931 -18.910   5.391  1.00  0.00     0.012 A 
ATOM     82  C   UNL     1     -12.816 -18.059   6.673  1.00  0.00     0.148 A 
ATOM     83  C   UNL     1     -11.491 -20.186   5.403  1.00  0.00     0.002 A 
ATOM     84  C   UNL     1     -13.342 -19.344   6.726  1.00  0.00     0.091 A 
ATOM     85  F   UNL     1     -13.439 -17.017   7.241  1.00  0.00    -0.205 F 
ATOM     86  C   UNL     1     -12.689 -20.406   6.080  1.00  0.00     0.022 A 
BRANCH  84  87
ATOM     87  S   UNL     1     -14.827 -19.740   7.656  1.00  0.00     0.127 S 
ATOM     88  O   UNL     1     -15.787 -20.004   6.586  1.00  0.00    -0.237 OA
ATOM     89  O   UNL     1     -14.413 -20.924   8.410  1.00  0.00    -0.237 OA
ATOM     90  O   UNL     1     -15.113 -18.570   8.476  1.00  0.00    -0.744 OA
ENDBRANCH  84  87
ENDBRANCH  57  80
ENDBRANCH  31  32
ENDBRANCH  24  26
ENDBRANCH  23  24
ENDBRANCH  22  23
ENDBRANCH   1  22
TORSDOF 18
