REMARK SMILES O=C(C[C@@H]([NH2+]C[C@H]1CCCO1)C(=O)OCCOCCOC(=O)c1ccc(-c2c3nc(c(-c4cccc(S(=O)(=O)[O-])c4F)c4ccc([nH]4)c(-c4cccc(S(=O)(=O)[O-])c4F)c4nc(c(-c5cccc(S(=O)(=O)[O-])c5F)c5ccc2[nH]5)C=C4)C=C3)cc1)Nc1cccc(Cl)c1
REMARK SMILES IDX 17 1 16 2 15 3 14 4 12 5 13 6 4 7 3 8 2 9 1 10 86 11 87 13
REMARK SMILES IDX 88 14 93 15 89 16 91 17 90 18 92 19 5 20 6 23 7 24 8 25
REMARK SMILES IDX 11 26 9 27 10 28 18 29 19 30 20 31 21 32 22 33 23 34 24 35
REMARK SMILES IDX 85 36 25 37 84 38 26 39 27 40 28 41 78 42 29 43 83 44 77 45
REMARK SMILES IDX 79 46 30 47 82 48 76 49 75 50 31 52 63 53 43 54 62 55 44 56
REMARK SMILES IDX 47 57 61 58 80 59 45 60 46 61 60 63 81 64 48 65 32 66 33 67
REMARK SMILES IDX 41 68 34 69 36 70 42 71 35 72 37 73 38 74 39 75 40 76 64 77
REMARK SMILES IDX 65 78 73 79 66 80 68 81 74 82 67 83 69 84 70 85 71 86 72 87
REMARK SMILES IDX 49 88 50 89 58 90 51 91 53 92 59 93 52 94 54 95 55 96 56 97
REMARK SMILES IDX 57 98
REMARK H PARENT 86 12 5 21 5 22 79 51 47 62
REMARK Flexibility Score: inf
ROOT
ATOM      1  O   UNL     1       8.009  -5.518   4.514  1.00  0.00    -0.374 OA
ENDROOT
BRANCH   1   2
ATOM      2  C   UNL     1       7.392  -4.897   5.636  1.00  0.00     0.202 C 
BRANCH   2   3
ATOM      3  C   UNL     1       6.070  -4.142   5.430  1.00  0.00     0.261 C 
BRANCH   3   4
ATOM      4  O   UNL     1       5.080  -4.864   4.685  1.00  0.00    -0.459 OA
BRANCH   4   5
ATOM      5  C   UNL     1       5.116  -4.606   3.351  1.00  0.00     0.365 C 
ATOM      6  O   UNL     1       5.947  -3.868   2.825  1.00  0.00    -0.245 OA
BRANCH   5   7
ATOM      7  C   UNL     1       4.091  -5.413   2.529  1.00  0.00     0.302 C 
BRANCH   7   8
ATOM      8  C   UNL     1       3.312  -6.465   3.341  1.00  0.00     0.177 C 
BRANCH   8   9
ATOM      9  C   UNL     1       2.665  -7.477   2.408  1.00  0.00     0.231 C 
ATOM     10  O   UNL     1       3.159  -8.585   2.223  1.00  0.00    -0.274 OA
ATOM     11  N   UNL     1       1.578  -6.944   1.738  1.00  0.00    -0.326 N 
ATOM     12  H   UNL     1       1.303  -6.038   2.008  1.00  0.00     0.169 HD
BRANCH  11  13
ATOM     13  C   UNL     1       0.821  -7.543   0.717  1.00  0.00     0.042 A 
ATOM     14  C   UNL     1       0.107  -6.681  -0.128  1.00  0.00     0.026 A 
ATOM     15  C   UNL     1       0.737  -8.922   0.518  1.00  0.00     0.046 A 
ATOM     16  C   UNL     1      -0.669  -7.187  -1.171  1.00  0.00     0.004 A 
ATOM     17  C   UNL     1      -0.073  -9.424  -0.504  1.00  0.00     0.043 A 
ATOM     18  C   UNL     1      -0.769  -8.564  -1.353  1.00  0.00     0.020 A 
ATOM     19  Cl  UNL     1      -0.238 -11.126  -0.713  1.00  0.00    -0.084 Cl
ENDBRANCH  11  13
ENDBRANCH   8   9
ENDBRANCH   7   8
BRANCH   7  20
ATOM     20  N   UNL     1       3.151  -4.552   1.751  1.00  0.00    -0.332 N 
ATOM     21  H   UNL     1       2.411  -4.252   2.386  1.00  0.00     0.347 HD
ATOM     22  H   UNL     1       2.839  -5.134   0.974  1.00  0.00     0.347 HD
BRANCH  20  23
ATOM     23  C   UNL     1       3.716  -3.344   1.123  1.00  0.00     0.293 C 
BRANCH  23  24
ATOM     24  C   UNL     1       4.457  -3.514  -0.226  1.00  0.00     0.173 C 
ATOM     25  C   UNL     1       5.519  -4.599  -0.361  1.00  0.00     0.040 C 
ATOM     26  O   UNL     1       3.460  -3.801  -1.237  1.00  0.00    -0.372 OA
ATOM     27  C   UNL     1       4.784  -5.735  -1.034  1.00  0.00     0.031 C 
ATOM     28  C   UNL     1       3.832  -4.991  -1.937  1.00  0.00     0.161 C 
ENDBRANCH  23  24
ENDBRANCH  20  23
ENDBRANCH   7  20
ENDBRANCH   5   7
ENDBRANCH   4   5
ENDBRANCH   3   4
ENDBRANCH   2   3
ENDBRANCH   1   2
BRANCH   1  29
ATOM     29  C   UNL     1       7.453  -6.727   3.996  1.00  0.00     0.202 C 
BRANCH  29  30
ATOM     30  C   UNL     1       7.360  -7.943   4.923  1.00  0.00     0.261 C 
BRANCH  30  31
ATOM     31  O   UNL     1       6.391  -7.747   5.968  1.00  0.00    -0.460 OA
BRANCH  31  32
ATOM     32  C   UNL     1       6.879  -7.886   7.223  1.00  0.00     0.338 C 
ATOM     33  O   UNL     1       8.016  -8.216   7.540  1.00  0.00    -0.246 OA
BRANCH  32  34
ATOM     34  C   UNL     1       5.910  -7.373   8.203  1.00  0.00     0.060 A 
ATOM     35  C   UNL     1       6.322  -6.325   9.037  1.00  0.00     0.016 A 
ATOM     36  C   UNL     1       4.663  -7.975   8.375  1.00  0.00     0.016 A 
ATOM     37  C   UNL     1       5.509  -5.911  10.087  1.00  0.00     0.010 A 
ATOM     38  C   UNL     1       3.853  -7.564   9.438  1.00  0.00     0.010 A 
ATOM     39  C   UNL     1       4.292  -6.561  10.322  1.00  0.00    -0.014 A 
BRANCH  39  40
ATOM     40  C   UNL     1       3.561  -6.297  11.583  1.00  0.00     0.031 A 
ATOM     41  C   UNL     1       3.712  -7.261  12.728  1.00  0.00     0.074 A 
ATOM     42  C   UNL     1       2.791  -5.203  11.713  1.00  0.00     0.049 A 
ATOM     43  N   UNL     1       3.169  -7.226  13.916  1.00  0.00    -0.248 NA
ATOM     44  C   UNL     1       4.594  -8.418  12.502  1.00  0.00     0.031 C 
ATOM     45  C   UNL     1       2.582  -4.191  10.680  1.00  0.00     0.029 A 
ATOM     46  N   UNL     1       2.030  -4.772  12.770  1.00  0.00    -0.354 N 
ATOM     47  C   UNL     1       3.623  -8.363  14.573  1.00  0.00     0.074 A 
ATOM     48  C   UNL     1       4.472  -9.078  13.644  1.00  0.00     0.031 C 
ATOM     49  C   UNL     1       1.728  -3.264  11.147  1.00  0.00     0.029 A 
ATOM     50  C   UNL     1       1.315  -3.630  12.500  1.00  0.00     0.049 A 
ATOM     51  H   UNL     1       1.998  -5.236  13.637  1.00  0.00     0.167 HD
ATOM     52  C   UNL     1       3.372  -8.769  15.840  1.00  0.00     0.034 A 
ATOM     53  C   UNL     1       0.419  -2.966  13.257  1.00  0.00     0.034 A 
ATOM     54  C   UNL     1       2.538  -8.049  16.765  1.00  0.00     0.049 A 
ATOM     55  C   UNL     1       0.123  -3.459  14.649  1.00  0.00     0.074 A 
ATOM     56  C   UNL     1       2.251  -8.355  18.084  1.00  0.00     0.029 A 
ATOM     57  N   UNL     1       1.846  -6.886  16.465  1.00  0.00    -0.354 N 
ATOM     58  N   UNL     1       0.647  -4.472  15.296  1.00  0.00    -0.248 NA
ATOM     59  C   UNL     1      -0.865  -2.697  15.428  1.00  0.00     0.031 C 
ATOM     60  C   UNL     1       1.365  -7.389  18.573  1.00  0.00     0.029 A 
ATOM     61  C   UNL     1       1.121  -6.467  17.567  1.00  0.00     0.049 A 
ATOM     62  H   UNL     1       1.868  -6.425  15.595  1.00  0.00     0.167 HD
ATOM     63  C   UNL     1       0.081  -4.450  16.566  1.00  0.00     0.074 A 
ATOM     64  C   UNL     1      -0.814  -3.311  16.603  1.00  0.00     0.031 C 
ATOM     65  C   UNL     1       0.273  -5.302  17.604  1.00  0.00     0.034 A 
BRANCH  52  66
ATOM     66  C   UNL     1       4.031 -10.041  16.305  1.00  0.00     0.023 A 
ATOM     67  C   UNL     1       5.417 -10.053  16.561  1.00  0.00     0.012 A 
ATOM     68  C   UNL     1       3.279 -11.213  16.516  1.00  0.00     0.148 A 
ATOM     69  C   UNL     1       6.051 -11.221  16.985  1.00  0.00     0.002 A 
ATOM     70  C   UNL     1       3.911 -12.361  16.979  1.00  0.00     0.091 A 
ATOM     71  F   UNL     1       1.967 -11.190  16.241  1.00  0.00    -0.205 F 
ATOM     72  C   UNL     1       5.297 -12.371  17.203  1.00  0.00     0.022 A 
BRANCH  70  73
ATOM     73  S   UNL     1       3.011 -13.869  17.359  1.00  0.00     0.127 S 
ATOM     74  O   UNL     1       3.365 -14.718  16.223  1.00  0.00    -0.237 OA
ATOM     75  O   UNL     1       3.607 -14.274  18.633  1.00  0.00    -0.237 OA
ATOM     76  O   UNL     1       1.609 -13.484  17.444  1.00  0.00    -0.744 OA
ENDBRANCH  70  73
ENDBRANCH  52  66
BRANCH  53  77
ATOM     77  C   UNL     1      -0.229  -1.733  12.727  1.00  0.00     0.023 A 
ATOM     78  C   UNL     1       0.103  -0.483  13.284  1.00  0.00     0.012 A 
ATOM     79  C   UNL     1      -1.144  -1.788  11.658  1.00  0.00     0.148 A 
ATOM     80  C   UNL     1      -0.483   0.688  12.802  1.00  0.00     0.002 A 
ATOM     81  C   UNL     1      -1.683  -0.614  11.146  1.00  0.00     0.091 A 
ATOM     82  F   UNL     1      -1.458  -2.990  11.153  1.00  0.00    -0.205 F 
ATOM     83  C   UNL     1      -1.366   0.624  11.727  1.00  0.00     0.022 A 
BRANCH  81  84
ATOM     84  S   UNL     1      -2.727  -0.587   9.685  1.00  0.00     0.127 S 
ATOM     85  O   UNL     1      -4.019  -0.202  10.247  1.00  0.00    -0.237 OA
ATOM     86  O   UNL     1      -2.077   0.441   8.870  1.00  0.00    -0.237 OA
ATOM     87  O   UNL     1      -2.656  -1.930   9.125  1.00  0.00    -0.744 OA
ENDBRANCH  81  84
ENDBRANCH  53  77
BRANCH  65  88
ATOM     88  C   UNL     1      -0.472  -5.024  18.885  1.00  0.00     0.023 A 
ATOM     89  C   UNL     1      -1.858  -5.269  18.956  1.00  0.00     0.012 A 
ATOM     90  C   UNL     1       0.214  -4.595  20.039  1.00  0.00     0.148 A 
ATOM     91  C   UNL     1      -2.555  -5.060  20.145  1.00  0.00     0.002 A 
ATOM     92  C   UNL     1      -0.479  -4.435  21.233  1.00  0.00     0.091 A 
ATOM     93  F   UNL     1       1.529  -4.349  19.947  1.00  0.00    -0.205 F 
ATOM     94  C   UNL     1      -1.865  -4.656  21.286  1.00  0.00     0.022 A 
BRANCH  92  95
ATOM     95  S   UNL     1       0.344  -4.009  22.773  1.00  0.00     0.127 S 
ATOM     96  O   UNL     1      -0.065  -2.618  22.954  1.00  0.00    -0.237 OA
ATOM     97  O   UNL     1      -0.259  -4.950  23.718  1.00  0.00    -0.237 OA
ATOM     98  O   UNL     1       1.766  -4.219  22.538  1.00  0.00    -0.744 OA
ENDBRANCH  92  95
ENDBRANCH  65  88
ENDBRANCH  39  40
ENDBRANCH  32  34
ENDBRANCH  31  32
ENDBRANCH  30  31
ENDBRANCH  29  30
ENDBRANCH   1  29
TORSDOF 23
