REMARK SMILES [NH3+][C@H](Cc1cnc2[nH]cccc1-2)C(=O)OCCOCCOC(=O)c1ccc(-c2c3nc(c(-c4cccc(S(=O)(=O)[O-])c4F)c4ccc([nH]4)c(-c4cccc(S(=O)(=O)[O-])c4F)c4nc(c(-c5cccc(S(=O)(=O)[O-])c5F)c5ccc2[nH]5)C=C4)C=C3)cc1
REMARK SMILES IDX 19 1 18 2 17 3 16 4 15 5 13 6 14 7 2 8 1 9 3 13 4 14 5 15
REMARK SMILES IDX 12 16 6 17 7 18 11 19 8 20 10 21 9 22 20 24 21 25 22 26
REMARK SMILES IDX 23 27 24 28 25 29 86 30 26 31 85 32 27 33 28 34 29 35 79 36
REMARK SMILES IDX 30 37 84 38 78 39 80 40 31 41 83 42 77 43 76 44 32 46 64 47
REMARK SMILES IDX 44 48 63 49 45 50 48 51 62 52 81 53 46 54 47 55 61 57 82 58
REMARK SMILES IDX 49 59 33 60 34 61 42 62 35 63 37 64 43 65 36 66 38 67 39 68
REMARK SMILES IDX 40 69 41 70 65 71 66 72 74 73 67 74 69 75 75 76 68 77 70 78
REMARK SMILES IDX 71 79 72 80 73 81 50 82 51 83 59 84 52 85 54 86 60 87 53 88
REMARK SMILES IDX 55 89 56 90 57 91 58 92
REMARK H PARENT 1 10 1 11 1 12 8 23 80 45 48 56
REMARK Flexibility Score: inf
ROOT
ATOM      1  C   UNL     1      -1.989   2.332  -0.316  1.00  0.00     0.202 C 
ENDROOT
BRANCH   1   2
ATOM      2  O   UNL     1      -3.133   2.130  -1.143  1.00  0.00    -0.374 OA
BRANCH   2   3
ATOM      3  C   UNL     1      -3.699   0.821  -1.200  1.00  0.00     0.202 C 
BRANCH   3   4
ATOM      4  C   UNL     1      -2.890  -0.304  -1.847  1.00  0.00     0.261 C 
BRANCH   4   5
ATOM      5  O   UNL     1      -1.530  -0.321  -1.393  1.00  0.00    -0.459 OA
BRANCH   5   6
ATOM      6  C   UNL     1      -0.565  -0.336  -2.347  1.00  0.00     0.365 C 
ATOM      7  O   UNL     1      -0.785  -0.308  -3.554  1.00  0.00    -0.245 OA
BRANCH   6   8
ATOM      8  C   UNL     1       0.864  -0.372  -1.756  1.00  0.00     0.296 C 
BRANCH   8   9
ATOM      9  N   UNL     1       1.628  -1.529  -2.277  1.00  0.00    -0.346 N 
ATOM     10  H   UNL     1       1.482  -1.608  -3.283  1.00  0.00     0.345 HD
ATOM     11  H   UNL     1       1.308  -2.382  -1.819  1.00  0.00     0.345 HD
ATOM     12  H   UNL     1       2.621  -1.393  -2.088  1.00  0.00     0.345 HD
ENDBRANCH   8   9
BRANCH   8  13
ATOM     13  C   UNL     1       1.052  -0.206  -0.233  1.00  0.00     0.115 C 
BRANCH  13  14
ATOM     14  C   UNL     1       0.393  -1.098   0.771  1.00  0.00    -0.012 A 
ATOM     15  C   UNL     1       0.369  -0.852   2.102  1.00  0.00     0.118 A 
ATOM     16  C   UNL     1      -0.458  -2.241   0.618  1.00  0.00     0.022 A 
ATOM     17  N   UNL     1      -0.416  -1.699   2.869  1.00  0.00    -0.238 NA
ATOM     18  C   UNL     1      -0.945  -2.528   2.006  1.00  0.00     0.137 A 
ATOM     19  C   UNL     1      -0.923  -3.028  -0.364  1.00  0.00     0.014 A 
ATOM     20  N   UNL     1      -1.841  -3.539   2.225  1.00  0.00    -0.346 N 
ATOM     21  C   UNL     1      -1.939  -4.041  -0.094  1.00  0.00     0.018 A 
ATOM     22  C   UNL     1      -2.351  -4.257   1.167  1.00  0.00     0.084 A 
ATOM     23  H   UNL     1      -2.123  -3.753   3.143  1.00  0.00     0.167 HD
ENDBRANCH  13  14
ENDBRANCH   8  13
ENDBRANCH   6   8
ENDBRANCH   5   6
ENDBRANCH   4   5
ENDBRANCH   3   4
ENDBRANCH   2   3
ENDBRANCH   1   2
BRANCH   1  24
ATOM     24  C   UNL     1      -2.130   2.205   1.213  1.00  0.00     0.261 C 
BRANCH  24  25
ATOM     25  O   UNL     1      -2.806   1.016   1.626  1.00  0.00    -0.460 OA
BRANCH  25  26
ATOM     26  C   UNL     1      -3.893   1.206   2.422  1.00  0.00     0.338 C 
ATOM     27  O   UNL     1      -4.210   2.215   3.029  1.00  0.00    -0.246 OA
BRANCH  26  28
ATOM     28  C   UNL     1      -4.777   0.055   2.191  1.00  0.00     0.060 A 
ATOM     29  C   UNL     1      -4.356  -1.226   2.522  1.00  0.00     0.016 A 
ATOM     30  C   UNL     1      -5.941   0.264   1.439  1.00  0.00     0.016 A 
ATOM     31  C   UNL     1      -5.053  -2.307   1.999  1.00  0.00     0.010 A 
ATOM     32  C   UNL     1      -6.620  -0.827   0.902  1.00  0.00     0.010 A 
ATOM     33  C   UNL     1      -6.141  -2.118   1.128  1.00  0.00    -0.014 A 
BRANCH  33  34
ATOM     34  C   UNL     1      -6.821  -3.319   0.607  1.00  0.00     0.031 A 
ATOM     35  C   UNL     1      -7.193  -4.305   1.671  1.00  0.00     0.074 A 
ATOM     36  C   UNL     1      -7.204  -3.505  -0.678  1.00  0.00     0.049 A 
ATOM     37  N   UNL     1      -6.842  -5.549   1.778  1.00  0.00    -0.248 NA
ATOM     38  C   UNL     1      -7.919  -3.782   2.842  1.00  0.00     0.031 C 
ATOM     39  C   UNL     1      -7.119  -2.551  -1.787  1.00  0.00     0.029 A 
ATOM     40  N   UNL     1      -7.893  -4.550  -1.238  1.00  0.00    -0.354 N 
ATOM     41  C   UNL     1      -7.488  -6.015   2.923  1.00  0.00     0.074 A 
ATOM     42  C   UNL     1      -7.985  -4.858   3.623  1.00  0.00     0.031 C 
ATOM     43  C   UNL     1      -7.965  -2.932  -2.770  1.00  0.00     0.029 A 
ATOM     44  C   UNL     1      -8.559  -4.209  -2.421  1.00  0.00     0.049 A 
ATOM     45  H   UNL     1      -7.917  -5.453  -0.847  1.00  0.00     0.167 HD
ATOM     46  C   UNL     1      -7.792  -7.325   3.123  1.00  0.00     0.034 A 
ATOM     47  C   UNL     1      -9.593  -4.875  -3.001  1.00  0.00     0.034 A 
ATOM     48  C   UNL     1      -7.046  -8.210   2.282  1.00  0.00     0.049 A 
ATOM     49  C   UNL     1      -9.565  -6.258  -2.479  1.00  0.00     0.074 A 
ATOM     50  C   UNL     1      -5.709  -8.504   2.108  1.00  0.00     0.029 A 
ATOM     51  N   UNL     1      -7.693  -8.730   1.191  1.00  0.00    -0.354 N 
ATOM     52  N   UNL     1      -8.622  -7.117  -2.742  1.00  0.00    -0.248 NA
ATOM     53  C   UNL     1     -10.400  -6.563  -1.331  1.00  0.00     0.031 C 
ATOM     54  C   UNL     1      -5.567  -8.744   0.711  1.00  0.00     0.029 A 
ATOM     55  C   UNL     1      -6.831  -8.627   0.133  1.00  0.00     0.049 A 
ATOM     56  H   UNL     1      -8.602  -9.106   1.172  1.00  0.00     0.167 HD
ATOM     57  C   UNL     1      -8.459  -7.813  -1.554  1.00  0.00     0.074 A 
ATOM     58  C   UNL     1      -9.638  -7.493  -0.754  1.00  0.00     0.031 C 
ATOM     59  C   UNL     1      -7.253  -8.351  -1.219  1.00  0.00     0.034 A 
BRANCH  46  60
ATOM     60  C   UNL     1      -9.032  -7.768   3.851  1.00  0.00     0.023 A 
ATOM     61  C   UNL     1      -9.100  -9.082   4.354  1.00  0.00     0.012 A 
ATOM     62  C   UNL     1     -10.229  -7.015   3.834  1.00  0.00     0.148 A 
ATOM     63  C   UNL     1     -10.304  -9.613   4.834  1.00  0.00     0.002 A 
ATOM     64  C   UNL     1     -11.400  -7.515   4.384  1.00  0.00     0.091 A 
ATOM     65  F   UNL     1     -10.268  -5.856   3.165  1.00  0.00    -0.205 F 
ATOM     66  C   UNL     1     -11.449  -8.823   4.868  1.00  0.00     0.022 A 
BRANCH  64  67
ATOM     67  S   UNL     1     -12.888  -6.515   4.483  1.00  0.00     0.127 S 
ATOM     68  O   UNL     1     -13.706  -7.104   3.427  1.00  0.00    -0.237 OA
ATOM     69  O   UNL     1     -13.341  -6.787   5.847  1.00  0.00    -0.237 OA
ATOM     70  O   UNL     1     -12.443  -5.144   4.265  1.00  0.00    -0.744 OA
ENDBRANCH  64  67
ENDBRANCH  46  60
BRANCH  47  71
ATOM     71  C   UNL     1     -10.799  -4.360  -3.714  1.00  0.00     0.023 A 
ATOM     72  C   UNL     1     -11.661  -5.276  -4.362  1.00  0.00     0.012 A 
ATOM     73  C   UNL     1     -11.281  -3.050  -3.504  1.00  0.00     0.148 A 
ATOM     74  C   UNL     1     -12.969  -4.922  -4.721  1.00  0.00     0.002 A 
ATOM     75  C   UNL     1     -12.578  -2.698  -3.876  1.00  0.00     0.091 A 
ATOM     76  F   UNL     1     -10.515  -2.171  -2.848  1.00  0.00    -0.205 F 
ATOM     77  C   UNL     1     -13.432  -3.636  -4.466  1.00  0.00     0.022 A 
BRANCH  75  78
ATOM     78  S   UNL     1     -13.235  -1.052  -3.567  1.00  0.00     0.127 S 
ATOM     79  O   UNL     1     -13.930  -0.758  -4.821  1.00  0.00    -0.237 OA
ATOM     80  O   UNL     1     -14.110  -1.286  -2.422  1.00  0.00    -0.237 OA
ATOM     81  O   UNL     1     -12.074  -0.207  -3.318  1.00  0.00    -0.744 OA
ENDBRANCH  75  78
ENDBRANCH  47  71
BRANCH  59  82
ATOM     82  C   UNL     1      -6.185  -8.421  -2.274  1.00  0.00     0.023 A 
ATOM     83  C   UNL     1      -5.552  -7.270  -2.787  1.00  0.00     0.012 A 
ATOM     84  C   UNL     1      -5.677  -9.689  -2.600  1.00  0.00     0.148 A 
ATOM     85  C   UNL     1      -4.428  -7.386  -3.610  1.00  0.00     0.002 A 
ATOM     86  C   UNL     1      -4.540  -9.798  -3.387  1.00  0.00     0.091 A 
ATOM     87  F   UNL     1      -6.295 -10.765  -2.091  1.00  0.00    -0.205 F 
ATOM     88  C   UNL     1      -3.913  -8.649  -3.897  1.00  0.00     0.022 A 
BRANCH  86  89
ATOM     89  S   UNL     1      -3.764 -11.383  -3.707  1.00  0.00     0.127 S 
ATOM     90  O   UNL     1      -3.960 -11.534  -5.147  1.00  0.00    -0.237 OA
ATOM     91  O   UNL     1      -2.380 -11.136  -3.299  1.00  0.00    -0.237 OA
ATOM     92  O   UNL     1      -4.468 -12.355  -2.880  1.00  0.00    -0.744 OA
ENDBRANCH  86  89
ENDBRANCH  59  82
ENDBRANCH  33  34
ENDBRANCH  26  28
ENDBRANCH  25  26
ENDBRANCH  24  25
ENDBRANCH   1  24
TORSDOF 20
