REMARK SMILES O=C(CSc1ccc2ccccc2c1)OCCOCCOC(=O)c1ccc(-c2c3nc(c(-c4cccc(S(=O)(=O)[O-])c4F)c4ccc([nH]4)c(-c4cccc(S(=O)(=O)[O-])c4F)c4nc(c(-c5cccc(S(=O)(=O)[O-])c5F)c5ccc2[nH]5)C=C4)C=C3)cc1
REMARK SMILES IDX 19 1 18 2 17 3 16 4 15 5 2 6 1 7 3 8 4 9 5 10 6 11 14 12
REMARK SMILES IDX 7 13 13 14 8 15 12 16 9 17 11 18 10 19 20 20 21 21 22 22
REMARK SMILES IDX 23 23 24 24 25 25 86 26 26 27 85 28 27 29 28 30 29 31 79 32
REMARK SMILES IDX 30 33 84 34 78 35 80 36 31 37 83 38 77 39 76 40 32 42 64 43
REMARK SMILES IDX 44 44 63 45 45 46 48 47 62 48 81 49 46 50 47 51 61 53 82 54
REMARK SMILES IDX 49 55 33 56 34 57 42 58 35 59 37 60 43 61 36 62 38 63 39 64
REMARK SMILES IDX 40 65 41 66 65 67 66 68 74 69 67 70 69 71 75 72 68 73 70 74
REMARK SMILES IDX 71 75 72 76 73 77 50 78 51 79 59 80 52 81 54 82 60 83 53 84
REMARK SMILES IDX 55 85 56 86 57 87 58 88
REMARK H PARENT 80 41 48 52
REMARK Flexibility Score: inf
ROOT
ATOM      1  C   UNL     1       2.935  -1.276  -1.907  1.00  0.00     0.202 C 
ENDROOT
BRANCH   1   2
ATOM      2  O   UNL     1       4.196  -0.666  -1.604  1.00  0.00    -0.374 OA
BRANCH   2   3
ATOM      3  C   UNL     1       4.750  -0.956  -0.324  1.00  0.00     0.202 C 
BRANCH   3   4
ATOM      4  C   UNL     1       4.260  -0.126   0.858  1.00  0.00     0.261 C 
BRANCH   4   5
ATOM      5  O   UNL     1       2.842   0.087   0.886  1.00  0.00    -0.463 OA
BRANCH   5   6
ATOM      6  C   UNL     1       2.158   1.002   0.164  1.00  0.00     0.316 C 
ATOM      7  O   UNL     1       0.925   0.949   0.166  1.00  0.00    -0.251 OA
BRANCH   6   8
ATOM      8  C   UNL     1       2.862   2.031  -0.687  1.00  0.00     0.197 C 
BRANCH   8   9
ATOM      9  S   UNL     1       4.120   3.060   0.127  1.00  0.00    -0.114 SA
BRANCH   9  10
ATOM     10  C   UNL     1       3.131   3.949   1.301  1.00  0.00     0.008 A 
ATOM     11  C   UNL     1       3.222   5.339   1.300  1.00  0.00     0.016 A 
ATOM     12  C   UNL     1       2.268   3.319   2.200  1.00  0.00     0.023 A 
ATOM     13  C   UNL     1       2.399   6.095   2.133  1.00  0.00     0.010 A 
ATOM     14  C   UNL     1       1.387   4.061   2.991  1.00  0.00    -0.017 A 
ATOM     15  C   UNL     1       1.453   5.470   2.958  1.00  0.00    -0.018 A 
ATOM     16  C   UNL     1       0.427   3.423   3.789  1.00  0.00     0.009 A 
ATOM     17  C   UNL     1       0.561   6.208   3.746  1.00  0.00     0.009 A 
ATOM     18  C   UNL     1      -0.470   4.173   4.545  1.00  0.00     0.001 A 
ATOM     19  C   UNL     1      -0.399   5.563   4.528  1.00  0.00     0.001 A 
ENDBRANCH   9  10
ENDBRANCH   8   9
ENDBRANCH   6   8
ENDBRANCH   5   6
ENDBRANCH   4   5
ENDBRANCH   3   4
ENDBRANCH   2   3
ENDBRANCH   1   2
BRANCH   1  20
ATOM     20  C   UNL     1       2.959  -2.738  -2.362  1.00  0.00     0.261 C 
BRANCH  20  21
ATOM     21  O   UNL     1       3.370  -3.615  -1.303  1.00  0.00    -0.460 OA
BRANCH  21  22
ATOM     22  C   UNL     1       4.654  -4.031  -1.388  1.00  0.00     0.338 C 
ATOM     23  O   UNL     1       5.434  -3.822  -2.308  1.00  0.00    -0.246 OA
BRANCH  22  24
ATOM     24  C   UNL     1       5.080  -4.600  -0.096  1.00  0.00     0.060 A 
ATOM     25  C   UNL     1       6.340  -4.215   0.382  1.00  0.00     0.016 A 
ATOM     26  C   UNL     1       4.292  -5.505   0.619  1.00  0.00     0.016 A 
ATOM     27  C   UNL     1       6.856  -4.807   1.526  1.00  0.00     0.010 A 
ATOM     28  C   UNL     1       4.814  -6.100   1.770  1.00  0.00     0.010 A 
ATOM     29  C   UNL     1       6.119  -5.795   2.191  1.00  0.00    -0.014 A 
BRANCH  29  30
ATOM     30  C   UNL     1       6.806  -6.613   3.215  1.00  0.00     0.031 A 
ATOM     31  C   UNL     1       7.284  -7.990   2.843  1.00  0.00     0.074 A 
ATOM     32  C   UNL     1       7.066  -6.099   4.429  1.00  0.00     0.049 A 
ATOM     33  N   UNL     1       7.968  -8.847   3.553  1.00  0.00    -0.248 NA
ATOM     34  C   UNL     1       6.947  -8.466   1.489  1.00  0.00     0.031 C 
ATOM     35  C   UNL     1       6.643  -4.779   4.894  1.00  0.00     0.029 A 
ATOM     36  N   UNL     1       7.740  -6.634   5.495  1.00  0.00    -0.354 N 
ATOM     37  C   UNL     1       8.133  -9.964   2.742  1.00  0.00     0.074 A 
ATOM     38  C   UNL     1       7.452  -9.690   1.497  1.00  0.00     0.031 C 
ATOM     39  C   UNL     1       7.053  -4.613   6.163  1.00  0.00     0.029 A 
ATOM     40  C   UNL     1       7.748  -5.820   6.601  1.00  0.00     0.049 A 
ATOM     41  H   UNL     1       8.177  -7.516   5.470  1.00  0.00     0.167 HD
ATOM     42  C   UNL     1       8.813 -11.106   3.002  1.00  0.00     0.034 A 
ATOM     43  C   UNL     1       8.247  -6.037   7.834  1.00  0.00     0.034 A 
ATOM     44  C   UNL     1       9.494 -11.366   4.242  1.00  0.00     0.049 A 
ATOM     45  C   UNL     1       8.987  -7.320   8.101  1.00  0.00     0.074 A 
ATOM     46  C   UNL     1      10.232 -12.479   4.603  1.00  0.00     0.029 A 
ATOM     47  N   UNL     1       9.512 -10.505   5.329  1.00  0.00    -0.354 N 
ATOM     48  N   UNL     1       9.226  -8.322   7.289  1.00  0.00    -0.248 NA
ATOM     49  C   UNL     1       9.564  -7.483   9.442  1.00  0.00     0.031 C 
ATOM     50  C   UNL     1      10.672 -12.303   5.919  1.00  0.00     0.029 A 
ATOM     51  C   UNL     1      10.242 -11.063   6.365  1.00  0.00     0.049 A 
ATOM     52  H   UNL     1       9.070  -9.626   5.360  1.00  0.00     0.167 HD
ATOM     53  C   UNL     1      10.003  -9.221   8.011  1.00  0.00     0.074 A 
ATOM     54  C   UNL     1      10.225  -8.625   9.313  1.00  0.00     0.031 C 
ATOM     55  C   UNL     1      10.478 -10.438   7.641  1.00  0.00     0.034 A 
BRANCH  42  56
ATOM     56  C   UNL     1       8.877 -12.146   1.914  1.00  0.00     0.023 A 
ATOM     57  C   UNL     1       9.658 -11.907   0.764  1.00  0.00     0.012 A 
ATOM     58  C   UNL     1       8.210 -13.380   2.049  1.00  0.00     0.148 A 
ATOM     59  C   UNL     1       9.751 -12.864  -0.245  1.00  0.00     0.002 A 
ATOM     60  C   UNL     1       8.345 -14.348   1.061  1.00  0.00     0.091 A 
ATOM     61  F   UNL     1       7.454 -13.581   3.138  1.00  0.00    -0.205 F 
ATOM     62  C   UNL     1       9.104 -14.088  -0.092  1.00  0.00     0.022 A 
BRANCH  60  63
ATOM     63  S   UNL     1       7.616 -15.984   1.196  1.00  0.00     0.127 S 
ATOM     64  O   UNL     1       6.619 -15.952   0.126  1.00  0.00    -0.237 OA
ATOM     65  O   UNL     1       8.764 -16.852   0.933  1.00  0.00    -0.237 OA
ATOM     66  O   UNL     1       7.077 -16.076   2.545  1.00  0.00    -0.744 OA
ENDBRANCH  60  63
ENDBRANCH  42  56
BRANCH  43  67
ATOM     67  C   UNL     1       8.076  -5.008   8.897  1.00  0.00     0.023 A 
ATOM     68  C   UNL     1       9.194  -4.312   9.394  1.00  0.00     0.012 A 
ATOM     69  C   UNL     1       6.798  -4.709   9.408  1.00  0.00     0.148 A 
ATOM     70  C   UNL     1       9.047  -3.364  10.408  1.00  0.00     0.002 A 
ATOM     71  C   UNL     1       6.651  -3.720  10.372  1.00  0.00     0.091 A 
ATOM     72  F   UNL     1       5.748  -5.394   8.933  1.00  0.00    -0.205 F 
ATOM     73  C   UNL     1       7.776  -3.060  10.889  1.00  0.00     0.022 A 
BRANCH  71  74
ATOM     74  S   UNL     1       5.039  -3.173  10.944  1.00  0.00     0.127 S 
ATOM     75  O   UNL     1       5.006  -3.707  12.302  1.00  0.00    -0.237 OA
ATOM     76  O   UNL     1       5.166  -1.718  10.855  1.00  0.00    -0.237 OA
ATOM     77  O   UNL     1       4.077  -3.747  10.013  1.00  0.00    -0.744 OA
ENDBRANCH  71  74
ENDBRANCH  43  67
BRANCH  55  78
ATOM     78  C   UNL     1      11.306 -11.188   8.652  1.00  0.00     0.023 A 
ATOM     79  C   UNL     1      10.697 -11.713   9.810  1.00  0.00     0.012 A 
ATOM     80  C   UNL     1      12.682 -11.399   8.441  1.00  0.00     0.148 A 
ATOM     81  C   UNL     1      11.455 -12.386  10.768  1.00  0.00     0.002 A 
ATOM     82  C   UNL     1      13.420 -12.120   9.372  1.00  0.00     0.091 A 
ATOM     83  F   UNL     1      13.249 -10.881   7.342  1.00  0.00    -0.205 F 
ATOM     84  C   UNL     1      12.813 -12.597  10.544  1.00  0.00     0.022 A 
BRANCH  82  85
ATOM     85  S   UNL     1      15.152 -12.523   9.120  1.00  0.00     0.127 S 
ATOM     86  O   UNL     1      15.809 -11.613  10.056  1.00  0.00    -0.237 OA
ATOM     87  O   UNL     1      15.201 -13.934   9.506  1.00  0.00    -0.237 OA
ATOM     88  O   UNL     1      15.420 -12.275   7.710  1.00  0.00    -0.744 OA
ENDBRANCH  82  85
ENDBRANCH  55  78
ENDBRANCH  29  30
ENDBRANCH  22  24
ENDBRANCH  21  22
ENDBRANCH  20  21
ENDBRANCH   1  20
TORSDOF 19
