REMARK SMILES [NH3+][C@H](C(=O)OCCOCCOC(=O)c1ccc(-c2c3nc(c(-c4cccc(S(=O)(=O)[O-])c4F)c4ccc([nH]4)c(-c4cccc(S(=O)(=O)[O-])c4F)c4nc(c(-c5cccc(S(=O)(=O)[O-])c5F)c5ccc2[nH]5)C=C4)C=C3)cc1)c1cc(F)c(Cl)c(Cl)c1
REMARK SMILES IDX 9 1 8 2 7 3 6 4 5 5 3 6 4 7 2 8 1 9 77 13 78 14 85 15 79 16
REMARK SMILES IDX 83 17 80 18 81 19 84 20 82 21 10 22 11 23 12 24 13 25 14 26
REMARK SMILES IDX 15 27 76 28 16 29 75 30 17 31 18 32 19 33 69 34 20 35 74 36
REMARK SMILES IDX 68 37 70 38 21 39 73 40 67 41 66 42 22 44 54 45 34 46 53 47
REMARK SMILES IDX 35 48 38 49 52 50 71 51 36 52 37 53 51 55 72 56 39 57 23 58
REMARK SMILES IDX 24 59 32 60 25 61 27 62 33 63 26 64 28 65 29 66 30 67 31 68
REMARK SMILES IDX 55 69 56 70 64 71 57 72 59 73 65 74 58 75 60 76 61 77 62 78
REMARK SMILES IDX 63 79 40 80 41 81 49 82 42 83 44 84 50 85 43 86 45 87 46 88
REMARK SMILES IDX 47 89 48 90
REMARK H PARENT 1 10 1 11 1 12 70 43 38 54
REMARK Flexibility Score: inf
ROOT
ATOM      1  C   UNL     1       3.505   0.784   0.614  1.00  0.00     0.202 C 
ENDROOT
BRANCH   1   2
ATOM      2  O   UNL     1       3.879  -0.499   1.109  1.00  0.00    -0.374 OA
BRANCH   2   3
ATOM      3  C   UNL     1       3.529  -1.654   0.345  1.00  0.00     0.202 C 
BRANCH   3   4
ATOM      4  C   UNL     1       2.039  -1.991   0.253  1.00  0.00     0.261 C 
BRANCH   4   5
ATOM      5  O   UNL     1       1.329  -0.981  -0.481  1.00  0.00    -0.459 OA
BRANCH   5   6
ATOM      6  C   UNL     1       0.295  -0.380   0.179  1.00  0.00     0.369 C 
ATOM      7  O   UNL     1      -0.107  -0.708   1.290  1.00  0.00    -0.245 OA
BRANCH   6   8
ATOM      8  C   UNL     1      -0.223   0.860  -0.590  1.00  0.00     0.323 C 
BRANCH   8   9
ATOM      9  N   UNL     1       0.203   0.899  -2.002  1.00  0.00    -0.342 N 
ATOM     10  H   UNL     1      -0.171   1.737  -2.447  1.00  0.00     0.345 HD
ATOM     11  H   UNL     1      -0.147   0.072  -2.486  1.00  0.00     0.345 HD
ATOM     12  H   UNL     1       1.222   0.914  -2.049  1.00  0.00     0.345 HD
ENDBRANCH   8   9
BRANCH   8  13
ATOM     13  C   UNL     1      -1.724   1.038  -0.478  1.00  0.00     0.025 A 
ATOM     14  C   UNL     1      -2.265   2.323  -0.338  1.00  0.00     0.051 A 
ATOM     15  C   UNL     1      -2.603  -0.058  -0.511  1.00  0.00     0.032 A 
ATOM     16  C   UNL     1      -3.640   2.493  -0.181  1.00  0.00     0.143 A 
ATOM     17  C   UNL     1      -3.982   0.119  -0.341  1.00  0.00     0.063 A 
ATOM     18  F   UNL     1      -4.109   3.741  -0.022  1.00  0.00    -0.205 F 
ATOM     19  C   UNL     1      -4.508   1.402  -0.169  1.00  0.00     0.095 A 
ATOM     20  Cl  UNL     1      -4.971  -1.297  -0.326  1.00  0.00    -0.083 Cl
ATOM     21  Cl  UNL     1      -6.196   1.683   0.074  1.00  0.00    -0.079 Cl
ENDBRANCH   8  13
ENDBRANCH   6   8
ENDBRANCH   5   6
ENDBRANCH   4   5
ENDBRANCH   3   4
ENDBRANCH   2   3
ENDBRANCH   1   2
BRANCH   1  22
ATOM     22  C   UNL     1       4.225   1.304  -0.636  1.00  0.00     0.261 C 
BRANCH  22  23
ATOM     23  O   UNL     1       4.018   0.478  -1.796  1.00  0.00    -0.460 OA
BRANCH  23  24
ATOM     24  C   UNL     1       5.150  -0.091  -2.282  1.00  0.00     0.338 C 
ATOM     25  O   UNL     1       6.290   0.068  -1.864  1.00  0.00    -0.246 OA
BRANCH  24  26
ATOM     26  C   UNL     1       4.834  -1.099  -3.307  1.00  0.00     0.060 A 
ATOM     27  C   UNL     1       5.260  -2.413  -3.071  1.00  0.00     0.016 A 
ATOM     28  C   UNL     1       4.252  -0.748  -4.526  1.00  0.00     0.016 A 
ATOM     29  C   UNL     1       5.151  -3.372  -4.074  1.00  0.00     0.010 A 
ATOM     30  C   UNL     1       4.153  -1.712  -5.537  1.00  0.00     0.010 A 
ATOM     31  C   UNL     1       4.639  -3.016  -5.328  1.00  0.00    -0.014 A 
BRANCH  31  32
ATOM     32  C   UNL     1       4.753  -3.975  -6.454  1.00  0.00     0.031 A 
ATOM     33  C   UNL     1       5.880  -3.821  -7.439  1.00  0.00     0.074 A 
ATOM     34  C   UNL     1       3.881  -4.991  -6.582  1.00  0.00     0.049 A 
ATOM     35  N   UNL     1       6.173  -4.554  -8.482  1.00  0.00    -0.248 NA
ATOM     36  C   UNL     1       6.801  -2.693  -7.218  1.00  0.00     0.031 C 
ATOM     37  C   UNL     1       2.752  -5.250  -5.691  1.00  0.00     0.029 A 
ATOM     38  N   UNL     1       3.801  -5.983  -7.527  1.00  0.00    -0.354 N 
ATOM     39  C   UNL     1       7.297  -3.968  -9.053  1.00  0.00     0.074 A 
ATOM     40  C   UNL     1       7.625  -2.810  -8.251  1.00  0.00     0.031 C 
ATOM     41  C   UNL     1       2.072  -6.315  -6.149  1.00  0.00     0.029 A 
ATOM     42  C   UNL     1       2.708  -6.802  -7.372  1.00  0.00     0.049 A 
ATOM     43  H   UNL     1       4.462  -6.097  -8.247  1.00  0.00     0.167 HD
ATOM     44  C   UNL     1       8.005  -4.369 -10.135  1.00  0.00     0.034 A 
ATOM     45  C   UNL     1       2.263  -7.818  -8.139  1.00  0.00     0.034 A 
ATOM     46  C   UNL     1       7.693  -5.531 -10.922  1.00  0.00     0.049 A 
ATOM     47  C   UNL     1       3.055  -8.230  -9.352  1.00  0.00     0.074 A 
ATOM     48  C   UNL     1       8.376  -6.040 -12.013  1.00  0.00     0.029 A 
ATOM     49  N   UNL     1       6.603  -6.360 -10.711  1.00  0.00    -0.354 N 
ATOM     50  N   UNL     1       4.184  -7.741  -9.805  1.00  0.00    -0.248 NA
ATOM     51  C   UNL     1       2.531  -9.356 -10.139  1.00  0.00     0.031 C 
ATOM     52  C   UNL     1       7.687  -7.168 -12.473  1.00  0.00     0.029 A 
ATOM     53  C   UNL     1       6.586  -7.372 -11.656  1.00  0.00     0.049 A 
ATOM     54  H   UNL     1       5.937  -6.246  -9.995  1.00  0.00     0.167 HD
ATOM     55  C   UNL     1       4.522  -8.519 -10.908  1.00  0.00     0.074 A 
ATOM     56  C   UNL     1       3.489  -9.525 -11.041  1.00  0.00     0.031 C 
ATOM     57  C   UNL     1       5.583  -8.401 -11.745  1.00  0.00     0.034 A 
BRANCH  44  58
ATOM     58  C   UNL     1       9.218  -3.561 -10.512  1.00  0.00     0.023 A 
ATOM     59  C   UNL     1      10.390  -3.667  -9.735  1.00  0.00     0.012 A 
ATOM     60  C   UNL     1       9.219  -2.744 -11.659  1.00  0.00     0.148 A 
ATOM     61  C   UNL     1      11.536  -2.951 -10.078  1.00  0.00     0.002 A 
ATOM     62  C   UNL     1      10.378  -2.064 -12.017  1.00  0.00     0.091 A 
ATOM     63  F   UNL     1       8.088  -2.637 -12.369  1.00  0.00    -0.205 F 
ATOM     64  C   UNL     1      11.533  -2.159 -11.223  1.00  0.00     0.022 A 
BRANCH  62  65
ATOM     65  S   UNL     1      10.493  -1.075 -13.511  1.00  0.00     0.127 S 
ATOM     66  O   UNL     1      10.481   0.282 -12.968  1.00  0.00    -0.237 OA
ATOM     67  O   UNL     1      11.780  -1.498 -14.065  1.00  0.00    -0.237 OA
ATOM     68  O   UNL     1       9.338  -1.438 -14.321  1.00  0.00    -0.744 OA
ENDBRANCH  62  65
ENDBRANCH  44  58
BRANCH  45  69
ATOM     69  C   UNL     1       1.015  -8.539  -7.760  1.00  0.00     0.023 A 
ATOM     70  C   UNL     1       1.088  -9.868  -7.304  1.00  0.00     0.012 A 
ATOM     71  C   UNL     1      -0.240  -7.904  -7.829  1.00  0.00     0.148 A 
ATOM     72  C   UNL     1      -0.069 -10.562  -6.948  1.00  0.00     0.002 A 
ATOM     73  C   UNL     1      -1.382  -8.581  -7.420  1.00  0.00     0.091 A 
ATOM     74  F   UNL     1      -0.291  -6.645  -8.288  1.00  0.00    -0.205 F 
ATOM     75  C   UNL     1      -1.302  -9.915  -6.994  1.00  0.00     0.022 A 
BRANCH  73  76
ATOM     76  S   UNL     1      -2.985  -7.777  -7.319  1.00  0.00     0.127 S 
ATOM     77  O   UNL     1      -3.684  -8.359  -8.461  1.00  0.00    -0.237 OA
ATOM     78  O   UNL     1      -3.465  -8.220  -6.010  1.00  0.00    -0.237 OA
ATOM     79  O   UNL     1      -2.710  -6.349  -7.401  1.00  0.00    -0.744 OA
ENDBRANCH  73  76
ENDBRANCH  45  69
BRANCH  57  80
ATOM     80  C   UNL     1       5.706  -9.398 -12.868  1.00  0.00     0.023 A 
ATOM     81  C   UNL     1       4.847  -9.305 -13.981  1.00  0.00     0.012 A 
ATOM     82  C   UNL     1       6.722 -10.375 -12.858  1.00  0.00     0.148 A 
ATOM     83  C   UNL     1       4.979 -10.186 -15.054  1.00  0.00     0.002 A 
ATOM     84  C   UNL     1       6.876 -11.220 -13.951  1.00  0.00     0.091 A 
ATOM     85  F   UNL     1       7.517 -10.461 -11.782  1.00  0.00    -0.205 F 
ATOM     86  C   UNL     1       6.000 -11.134 -15.045  1.00  0.00     0.022 A 
BRANCH  84  87
ATOM     87  S   UNL     1       8.220 -12.408 -14.064  1.00  0.00     0.127 S 
ATOM     88  O   UNL     1       7.526 -13.668 -13.808  1.00  0.00    -0.237 OA
ATOM     89  O   UNL     1       8.677 -12.232 -15.444  1.00  0.00    -0.237 OA
ATOM     90  O   UNL     1       9.191 -12.009 -13.054  1.00  0.00    -0.744 OA
ENDBRANCH  84  87
ENDBRANCH  57  80
ENDBRANCH  31  32
ENDBRANCH  24  26
ENDBRANCH  23  24
ENDBRANCH  22  23
ENDBRANCH   1  22
TORSDOF 19
