REMARK SMILES C[C@@H]1[C@H](C(=O)OCCOCCOC(=O)c2ccc(-c3c4nc(c(-c5cccc(S(=O)(=O)[O-])c5F)c5ccc([nH]5)c(-c5cccc(S(=O)(=O)[O-])c5F)c5nc(c(-c6cccc(S(=O)(=O)[O-])c6F)c6ccc3[nH]6)C=C5)C=C4)cc2)CCN1S(=O)(=O)c1cc(F)cc(F)c1
REMARK SMILES IDX 10 1 9 2 8 3 7 4 6 5 4 6 5 7 3 8 1 9 2 10 80 11 78 12 79 13
REMARK SMILES IDX 81 14 82 15 83 16 84 17 85 18 91 19 86 20 89 21 87 22 88 23
REMARK SMILES IDX 90 24 11 25 12 26 13 27 14 28 15 29 16 30 77 31 17 32 76 33
REMARK SMILES IDX 18 34 19 35 20 36 70 37 21 38 75 39 69 40 71 41 22 42 74 43
REMARK SMILES IDX 68 44 67 45 23 47 55 48 35 49 54 50 36 51 39 52 53 53 72 54
REMARK SMILES IDX 37 55 38 56 52 58 73 59 40 60 24 61 25 62 33 63 26 64 28 65
REMARK SMILES IDX 34 66 27 67 29 68 30 69 31 70 32 71 56 72 57 73 65 74 58 75
REMARK SMILES IDX 60 76 66 77 59 78 61 79 62 80 63 81 64 82 41 83 42 84 50 85
REMARK SMILES IDX 43 86 45 87 51 88 44 89 46 90 47 91 48 92 49 93
REMARK H PARENT 71 46 39 57
REMARK Flexibility Score: inf
ROOT
ATOM      1  C   UNL     1       2.626   2.929  -1.605  1.00  0.00     0.202 C 
ENDROOT
BRANCH   1   2
ATOM      2  O   UNL     1       2.643   4.251  -1.069  1.00  0.00    -0.374 OA
BRANCH   2   3
ATOM      3  C   UNL     1       2.544   4.372   0.354  1.00  0.00     0.202 C 
BRANCH   3   4
ATOM      4  C   UNL     1       1.112   4.348   0.896  1.00  0.00     0.261 C 
BRANCH   4   5
ATOM      5  O   UNL     1       0.644   2.986   0.907  1.00  0.00    -0.463 OA
BRANCH   5   6
ATOM      6  C   UNL     1      -0.316   2.648   0.026  1.00  0.00     0.310 C 
ATOM      7  O   UNL     1      -0.987   3.444  -0.621  1.00  0.00    -0.252 OA
BRANCH   6   8
ATOM      8  C   UNL     1      -0.471   1.153  -0.136  1.00  0.00     0.118 C 
ATOM      9  C   UNL     1       1.411   0.400   1.516  1.00  0.00     0.027 C 
ATOM     10  C   UNL     1       0.665   0.160   0.205  1.00  0.00     0.084 C 
ATOM     11  N   UNL     1      -0.052  -1.163   0.150  1.00  0.00    -0.194 NA
ATOM     12  C   UNL     1      -1.636   0.604   0.650  1.00  0.00     0.034 C 
ATOM     13  C   UNL     1      -1.517  -0.888   0.388  1.00  0.00     0.104 C 
BRANCH  11  14
ATOM     14  S   UNL     1       0.454  -2.600   0.900  1.00  0.00     0.243 S 
ATOM     15  O   UNL     1       0.643  -2.342   2.308  1.00  0.00    -0.207 OA
ATOM     16  O   UNL     1      -0.500  -3.604   0.464  1.00  0.00    -0.207 OA
BRANCH  14  17
ATOM     17  C   UNL     1       2.021  -3.128   0.246  1.00  0.00     0.088 A 
ATOM     18  C   UNL     1       2.251  -4.513   0.214  1.00  0.00     0.061 A 
ATOM     19  C   UNL     1       3.033  -2.258  -0.151  1.00  0.00     0.061 A 
ATOM     20  C   UNL     1       3.491  -5.002  -0.182  1.00  0.00     0.127 A 
ATOM     21  C   UNL     1       4.268  -2.776  -0.541  1.00  0.00     0.127 A 
ATOM     22  F   UNL     1       3.704  -6.323  -0.190  1.00  0.00    -0.207 F 
ATOM     23  C   UNL     1       4.512  -4.142  -0.554  1.00  0.00     0.078 A 
ATOM     24  F   UNL     1       5.244  -1.931  -0.897  1.00  0.00    -0.207 F 
ENDBRANCH  14  17
ENDBRANCH  11  14
ENDBRANCH   6   8
ENDBRANCH   5   6
ENDBRANCH   4   5
ENDBRANCH   3   4
ENDBRANCH   2   3
ENDBRANCH   1   2
BRANCH   1  25
ATOM     25  C   UNL     1       3.976   2.204  -1.635  1.00  0.00     0.261 C 
BRANCH  25  26
ATOM     26  O   UNL     1       4.432   1.889  -0.307  1.00  0.00    -0.460 OA
BRANCH  26  27
ATOM     27  C   UNL     1       5.420   2.699   0.149  1.00  0.00     0.338 C 
ATOM     28  O   UNL     1       5.992   3.577  -0.478  1.00  0.00    -0.246 OA
BRANCH  27  29
ATOM     29  C   UNL     1       5.603   2.515   1.602  1.00  0.00     0.060 A 
ATOM     30  C   UNL     1       5.691   3.674   2.384  1.00  0.00     0.016 A 
ATOM     31  C   UNL     1       5.742   1.254   2.188  1.00  0.00     0.016 A 
ATOM     32  C   UNL     1       5.980   3.582   3.743  1.00  0.00     0.010 A 
ATOM     33  C   UNL     1       6.033   1.164   3.555  1.00  0.00     0.010 A 
ATOM     34  C   UNL     1       6.195   2.328   4.330  1.00  0.00    -0.014 A 
BRANCH  34  35
ATOM     35  C   UNL     1       6.730   2.258   5.713  1.00  0.00     0.031 A 
ATOM     36  C   UNL     1       8.193   1.968   5.921  1.00  0.00     0.074 A 
ATOM     37  C   UNL     1       5.932   2.481   6.774  1.00  0.00     0.049 A 
ATOM     38  N   UNL     1       8.868   1.877   7.037  1.00  0.00    -0.248 NA
ATOM     39  C   UNL     1       9.002   1.752   4.710  1.00  0.00     0.031 C 
ATOM     40  C   UNL     1       4.502   2.777   6.708  1.00  0.00     0.029 A 
ATOM     41  N   UNL     1       6.214   2.475   8.118  1.00  0.00    -0.354 N 
ATOM     42  C   UNL     1      10.172   1.567   6.668  1.00  0.00     0.074 A 
ATOM     43  C   UNL     1      10.190   1.471   5.224  1.00  0.00     0.031 C 
ATOM     44  C   UNL     1       4.026   2.903   7.959  1.00  0.00     0.029 A 
ATOM     45  C   UNL     1       5.111   2.675   8.912  1.00  0.00     0.049 A 
ATOM     46  H   UNL     1       7.121   2.340   8.478  1.00  0.00     0.167 HD
ATOM     47  C   UNL     1      11.261   1.397   7.455  1.00  0.00     0.034 A 
ATOM     48  C   UNL     1       4.986   2.658  10.255  1.00  0.00     0.034 A 
ATOM     49  C   UNL     1      11.250   1.516   8.888  1.00  0.00     0.049 A 
ATOM     50  C   UNL     1       6.209   2.441  11.109  1.00  0.00     0.074 A 
ATOM     51  C   UNL     1      12.314   1.411   9.766  1.00  0.00     0.029 A 
ATOM     52  N   UNL     1      10.121   1.752   9.655  1.00  0.00    -0.354 N 
ATOM     53  N   UNL     1       7.456   2.274  10.740  1.00  0.00    -0.248 NA
ATOM     54  C   UNL     1       6.012   2.444  12.567  1.00  0.00     0.031 C 
ATOM     55  C   UNL     1      11.823   1.554  11.068  1.00  0.00     0.029 A 
ATOM     56  C   UNL     1      10.458   1.782  10.998  1.00  0.00     0.049 A 
ATOM     57  H   UNL     1       9.212   1.880   9.298  1.00  0.00     0.167 HD
ATOM     58  C   UNL     1       8.195   2.192  11.916  1.00  0.00     0.074 A 
ATOM     59  C   UNL     1       7.259   2.346  13.009  1.00  0.00     0.031 C 
ATOM     60  C   UNL     1       9.527   1.992  12.077  1.00  0.00     0.034 A 
BRANCH  47  61
ATOM     61  C   UNL     1      12.570   1.088   6.779  1.00  0.00     0.023 A 
ATOM     62  C   UNL     1      13.245   2.101   6.066  1.00  0.00     0.012 A 
ATOM     63  C   UNL     1      13.162  -0.184   6.899  1.00  0.00     0.148 A 
ATOM     64  C   UNL     1      14.473   1.843   5.458  1.00  0.00     0.002 A 
ATOM     65  C   UNL     1      14.407  -0.420   6.328  1.00  0.00     0.091 A 
ATOM     66  F   UNL     1      12.495  -1.140   7.561  1.00  0.00    -0.205 F 
ATOM     67  C   UNL     1      15.058   0.588   5.598  1.00  0.00     0.022 A 
BRANCH  65  68
ATOM     68  S   UNL     1      15.279  -1.979   6.518  1.00  0.00     0.127 S 
ATOM     69  O   UNL     1      15.186  -2.535   5.168  1.00  0.00    -0.237 OA
ATOM     70  O   UNL     1      16.619  -1.537   6.904  1.00  0.00    -0.237 OA
ATOM     71  O   UNL     1      14.562  -2.718   7.548  1.00  0.00    -0.744 OA
ENDBRANCH  65  68
ENDBRANCH  47  61
BRANCH  48  72
ATOM     72  C   UNL     1       3.654   2.886  10.883  1.00  0.00     0.023 A 
ATOM     73  C   UNL     1       3.421   4.065  11.617  1.00  0.00     0.012 A 
ATOM     74  C   UNL     1       2.615   1.943  10.751  1.00  0.00     0.148 A 
ATOM     75  C   UNL     1       2.190   4.287  12.235  1.00  0.00     0.002 A 
ATOM     76  C   UNL     1       1.374   2.196  11.322  1.00  0.00     0.091 A 
ATOM     77  F   UNL     1       2.863   0.819  10.065  1.00  0.00    -0.205 F 
ATOM     78  C   UNL     1       1.164   3.358  12.079  1.00  0.00     0.022 A 
BRANCH  76  79
ATOM     79  S   UNL     1      -0.041   1.121  11.065  1.00  0.00     0.127 S 
ATOM     80  O   UNL     1      -0.217   0.536  12.392  1.00  0.00    -0.237 OA
ATOM     81  O   UNL     1      -1.077   2.076  10.670  1.00  0.00    -0.237 OA
ATOM     82  O   UNL     1       0.355   0.195  10.013  1.00  0.00    -0.744 OA
ENDBRANCH  76  79
ENDBRANCH  48  72
BRANCH  60  83
ATOM     83  C   UNL     1      10.072   1.970  13.483  1.00  0.00     0.023 A 
ATOM     84  C   UNL     1       9.808   0.870  14.322  1.00  0.00     0.012 A 
ATOM     85  C   UNL     1      10.911   3.005  13.944  1.00  0.00     0.148 A 
ATOM     86  C   UNL     1      10.341   0.816  15.610  1.00  0.00     0.002 A 
ATOM     87  C   UNL     1      11.479   2.921  15.210  1.00  0.00     0.091 A 
ATOM     88  F   UNL     1      11.138   4.052  13.138  1.00  0.00    -0.205 F 
ATOM     89  C   UNL     1      11.185   1.834  16.049  1.00  0.00     0.022 A 
BRANCH  87  90
ATOM     90  S   UNL     1      12.654   4.135  15.822  1.00  0.00     0.127 S 
ATOM     91  O   UNL     1      11.856   4.845  16.820  1.00  0.00    -0.237 OA
ATOM     92  O   UNL     1      13.713   3.291  16.376  1.00  0.00    -0.237 OA
ATOM     93  O   UNL     1      13.055   4.924  14.665  1.00  0.00    -0.744 OA
ENDBRANCH  87  90
ENDBRANCH  60  83
ENDBRANCH  34  35
ENDBRANCH  27  29
ENDBRANCH  26  27
ENDBRANCH  25  26
ENDBRANCH   1  25
TORSDOF 19
