REMARK SMILES Cc1ccc(N2C(=O)N=C(OCCOCCOC(=O)c3ccc(-c4c5nc(c(-c6cccc(S(=O)(=O)[O-])c6F)c6ccc([nH]6)c(-c6cccc(S(=O)(=O)[O-])c6F)c6nc(c(-c7cccc(S(=O)(=O)[O-])c7F)c7ccc4[nH]7)C=C6)C=C5)cc3)/C(=C\c3ccccc3OCc3cccc(C(=O)[O-])c3)C2=O)cc1
REMARK SMILES IDX 13 1 12 2 11 3 10 4 6 5 7 6 102 7 8 8 9 9 83 10 103 11 84 12
REMARK SMILES IDX 5 13 1 14 2 15 3 16 105 17 4 18 104 19 85 20 86 21 90 22
REMARK SMILES IDX 87 23 89 24 88 25 91 26 92 27 93 28 94 29 101 30 95 31 97 32
REMARK SMILES IDX 96 33 98 34 99 35 100 36 14 37 15 38 16 39 17 40 18 41 19 42
REMARK SMILES IDX 20 43 21 44 82 45 22 46 81 47 23 48 24 49 25 50 75 51 26 52
REMARK SMILES IDX 80 53 74 54 76 55 27 56 79 57 73 58 72 59 28 61 60 62 40 63
REMARK SMILES IDX 59 64 41 65 44 66 58 67 77 68 42 69 43 70 57 72 78 73 45 74
REMARK SMILES IDX 29 75 30 76 38 77 31 78 33 79 39 80 32 81 34 82 35 83 36 84
REMARK SMILES IDX 37 85 61 86 62 87 70 88 63 89 65 90 71 91 64 92 66 93 67 94
REMARK SMILES IDX 68 95 69 96 46 97 47 98 55 99 48 100 50 101 56 102 49 103
REMARK SMILES IDX 51 104 52 105 53 106 54 107
REMARK H PARENT 76 60 44 71
REMARK Flexibility Score: inf
ROOT
ATOM      1  C   UNL     1      -7.333   3.518   0.915  1.00  0.00     0.202 C 
ENDROOT
BRANCH   1   2
ATOM      2  C   UNL     1      -7.497   2.478   1.995  1.00  0.00     0.260 C 
BRANCH   2   3
ATOM      3  O   UNL     1      -6.381   1.571   2.271  1.00  0.00    -0.475 OA
BRANCH   3   4
ATOM      4  C   UNL     1      -5.231   1.213   1.680  1.00  0.00     0.231 C 
ATOM      5  N   UNL     1      -2.683   0.645   0.840  1.00  0.00    -0.226 N 
ATOM      6  C   UNL     1      -3.209   0.146   2.036  1.00  0.00     0.358 C 
ATOM      7  C   UNL     1      -3.485   1.223  -0.130  1.00  0.00     0.272 C 
ATOM      8  O   UNL     1      -2.641  -0.709   2.711  1.00  0.00    -0.245 OA
ATOM      9  N   UNL     1      -4.397   0.653   2.491  1.00  0.00    -0.156 NA
ATOM     10  C   UNL     1      -4.902   1.322   0.256  1.00  0.00     0.103 C 
ATOM     11  O   UNL     1      -3.116   1.528  -1.265  1.00  0.00    -0.268 OA
ATOM     12  C   UNL     1      -5.719   1.192  -0.795  1.00  0.00     0.031 C 
BRANCH   5  13
ATOM     13  C   UNL     1      -1.303   0.463   0.523  1.00  0.00     0.054 A 
ATOM     14  C   UNL     1       2.933   0.148  -0.173  1.00  0.00     0.044 C 
ATOM     15  C   UNL     1       1.456   0.256   0.034  1.00  0.00    -0.051 A 
ATOM     16  C   UNL     1       0.731  -0.857   0.466  1.00  0.00     0.005 A 
ATOM     17  C   UNL     1       0.785   1.454  -0.218  1.00  0.00     0.005 A 
ATOM     18  C   UNL     1      -0.630  -0.743   0.742  1.00  0.00     0.027 A 
ATOM     19  C   UNL     1      -0.586   1.548   0.003  1.00  0.00     0.027 A 
ENDBRANCH   5  13
BRANCH  12  20
ATOM     20  C   UNL     1      -7.130   1.032  -0.692  1.00  0.00     0.018 A 
ATOM     21  C   UNL     1      -8.045   1.689  -1.599  1.00  0.00     0.012 A 
ATOM     22  C   UNL     1      -7.623   0.053   0.086  1.00  0.00     0.127 A 
ATOM     23  C   UNL     1      -9.407   1.579  -1.773  1.00  0.00     0.001 A 
ATOM     24  C   UNL     1      -8.998   0.144   0.075  1.00  0.00     0.047 A 
ATOM     25  C   UNL     1      -9.893   0.737  -0.874  1.00  0.00     0.004 A 
BRANCH  22  26
ATOM     26  O   UNL     1      -7.046  -1.163   0.501  1.00  0.00    -0.488 OA
BRANCH  26  27
ATOM     27  C   UNL     1      -5.733  -1.577  -0.012  1.00  0.00     0.265 C 
BRANCH  27  28
ATOM     28  C   UNL     1      -5.000  -2.942   0.093  1.00  0.00    -0.010 A 
ATOM     29  C   UNL     1      -3.581  -2.891   0.103  1.00  0.00     0.007 A 
ATOM     30  C   UNL     1      -5.548  -4.222   0.054  1.00  0.00     0.017 A 
ATOM     31  C   UNL     1      -2.761  -4.019   0.244  1.00  0.00     0.001 A 
ATOM     32  C   UNL     1      -4.725  -5.381   0.133  1.00  0.00    -0.002 A 
ATOM     33  C   UNL     1      -3.338  -5.274   0.289  1.00  0.00     0.010 A 
BRANCH  32  34
ATOM     34  C   UNL     1      -5.292  -6.743   0.026  1.00  0.00     0.071 C 
ATOM     35  O   UNL     1      -4.694  -7.801   0.239  1.00  0.00    -0.545 OA
ATOM     36  O   UNL     1      -6.565  -6.736  -0.387  1.00  0.00    -0.545 OA
ENDBRANCH  32  34
ENDBRANCH  27  28
ENDBRANCH  26  27
ENDBRANCH  22  26
ENDBRANCH  12  20
ENDBRANCH   3   4
ENDBRANCH   2   3
ENDBRANCH   1   2
BRANCH   1  37
ATOM     37  O   UNL     1      -5.971   3.639   0.555  1.00  0.00    -0.374 OA
BRANCH  37  38
ATOM     38  C   UNL     1      -5.280   4.697   1.172  1.00  0.00     0.202 C 
BRANCH  38  39
ATOM     39  C   UNL     1      -5.764   5.974   0.502  1.00  0.00     0.261 C 
BRANCH  39  40
ATOM     40  O   UNL     1      -5.606   5.760  -0.942  1.00  0.00    -0.460 OA
BRANCH  40  41
ATOM     41  C   UNL     1      -6.733   5.455  -1.664  1.00  0.00     0.338 C 
ATOM     42  O   UNL     1      -7.846   5.880  -1.383  1.00  0.00    -0.246 OA
BRANCH  41  43
ATOM     43  C   UNL     1      -6.492   4.428  -2.778  1.00  0.00     0.060 A 
ATOM     44  C   UNL     1      -7.543   4.013  -3.630  1.00  0.00     0.016 A 
ATOM     45  C   UNL     1      -5.317   3.682  -2.869  1.00  0.00     0.016 A 
ATOM     46  C   UNL     1      -7.504   2.768  -4.376  1.00  0.00     0.010 A 
ATOM     47  C   UNL     1      -5.295   2.428  -3.576  1.00  0.00     0.010 A 
ATOM     48  C   UNL     1      -6.468   1.837  -4.147  1.00  0.00    -0.014 A 
BRANCH  48  49
ATOM     49  C   UNL     1      -6.670   0.222  -4.130  1.00  0.00     0.031 A 
ATOM     50  C   UNL     1      -6.078  -0.400  -5.336  1.00  0.00     0.074 A 
ATOM     51  C   UNL     1      -7.360  -0.797  -3.423  1.00  0.00     0.049 A 
ATOM     52  N   UNL     1      -6.318  -1.607  -5.746  1.00  0.00    -0.248 NA
ATOM     53  C   UNL     1      -5.258   0.379  -6.266  1.00  0.00     0.031 C 
ATOM     54  C   UNL     1      -6.762  -2.115  -3.119  1.00  0.00     0.029 A 
ATOM     55  N   UNL     1      -8.461  -0.909  -2.529  1.00  0.00    -0.354 N 
ATOM     56  C   UNL     1      -5.284  -1.843  -6.598  1.00  0.00     0.074 A 
ATOM     57  C   UNL     1      -5.020  -0.558  -7.186  1.00  0.00     0.031 C 
ATOM     58  C   UNL     1      -7.546  -2.846  -2.301  1.00  0.00     0.029 A 
ATOM     59  C   UNL     1      -8.802  -2.145  -1.928  1.00  0.00     0.049 A 
ATOM     60  H   UNL     1      -8.998  -0.110  -2.323  1.00  0.00     0.167 HD
ATOM     61  C   UNL     1      -4.453  -2.892  -6.336  1.00  0.00     0.034 A 
ATOM     62  C   UNL     1      -9.708  -2.736  -1.000  1.00  0.00     0.034 A 
ATOM     63  C   UNL     1      -5.038  -3.927  -5.393  1.00  0.00     0.049 A 
ATOM     64  C   UNL     1      -9.865  -4.085  -1.704  1.00  0.00     0.074 A 
ATOM     65  C   UNL     1      -4.504  -4.709  -4.378  1.00  0.00     0.029 A 
ATOM     66  N   UNL     1      -6.446  -4.194  -5.322  1.00  0.00    -0.354 N 
ATOM     67  N   UNL     1      -9.558  -4.176  -2.983  1.00  0.00    -0.248 NA
ATOM     68  C   UNL     1     -10.095  -5.397  -1.108  1.00  0.00     0.031 C 
ATOM     69  C   UNL     1      -5.564  -5.406  -3.708  1.00  0.00     0.029 A 
ATOM     70  C   UNL     1      -6.792  -5.084  -4.284  1.00  0.00     0.049 A 
ATOM     71  H   UNL     1      -7.104  -3.795  -5.936  1.00  0.00     0.167 HD
ATOM     72  C   UNL     1      -9.068  -5.421  -3.201  1.00  0.00     0.074 A 
ATOM     73  C   UNL     1      -9.603  -6.197  -2.080  1.00  0.00     0.031 C 
ATOM     74  C   UNL     1      -8.123  -5.747  -4.139  1.00  0.00     0.034 A 
BRANCH  61  75
ATOM     75  C   UNL     1      -2.977  -2.822  -6.835  1.00  0.00     0.023 A 
ATOM     76  C   UNL     1      -2.228  -4.009  -6.854  1.00  0.00     0.012 A 
ATOM     77  C   UNL     1      -2.259  -1.664  -7.300  1.00  0.00     0.148 A 
ATOM     78  C   UNL     1      -0.915  -4.061  -7.364  1.00  0.00     0.002 A 
ATOM     79  C   UNL     1      -1.020  -1.744  -7.944  1.00  0.00     0.091 A 
ATOM     80  F   UNL     1      -2.673  -0.431  -6.991  1.00  0.00    -0.205 F 
ATOM     81  C   UNL     1      -0.331  -2.947  -7.960  1.00  0.00     0.022 A 
BRANCH  79  82
ATOM     82  S   UNL     1      -0.290  -0.345  -8.836  1.00  0.00     0.127 S 
ATOM     83  O   UNL     1       0.932  -0.088  -8.075  1.00  0.00    -0.237 OA
ATOM     84  O   UNL     1      -0.068  -0.908 -10.168  1.00  0.00    -0.237 OA
ATOM     85  O   UNL     1      -1.280   0.726  -8.798  1.00  0.00    -0.744 OA
ENDBRANCH  79  82
ENDBRANCH  61  75
BRANCH  62  86
ATOM     86  C   UNL     1     -10.579  -2.277   0.383  1.00  0.00     0.023 A 
ATOM     87  C   UNL     1      -9.870  -2.295   1.666  1.00  0.00     0.012 A 
ATOM     88  C   UNL     1     -11.661  -1.303   0.373  1.00  0.00     0.148 A 
ATOM     89  C   UNL     1     -10.013  -1.232   2.668  1.00  0.00     0.002 A 
ATOM     90  C   UNL     1     -11.748  -0.206   1.348  1.00  0.00     0.091 A 
ATOM     91  F   UNL     1     -12.490  -1.313  -0.677  1.00  0.00    -0.205 F 
ATOM     92  C   UNL     1     -10.895  -0.156   2.466  1.00  0.00     0.022 A 
BRANCH  90  93
ATOM     93  S   UNL     1     -12.424   1.517   0.875  1.00  0.00     0.127 S 
ATOM     94  O   UNL     1     -13.352   1.807   1.962  1.00  0.00    -0.237 OA
ATOM     95  O   UNL     1     -11.231   2.370   0.900  1.00  0.00    -0.237 OA
ATOM     96  O   UNL     1     -13.028   1.325  -0.436  1.00  0.00    -0.744 OA
ENDBRANCH  90  93
ENDBRANCH  62  86
BRANCH  74  97
ATOM     97  C   UNL     1      -8.509  -6.840  -5.084  1.00  0.00     0.023 A 
ATOM     98  C   UNL     1      -9.807  -7.395  -5.081  1.00  0.00     0.012 A 
ATOM     99  C   UNL     1      -7.636  -7.203  -6.126  1.00  0.00     0.148 A 
ATOM    100  C   UNL     1     -10.204  -8.308  -6.049  1.00  0.00     0.002 A 
ATOM    101  C   UNL     1      -8.074  -8.019  -7.147  1.00  0.00     0.091 A 
ATOM    102  F   UNL     1      -6.373  -6.766  -6.139  1.00  0.00    -0.205 F 
ATOM    103  C   UNL     1      -9.344  -8.602  -7.097  1.00  0.00     0.022 A 
BRANCH 101 104
ATOM    104  S   UNL     1      -7.087  -8.252  -8.622  1.00  0.00     0.127 S 
ATOM    105  O   UNL     1      -6.684  -9.649  -8.479  1.00  0.00    -0.237 OA
ATOM    106  O   UNL     1      -8.070  -7.995  -9.675  1.00  0.00    -0.237 OA
ATOM    107  O   UNL     1      -6.008  -7.276  -8.555  1.00  0.00    -0.744 OA
ENDBRANCH 101 104
ENDBRANCH  74  97
ENDBRANCH  48  49
ENDBRANCH  41  43
ENDBRANCH  40  41
ENDBRANCH  39  40
ENDBRANCH  38  39
ENDBRANCH  37  38
ENDBRANCH   1  37
TORSDOF 22
