REMARK SMILES O=C(OCCOCCOC(=O)[C@@H](CO)NC(=O)[C@H]1CCCc2ccccc21)c1ccc(-c2c3nc(c(-c4cccc(S(=O)(=O)[O-])c4F)c4ccc([nH]4)c(-c4cccc(S(=O)(=O)[O-])c4F)c4nc(c(-c5cccc(S(=O)(=O)[O-])c5F)c5ccc2[nH]5)C=C4)C=C3)cc1
REMARK SMILES IDX 5 1 4 2 3 3 2 4 1 5 28 6 29 7 90 8 30 9 89 10 31 11 32 12
REMARK SMILES IDX 33 13 83 14 34 15 88 16 82 17 84 18 35 19 87 20 81 21 80 22
REMARK SMILES IDX 36 24 68 25 48 26 67 27 49 28 52 29 66 30 85 31 50 32 51 33
REMARK SMILES IDX 65 35 86 36 53 37 37 38 38 39 46 40 39 41 41 42 47 43 40 44
REMARK SMILES IDX 42 45 43 46 44 47 45 48 69 49 70 50 78 51 71 52 73 53 79 54
REMARK SMILES IDX 72 55 74 56 75 57 76 58 77 59 54 60 55 61 63 62 56 63 58 64
REMARK SMILES IDX 64 65 57 66 59 67 60 68 61 69 62 70 6 71 7 72 8 73 9 74
REMARK SMILES IDX 10 75 11 76 12 77 13 78 14 79 15 81 16 82 17 84 18 85 19 86
REMARK SMILES IDX 27 87 20 88 22 89 26 90 21 91 23 92 25 93 24 94
REMARK H PARENT 84 23 52 34 14 80 15 83
REMARK Flexibility Score: inf
ROOT
ATOM      1  C   UNL     1       5.449   9.878  -0.343  1.00  0.00     0.202 C 
ENDROOT
BRANCH   1   2
ATOM      2  C   UNL     1       4.375  10.901  -0.763  1.00  0.00     0.261 C 
BRANCH   2   3
ATOM      3  O   UNL     1       4.602  11.426  -2.081  1.00  0.00    -0.460 OA
BRANCH   3   4
ATOM      4  C   UNL     1       5.238  12.575  -2.427  1.00  0.00     0.338 C 
ATOM      5  O   UNL     1       5.346  12.852  -3.619  1.00  0.00    -0.246 OA
BRANCH   4   6
ATOM      6  C   UNL     1       5.823  13.509  -1.419  1.00  0.00     0.060 A 
ATOM      7  C   UNL     1       6.188  13.135  -0.129  1.00  0.00     0.016 A 
ATOM      8  C   UNL     1       6.074  14.833  -1.811  1.00  0.00     0.016 A 
ATOM      9  C   UNL     1       6.678  14.034   0.785  1.00  0.00     0.010 A 
ATOM     10  C   UNL     1       6.630  15.749  -0.909  1.00  0.00     0.010 A 
ATOM     11  C   UNL     1       6.909  15.344   0.399  1.00  0.00    -0.014 A 
BRANCH  11  12
ATOM     12  C   UNL     1       7.338  16.240   1.477  1.00  0.00     0.031 A 
ATOM     13  C   UNL     1       6.317  17.145   2.084  1.00  0.00     0.074 A 
ATOM     14  C   UNL     1       8.546  16.032   2.034  1.00  0.00     0.049 A 
ATOM     15  N   UNL     1       6.442  17.960   3.091  1.00  0.00    -0.248 NA
ATOM     16  C   UNL     1       4.962  17.105   1.502  1.00  0.00     0.031 C 
ATOM     17  C   UNL     1       9.528  15.043   1.571  1.00  0.00     0.029 A 
ATOM     18  N   UNL     1       9.133  16.593   3.132  1.00  0.00    -0.354 N 
ATOM     19  C   UNL     1       5.204  18.568   3.233  1.00  0.00     0.074 A 
ATOM     20  C   UNL     1       4.328  18.013   2.228  1.00  0.00     0.031 C 
ATOM     21  C   UNL     1      10.590  15.061   2.391  1.00  0.00     0.029 A 
ATOM     22  C   UNL     1      10.395  16.109   3.383  1.00  0.00     0.049 A 
ATOM     23  H   UNL     1       8.695  17.277   3.689  1.00  0.00     0.167 HD
ATOM     24  C   UNL     1       4.845  19.515   4.127  1.00  0.00     0.034 A 
ATOM     25  C   UNL     1      11.302  16.511   4.291  1.00  0.00     0.034 A 
ATOM     26  C   UNL     1       5.747  20.034   5.114  1.00  0.00     0.049 A 
ATOM     27  C   UNL     1      10.897  17.623   5.218  1.00  0.00     0.074 A 
ATOM     28  C   UNL     1       5.540  21.051   6.024  1.00  0.00     0.029 A 
ATOM     29  N   UNL     1       7.040  19.567   5.314  1.00  0.00    -0.354 N 
ATOM     30  N   UNL     1       9.732  18.218   5.330  1.00  0.00    -0.248 NA
ATOM     31  C   UNL     1      11.919  18.116   6.146  1.00  0.00     0.031 C 
ATOM     32  C   UNL     1       6.718  21.213   6.761  1.00  0.00     0.029 A 
ATOM     33  C   UNL     1       7.647  20.276   6.331  1.00  0.00     0.049 A 
ATOM     34  H   UNL     1       7.461  18.837   4.806  1.00  0.00     0.167 HD
ATOM     35  C   UNL     1       9.875  19.148   6.349  1.00  0.00     0.074 A 
ATOM     36  C   UNL     1      11.230  19.005   6.848  1.00  0.00     0.031 C 
ATOM     37  C   UNL     1       8.987  20.061   6.816  1.00  0.00     0.034 A 
BRANCH  24  38
ATOM     38  C   UNL     1       3.450  20.061   4.028  1.00  0.00     0.023 A 
ATOM     39  C   UNL     1       2.356  19.298   4.482  1.00  0.00     0.012 A 
ATOM     40  C   UNL     1       3.224  21.334   3.471  1.00  0.00     0.148 A 
ATOM     41  C   UNL     1       1.054  19.786   4.360  1.00  0.00     0.002 A 
ATOM     42  C   UNL     1       1.929  21.829   3.386  1.00  0.00     0.091 A 
ATOM     43  F   UNL     1       4.278  22.026   3.016  1.00  0.00    -0.205 F 
ATOM     44  C   UNL     1       0.842  21.052   3.820  1.00  0.00     0.022 A 
BRANCH  42  45
ATOM     45  S   UNL     1       1.554  23.465   2.750  1.00  0.00     0.127 S 
ATOM     46  O   UNL     1       0.766  23.145   1.559  1.00  0.00    -0.237 OA
ATOM     47  O   UNL     1       0.788  24.050   3.850  1.00  0.00    -0.237 OA
ATOM     48  O   UNL     1       2.837  24.102   2.488  1.00  0.00    -0.744 OA
ENDBRANCH  42  45
ENDBRANCH  24  38
BRANCH  25  49
ATOM     49  C   UNL     1      12.665  15.908   4.327  1.00  0.00     0.023 A 
ATOM     50  C   UNL     1      13.104  15.215   5.471  1.00  0.00     0.012 A 
ATOM     51  C   UNL     1      13.537  16.024   3.225  1.00  0.00     0.148 A 
ATOM     52  C   UNL     1      14.395  14.683   5.529  1.00  0.00     0.002 A 
ATOM     53  C   UNL     1      14.797  15.439   3.265  1.00  0.00     0.091 A 
ATOM     54  F   UNL     1      13.120  16.712   2.152  1.00  0.00    -0.205 F 
ATOM     55  C   UNL     1      15.237  14.785   4.424  1.00  0.00     0.022 A 
BRANCH  53  56
ATOM     56  S   UNL     1      15.878  15.420   1.831  1.00  0.00     0.127 S 
ATOM     57  O   UNL     1      16.816  16.491   2.147  1.00  0.00    -0.237 OA
ATOM     58  O   UNL     1      16.439  14.070   1.884  1.00  0.00    -0.237 OA
ATOM     59  O   UNL     1      15.001  15.653   0.687  1.00  0.00    -0.744 OA
ENDBRANCH  53  56
ENDBRANCH  25  49
BRANCH  37  60
ATOM     60  C   UNL     1       9.457  20.946   7.934  1.00  0.00     0.023 A 
ATOM     61  C   UNL     1      10.379  21.977   7.668  1.00  0.00     0.012 A 
ATOM     62  C   UNL     1       8.933  20.794   9.231  1.00  0.00     0.148 A 
ATOM     63  C   UNL     1      10.802  22.824   8.689  1.00  0.00     0.002 A 
ATOM     64  C   UNL     1       9.317  21.676  10.230  1.00  0.00     0.091 A 
ATOM     65  F   UNL     1       8.075  19.790   9.462  1.00  0.00    -0.205 F 
ATOM     66  C   UNL     1      10.261  22.682   9.965  1.00  0.00     0.022 A 
BRANCH  64  67
ATOM     67  S   UNL     1       8.588  21.631  11.869  1.00  0.00     0.127 S 
ATOM     68  O   UNL     1       9.661  21.026  12.655  1.00  0.00    -0.237 OA
ATOM     69  O   UNL     1       8.353  23.049  12.144  1.00  0.00    -0.237 OA
ATOM     70  O   UNL     1       7.375  20.834  11.743  1.00  0.00    -0.744 OA
ENDBRANCH  64  67
ENDBRANCH  37  60
ENDBRANCH  11  12
ENDBRANCH   4   6
ENDBRANCH   3   4
ENDBRANCH   2   3
ENDBRANCH   1   2
BRANCH   1  71
ATOM     71  O   UNL     1       6.828  10.250  -0.422  1.00  0.00    -0.374 OA
BRANCH  71  72
ATOM     72  C   UNL     1       7.398  10.368  -1.735  1.00  0.00     0.202 C 
BRANCH  72  73
ATOM     73  C   UNL     1       8.313   9.200  -2.054  1.00  0.00     0.261 C 
BRANCH  73  74
ATOM     74  O   UNL     1       7.478   8.033  -1.984  1.00  0.00    -0.462 OA
BRANCH  74  75
ATOM     75  C   UNL     1       7.679   7.294  -0.867  1.00  0.00     0.331 C 
ATOM     76  O   UNL     1       8.701   7.346  -0.193  1.00  0.00    -0.250 OA
BRANCH  75  77
ATOM     77  C   UNL     1       6.457   6.436  -0.478  1.00  0.00     0.218 C 
BRANCH  77  78
ATOM     78  C   UNL     1       5.331   6.302  -1.518  1.00  0.00     0.193 C 
BRANCH  78  79
ATOM     79  O   UNL     1       5.766   6.253  -2.869  1.00  0.00    -0.394 OA
ATOM     80  H   UNL     1       6.209   7.085  -3.097  1.00  0.00     0.210 HD
ENDBRANCH  78  79
ENDBRANCH  77  78
BRANCH  77  81
ATOM     81  N   UNL     1       7.037   5.155  -0.101  1.00  0.00    -0.340 N 
ATOM     82  C   UNL     1       7.678   4.923   1.093  1.00  0.00     0.228 C 
ATOM     83  H   UNL     1       6.966   4.409  -0.740  1.00  0.00     0.164 HD
ATOM     84  O   UNL     1       8.695   4.226   1.035  1.00  0.00    -0.274 OA
BRANCH  82  85
ATOM     85  C   UNL     1       7.025   5.353   2.427  1.00  0.00     0.109 C 
ATOM     86  C   UNL     1       7.035   4.054   3.281  1.00  0.00     0.018 C 
ATOM     87  C   UNL     1       7.631   6.563   3.155  1.00  0.00    -0.032 A 
ATOM     88  C   UNL     1       6.956   4.302   4.775  1.00  0.00     0.006 C 
ATOM     89  C   UNL     1       8.158   6.454   4.460  1.00  0.00    -0.044 A 
ATOM     90  C   UNL     1       7.555   7.859   2.618  1.00  0.00     0.005 A 
ATOM     91  C   UNL     1       8.148   5.146   5.202  1.00  0.00     0.036 C 
ATOM     92  C   UNL     1       8.692   7.581   5.118  1.00  0.00     0.004 A 
ATOM     93  C   UNL     1       8.054   8.982   3.288  1.00  0.00     0.000 A 
ATOM     94  C   UNL     1       8.641   8.840   4.534  1.00  0.00     0.000 A 
ENDBRANCH  82  85
ENDBRANCH  77  81
ENDBRANCH  75  77
ENDBRANCH  74  75
ENDBRANCH  73  74
ENDBRANCH  72  73
ENDBRANCH  71  72
ENDBRANCH   1  71
TORSDOF 21
