REMARK SMILES CC(C)(O)C#Cc1ccc(C(=O)N[C@@H](CC2=c3ccccc3=NC2)C(=O)OCCOCCOC(=O)c2ccc(-c3c4nc(c(-c5cccc(S(=O)(=O)[O-])c5F)c5ccc([nH]5)c(-c5cccc(S(=O)(=O)[O-])c5F)c5nc(c(-c6cccc(S(=O)(=O)[O-])c6F)c6ccc3[nH]6)C=C5)C=C4)cc2)s1
REMARK SMILES IDX 29 1 28 2 27 3 25 4 26 5 14 6 13 7 11 8 12 9 10 11 7 12 8 13
REMARK SMILES IDX 99 14 9 15 6 16 5 17 2 18 1 19 3 20 4 21 15 23 16 24 17 25
REMARK SMILES IDX 24 26 18 27 22 28 23 29 19 30 21 31 20 32 30 33 31 34 32 35
REMARK SMILES IDX 33 36 34 37 35 38 36 39 37 40 98 41 38 42 97 43 39 44 40 45
REMARK SMILES IDX 41 46 91 47 42 48 96 49 90 50 92 51 43 52 95 53 89 54 88 55
REMARK SMILES IDX 44 57 76 58 56 59 75 60 57 61 60 62 74 63 93 64 58 65 59 66
REMARK SMILES IDX 73 68 94 69 61 70 45 71 46 72 54 73 47 74 49 75 55 76 48 77
REMARK SMILES IDX 50 78 51 79 52 80 53 81 77 82 78 83 86 84 79 85 81 86 87 87
REMARK SMILES IDX 80 88 82 89 83 90 84 91 85 92 62 93 63 94 71 95 64 96 66 97
REMARK SMILES IDX 72 98 65 99 67 100 68 101 69 102 70 103
REMARK H PARENT 13 10 4 22 92 56 60 67
REMARK Flexibility Score: inf
ROOT
ATOM      1  C   UNL     1      -3.948  -7.412   3.701  1.00  0.00     0.202 C 
ENDROOT
BRANCH   1   2
ATOM      2  C   UNL     1      -4.001  -7.476   2.172  1.00  0.00     0.261 C 
BRANCH   2   3
ATOM      3  O   UNL     1      -2.737  -7.858   1.621  1.00  0.00    -0.462 OA
BRANCH   3   4
ATOM      4  C   UNL     1      -2.304  -7.047   0.626  1.00  0.00     0.329 C 
ATOM      5  O   UNL     1      -2.981  -6.203   0.048  1.00  0.00    -0.250 OA
BRANCH   4   6
ATOM      6  C   UNL     1      -0.836  -7.279   0.281  1.00  0.00     0.196 C 
BRANCH   6   7
ATOM      7  N   UNL     1      -0.046  -8.176   1.157  1.00  0.00    -0.338 N 
ATOM      8  C   UNL     1       1.207  -8.083   1.722  1.00  0.00     0.262 C 
ATOM      9  O   UNL     1       1.636  -9.092   2.287  1.00  0.00    -0.268 OA
ATOM     10  H   UNL     1      -0.514  -9.012   1.383  1.00  0.00     0.164 HD
BRANCH   8  11
ATOM     11  C   UNL     1       1.921  -6.826   1.796  1.00  0.00     0.093 A 
ATOM     12  C   UNL     1       2.012  -4.448   1.914  1.00  0.00     0.078 A 
ATOM     13  C   UNL     1       2.843  -4.989   2.869  1.00  0.00     0.030 A 
ATOM     14  S   UNL     1       1.835  -5.569   0.642  1.00  0.00    -0.121 S 
ATOM     15  C   UNL     1       2.824  -6.420   2.773  1.00  0.00     0.027 A 
BRANCH  12  16
ATOM     16  C   UNL     1       1.434  -3.159   1.873  1.00  0.00    -0.053 C 
ATOM     17  C   UNL     1       0.999  -1.947   1.672  1.00  0.00    -0.063 C 
BRANCH  17  18
ATOM     18  C   UNL     1       0.492  -0.533   1.437  1.00  0.00     0.120 C 
ATOM     19  C   UNL     1       0.962  -0.035   0.072  1.00  0.00     0.056 C 
ATOM     20  C   UNL     1       0.977   0.383   2.559  1.00  0.00     0.056 C 
BRANCH  18  21
ATOM     21  O   UNL     1      -0.929  -0.570   1.459  1.00  0.00    -0.378 OA
ATOM     22  H   UNL     1      -1.278   0.323   1.312  1.00  0.00     0.212 HD
ENDBRANCH  18  21
ENDBRANCH  17  18
ENDBRANCH  12  16
ENDBRANCH   8  11
ENDBRANCH   6   7
BRANCH   6  23
ATOM     23  C   UNL     1      -0.728  -7.737  -1.186  1.00  0.00     0.070 C 
BRANCH  23  24
ATOM     24  C   UNL     1      -1.285  -9.115  -1.387  1.00  0.00    -0.037 C 
ATOM     25  C   UNL     1      -0.689 -10.280  -1.141  1.00  0.00     0.001 A 
ATOM     26  C   UNL     1      -2.710  -9.329  -1.817  1.00  0.00     0.174 C 
ATOM     27  C   UNL     1       0.599 -10.679  -0.673  1.00  0.00     0.010 A 
ATOM     28  C   UNL     1      -1.784 -11.244  -1.310  1.00  0.00     0.065 A 
ATOM     29  N   UNL     1      -2.934 -10.788  -1.692  1.00  0.00    -0.280 NA
ATOM     30  C   UNL     1       0.798 -11.966  -0.349  1.00  0.00     0.001 A 
ATOM     31  C   UNL     1      -1.478 -12.649  -0.971  1.00  0.00     0.028 A 
ATOM     32  C   UNL     1      -0.256 -12.955  -0.505  1.00  0.00     0.002 A 
ENDBRANCH  23  24
ENDBRANCH   6  23
ENDBRANCH   4   6
ENDBRANCH   3   4
ENDBRANCH   2   3
ENDBRANCH   1   2
BRANCH   1  33
ATOM     33  O   UNL     1      -2.880  -6.678   4.297  1.00  0.00    -0.374 OA
BRANCH  33  34
ATOM     34  C   UNL     1      -1.559  -7.217   4.199  1.00  0.00     0.202 C 
BRANCH  34  35
ATOM     35  C   UNL     1      -1.287  -8.612   4.794  1.00  0.00     0.261 C 
BRANCH  35  36
ATOM     36  O   UNL     1      -1.970  -9.646   4.072  1.00  0.00    -0.460 OA
BRANCH  36  37
ATOM     37  C   UNL     1      -2.534 -10.618   4.843  1.00  0.00     0.338 C 
ATOM     38  O   UNL     1      -2.228 -10.935   5.979  1.00  0.00    -0.246 OA
BRANCH  37  39
ATOM     39  C   UNL     1      -3.824 -10.925   4.193  1.00  0.00     0.060 A 
ATOM     40  C   UNL     1      -3.871 -11.189   2.822  1.00  0.00     0.016 A 
ATOM     41  C   UNL     1      -4.980 -10.579   4.912  1.00  0.00     0.016 A 
ATOM     42  C   UNL     1      -5.066 -10.985   2.147  1.00  0.00     0.010 A 
ATOM     43  C   UNL     1      -6.162 -10.336   4.225  1.00  0.00     0.010 A 
ATOM     44  C   UNL     1      -6.188 -10.492   2.838  1.00  0.00    -0.014 A 
BRANCH  44  45
ATOM     45  C   UNL     1      -7.416 -10.285   2.072  1.00  0.00     0.031 A 
ATOM     46  C   UNL     1      -8.063 -11.557   1.655  1.00  0.00     0.074 A 
ATOM     47  C   UNL     1      -8.013  -9.095   1.849  1.00  0.00     0.049 A 
ATOM     48  N   UNL     1      -8.273 -12.005   0.460  1.00  0.00    -0.248 NA
ATOM     49  C   UNL     1      -8.406 -12.503   2.729  1.00  0.00     0.031 C 
ATOM     50  C   UNL     1      -7.715  -7.800   2.462  1.00  0.00     0.029 A 
ATOM     51  N   UNL     1      -9.116  -8.824   1.089  1.00  0.00    -0.354 N 
ATOM     52  C   UNL     1      -8.937 -13.218   0.633  1.00  0.00     0.074 A 
ATOM     53  C   UNL     1      -8.865 -13.541   2.034  1.00  0.00     0.031 C 
ATOM     54  C   UNL     1      -8.734  -6.942   2.222  1.00  0.00     0.029 A 
ATOM     55  C   UNL     1      -9.698  -7.587   1.351  1.00  0.00     0.049 A 
ATOM     56  H   UNL     1      -9.468  -9.449   0.415  1.00  0.00     0.167 HD
ATOM     57  C   UNL     1      -9.680 -13.800  -0.343  1.00  0.00     0.034 A 
ATOM     58  C   UNL     1     -10.930  -7.178   0.955  1.00  0.00     0.034 A 
ATOM     59  C   UNL     1      -9.424 -13.253  -1.642  1.00  0.00     0.049 A 
ATOM     60  C   UNL     1     -11.325  -8.035  -0.184  1.00  0.00     0.074 A 
ATOM     61  C   UNL     1      -8.355 -13.235  -2.512  1.00  0.00     0.029 A 
ATOM     62  N   UNL     1     -10.288 -12.281  -2.074  1.00  0.00    -0.354 N 
ATOM     63  N   UNL     1     -10.732  -8.037  -1.343  1.00  0.00    -0.248 NA
ATOM     64  C   UNL     1     -12.201  -9.165   0.077  1.00  0.00     0.031 C 
ATOM     65  C   UNL     1      -8.427 -11.969  -3.167  1.00  0.00     0.029 A 
ATOM     66  C   UNL     1      -9.548 -11.297  -2.674  1.00  0.00     0.049 A 
ATOM     67  H   UNL     1     -11.268 -12.290  -1.972  1.00  0.00     0.167 HD
ATOM     68  C   UNL     1     -10.822  -9.351  -1.777  1.00  0.00     0.074 A 
ATOM     69  C   UNL     1     -11.843  -9.960  -0.932  1.00  0.00     0.031 C 
ATOM     70  C   UNL     1      -9.866  -9.888  -2.589  1.00  0.00     0.034 A 
BRANCH  57  71
ATOM     71  C   UNL     1     -10.879 -14.662  -0.057  1.00  0.00     0.023 A 
ATOM     72  C   UNL     1     -11.343 -15.532  -1.063  1.00  0.00     0.012 A 
ATOM     73  C   UNL     1     -11.703 -14.479   1.078  1.00  0.00     0.148 A 
ATOM     74  C   UNL     1     -12.566 -16.201  -0.935  1.00  0.00     0.002 A 
ATOM     75  C   UNL     1     -12.877 -15.204   1.236  1.00  0.00     0.091 A 
ATOM     76  F   UNL     1     -11.412 -13.510   1.956  1.00  0.00    -0.205 F 
ATOM     77  C   UNL     1     -13.324 -16.053   0.222  1.00  0.00     0.022 A 
BRANCH  75  78
ATOM     78  S   UNL     1     -13.862 -15.082   2.732  1.00  0.00     0.127 S 
ATOM     79  O   UNL     1     -14.978 -14.255   2.283  1.00  0.00    -0.237 OA
ATOM     80  O   UNL     1     -14.193 -16.484   2.990  1.00  0.00    -0.237 OA
ATOM     81  O   UNL     1     -12.976 -14.489   3.727  1.00  0.00    -0.744 OA
ENDBRANCH  75  78
ENDBRANCH  57  71
BRANCH  58  82
ATOM     82  C   UNL     1     -11.937  -6.343   1.663  1.00  0.00     0.023 A 
ATOM     83  C   UNL     1     -13.056  -5.863   0.947  1.00  0.00     0.012 A 
ATOM     84  C   UNL     1     -11.986  -6.289   3.074  1.00  0.00     0.148 A 
ATOM     85  C   UNL     1     -14.206  -5.413   1.609  1.00  0.00     0.002 A 
ATOM     86  C   UNL     1     -13.127  -5.828   3.727  1.00  0.00     0.091 A 
ATOM     87  F   UNL     1     -10.962  -6.785   3.778  1.00  0.00    -0.205 F 
ATOM     88  C   UNL     1     -14.246  -5.409   2.999  1.00  0.00     0.022 A 
BRANCH  86  89
ATOM     89  S   UNL     1     -13.250  -5.805   5.521  1.00  0.00     0.127 S 
ATOM     90  O   UNL     1     -13.852  -4.495   5.770  1.00  0.00    -0.237 OA
ATOM     91  O   UNL     1     -14.130  -6.941   5.779  1.00  0.00    -0.237 OA
ATOM     92  O   UNL     1     -11.883  -5.935   6.011  1.00  0.00    -0.744 OA
ENDBRANCH  86  89
ENDBRANCH  58  82
BRANCH  70  93
ATOM     93  C   UNL     1      -8.893  -8.937  -3.239  1.00  0.00     0.023 A 
ATOM     94  C   UNL     1      -7.918  -8.237  -2.496  1.00  0.00     0.012 A 
ATOM     95  C   UNL     1      -8.864  -8.864  -4.641  1.00  0.00     0.148 A 
ATOM     96  C   UNL     1      -6.943  -7.470  -3.140  1.00  0.00     0.002 A 
ATOM     97  C   UNL     1      -7.873  -8.129  -5.279  1.00  0.00     0.091 A 
ATOM     98  F   UNL     1      -9.794  -9.545  -5.327  1.00  0.00    -0.205 F 
ATOM     99  C   UNL     1      -6.913  -7.426  -4.532  1.00  0.00     0.022 A 
BRANCH  97 100
ATOM    100  S   UNL     1      -7.715  -8.101  -7.067  1.00  0.00     0.127 S 
ATOM    101  O   UNL     1      -8.084  -6.723  -7.386  1.00  0.00    -0.237 OA
ATOM    102  O   UNL     1      -6.299  -8.414  -7.261  1.00  0.00    -0.237 OA
ATOM    103  O   UNL     1      -8.627  -9.120  -7.571  1.00  0.00    -0.744 OA
ENDBRANCH  97 100
ENDBRANCH  70  93
ENDBRANCH  44  45
ENDBRANCH  37  39
ENDBRANCH  36  37
ENDBRANCH  35  36
ENDBRANCH  34  35
ENDBRANCH  33  34
ENDBRANCH   1  33
TORSDOF 24
