REMARK SMILES O=C(OCCOCCOC(=O)c1ccc(-c2c3nc(c(-c4cccc(S(=O)(=O)[O-])c4F)c4ccc([nH]4)c(-c4cccc(S(=O)(=O)[O-])c4F)c4nc(c(-c5cccc(S(=O)(=O)[O-])c5F)c5ccc2[nH]5)C=C4)C=C3)cc1)c1ccc(/C=C/c2ccc3cccc(O)c3n2)cc1
REMARK SMILES IDX 6 1 5 2 4 3 3 4 2 5 1 6 75 7 76 8 93 9 77 10 92 11 78 12
REMARK SMILES IDX 79 13 80 14 81 15 82 16 91 17 83 18 90 19 84 20 88 21 85 22
REMARK SMILES IDX 87 23 86 24 89 25 7 27 8 28 9 29 10 30 11 31 12 32 13 33
REMARK SMILES IDX 74 34 14 35 73 36 15 37 16 38 17 39 67 40 18 41 72 42 66 43
REMARK SMILES IDX 68 44 19 45 71 46 65 47 64 48 20 50 52 51 32 52 51 53 33 54
REMARK SMILES IDX 36 55 50 56 69 57 34 58 35 59 49 61 70 62 37 63 21 64 22 65
REMARK SMILES IDX 30 66 23 67 25 68 31 69 24 70 26 71 27 72 28 73 29 74 53 75
REMARK SMILES IDX 54 76 62 77 55 78 57 79 63 80 56 81 58 82 59 83 60 84 61 85
REMARK SMILES IDX 38 86 39 87 47 88 40 89 42 90 48 91 41 92 43 93 44 94 45 95
REMARK SMILES IDX 46 96
REMARK H PARENT 89 26 68 49 36 60
REMARK Flexibility Score: inf
ROOT
ATOM      1  O   UNL     1       4.003  -0.288   1.605  1.00  0.00    -0.374 OA
ENDROOT
BRANCH   1   2
ATOM      2  C   UNL     1       4.391   0.973   1.065  1.00  0.00     0.202 C 
BRANCH   2   3
ATOM      3  C   UNL     1       4.230   1.051  -0.450  1.00  0.00     0.261 C 
BRANCH   3   4
ATOM      4  O   UNL     1       2.861   0.820  -0.808  1.00  0.00    -0.460 OA
BRANCH   4   5
ATOM      5  C   UNL     1       2.347  -0.308  -1.341  1.00  0.00     0.338 C 
ATOM      6  O   UNL     1       1.140  -0.368  -1.573  1.00  0.00    -0.246 OA
BRANCH   5   7
ATOM      7  C   UNL     1       3.166  -1.501  -1.697  1.00  0.00     0.060 A 
ATOM      8  C   UNL     1       4.093  -2.125  -0.855  1.00  0.00     0.016 A 
ATOM      9  C   UNL     1       2.821  -2.144  -2.887  1.00  0.00     0.016 A 
ATOM     10  C   UNL     1       4.632  -3.380  -1.158  1.00  0.00     0.009 A 
ATOM     11  C   UNL     1       3.358  -3.396  -3.193  1.00  0.00     0.009 A 
ATOM     12  C   UNL     1       4.247  -4.042  -2.316  1.00  0.00    -0.026 A 
BRANCH  12  13
ATOM     13  C   UNL     1       4.771  -5.352  -2.715  1.00  0.00     0.010 C 
ATOM     14  C   UNL     1       5.854  -6.004  -2.239  1.00  0.00     0.029 C 
BRANCH  14  15
ATOM     15  C   UNL     1       6.561  -6.848  -3.250  1.00  0.00     0.064 A 
ATOM     16  C   UNL     1       7.427  -6.043  -3.985  1.00  0.00     0.029 A 
ATOM     17  N   UNL     1       5.814  -7.818  -3.833  1.00  0.00    -0.245 NA
ATOM     18  C   UNL     1       7.083  -5.827  -5.312  1.00  0.00     0.013 A 
ATOM     19  C   UNL     1       5.585  -7.693  -5.158  1.00  0.00     0.113 A 
ATOM     20  C   UNL     1       6.076  -6.602  -5.897  1.00  0.00     0.004 A 
ATOM     21  C   UNL     1       4.776  -8.607  -5.826  1.00  0.00     0.141 A 
ATOM     22  C   UNL     1       5.544  -6.312  -7.163  1.00  0.00     0.010 A 
ATOM     23  C   UNL     1       4.311  -8.381  -7.119  1.00  0.00     0.048 A 
ATOM     24  C   UNL     1       4.644  -7.192  -7.762  1.00  0.00     0.005 A 
BRANCH  21  25
ATOM     25  O   UNL     1       4.410  -9.771  -5.197  1.00  0.00    -0.506 OA
ATOM     26  H   UNL     1       3.866 -10.392  -5.640  1.00  0.00     0.293 HD
ENDBRANCH  21  25
ENDBRANCH  14  15
ENDBRANCH  12  13
ENDBRANCH   5   7
ENDBRANCH   4   5
ENDBRANCH   3   4
ENDBRANCH   2   3
ENDBRANCH   1   2
BRANCH   1  27
ATOM     27  C   UNL     1       2.621  -0.431   1.958  1.00  0.00     0.202 C 
BRANCH  27  28
ATOM     28  C   UNL     1       2.534  -1.200   3.281  1.00  0.00     0.261 C 
BRANCH  28  29
ATOM     29  O   UNL     1       3.095  -0.370   4.305  1.00  0.00    -0.460 OA
BRANCH  29  30
ATOM     30  C   UNL     1       4.454  -0.384   4.332  1.00  0.00     0.338 C 
ATOM     31  O   UNL     1       5.183  -1.308   4.037  1.00  0.00    -0.246 OA
BRANCH  30  32
ATOM     32  C   UNL     1       4.917   1.001   4.588  1.00  0.00     0.060 A 
ATOM     33  C   UNL     1       6.178   1.374   4.101  1.00  0.00     0.016 A 
ATOM     34  C   UNL     1       4.122   1.923   5.278  1.00  0.00     0.016 A 
ATOM     35  C   UNL     1       6.690   2.633   4.396  1.00  0.00     0.010 A 
ATOM     36  C   UNL     1       4.628   3.186   5.566  1.00  0.00     0.010 A 
ATOM     37  C   UNL     1       5.942   3.508   5.192  1.00  0.00    -0.014 A 
BRANCH  37  38
ATOM     38  C   UNL     1       6.628   4.614   5.888  1.00  0.00     0.031 A 
ATOM     39  C   UNL     1       7.045   4.378   7.316  1.00  0.00     0.074 A 
ATOM     40  C   UNL     1       6.865   5.784   5.275  1.00  0.00     0.049 A 
ATOM     41  N   UNL     1       7.648   5.183   8.148  1.00  0.00    -0.248 NA
ATOM     42  C   UNL     1       6.725   3.056   7.887  1.00  0.00     0.031 C 
ATOM     43  C   UNL     1       6.494   6.110   3.899  1.00  0.00     0.029 A 
ATOM     44  N   UNL     1       7.460   6.923   5.746  1.00  0.00    -0.354 N 
ATOM     45  C   UNL     1       7.741   4.482   9.345  1.00  0.00     0.074 A 
ATOM     46  C   UNL     1       7.117   3.196   9.142  1.00  0.00     0.031 C 
ATOM     47  C   UNL     1       6.859   7.378   3.641  1.00  0.00     0.029 A 
ATOM     48  C   UNL     1       7.468   7.953   4.838  1.00  0.00     0.049 A 
ATOM     49  H   UNL     1       7.845   6.997   6.649  1.00  0.00     0.167 HD
ATOM     50  C   UNL     1       8.309   4.871  10.509  1.00  0.00     0.034 A 
ATOM     51  C   UNL     1       7.912   9.217   4.974  1.00  0.00     0.034 A 
ATOM     52  C   UNL     1       8.943   6.146  10.690  1.00  0.00     0.049 A 
ATOM     53  C   UNL     1       8.547   9.624   6.278  1.00  0.00     0.074 A 
ATOM     54  C   UNL     1       9.603   6.631  11.803  1.00  0.00     0.029 A 
ATOM     55  N   UNL     1       8.979   7.147   9.730  1.00  0.00    -0.354 N 
ATOM     56  N   UNL     1       8.736   8.914   7.365  1.00  0.00    -0.248 NA
ATOM     57  C   UNL     1       9.069  10.995   6.360  1.00  0.00     0.031 C 
ATOM     58  C   UNL     1      10.004   7.943  11.529  1.00  0.00     0.029 A 
ATOM     59  C   UNL     1       9.640   8.254  10.227  1.00  0.00     0.049 A 
ATOM     60  H   UNL     1       8.590   7.079   8.828  1.00  0.00     0.167 HD
ATOM     61  C   UNL     1       9.447   9.730   8.238  1.00  0.00     0.074 A 
ATOM     62  C   UNL     1       9.659  10.987   7.547  1.00  0.00     0.031 C 
ATOM     63  C   UNL     1       9.883   9.471   9.496  1.00  0.00     0.034 A 
BRANCH  50  64
ATOM     64  C   UNL     1       8.267   3.906  11.665  1.00  0.00     0.023 A 
ATOM     65  C   UNL     1       9.031   2.721  11.629  1.00  0.00     0.012 A 
ATOM     66  C   UNL     1       7.486   4.188  12.802  1.00  0.00     0.148 A 
ATOM     67  C   UNL     1       8.985   1.813  12.687  1.00  0.00     0.002 A 
ATOM     68  C   UNL     1       7.487   3.305  13.875  1.00  0.00     0.091 A 
ATOM     69  F   UNL     1       6.743   5.304  12.807  1.00  0.00    -0.205 F 
ATOM     70  C   UNL     1       8.223   2.110  13.813  1.00  0.00     0.022 A 
BRANCH  68  71
ATOM     71  S   UNL     1       6.604   3.639  15.402  1.00  0.00     0.127 S 
ATOM     72  O   UNL     1       5.536   2.642  15.351  1.00  0.00    -0.237 OA
ATOM     73  O   UNL     1       7.631   3.381  16.412  1.00  0.00    -0.237 OA
ATOM     74  O   UNL     1       6.168   5.026  15.320  1.00  0.00    -0.744 OA
ENDBRANCH  68  71
ENDBRANCH  50  64
BRANCH  51  75
ATOM     75  C   UNL     1       7.834  10.165   3.827  1.00  0.00     0.023 A 
ATOM     76  C   UNL     1       9.018  10.579   3.188  1.00  0.00     0.012 A 
ATOM     77  C   UNL     1       6.596  10.641   3.356  1.00  0.00     0.148 A 
ATOM     78  C   UNL     1       8.975  11.480   2.123  1.00  0.00     0.002 A 
ATOM     79  C   UNL     1       6.555  11.495   2.260  1.00  0.00     0.091 A 
ATOM     80  F   UNL     1       5.481  10.240   3.982  1.00  0.00    -0.205 F 
ATOM     81  C   UNL     1       7.744  11.931   1.654  1.00  0.00     0.022 A 
BRANCH  79  82
ATOM     82  S   UNL     1       5.015  12.030   1.508  1.00  0.00     0.127 S 
ATOM     83  O   UNL     1       5.015  13.459   1.809  1.00  0.00    -0.237 OA
ATOM     84  O   UNL     1       5.238  11.695   0.101  1.00  0.00    -0.237 OA
ATOM     85  O   UNL     1       3.968  11.249   2.153  1.00  0.00    -0.744 OA
ENDBRANCH  79  82
ENDBRANCH  51  75
BRANCH  63  86
ATOM     86  C   UNL     1      10.701  10.534  10.182  1.00  0.00     0.023 A 
ATOM     87  C   UNL     1      10.097  11.729  10.618  1.00  0.00     0.012 A 
ATOM     88  C   UNL     1      12.067  10.310  10.448  1.00  0.00     0.148 A 
ATOM     89  C   UNL     1      10.852  12.706  11.267  1.00  0.00     0.002 A 
ATOM     90  C   UNL     1      12.798  11.261  11.147  1.00  0.00     0.091 A 
ATOM     91  F   UNL     1      12.627   9.174  10.010  1.00  0.00    -0.205 F 
ATOM     92  C   UNL     1      12.197  12.467  11.542  1.00  0.00     0.022 A 
BRANCH  90  93
ATOM     93  S   UNL     1      14.503  10.986  11.637  1.00  0.00     0.127 S 
ATOM     94  O   UNL     1      15.224  11.848  10.703  1.00  0.00    -0.237 OA
ATOM     95  O   UNL     1      14.507  11.452  13.025  1.00  0.00    -0.237 OA
ATOM     96  O   UNL     1      14.739   9.557  11.482  1.00  0.00    -0.744 OA
ENDBRANCH  90  93
ENDBRANCH  63  86
ENDBRANCH  37  38
ENDBRANCH  30  32
ENDBRANCH  29  30
ENDBRANCH  28  29
ENDBRANCH  27  28
ENDBRANCH   1  27
TORSDOF 20
