REMARK SMILES C[C@@H]1[C@@H](C(=O)OCCOCCOC(=O)c2ccc(-c3c4nc(c(-c5cccc(S(=O)(=O)[O-])c5F)c5ccc([nH]5)c(-c5cccc(S(=O)(=O)[O-])c5F)c5nc(c(-c6cccc(S(=O)(=O)[O-])c6F)c6ccc3[nH]6)C=C5)C=C4)cc2)CCN1C(=O)[C@]1([NH3+])CCOC1
REMARK SMILES IDX 9 1 8 2 7 3 6 4 4 5 5 6 3 7 1 8 2 9 80 10 78 11 79 12 81 13
REMARK SMILES IDX 82 14 83 15 85 16 88 17 86 18 87 19 84 20 10 24 11 25 12 26
REMARK SMILES IDX 13 27 14 28 15 29 16 30 77 31 17 32 76 33 18 34 19 35 20 36
REMARK SMILES IDX 70 37 21 38 75 39 69 40 71 41 22 42 74 43 68 44 67 45 23 47
REMARK SMILES IDX 55 48 35 49 54 50 36 51 39 52 53 53 72 54 37 55 38 56 52 58
REMARK SMILES IDX 73 59 40 60 24 61 25 62 33 63 26 64 28 65 34 66 27 67 29 68
REMARK SMILES IDX 30 69 31 70 32 71 56 72 57 73 65 74 58 75 60 76 66 77 59 78
REMARK SMILES IDX 61 79 62 80 63 81 64 82 41 83 42 84 50 85 43 86 45 87 51 88
REMARK SMILES IDX 44 89 46 90 47 91 48 92 49 93
REMARK H PARENT 84 21 84 22 84 23 71 46 39 57
REMARK Flexibility Score: inf
ROOT
ATOM      1  O   UNL     1       4.583  -7.339   2.250  1.00  0.00    -0.374 OA
ENDROOT
BRANCH   1   2
ATOM      2  C   UNL     1       5.942  -6.925   2.135  1.00  0.00     0.202 C 
BRANCH   2   3
ATOM      3  C   UNL     1       6.597  -7.011   0.751  1.00  0.00     0.261 C 
BRANCH   3   4
ATOM      4  O   UNL     1       5.882  -6.346  -0.312  1.00  0.00    -0.463 OA
BRANCH   4   5
ATOM      5  C   UNL     1       5.222  -7.188  -1.149  1.00  0.00     0.311 C 
ATOM      6  O   UNL     1       5.161  -8.405  -0.993  1.00  0.00    -0.252 OA
BRANCH   5   7
ATOM      7  C   UNL     1       4.649  -6.512  -2.381  1.00  0.00     0.123 C 
ATOM      8  C   UNL     1       4.294  -4.443  -3.668  1.00  0.00     0.032 C 
ATOM      9  C   UNL     1       4.056  -5.076  -2.289  1.00  0.00     0.096 C 
ATOM     10  N   UNL     1       2.611  -5.275  -2.015  1.00  0.00    -0.334 N 
ATOM     11  C   UNL     1       3.445  -7.321  -2.888  1.00  0.00     0.039 C 
ATOM     12  C   UNL     1       2.281  -6.692  -2.149  1.00  0.00     0.121 C 
BRANCH  10  13
ATOM     13  C   UNL     1       1.617  -4.453  -1.518  1.00  0.00     0.286 C 
ATOM     14  O   UNL     1       0.576  -5.011  -1.111  1.00  0.00    -0.267 OA
BRANCH  13  15
ATOM     15  C   UNL     1       1.635  -2.870  -1.408  1.00  0.00     0.199 C 
ATOM     16  C   UNL     1       1.983  -2.074  -2.653  1.00  0.00     0.110 C 
ATOM     17  C   UNL     1       2.617  -2.333  -0.380  1.00  0.00     0.239 C 
ATOM     18  C   UNL     1       3.356  -1.478  -2.373  1.00  0.00     0.167 C 
ATOM     19  O   UNL     1       3.797  -1.982  -1.111  1.00  0.00    -0.374 OA
BRANCH  15  20
ATOM     20  N   UNL     1       0.231  -2.474  -1.032  1.00  0.00    -0.343 N 
ATOM     21  H   UNL     1       0.176  -1.459  -0.945  1.00  0.00     0.345 HD
ATOM     22  H   UNL     1      -0.017  -2.905  -0.141  1.00  0.00     0.345 HD
ATOM     23  H   UNL     1      -0.416  -2.789  -1.754  1.00  0.00     0.345 HD
ENDBRANCH  15  20
ENDBRANCH  13  15
ENDBRANCH  10  13
ENDBRANCH   5   7
ENDBRANCH   4   5
ENDBRANCH   3   4
ENDBRANCH   2   3
ENDBRANCH   1   2
BRANCH   1  24
ATOM     24  C   UNL     1       3.586  -6.499   1.671  1.00  0.00     0.202 C 
BRANCH  24  25
ATOM     25  C   UNL     1       3.453  -5.090   2.251  1.00  0.00     0.261 C 
BRANCH  25  26
ATOM     26  O   UNL     1       4.645  -4.306   2.041  1.00  0.00    -0.460 OA
BRANCH  26  27
ATOM     27  C   UNL     1       4.945  -3.483   3.075  1.00  0.00     0.338 C 
ATOM     28  O   UNL     1       4.210  -3.199   4.013  1.00  0.00    -0.246 OA
BRANCH  27  29
ATOM     29  C   UNL     1       6.371  -3.106   3.063  1.00  0.00     0.060 A 
ATOM     30  C   UNL     1       7.209  -3.702   4.016  1.00  0.00     0.016 A 
ATOM     31  C   UNL     1       6.849  -2.075   2.253  1.00  0.00     0.016 A 
ATOM     32  C   UNL     1       8.512  -3.232   4.197  1.00  0.00     0.010 A 
ATOM     33  C   UNL     1       8.157  -1.602   2.442  1.00  0.00     0.010 A 
ATOM     34  C   UNL     1       8.983  -2.150   3.442  1.00  0.00    -0.014 A 
BRANCH  34  35
ATOM     35  C   UNL     1      10.289  -1.527   3.793  1.00  0.00     0.031 A 
ATOM     36  C   UNL     1      10.317  -0.284   4.647  1.00  0.00     0.074 A 
ATOM     37  C   UNL     1      11.448  -2.075   3.383  1.00  0.00     0.049 A 
ATOM     38  N   UNL     1      11.346   0.380   5.109  1.00  0.00    -0.248 NA
ATOM     39  C   UNL     1       9.015   0.282   5.035  1.00  0.00     0.031 C 
ATOM     40  C   UNL     1      11.567  -3.269   2.550  1.00  0.00     0.029 A 
ATOM     41  N   UNL     1      12.748  -1.687   3.603  1.00  0.00    -0.354 N 
ATOM     42  C   UNL     1      10.821   1.448   5.827  1.00  0.00     0.074 A 
ATOM     43  C   UNL     1       9.380   1.353   5.727  1.00  0.00     0.031 C 
ATOM     44  C   UNL     1      12.868  -3.506   2.310  1.00  0.00     0.029 A 
ATOM     45  C   UNL     1      13.675  -2.476   2.964  1.00  0.00     0.049 A 
ATOM     46  H   UNL     1      12.992  -0.916   4.165  1.00  0.00     0.167 HD
ATOM     47  C   UNL     1      11.473   2.408   6.526  1.00  0.00     0.034 A 
ATOM     48  C   UNL     1      15.020  -2.378   2.906  1.00  0.00     0.034 A 
ATOM     49  C   UNL     1      12.903   2.497   6.650  1.00  0.00     0.049 A 
ATOM     50  C   UNL     1      15.721  -1.292   3.681  1.00  0.00     0.074 A 
ATOM     51  C   UNL     1      13.649   3.407   7.381  1.00  0.00     0.029 A 
ATOM     52  N   UNL     1      13.807   1.657   6.020  1.00  0.00    -0.354 N 
ATOM     53  N   UNL     1      15.210  -0.380   4.471  1.00  0.00    -0.248 NA
ATOM     54  C   UNL     1      17.189  -1.244   3.584  1.00  0.00     0.031 C 
ATOM     55  C   UNL     1      15.005   3.125   7.180  1.00  0.00     0.029 A 
ATOM     56  C   UNL     1      15.102   2.032   6.335  1.00  0.00     0.049 A 
ATOM     57  H   UNL     1      13.563   0.903   5.435  1.00  0.00     0.167 HD
ATOM     58  C   UNL     1      16.290   0.327   4.990  1.00  0.00     0.074 A 
ATOM     59  C   UNL     1      17.487  -0.276   4.441  1.00  0.00     0.031 C 
ATOM     60  C   UNL     1      16.290   1.391   5.831  1.00  0.00     0.034 A 
BRANCH  47  61
ATOM     61  C   UNL     1      10.638   3.424   7.260  1.00  0.00     0.023 A 
ATOM     62  C   UNL     1       9.995   3.052   8.458  1.00  0.00     0.012 A 
ATOM     63  C   UNL     1      10.543   4.755   6.808  1.00  0.00     0.148 A 
ATOM     64  C   UNL     1       9.248   3.981   9.181  1.00  0.00     0.002 A 
ATOM     65  C   UNL     1       9.825   5.684   7.553  1.00  0.00     0.091 A 
ATOM     66  F   UNL     1      11.143   5.084   5.655  1.00  0.00    -0.205 F 
ATOM     67  C   UNL     1       9.171   5.297   8.734  1.00  0.00     0.022 A 
BRANCH  65  68
ATOM     68  S   UNL     1       9.726   7.418   7.093  1.00  0.00     0.127 S 
ATOM     69  O   UNL     1       8.365   7.507   6.566  1.00  0.00    -0.237 OA
ATOM     70  O   UNL     1       9.927   8.093   8.376  1.00  0.00    -0.237 OA
ATOM     71  O   UNL     1      10.791   7.634   6.124  1.00  0.00    -0.744 OA
ENDBRANCH  65  68
ENDBRANCH  47  61
BRANCH  48  72
ATOM     72  C   UNL     1      15.802  -3.376   2.122  1.00  0.00     0.023 A 
ATOM     73  C   UNL     1      16.606  -4.314   2.796  1.00  0.00     0.012 A 
ATOM     74  C   UNL     1      15.736  -3.414   0.715  1.00  0.00     0.148 A 
ATOM     75  C   UNL     1      17.349  -5.257   2.084  1.00  0.00     0.002 A 
ATOM     76  C   UNL     1      16.435  -4.390   0.015  1.00  0.00     0.091 A 
ATOM     77  F   UNL     1      14.986  -2.496   0.089  1.00  0.00    -0.205 F 
ATOM     78  C   UNL     1      17.254  -5.303   0.696  1.00  0.00     0.022 A 
BRANCH  76  79
ATOM     79  S   UNL     1      16.261  -4.598  -1.761  1.00  0.00     0.127 S 
ATOM     80  O   UNL     1      17.510  -4.026  -2.255  1.00  0.00    -0.237 OA
ATOM     81  O   UNL     1      16.155  -6.053  -1.890  1.00  0.00    -0.237 OA
ATOM     82  O   UNL     1      15.044  -3.880  -2.118  1.00  0.00    -0.744 OA
ENDBRANCH  76  79
ENDBRANCH  48  72
BRANCH  60  83
ATOM     83  C   UNL     1      17.621   1.970   6.236  1.00  0.00     0.023 A 
ATOM     84  C   UNL     1      18.351   2.744   5.313  1.00  0.00     0.012 A 
ATOM     85  C   UNL     1      18.110   1.817   7.549  1.00  0.00     0.148 A 
ATOM     86  C   UNL     1      19.559   3.337   5.681  1.00  0.00     0.002 A 
ATOM     87  C   UNL     1      19.294   2.446   7.921  1.00  0.00     0.091 A 
ATOM     88  F   UNL     1      17.414   1.060   8.409  1.00  0.00    -0.205 F 
ATOM     89  C   UNL     1      20.024   3.198   6.987  1.00  0.00     0.022 A 
BRANCH  87  90
ATOM     90  S   UNL     1      19.918   2.391   9.606  1.00  0.00     0.127 S 
ATOM     91  O   UNL     1      20.991   1.405   9.495  1.00  0.00    -0.237 OA
ATOM     92  O   UNL     1      20.374   3.766   9.817  1.00  0.00    -0.237 OA
ATOM     93  O   UNL     1      18.786   2.001  10.435  1.00  0.00    -0.744 OA
ENDBRANCH  87  90
ENDBRANCH  60  83
ENDBRANCH  34  35
ENDBRANCH  27  29
ENDBRANCH  26  27
ENDBRANCH  25  26
ENDBRANCH  24  25
ENDBRANCH   1  24
TORSDOF 20
