REMARK SMILES CN(CC(=O)OCCOCCOC(=O)c1ccc(-c2c3nc(c(-c4cccc(S(=O)(=O)[O-])c4F)c4ccc([nH]4)c(-c4cccc(S(=O)(=O)[O-])c4F)c4nc(c(-c5cccc(S(=O)(=O)[O-])c5F)c5ccc2[nH]5)C=C4)C=C3)cc1)c1nc2cc(N)ccc2[nH]1
REMARK SMILES IDX 9 1 8 2 7 3 6 4 4 5 5 6 3 7 2 8 1 9 78 10 79 11 87 12 80 13
REMARK SMILES IDX 86 14 81 16 85 17 82 18 84 19 83 20 10 23 11 24 12 25 13 26
REMARK SMILES IDX 14 27 15 28 16 29 77 30 17 31 76 32 18 33 19 34 20 35 70 36
REMARK SMILES IDX 21 37 75 38 69 39 71 40 22 41 74 42 68 43 67 44 23 46 55 47
REMARK SMILES IDX 35 48 54 49 36 50 39 51 53 52 72 53 37 54 38 55 52 57 73 58
REMARK SMILES IDX 40 59 24 60 25 61 33 62 26 63 28 64 34 65 27 66 29 67 30 68
REMARK SMILES IDX 31 69 32 70 56 71 57 72 65 73 58 74 60 75 66 76 59 77 61 78
REMARK SMILES IDX 62 79 63 80 64 81 41 82 42 83 50 84 43 85 45 86 51 87 44 88
REMARK SMILES IDX 46 89 47 90 48 91 49 92
REMARK H PARENT 87 15 83 21 83 22 71 45 39 56
REMARK Flexibility Score: inf
ROOT
ATOM      1  O   UNL     1      -3.613   3.090   2.769  1.00  0.00    -0.374 OA
ENDROOT
BRANCH   1   2
ATOM      2  C   UNL     1      -4.078   1.990   1.996  1.00  0.00     0.202 C 
BRANCH   2   3
ATOM      3  C   UNL     1      -3.462   1.714   0.615  1.00  0.00     0.261 C 
BRANCH   3   4
ATOM      4  O   UNL     1      -2.018   1.619   0.581  1.00  0.00    -0.462 OA
BRANCH   4   5
ATOM      5  C   UNL     1      -1.404   2.517  -0.245  1.00  0.00     0.325 C 
ATOM      6  O   UNL     1      -2.015   3.332  -0.938  1.00  0.00    -0.250 OA
BRANCH   5   7
ATOM      7  C   UNL     1       0.116   2.403  -0.358  1.00  0.00     0.241 C 
BRANCH   7   8
ATOM      8  N   UNL     1       0.872   1.741   0.721  1.00  0.00    -0.334 N 
ATOM      9  C   UNL     1       1.152   0.324   0.583  1.00  0.00     0.147 C 
BRANCH   8  10
ATOM     10  C   UNL     1       1.264   2.469   1.798  1.00  0.00     0.204 A 
ATOM     11  N   UNL     1       0.838   3.659   2.164  1.00  0.00    -0.213 NA
ATOM     12  N   UNL     1       2.139   1.976   2.745  1.00  0.00    -0.324 N 
ATOM     13  C   UNL     1       1.188   3.783   3.491  1.00  0.00     0.093 A 
ATOM     14  C   UNL     1       2.028   2.748   3.877  1.00  0.00     0.067 A 
ATOM     15  H   UNL     1       2.739   1.204   2.629  1.00  0.00     0.170 HD
ATOM     16  C   UNL     1       0.695   4.666   4.466  1.00  0.00     0.056 A 
ATOM     17  C   UNL     1       2.494   2.589   5.181  1.00  0.00     0.030 A 
ATOM     18  C   UNL     1       0.977   4.406   5.814  1.00  0.00     0.034 A 
ATOM     19  C   UNL     1       1.938   3.444   6.145  1.00  0.00     0.028 A 
BRANCH  18  20
ATOM     20  N   UNL     1       0.369   5.163   6.814  1.00  0.00    -0.399 N 
ATOM     21  H   UNL     1      -0.306   5.839   6.578  1.00  0.00     0.156 HD
ATOM     22  H   UNL     1       0.616   5.022   7.757  1.00  0.00     0.156 HD
ENDBRANCH  18  20
ENDBRANCH   8  10
ENDBRANCH   7   8
ENDBRANCH   5   7
ENDBRANCH   4   5
ENDBRANCH   3   4
ENDBRANCH   2   3
ENDBRANCH   1   2
BRANCH   1  23
ATOM     23  C   UNL     1      -2.221   3.159   3.044  1.00  0.00     0.202 C 
BRANCH  23  24
ATOM     24  C   UNL     1      -1.571   2.058   3.893  1.00  0.00     0.261 C 
BRANCH  24  25
ATOM     25  O   UNL     1      -2.156   0.772   3.803  1.00  0.00    -0.460 OA
BRANCH  25  26
ATOM     26  C   UNL     1      -2.897   0.433   4.874  1.00  0.00     0.338 C 
ATOM     27  O   UNL     1      -3.131   1.080   5.882  1.00  0.00    -0.246 OA
BRANCH  26  28
ATOM     28  C   UNL     1      -3.498  -0.856   4.557  1.00  0.00     0.060 A 
ATOM     29  C   UNL     1      -4.886  -0.906   4.433  1.00  0.00     0.016 A 
ATOM     30  C   UNL     1      -2.692  -1.984   4.379  1.00  0.00     0.016 A 
ATOM     31  C   UNL     1      -5.492  -2.126   4.187  1.00  0.00     0.010 A 
ATOM     32  C   UNL     1      -3.301  -3.205   4.126  1.00  0.00     0.010 A 
ATOM     33  C   UNL     1      -4.703  -3.279   4.077  1.00  0.00    -0.014 A 
BRANCH  33  34
ATOM     34  C   UNL     1      -5.370  -4.590   4.061  1.00  0.00     0.031 A 
ATOM     35  C   UNL     1      -5.385  -5.398   5.324  1.00  0.00     0.074 A 
ATOM     36  C   UNL     1      -5.974  -5.012   2.939  1.00  0.00     0.049 A 
ATOM     37  N   UNL     1      -5.935  -6.559   5.551  1.00  0.00    -0.248 NA
ATOM     38  C   UNL     1      -4.682  -4.826   6.486  1.00  0.00     0.031 C 
ATOM     39  C   UNL     1      -5.998  -4.282   1.671  1.00  0.00     0.029 A 
ATOM     40  N   UNL     1      -6.671  -6.159   2.685  1.00  0.00    -0.354 N 
ATOM     41  C   UNL     1      -5.623  -6.870   6.868  1.00  0.00     0.074 A 
ATOM     42  C   UNL     1      -4.817  -5.788   7.386  1.00  0.00     0.031 C 
ATOM     43  C   UNL     1      -6.670  -5.009   0.764  1.00  0.00     0.029 A 
ATOM     44  C   UNL     1      -7.094  -6.262   1.383  1.00  0.00     0.049 A 
ATOM     45  H   UNL     1      -6.853  -6.845   3.368  1.00  0.00     0.167 HD
ATOM     46  C   UNL     1      -5.992  -7.957   7.582  1.00  0.00     0.034 A 
ATOM     47  C   UNL     1      -7.735  -7.270   0.764  1.00  0.00     0.034 A 
ATOM     48  C   UNL     1      -6.804  -9.013   7.043  1.00  0.00     0.049 A 
ATOM     49  C   UNL     1      -8.121  -8.475   1.577  1.00  0.00     0.074 A 
ATOM     50  C   UNL     1      -7.283 -10.142   7.680  1.00  0.00     0.029 A 
ATOM     51  N   UNL     1      -7.242  -9.076   5.728  1.00  0.00    -0.354 N 
ATOM     52  N   UNL     1      -7.918  -8.709   2.852  1.00  0.00    -0.248 NA
ATOM     53  C   UNL     1      -8.853  -9.538   0.878  1.00  0.00     0.031 C 
ATOM     54  C   UNL     1      -7.974 -10.909   6.737  1.00  0.00     0.029 A 
ATOM     55  C   UNL     1      -7.969 -10.235   5.525  1.00  0.00     0.049 A 
ATOM     56  H   UNL     1      -7.062  -8.395   5.040  1.00  0.00     0.167 HD
ATOM     57  C   UNL     1      -8.525  -9.930   3.118  1.00  0.00     0.074 A 
ATOM     58  C   UNL     1      -9.122 -10.373   1.873  1.00  0.00     0.031 C 
ATOM     59  C   UNL     1      -8.579 -10.628   4.280  1.00  0.00     0.034 A 
BRANCH  46  60
ATOM     60  C   UNL     1      -5.522  -8.051   9.009  1.00  0.00     0.023 A 
ATOM     61  C   UNL     1      -6.043  -7.176   9.985  1.00  0.00     0.012 A 
ATOM     62  C   UNL     1      -4.581  -9.027   9.390  1.00  0.00     0.148 A 
ATOM     63  C   UNL     1      -5.609  -7.248  11.309  1.00  0.00     0.002 A 
ATOM     64  C   UNL     1      -4.190  -9.125  10.720  1.00  0.00     0.091 A 
ATOM     65  F   UNL     1      -4.076  -9.831   8.444  1.00  0.00    -0.205 F 
ATOM     66  C   UNL     1      -4.692  -8.228  11.678  1.00  0.00     0.022 A 
BRANCH  64  67
ATOM     67  S   UNL     1      -3.072 -10.400  11.309  1.00  0.00     0.127 S 
ATOM     68  O   UNL     1      -1.890  -9.616  11.663  1.00  0.00    -0.237 OA
ATOM     69  O   UNL     1      -3.806 -10.946  12.451  1.00  0.00    -0.237 OA
ATOM     70  O   UNL     1      -2.896 -11.327  10.200  1.00  0.00    -0.744 OA
ENDBRANCH  64  67
ENDBRANCH  46  60
BRANCH  47  71
ATOM     71  C   UNL     1      -8.071  -7.159  -0.681  1.00  0.00     0.023 A 
ATOM     72  C   UNL     1      -9.414  -7.032  -1.081  1.00  0.00     0.012 A 
ATOM     73  C   UNL     1      -7.057  -7.138  -1.659  1.00  0.00     0.148 A 
ATOM     74  C   UNL     1      -9.744  -6.916  -2.432  1.00  0.00     0.002 A 
ATOM     75  C   UNL     1      -7.388  -6.965  -2.997  1.00  0.00     0.091 A 
ATOM     76  F   UNL     1      -5.785  -7.268  -1.257  1.00  0.00    -0.205 F 
ATOM     77  C   UNL     1      -8.732  -6.872  -3.388  1.00  0.00     0.022 A 
BRANCH  75  78
ATOM     78  S   UNL     1      -6.145  -6.766  -4.278  1.00  0.00     0.127 S 
ATOM     79  O   UNL     1      -6.309  -7.997  -5.048  1.00  0.00    -0.237 OA
ATOM     80  O   UNL     1      -6.602  -5.550  -4.953  1.00  0.00    -0.237 OA
ATOM     81  O   UNL     1      -4.875  -6.623  -3.579  1.00  0.00    -0.744 OA
ENDBRANCH  75  78
ENDBRANCH  47  71
BRANCH  59  82
ATOM     82  C   UNL     1      -9.341 -11.927   4.268  1.00  0.00     0.023 A 
ATOM     83  C   UNL     1      -8.813 -13.048   3.598  1.00  0.00     0.012 A 
ATOM     84  C   UNL     1     -10.547 -12.050   4.985  1.00  0.00     0.148 A 
ATOM     85  C   UNL     1      -9.495 -14.263   3.609  1.00  0.00     0.002 A 
ATOM     86  C   UNL     1     -11.191 -13.278   5.040  1.00  0.00     0.091 A 
ATOM     87  F   UNL     1     -11.038 -10.966   5.602  1.00  0.00    -0.205 F 
ATOM     88  C   UNL     1     -10.676 -14.381   4.340  1.00  0.00     0.022 A 
BRANCH  86  89
ATOM     89  S   UNL     1     -12.657 -13.552   6.039  1.00  0.00     0.127 S 
ATOM     90  O   UNL     1     -13.687 -13.724   5.015  1.00  0.00    -0.237 OA
ATOM     91  O   UNL     1     -12.310 -14.772   6.767  1.00  0.00    -0.237 OA
ATOM     92  O   UNL     1     -12.802 -12.368   6.875  1.00  0.00    -0.744 OA
ENDBRANCH  86  89
ENDBRANCH  59  82
ENDBRANCH  33  34
ENDBRANCH  26  28
ENDBRANCH  25  26
ENDBRANCH  24  25
ENDBRANCH  23  24
ENDBRANCH   1  23
TORSDOF 20
