REMARK SMILES Cc1c[nH]c(C(=O)N2CCC3(CC2)NC(=O)C[C@@H]3C(=O)OCCOCCOC(=O)c2ccc(-c3c4nc(c(-c5cccc(S(=O)(=O)[O-])c5F)c5ccc([nH]5)c(-c5cccc(S(=O)(=O)[O-])c5F)c5nc(c(-c6cccc(S(=O)(=O)[O-])c6F)c6ccc3[nH]6)C=C5)C=C4)cc2)c1
REMARK SMILES IDX 25 1 24 2 23 3 22 4 21 5 19 6 20 7 18 8 6 9 7 10 8 11 9 12
REMARK SMILES IDX 13 13 10 14 12 15 11 16 14 17 15 18 17 20 16 21 5 22 1 23
REMARK SMILES IDX 2 24 3 25 93 26 4 27 26 29 27 30 28 31 29 32 30 33 31 34
REMARK SMILES IDX 92 35 32 36 91 37 33 38 34 39 35 40 85 41 36 42 90 43 84 44
REMARK SMILES IDX 86 45 37 46 89 47 83 48 82 49 38 51 70 52 50 53 69 54 51 55
REMARK SMILES IDX 54 56 68 57 87 58 52 59 53 60 67 62 88 63 55 64 39 65 40 66
REMARK SMILES IDX 48 67 41 68 43 69 49 70 42 71 44 72 45 73 46 74 47 75 71 76
REMARK SMILES IDX 72 77 80 78 73 79 75 80 81 81 74 82 76 83 77 84 78 85 79 86
REMARK SMILES IDX 56 87 57 88 65 89 58 90 60 91 66 92 59 93 61 94 62 95 63 96
REMARK SMILES IDX 64 97
REMARK H PARENT 14 19 4 28 86 50 54 61
REMARK Flexibility Score: inf
ROOT
ATOM      1  C   UNL     1      -6.893   2.723  -2.441  1.00  0.00     0.202 C 
ENDROOT
BRANCH   1   2
ATOM      2  O   UNL     1      -7.848   3.518  -1.743  1.00  0.00    -0.374 OA
BRANCH   2   3
ATOM      3  C   UNL     1      -7.561   3.791  -0.371  1.00  0.00     0.202 C 
BRANCH   3   4
ATOM      4  C   UNL     1      -8.047   2.770   0.663  1.00  0.00     0.261 C 
BRANCH   4   5
ATOM      5  O   UNL     1      -7.344   1.503   0.639  1.00  0.00    -0.463 OA
BRANCH   5   6
ATOM      6  C   UNL     1      -7.985   0.529  -0.053  1.00  0.00     0.311 C 
ATOM      7  O   UNL     1      -8.958   0.741  -0.768  1.00  0.00    -0.252 OA
BRANCH   6   8
ATOM      8  C   UNL     1      -7.467  -0.869   0.260  1.00  0.00     0.134 C 
ATOM      9  C   UNL     1      -2.424   1.018   0.113  1.00  0.00     0.270 C 
ATOM     10  O   UNL     1      -2.449   2.215  -0.153  1.00  0.00    -0.267 OA
ATOM     11  N   UNL     1      -3.586   0.249   0.078  1.00  0.00    -0.337 N 
ATOM     12  C   UNL     1      -4.560   0.634  -0.912  1.00  0.00     0.122 C 
ATOM     13  C   UNL     1      -4.164  -0.253   1.312  1.00  0.00     0.122 C 
ATOM     14  C   UNL     1      -5.400  -0.563  -1.336  1.00  0.00     0.051 C 
ATOM     15  C   UNL     1      -5.035  -1.470   1.028  1.00  0.00     0.051 C 
ATOM     16  C   UNL     1      -6.032  -1.327  -0.158  1.00  0.00     0.057 C 
ATOM     17  N   UNL     1      -6.280  -2.696  -0.622  1.00  0.00    -0.350 N 
ATOM     18  C   UNL     1      -7.591  -3.030  -0.816  1.00  0.00     0.221 C 
ATOM     19  H   UNL     1      -5.548  -3.335  -0.783  1.00  0.00     0.164 HD
ATOM     20  C   UNL     1      -8.425  -1.847  -0.472  1.00  0.00     0.117 C 
ATOM     21  O   UNL     1      -7.984  -4.094  -1.248  1.00  0.00    -0.275 OA
BRANCH   9  22
ATOM     22  C   UNL     1      -1.185   0.288   0.262  1.00  0.00     0.104 A 
ATOM     23  C   UNL     1       2.500  -0.127   0.096  1.00  0.00     0.046 C 
ATOM     24  C   UNL     1       1.025  -0.259   0.206  1.00  0.00    -0.033 A 
ATOM     25  C   UNL     1       0.279  -1.419   0.210  1.00  0.00     0.086 A 
ATOM     26  C   UNL     1       0.097   0.813   0.282  1.00  0.00     0.036 A 
ATOM     27  N   UNL     1      -1.047  -1.078   0.271  1.00  0.00    -0.357 N 
ATOM     28  H   UNL     1      -1.792  -1.720   0.315  1.00  0.00     0.166 HD
ENDBRANCH   9  22
ENDBRANCH   6   8
ENDBRANCH   5   6
ENDBRANCH   4   5
ENDBRANCH   3   4
ENDBRANCH   2   3
ENDBRANCH   1   2
BRANCH   1  29
ATOM     29  C   UNL     1      -5.596   3.436  -2.860  1.00  0.00     0.261 C 
BRANCH  29  30
ATOM     30  O   UNL     1      -4.846   3.890  -1.718  1.00  0.00    -0.460 OA
BRANCH  30  31
ATOM     31  C   UNL     1      -4.705   5.236  -1.625  1.00  0.00     0.338 C 
ATOM     32  O   UNL     1      -4.989   6.056  -2.484  1.00  0.00    -0.246 OA
BRANCH  31  33
ATOM     33  C   UNL     1      -4.372   5.635  -0.240  1.00  0.00     0.060 A 
ATOM     34  C   UNL     1      -5.223   6.559   0.376  1.00  0.00     0.016 A 
ATOM     35  C   UNL     1      -3.227   5.196   0.421  1.00  0.00     0.016 A 
ATOM     36  C   UNL     1      -4.884   7.108   1.612  1.00  0.00     0.010 A 
ATOM     37  C   UNL     1      -2.907   5.718   1.683  1.00  0.00     0.010 A 
ATOM     38  C   UNL     1      -3.696   6.731   2.254  1.00  0.00    -0.014 A 
BRANCH  38  39
ATOM     39  C   UNL     1      -3.214   7.535   3.413  1.00  0.00     0.031 A 
ATOM     40  C   UNL     1      -2.022   8.447   3.236  1.00  0.00     0.074 A 
ATOM     41  C   UNL     1      -3.866   7.518   4.591  1.00  0.00     0.049 A 
ATOM     42  N   UNL     1      -1.501   9.302   4.080  1.00  0.00    -0.248 NA
ATOM     43  C   UNL     1      -1.322   8.388   1.942  1.00  0.00     0.031 C 
ATOM     44  C   UNL     1      -5.018   6.673   4.907  1.00  0.00     0.029 A 
ATOM     45  N   UNL     1      -3.650   8.233   5.744  1.00  0.00    -0.354 N 
ATOM     46  C   UNL     1      -0.403   9.857   3.432  1.00  0.00     0.074 A 
ATOM     47  C   UNL     1      -0.311   9.222   2.137  1.00  0.00     0.031 C 
ATOM     48  C   UNL     1      -5.407   6.919   6.170  1.00  0.00     0.029 A 
ATOM     49  C   UNL     1      -4.523   7.923   6.760  1.00  0.00     0.049 A 
ATOM     50  H   UNL     1      -2.935   8.904   5.835  1.00  0.00     0.167 HD
ATOM     51  C   UNL     1       0.440  10.829   3.857  1.00  0.00     0.034 A 
ATOM     52  C   UNL     1      -4.603   8.392   8.023  1.00  0.00     0.034 A 
ATOM     53  C   UNL     1       0.334  11.491   5.129  1.00  0.00     0.049 A 
ATOM     54  C   UNL     1      -3.657   9.476   8.472  1.00  0.00     0.074 A 
ATOM     55  C   UNL     1       1.101  12.532   5.622  1.00  0.00     0.029 A 
ATOM     56  N   UNL     1      -0.588  11.173   6.113  1.00  0.00    -0.354 N 
ATOM     57  N   UNL     1      -2.712  10.082   7.795  1.00  0.00    -0.248 NA
ATOM     58  C   UNL     1      -3.816   9.972   9.848  1.00  0.00     0.031 C 
ATOM     59  C   UNL     1       0.666  12.819   6.919  1.00  0.00     0.029 A 
ATOM     60  C   UNL     1      -0.400  11.987   7.217  1.00  0.00     0.049 A 
ATOM     61  H   UNL     1      -1.274  10.472   6.038  1.00  0.00     0.167 HD
ATOM     62  C   UNL     1      -2.194  11.054   8.645  1.00  0.00     0.074 A 
ATOM     63  C   UNL     1      -2.942  10.969   9.881  1.00  0.00     0.031 C 
ATOM     64  C   UNL     1      -1.184  11.932   8.424  1.00  0.00     0.034 A 
BRANCH  51  65
ATOM     65  C   UNL     1       1.541  11.262   2.922  1.00  0.00     0.023 A 
ATOM     66  C   UNL     1       1.227  12.002   1.764  1.00  0.00     0.012 A 
ATOM     67  C   UNL     1       2.891  10.990   3.221  1.00  0.00     0.148 A 
ATOM     68  C   UNL     1       2.233  12.433   0.900  1.00  0.00     0.002 A 
ATOM     69  C   UNL     1       3.892  11.464   2.382  1.00  0.00     0.091 A 
ATOM     70  F   UNL     1       3.170  10.268   4.316  1.00  0.00    -0.205 F 
ATOM     71  C   UNL     1       3.565  12.174   1.215  1.00  0.00     0.022 A 
BRANCH  69  72
ATOM     72  S   UNL     1       5.639  11.258   2.744  1.00  0.00     0.127 S 
ATOM     73  O   UNL     1       6.044  10.304   1.712  1.00  0.00    -0.237 OA
ATOM     74  O   UNL     1       6.154  12.614   2.554  1.00  0.00    -0.237 OA
ATOM     75  O   UNL     1       5.712  10.766   4.112  1.00  0.00    -0.744 OA
ENDBRANCH  69  72
ENDBRANCH  51  65
BRANCH  52  76
ATOM     76  C   UNL     1      -5.651   7.868   8.946  1.00  0.00     0.023 A 
ATOM     77  C   UNL     1      -6.708   8.705   9.355  1.00  0.00     0.012 A 
ATOM     78  C   UNL     1      -5.610   6.539   9.409  1.00  0.00     0.148 A 
ATOM     79  C   UNL     1      -7.686   8.237  10.234  1.00  0.00     0.002 A 
ATOM     80  C   UNL     1      -6.620   6.061  10.236  1.00  0.00     0.091 A 
ATOM     81  F   UNL     1      -4.588   5.763   9.022  1.00  0.00    -0.205 F 
ATOM     82  C   UNL     1      -7.649   6.914  10.665  1.00  0.00     0.022 A 
BRANCH  80  83
ATOM     83  S   UNL     1      -6.726   4.337  10.727  1.00  0.00     0.127 S 
ATOM     84  O   UNL     1      -6.429   4.414  12.155  1.00  0.00    -0.237 OA
ATOM     85  O   UNL     1      -8.116   4.016  10.402  1.00  0.00    -0.237 OA
ATOM     86  O   UNL     1      -5.743   3.634   9.914  1.00  0.00    -0.744 OA
ENDBRANCH  80  83
ENDBRANCH  52  76
BRANCH  64  87
ATOM     87  C   UNL     1      -0.849  12.913   9.519  1.00  0.00     0.023 A 
ATOM     88  C   UNL     1      -0.216  12.470  10.697  1.00  0.00     0.012 A 
ATOM     89  C   UNL     1      -1.096  14.290   9.343  1.00  0.00     0.148 A 
ATOM     90  C   UNL     1       0.133  13.377  11.698  1.00  0.00     0.002 A 
ATOM     91  C   UNL     1      -0.699  15.193  10.322  1.00  0.00     0.091 A 
ATOM     92  F   UNL     1      -1.714  14.691   8.223  1.00  0.00    -0.205 F 
ATOM     93  C   UNL     1      -0.098  14.737  11.506  1.00  0.00     0.022 A 
BRANCH  91  94
ATOM     94  S   UNL     1      -0.866  16.970  10.118  1.00  0.00     0.127 S 
ATOM     95  O   UNL     1      -1.945  17.278  11.056  1.00  0.00    -0.237 OA
ATOM     96  O   UNL     1       0.453  17.454  10.527  1.00  0.00    -0.237 OA
ATOM     97  O   UNL     1      -1.180  17.187   8.713  1.00  0.00    -0.744 OA
ENDBRANCH  91  94
ENDBRANCH  64  87
ENDBRANCH  38  39
ENDBRANCH  31  33
ENDBRANCH  30  31
ENDBRANCH  29  30
ENDBRANCH   1  29
TORSDOF 18
