REMARK SMILES CC(=O)N1CCC(C(=O)Nc2sccc2C(=O)OCCOCCOC(=O)c2ccc(-c3c4nc(c(-c5cccc(S(=O)(=O)[O-])c5F)c5ccc([nH]5)c(-c5cccc(S(=O)(=O)[O-])c5F)c5nc(c(-c6cccc(S(=O)(=O)[O-])c6F)c6ccc3[nH]6)C=C5)C=C4)cc2)CC1
REMARK SMILES IDX 22 1 21 2 20 3 19 4 18 5 16 6 17 7 15 8 11 9 12 10 13 11
REMARK SMILES IDX 14 12 10 13 8 14 9 15 7 17 1 18 2 19 3 20 4 21 5 22 91 23
REMARK SMILES IDX 6 24 90 25 23 26 24 27 25 28 26 29 27 30 28 31 89 32 29 33
REMARK SMILES IDX 88 34 30 35 31 36 32 37 82 38 33 39 87 40 81 41 83 42 34 43
REMARK SMILES IDX 86 44 80 45 79 46 35 48 67 49 47 50 66 51 48 52 51 53 65 54
REMARK SMILES IDX 84 55 49 56 50 57 64 59 85 60 52 61 36 62 37 63 45 64 38 65
REMARK SMILES IDX 40 66 46 67 39 68 41 69 42 70 43 71 44 72 68 73 69 74 77 75
REMARK SMILES IDX 70 76 72 77 78 78 71 79 73 80 74 81 75 82 76 83 53 84 54 85
REMARK SMILES IDX 62 86 55 87 57 88 63 89 56 90 58 91 59 92 60 93 61 94
REMARK H PARENT 10 16 83 47 51 58
REMARK Flexibility Score: inf
ROOT
ATOM      1  C   UNL     1      -3.284   6.011  -1.800  1.00  0.00     0.202 C 
ENDROOT
BRANCH   1   2
ATOM      2  O   UNL     1      -3.837   5.926  -0.495  1.00  0.00    -0.374 OA
BRANCH   2   3
ATOM      3  C   UNL     1      -3.127   6.490   0.596  1.00  0.00     0.202 C 
BRANCH   3   4
ATOM      4  C   UNL     1      -1.737   5.961   0.950  1.00  0.00     0.261 C 
BRANCH   4   5
ATOM      5  O   UNL     1      -0.743   6.004  -0.090  1.00  0.00    -0.460 OA
BRANCH   5   6
ATOM      6  C   UNL     1      -0.422   4.786  -0.622  1.00  0.00     0.341 C 
ATOM      7  O   UNL     1      -1.112   3.776  -0.491  1.00  0.00    -0.246 OA
BRANCH   6   8
ATOM      8  C   UNL     1       0.783   4.781  -1.433  1.00  0.00     0.094 A 
ATOM      9  C   UNL     1       1.942   5.512  -1.248  1.00  0.00     0.110 A 
ATOM     10  S   UNL     1       2.952   5.478  -2.629  1.00  0.00    -0.126 S 
ATOM     11  C   UNL     1       2.036   4.229  -3.345  1.00  0.00     0.068 A 
ATOM     12  C   UNL     1       0.898   3.966  -2.618  1.00  0.00     0.029 A 
BRANCH   9  13
ATOM     13  N   UNL     1       2.462   6.307  -0.259  1.00  0.00    -0.317 N 
ATOM     14  C   UNL     1       2.726   6.051   1.054  1.00  0.00     0.228 C 
ATOM     15  O   UNL     1       3.152   7.002   1.721  1.00  0.00    -0.274 OA
ATOM     16  H   UNL     1       2.684   7.222  -0.548  1.00  0.00     0.170 HD
BRANCH  14  17
ATOM     17  C   UNL     1       2.616   4.682   1.738  1.00  0.00     0.082 C 
ATOM     18  C   UNL     1       1.628   0.050   0.030  1.00  0.00     0.114 C 
ATOM     19  C   UNL     1       0.833   1.069   0.807  1.00  0.00     0.219 C 
ATOM     20  O   UNL     1      -0.396   0.977   0.824  1.00  0.00    -0.275 OA
ATOM     21  N   UNL     1       1.528   2.025   1.532  1.00  0.00    -0.343 N 
ATOM     22  C   UNL     1       0.800   2.937   2.400  1.00  0.00     0.120 C 
ATOM     23  C   UNL     1       2.974   2.192   1.570  1.00  0.00     0.120 C 
ATOM     24  C   UNL     1       1.191   4.397   2.200  1.00  0.00     0.035 C 
ATOM     25  C   UNL     1       3.327   3.551   0.988  1.00  0.00     0.035 C 
ENDBRANCH  14  17
ENDBRANCH   9  13
ENDBRANCH   6   8
ENDBRANCH   5   6
ENDBRANCH   4   5
ENDBRANCH   3   4
ENDBRANCH   2   3
ENDBRANCH   1   2
BRANCH   1  26
ATOM     26  C   UNL     1      -3.044   7.386  -2.440  1.00  0.00     0.261 C 
BRANCH  26  27
ATOM     27  O   UNL     1      -2.327   8.323  -1.623  1.00  0.00    -0.460 OA
BRANCH  27  28
ATOM     28  C   UNL     1      -3.104   9.321  -1.131  1.00  0.00     0.338 C 
ATOM     29  O   UNL     1      -4.303   9.471  -1.308  1.00  0.00    -0.246 OA
BRANCH  28  30
ATOM     30  C   UNL     1      -2.351  10.173  -0.195  1.00  0.00     0.060 A 
ATOM     31  C   UNL     1      -2.880  10.336   1.092  1.00  0.00     0.016 A 
ATOM     32  C   UNL     1      -1.270  10.943  -0.626  1.00  0.00     0.016 A 
ATOM     33  C   UNL     1      -2.390  11.340   1.921  1.00  0.00     0.010 A 
ATOM     34  C   UNL     1      -0.785  11.959   0.205  1.00  0.00     0.010 A 
ATOM     35  C   UNL     1      -1.391  12.201   1.452  1.00  0.00    -0.014 A 
BRANCH  35  36
ATOM     36  C   UNL     1      -1.173  13.481   2.168  1.00  0.00     0.031 A 
ATOM     37  C   UNL     1      -1.884  14.713   1.667  1.00  0.00     0.074 A 
ATOM     38  C   UNL     1      -0.422  13.533   3.281  1.00  0.00     0.049 A 
ATOM     39  N   UNL     1      -1.899  15.921   2.165  1.00  0.00    -0.248 NA
ATOM     40  C   UNL     1      -2.692  14.560   0.444  1.00  0.00     0.031 C 
ATOM     41  C   UNL     1       0.299  12.406   3.869  1.00  0.00     0.029 A 
ATOM     42  N   UNL     1      -0.141  14.587   4.114  1.00  0.00    -0.354 N 
ATOM     43  C   UNL     1      -2.700  16.673   1.312  1.00  0.00     0.074 A 
ATOM     44  C   UNL     1      -3.137  15.793   0.252  1.00  0.00     0.031 C 
ATOM     45  C   UNL     1       0.956  12.832   4.962  1.00  0.00     0.029 A 
ATOM     46  C   UNL     1       0.710  14.262   5.143  1.00  0.00     0.049 A 
ATOM     47  H   UNL     1      -0.512  15.489   3.985  1.00  0.00     0.167 HD
ATOM     48  C   UNL     1      -3.064  17.973   1.415  1.00  0.00     0.034 A 
ATOM     49  C   UNL     1       1.231  15.036   6.116  1.00  0.00     0.034 A 
ATOM     50  C   UNL     1      -2.652  18.840   2.484  1.00  0.00     0.049 A 
ATOM     51  C   UNL     1       0.828  16.487   6.192  1.00  0.00     0.074 A 
ATOM     52  C   UNL     1      -2.986  20.166   2.694  1.00  0.00     0.029 A 
ATOM     53  N   UNL     1      -1.812  18.469   3.522  1.00  0.00    -0.354 N 
ATOM     54  N   UNL     1      -0.020  17.152   5.444  1.00  0.00    -0.248 NA
ATOM     55  C   UNL     1       1.429  17.287   7.270  1.00  0.00     0.031 C 
ATOM     56  C   UNL     1      -2.336  20.601   3.854  1.00  0.00     0.029 A 
ATOM     57  C   UNL     1      -1.610  19.541   4.373  1.00  0.00     0.049 A 
ATOM     58  H   UNL     1      -1.417  17.574   3.636  1.00  0.00     0.167 HD
ATOM     59  C   UNL     1      -0.079  18.434   5.980  1.00  0.00     0.074 A 
ATOM     60  C   UNL     1       0.798  18.445   7.132  1.00  0.00     0.031 C 
ATOM     61  C   UNL     1      -0.778  19.514   5.548  1.00  0.00     0.034 A 
BRANCH  48  62
ATOM     62  C   UNL     1      -3.990  18.524   0.364  1.00  0.00     0.023 A 
ATOM     63  C   UNL     1      -5.354  18.169   0.389  1.00  0.00     0.012 A 
ATOM     64  C   UNL     1      -3.528  19.431  -0.609  1.00  0.00     0.148 A 
ATOM     65  C   UNL     1      -6.240  18.689  -0.554  1.00  0.00     0.002 A 
ATOM     66  C   UNL     1      -4.425  19.974  -1.522  1.00  0.00     0.091 A 
ATOM     67  F   UNL     1      -2.223  19.736  -0.630  1.00  0.00    -0.205 F 
ATOM     68  C   UNL     1      -5.779  19.598  -1.501  1.00  0.00     0.022 A 
BRANCH  66  69
ATOM     69  S   UNL     1      -3.944  21.203  -2.741  1.00  0.00     0.127 S 
ATOM     70  O   UNL     1      -4.043  20.441  -3.985  1.00  0.00    -0.237 OA
ATOM     71  O   UNL     1      -4.976  22.227  -2.571  1.00  0.00    -0.237 OA
ATOM     72  O   UNL     1      -2.600  21.628  -2.375  1.00  0.00    -0.744 OA
ENDBRANCH  66  69
ENDBRANCH  48  62
BRANCH  49  73
ATOM     73  C   UNL     1       2.154  14.449   7.128  1.00  0.00     0.023 A 
ATOM     74  C   UNL     1       1.735  14.334   8.467  1.00  0.00     0.012 A 
ATOM     75  C   UNL     1       3.443  14.008   6.772  1.00  0.00     0.148 A 
ATOM     76  C   UNL     1       2.595  13.823   9.441  1.00  0.00     0.002 A 
ATOM     77  C   UNL     1       4.276  13.450   7.737  1.00  0.00     0.091 A 
ATOM     78  F   UNL     1       3.836  14.148   5.498  1.00  0.00    -0.205 F 
ATOM     79  C   UNL     1       3.860  13.372   9.074  1.00  0.00     0.022 A 
BRANCH  77  80
ATOM     80  S   UNL     1       5.872  12.738   7.324  1.00  0.00     0.127 S 
ATOM     81  O   UNL     1       6.792  13.771   7.794  1.00  0.00    -0.237 OA
ATOM     82  O   UNL     1       5.873  11.507   8.115  1.00  0.00    -0.237 OA
ATOM     83  O   UNL     1       5.839  12.522   5.884  1.00  0.00    -0.744 OA
ENDBRANCH  77  80
ENDBRANCH  49  73
BRANCH  61  84
ATOM     84  C   UNL     1      -0.643  20.792   6.334  1.00  0.00     0.023 A 
ATOM     85  C   UNL     1       0.548  21.538   6.247  1.00  0.00     0.012 A 
ATOM     86  C   UNL     1      -1.717  21.288   7.099  1.00  0.00     0.148 A 
ATOM     87  C   UNL     1       0.682  22.742   6.938  1.00  0.00     0.002 A 
ATOM     88  C   UNL     1      -1.593  22.512   7.747  1.00  0.00     0.091 A 
ATOM     89  F   UNL     1      -2.837  20.555   7.185  1.00  0.00    -0.205 F 
ATOM     90  C   UNL     1      -0.391  23.234   7.677  1.00  0.00     0.022 A 
BRANCH  88  91
ATOM     91  S   UNL     1      -2.957  23.263   8.643  1.00  0.00     0.127 S 
ATOM     92  O   UNL     1      -2.585  22.998  10.031  1.00  0.00    -0.237 OA
ATOM     93  O   UNL     1      -2.860  24.668   8.244  1.00  0.00    -0.237 OA
ATOM     94  O   UNL     1      -4.160  22.588   8.174  1.00  0.00    -0.744 OA
ENDBRANCH  88  91
ENDBRANCH  61  84
ENDBRANCH  35  36
ENDBRANCH  28  30
ENDBRANCH  27  28
ENDBRANCH  26  27
ENDBRANCH   1  26
TORSDOF 19
