REMARK SMILES O=C(C[C@H](C(=O)OCCOCCOC(=O)c1ccc(-c2c3nc(c(-c4cccc(S(=O)(=O)[O-])c4F)c4ccc([nH]4)c(-c4cccc(S(=O)(=O)[O-])c4F)c4nc(c(-c5cccc(S(=O)(=O)[O-])c5F)c5ccc2[nH]5)C=C4)C=C3)cc1)c1ccccc1)Nc1ccc(Cl)cc1Cl
REMARK SMILES IDX 10 1 9 2 8 3 7 4 5 5 6 6 4 7 3 8 2 9 1 10 85 11 86 13 87 14
REMARK SMILES IDX 92 15 88 16 91 17 93 18 89 19 90 20 79 21 80 22 84 23 81 24
REMARK SMILES IDX 83 25 82 26 11 27 12 28 13 29 14 30 15 31 16 32 17 33 78 34
REMARK SMILES IDX 18 35 77 36 19 37 20 38 21 39 71 40 22 41 76 42 70 43 72 44
REMARK SMILES IDX 23 45 75 46 69 47 68 48 24 50 56 51 36 52 55 53 37 54 40 55
REMARK SMILES IDX 54 56 73 57 38 58 39 59 53 61 74 62 41 63 25 64 26 65 34 66
REMARK SMILES IDX 27 67 29 68 35 69 28 70 30 71 31 72 32 73 33 74 57 75 58 76
REMARK SMILES IDX 66 77 59 78 61 79 67 80 60 81 62 82 63 83 64 84 65 85 42 86
REMARK SMILES IDX 43 87 51 88 44 89 46 90 52 91 45 92 47 93 48 94 49 95 50 96
REMARK H PARENT 85 12 72 49 40 60
REMARK Flexibility Score: inf
ROOT
ATOM      1  O   UNL     1       2.527   1.598   2.440  1.00  0.00    -0.374 OA
ENDROOT
BRANCH   1   2
ATOM      2  C   UNL     1       1.298   0.901   2.610  1.00  0.00     0.202 C 
BRANCH   2   3
ATOM      3  C   UNL     1       0.972  -0.266   1.668  1.00  0.00     0.261 C 
BRANCH   3   4
ATOM      4  O   UNL     1       2.049  -1.194   1.458  1.00  0.00    -0.463 OA
BRANCH   4   5
ATOM      5  C   UNL     1       2.729  -1.003   0.295  1.00  0.00     0.314 C 
ATOM      6  O   UNL     1       2.443  -0.121  -0.506  1.00  0.00    -0.252 OA
BRANCH   5   7
ATOM      7  C   UNL     1       3.800  -2.062   0.018  1.00  0.00     0.138 C 
BRANCH   7   8
ATOM      8  C   UNL     1       4.894  -1.535  -0.940  1.00  0.00     0.120 C 
BRANCH   8   9
ATOM      9  C   UNL     1       4.407  -0.801  -2.185  1.00  0.00     0.225 C 
ATOM     10  O   UNL     1       4.838   0.322  -2.429  1.00  0.00    -0.275 OA
ATOM     11  N   UNL     1       3.466  -1.501  -2.921  1.00  0.00    -0.325 N 
ATOM     12  H   UNL     1       3.325  -2.447  -2.687  1.00  0.00     0.169 HD
BRANCH  11  13
ATOM     13  C   UNL     1       2.690  -0.973  -3.980  1.00  0.00     0.060 A 
ATOM     14  C   UNL     1       1.347  -1.391  -3.989  1.00  0.00     0.029 A 
ATOM     15  C   UNL     1       3.125  -0.093  -4.986  1.00  0.00     0.066 A 
ATOM     16  C   UNL     1       0.440  -0.891  -4.926  1.00  0.00     0.023 A 
ATOM     17  C   UNL     1       2.209   0.415  -5.919  1.00  0.00     0.043 A 
ATOM     18  Cl  UNL     1       4.790   0.256  -5.307  1.00  0.00    -0.082 Cl
ATOM     19  C   UNL     1       0.874   0.022  -5.878  1.00  0.00     0.042 A 
ATOM     20  Cl  UNL     1      -0.236   0.640  -7.039  1.00  0.00    -0.084 Cl
ENDBRANCH  11  13
ENDBRANCH   8   9
ENDBRANCH   7   8
BRANCH   7  21
ATOM     21  C   UNL     1       4.428  -2.722   1.249  1.00  0.00    -0.033 A 
ATOM     22  C   UNL     1       4.014  -4.009   1.632  1.00  0.00     0.004 A 
ATOM     23  C   UNL     1       5.433  -2.101   2.010  1.00  0.00     0.004 A 
ATOM     24  C   UNL     1       4.589  -4.651   2.732  1.00  0.00     0.000 A 
ATOM     25  C   UNL     1       5.996  -2.738   3.120  1.00  0.00     0.000 A 
ATOM     26  C   UNL     1       5.577  -4.015   3.479  1.00  0.00     0.000 A 
ENDBRANCH   7  21
ENDBRANCH   5   7
ENDBRANCH   4   5
ENDBRANCH   3   4
ENDBRANCH   2   3
ENDBRANCH   1   2
BRANCH   1  27
ATOM     27  C   UNL     1       3.725   0.931   2.834  1.00  0.00     0.202 C 
BRANCH  27  28
ATOM     28  C   UNL     1       3.913   0.607   4.320  1.00  0.00     0.261 C 
BRANCH  28  29
ATOM     29  O   UNL     1       2.983  -0.391   4.777  1.00  0.00    -0.460 OA
BRANCH  29  30
ATOM     30  C   UNL     1       2.214  -0.017   5.825  1.00  0.00     0.338 C 
ATOM     31  O   UNL     1       2.304   1.018   6.476  1.00  0.00    -0.246 OA
BRANCH  30  32
ATOM     32  C   UNL     1       1.074  -0.937   5.964  1.00  0.00     0.060 A 
ATOM     33  C   UNL     1      -0.214  -0.396   5.841  1.00  0.00     0.016 A 
ATOM     34  C   UNL     1       1.253  -2.285   6.277  1.00  0.00     0.016 A 
ATOM     35  C   UNL     1      -1.331  -1.194   6.070  1.00  0.00     0.010 A 
ATOM     36  C   UNL     1       0.129  -3.081   6.521  1.00  0.00     0.010 A 
ATOM     37  C   UNL     1      -1.164  -2.531   6.450  1.00  0.00    -0.014 A 
BRANCH  37  38
ATOM     38  C   UNL     1      -2.341  -3.317   6.889  1.00  0.00     0.031 A 
ATOM     39  C   UNL     1      -2.599  -3.494   8.358  1.00  0.00     0.074 A 
ATOM     40  C   UNL     1      -3.168  -3.869   5.984  1.00  0.00     0.049 A 
ATOM     41  N   UNL     1      -3.547  -4.165   8.957  1.00  0.00    -0.248 NA
ATOM     42  C   UNL     1      -1.660  -2.827   9.275  1.00  0.00     0.031 C 
ATOM     43  C   UNL     1      -3.017  -3.766   4.534  1.00  0.00     0.029 A 
ATOM     44  N   UNL     1      -4.279  -4.656   6.154  1.00  0.00    -0.354 N 
ATOM     45  C   UNL     1      -3.306  -4.028  10.318  1.00  0.00     0.074 A 
ATOM     46  C   UNL     1      -2.115  -3.217  10.457  1.00  0.00     0.031 C 
ATOM     47  C   UNL     1      -3.976  -4.500   3.944  1.00  0.00     0.029 A 
ATOM     48  C   UNL     1      -4.789  -5.143   4.975  1.00  0.00     0.049 A 
ATOM     49  H   UNL     1      -4.673  -4.852   7.035  1.00  0.00     0.167 HD
ATOM     50  C   UNL     1      -4.019  -4.522  11.358  1.00  0.00     0.034 A 
ATOM     51  C   UNL     1      -5.777  -6.033   4.753  1.00  0.00     0.034 A 
ATOM     52  C   UNL     1      -5.208  -5.317  11.214  1.00  0.00     0.049 A 
ATOM     53  C   UNL     1      -6.542  -6.590   5.925  1.00  0.00     0.074 A 
ATOM     54  C   UNL     1      -6.038  -5.812  12.204  1.00  0.00     0.029 A 
ATOM     55  N   UNL     1      -5.725  -5.754  10.003  1.00  0.00    -0.354 N 
ATOM     56  N   UNL     1      -6.388  -6.341   7.203  1.00  0.00    -0.248 NA
ATOM     57  C   UNL     1      -7.635  -7.526   5.624  1.00  0.00     0.031 C 
ATOM     58  C   UNL     1      -7.038  -6.577  11.593  1.00  0.00     0.029 A 
ATOM     59  C   UNL     1      -6.848  -6.533  10.220  1.00  0.00     0.049 A 
ATOM     60  H   UNL     1      -5.348  -5.541   9.119  1.00  0.00     0.167 HD
ATOM     61  C   UNL     1      -7.377  -7.067   7.857  1.00  0.00     0.074 A 
ATOM     62  C   UNL     1      -8.141  -7.748   6.831  1.00  0.00     0.031 C 
ATOM     63  C   UNL     1      -7.623  -7.173   9.187  1.00  0.00     0.034 A 
BRANCH  50  64
ATOM     64  C   UNL     1      -3.535  -4.202  12.748  1.00  0.00     0.023 A 
ATOM     65  C   UNL     1      -3.678  -2.894  13.255  1.00  0.00     0.012 A 
ATOM     66  C   UNL     1      -2.974  -5.202  13.566  1.00  0.00     0.148 A 
ATOM     67  C   UNL     1      -3.237  -2.578  14.540  1.00  0.00     0.002 A 
ATOM     68  C   UNL     1      -2.577  -4.890  14.861  1.00  0.00     0.091 A 
ATOM     69  F   UNL     1      -2.822  -6.433  13.057  1.00  0.00    -0.205 F 
ATOM     70  C   UNL     1      -2.696  -3.577  15.345  1.00  0.00     0.022 A 
BRANCH  68  71
ATOM     71  S   UNL     1      -1.937  -6.125  15.997  1.00  0.00     0.127 S 
ATOM     72  O   UNL     1      -0.514  -5.791  16.025  1.00  0.00    -0.237 OA
ATOM     73  O   UNL     1      -2.661  -5.816  17.230  1.00  0.00    -0.237 OA
ATOM     74  O   UNL     1      -2.267  -7.417  15.410  1.00  0.00    -0.744 OA
ENDBRANCH  68  71
ENDBRANCH  50  64
BRANCH  51  75
ATOM     75  C   UNL     1      -6.098  -6.438   3.356  1.00  0.00     0.023 A 
ATOM     76  C   UNL     1      -7.308  -6.026   2.766  1.00  0.00     0.012 A 
ATOM     77  C   UNL     1      -5.182  -7.189   2.593  1.00  0.00     0.148 A 
ATOM     78  C   UNL     1      -7.608  -6.372   1.448  1.00  0.00     0.002 A 
ATOM     79  C   UNL     1      -5.460  -7.478   1.263  1.00  0.00     0.091 A 
ATOM     80  F   UNL     1      -4.043  -7.586   3.179  1.00  0.00    -0.205 F 
ATOM     81  C   UNL     1      -6.680  -7.086   0.693  1.00  0.00     0.022 A 
BRANCH  79  82
ATOM     82  S   UNL     1      -4.260  -8.261   0.178  1.00  0.00     0.127 S 
ATOM     83  O   UNL     1      -4.872  -9.566  -0.054  1.00  0.00    -0.237 OA
ATOM     84  O   UNL     1      -4.267  -7.361  -0.976  1.00  0.00    -0.237 OA
ATOM     85  O   UNL     1      -3.006  -8.272   0.918  1.00  0.00    -0.744 OA
ENDBRANCH  79  82
ENDBRANCH  51  75
BRANCH  63  86
ATOM     86  C   UNL     1      -8.774  -8.045   9.621  1.00  0.00     0.023 A 
ATOM     87  C   UNL     1      -8.656  -9.447   9.545  1.00  0.00     0.012 A 
ATOM     88  C   UNL     1      -9.935  -7.478  10.183  1.00  0.00     0.148 A 
ATOM     89  C   UNL     1      -9.686 -10.270   9.998  1.00  0.00     0.002 A 
ATOM     90  C   UNL     1     -10.937  -8.306  10.676  1.00  0.00     0.091 A 
ATOM     91  F   UNL     1     -10.035  -6.141  10.231  1.00  0.00    -0.205 F 
ATOM     92  C   UNL     1     -10.819  -9.701  10.574  1.00  0.00     0.022 A 
BRANCH  90  93
ATOM     93  S   UNL     1     -12.390  -7.668  11.519  1.00  0.00     0.127 S 
ATOM     94  O   UNL     1     -13.445  -7.946  10.545  1.00  0.00    -0.237 OA
ATOM     95  O   UNL     1     -12.438  -8.496  12.724  1.00  0.00    -0.237 OA
ATOM     96  O   UNL     1     -12.125  -6.257  11.765  1.00  0.00    -0.744 OA
ENDBRANCH  90  93
ENDBRANCH  63  86
ENDBRANCH  37  38
ENDBRANCH  30  32
ENDBRANCH  29  30
ENDBRANCH  28  29
ENDBRANCH  27  28
ENDBRANCH   1  27
TORSDOF 21
