REMARK SMILES O=C(N[C@@H](Cc1c[nH]c2ccccc12)C(=O)N[C@@H](CO)C(=O)OCCOCCOC(=O)c1ccc(-c2c3nc(c(-c4cccc(S(=O)(=O)[O-])c4F)c4ccc([nH]4)c(-c4cccc(S(=O)(=O)[O-])c4F)c4nc(c(-c5cccc(S(=O)(=O)[O-])c5F)c5ccc2[nH]5)C=C4)C=C3)cc1)c1ccc(F)cc1
REMARK SMILES IDX 25 1 24 2 23 3 21 4 22 5 18 6 17 7 15 8 16 9 4 11 3 12 1 13
REMARK SMILES IDX 2 14 95 16 96 17 101 18 97 19 100 20 98 21 99 22 5 23 6 24
REMARK SMILES IDX 7 25 14 26 8 27 9 28 13 29 10 31 12 32 11 33 19 34 20 35
REMARK SMILES IDX 26 37 27 38 28 39 29 40 30 41 31 42 32 43 33 44 94 45 34 46
REMARK SMILES IDX 93 47 35 48 36 49 37 50 87 51 38 52 92 53 86 54 88 55 39 56
REMARK SMILES IDX 91 57 85 58 84 59 40 61 72 62 52 63 71 64 53 65 56 66 70 67
REMARK SMILES IDX 89 68 54 69 55 70 69 72 90 73 57 74 41 75 42 76 50 77 43 78
REMARK SMILES IDX 45 79 51 80 44 81 46 82 47 83 48 84 49 85 73 86 74 87 82 88
REMARK SMILES IDX 75 89 77 90 83 91 76 92 78 93 79 94 80 95 81 96 58 97 59 98
REMARK SMILES IDX 67 99 60 100 62 101 68 102 61 103 63 104 64 105 65 106
REMARK SMILES IDX 66 107
REMARK H PARENT 17 10 3 15 8 30 20 36 88 60 56 71
REMARK Flexibility Score: inf
ROOT
ATOM      1  C   UNL     1       7.248  -1.494  -7.710  1.00  0.00     0.202 C 
ENDROOT
BRANCH   1   2
ATOM      2  C   UNL     1       5.866  -0.835  -7.856  1.00  0.00     0.261 C 
BRANCH   2   3
ATOM      3  O   UNL     1       5.367  -0.202  -6.650  1.00  0.00    -0.462 OA
BRANCH   3   4
ATOM      4  C   UNL     1       3.925  -0.310  -6.306  1.00  0.00     0.331 C 
ATOM      5  O   UNL     1       3.452  -1.026  -7.236  1.00  0.00    -0.250 OA
BRANCH   4   6
ATOM      6  C   UNL     1       2.973   0.647  -4.557  1.00  0.00     0.218 C 
BRANCH   6   7
ATOM      7  N   UNL     1       3.673   1.521  -3.223  1.00  0.00    -0.339 N 
ATOM      8  C   UNL     1       4.294   1.193  -2.048  1.00  0.00     0.243 C 
ATOM      9  O   UNL     1       4.958   2.097  -1.520  1.00  0.00    -0.273 OA
ATOM     10  H   UNL     1       3.605   2.496  -3.345  1.00  0.00     0.164 HD
BRANCH   8  11
ATOM     11  C   UNL     1       4.234  -0.188  -1.340  1.00  0.00     0.176 C 
BRANCH  11  12
ATOM     12  N   UNL     1       2.830  -0.433  -0.998  1.00  0.00    -0.340 N 
ATOM     13  O   UNL     1       0.951  -0.365   0.239  1.00  0.00    -0.269 OA
ATOM     14  C   UNL     1       2.173  -0.247   0.192  1.00  0.00     0.251 C 
ATOM     15  H   UNL     1       2.275  -0.783  -1.732  1.00  0.00     0.164 HD
BRANCH  14  16
ATOM     16  C   UNL     1       2.927  -0.044   1.453  1.00  0.00     0.040 A 
ATOM     17  C   UNL     1       3.873   0.972   1.632  1.00  0.00     0.017 A 
ATOM     18  C   UNL     1       2.667  -0.945   2.494  1.00  0.00     0.017 A 
ATOM     19  C   UNL     1       4.637   1.012   2.802  1.00  0.00     0.040 A 
ATOM     20  C   UNL     1       3.411  -0.886   3.672  1.00  0.00     0.040 A 
ATOM     21  C   UNL     1       4.406   0.076   3.805  1.00  0.00     0.123 A 
ATOM     22  F   UNL     1       5.152   0.100   4.917  1.00  0.00    -0.207 F 
ENDBRANCH  14  16
ENDBRANCH  11  12
BRANCH  11  23
ATOM     23  C   UNL     1       4.988  -1.390  -1.964  1.00  0.00     0.072 C 
BRANCH  23  24
ATOM     24  C   UNL     1       4.371  -1.827  -3.236  1.00  0.00    -0.020 A 
ATOM     25  C   UNL     1       3.555  -2.928  -3.470  1.00  0.00     0.087 A 
ATOM     26  C   UNL     1       4.306  -0.977  -4.355  1.00  0.00     0.003 A 
ATOM     27  N   UNL     1       2.689  -2.754  -4.545  1.00  0.00    -0.361 N 
ATOM     28  C   UNL     1       2.771  -1.470  -5.013  1.00  0.00     0.046 A 
ATOM     29  C   UNL     1       5.019   0.633  -4.782  1.00  0.00     0.010 A 
ATOM     30  H   UNL     1       2.103  -3.453  -4.916  1.00  0.00     0.166 HD
ATOM     31  C   UNL     1       1.836  -0.352  -6.058  1.00  0.00     0.026 A 
ATOM     32  C   UNL     1       4.135   1.726  -5.913  1.00  0.00     0.001 A 
ATOM     33  C   UNL     1       2.577   1.214  -6.571  1.00  0.00     0.002 A 
ENDBRANCH  23  24
ENDBRANCH  11  23
ENDBRANCH   8  11
ENDBRANCH   6   7
BRANCH   6  34
ATOM     34  C   UNL     1       1.483   1.571  -4.407  1.00  0.00     0.193 C 
BRANCH  34  35
ATOM     35  O   UNL     1       1.538   2.941  -4.797  1.00  0.00    -0.394 OA
ATOM     36  H   UNL     1       2.148   3.419  -4.213  1.00  0.00     0.210 HD
ENDBRANCH  34  35
ENDBRANCH   6  34
ENDBRANCH   4   6
ENDBRANCH   3   4
ENDBRANCH   2   3
ENDBRANCH   1   2
BRANCH   1  37
ATOM     37  O   UNL     1       7.469  -2.460  -6.687  1.00  0.00    -0.374 OA
BRANCH  37  38
ATOM     38  C   UNL     1       7.384  -2.004  -5.343  1.00  0.00     0.202 C 
BRANCH  38  39
ATOM     39  C   UNL     1       8.412  -0.983  -4.830  1.00  0.00     0.261 C 
BRANCH  39  40
ATOM     40  O   UNL     1       8.355   0.279  -5.518  1.00  0.00    -0.460 OA
BRANCH  40  41
ATOM     41  C   UNL     1       9.463   0.587  -6.236  1.00  0.00     0.338 C 
ATOM     42  O   UNL     1      10.504  -0.044  -6.297  1.00  0.00    -0.246 OA
BRANCH  41  43
ATOM     43  C   UNL     1       9.166   1.715  -7.135  1.00  0.00     0.060 A 
ATOM     44  C   UNL     1       9.181   1.472  -8.517  1.00  0.00     0.016 A 
ATOM     45  C   UNL     1       8.982   3.004  -6.638  1.00  0.00     0.016 A 
ATOM     46  C   UNL     1       9.038   2.523  -9.414  1.00  0.00     0.010 A 
ATOM     47  C   UNL     1       8.875   4.065  -7.539  1.00  0.00     0.010 A 
ATOM     48  C   UNL     1       8.942   3.829  -8.925  1.00  0.00    -0.014 A 
BRANCH  48  49
ATOM     49  C   UNL     1       9.149   4.960  -9.853  1.00  0.00     0.031 A 
ATOM     50  C   UNL     1      10.534   5.534  -9.962  1.00  0.00     0.074 A 
ATOM     51  C   UNL     1       8.130   5.463 -10.568  1.00  0.00     0.049 A 
ATOM     52  N   UNL     1      10.943   6.591 -10.607  1.00  0.00    -0.248 NA
ATOM     53  C   UNL     1      11.600   4.817  -9.239  1.00  0.00     0.031 C 
ATOM     54  C   UNL     1       6.763   4.947 -10.570  1.00  0.00     0.029 A 
ATOM     55  N   UNL     1       8.086   6.548 -11.406  1.00  0.00    -0.354 N 
ATOM     56  C   UNL     1      12.303   6.692 -10.336  1.00  0.00     0.074 A 
ATOM     57  C   UNL     1      12.652   5.587  -9.474  1.00  0.00     0.031 C 
ATOM     58  C   UNL     1       5.999   5.746 -11.333  1.00  0.00     0.029 A 
ATOM     59  C   UNL     1       6.817   6.846 -11.841  1.00  0.00     0.049 A 
ATOM     60  H   UNL     1       8.884   7.061 -11.670  1.00  0.00     0.167 HD
ATOM     61  C   UNL     1      13.179   7.626 -10.771  1.00  0.00     0.034 A 
ATOM     62  C   UNL     1       6.368   7.913 -12.532  1.00  0.00     0.034 A 
ATOM     63  C   UNL     1      12.817   8.713 -11.636  1.00  0.00     0.049 A 
ATOM     64  C   UNL     1       7.356   8.964 -12.969  1.00  0.00     0.074 A 
ATOM     65  C   UNL     1      13.627   9.703 -12.159  1.00  0.00     0.029 A 
ATOM     66  N   UNL     1      11.531   8.958 -12.095  1.00  0.00    -0.354 N 
ATOM     67  N   UNL     1       8.652   9.010 -12.772  1.00  0.00    -0.248 NA
ATOM     68  C   UNL     1       6.828  10.095 -13.745  1.00  0.00     0.031 C 
ATOM     69  C   UNL     1      12.824  10.566 -12.911  1.00  0.00     0.029 A 
ATOM     70  C   UNL     1      11.522  10.089 -12.889  1.00  0.00     0.049 A 
ATOM     71  H   UNL     1      10.742   8.408 -11.885  1.00  0.00     0.167 HD
ATOM     72  C   UNL     1       9.101  10.143 -13.441  1.00  0.00     0.074 A 
ATOM     73  C   UNL     1       7.938  10.755 -14.049  1.00  0.00     0.031 C 
ATOM     74  C   UNL     1      10.360  10.637 -13.540  1.00  0.00     0.034 A 
BRANCH  61  75
ATOM     75  C   UNL     1      14.609   7.512 -10.315  1.00  0.00     0.023 A 
ATOM     76  C   UNL     1      15.434   6.494 -10.834  1.00  0.00     0.012 A 
ATOM     77  C   UNL     1      15.148   8.442  -9.405  1.00  0.00     0.148 A 
ATOM     78  C   UNL     1      16.764   6.385 -10.431  1.00  0.00     0.002 A 
ATOM     79  C   UNL     1      16.486   8.355  -9.043  1.00  0.00     0.091 A 
ATOM     80  F   UNL     1      14.339   9.386  -8.903  1.00  0.00    -0.205 F 
ATOM     81  C   UNL     1      17.293   7.321  -9.545  1.00  0.00     0.022 A 
BRANCH  79  82
ATOM     82  S   UNL     1      17.278   9.558  -7.971  1.00  0.00     0.127 S 
ATOM     83  O   UNL     1      17.505   8.770  -6.760  1.00  0.00    -0.237 OA
ATOM     84  O   UNL     1      18.491   9.886  -8.720  1.00  0.00    -0.237 OA
ATOM     85  O   UNL     1      16.334  10.658  -7.832  1.00  0.00    -0.744 OA
ENDBRANCH  79  82
ENDBRANCH  61  75
BRANCH  62  86
ATOM     86  C   UNL     1       4.920   8.031 -12.861  1.00  0.00     0.023 A 
ATOM     87  C   UNL     1       4.497   7.914 -14.199  1.00  0.00     0.012 A 
ATOM     88  C   UNL     1       3.958   8.235 -11.853  1.00  0.00     0.148 A 
ATOM     89  C   UNL     1       3.146   8.027 -14.530  1.00  0.00     0.002 A 
ATOM     90  C   UNL     1       2.609   8.291 -12.183  1.00  0.00     0.091 A 
ATOM     91  F   UNL     1       4.381   8.360 -10.587  1.00  0.00    -0.205 F 
ATOM     92  C   UNL     1       2.202   8.205 -13.523  1.00  0.00     0.022 A 
BRANCH  90  93
ATOM     93  S   UNL     1       1.317   8.387 -10.938  1.00  0.00     0.127 S 
ATOM     94  O   UNL     1       0.811   9.743 -11.137  1.00  0.00    -0.237 OA
ATOM     95  O   UNL     1       0.409   7.321 -11.365  1.00  0.00    -0.237 OA
ATOM     96  O   UNL     1       1.978   8.137  -9.665  1.00  0.00    -0.744 OA
ENDBRANCH  90  93
ENDBRANCH  62  86
BRANCH  74  97
ATOM     97  C   UNL     1      10.576  11.857 -14.394  1.00  0.00     0.023 A 
ATOM     98  C   UNL     1      10.182  13.126 -13.930  1.00  0.00     0.012 A 
ATOM     99  C   UNL     1      11.284  11.749 -15.608  1.00  0.00     0.148 A 
ATOM    100  C   UNL     1      10.473  14.270 -14.672  1.00  0.00     0.002 A 
ATOM    101  C   UNL     1      11.616  12.896 -16.316  1.00  0.00     0.091 A 
ATOM    102  F   UNL     1      11.634  10.527 -16.036  1.00  0.00    -0.205 F 
ATOM    103  C   UNL     1      11.202  14.156 -15.855  1.00  0.00     0.022 A 
BRANCH 101 104
ATOM    104  S   UNL     1      12.642  12.856 -17.789  1.00  0.00     0.127 S 
ATOM    105  O   UNL     1      11.683  13.229 -18.829  1.00  0.00    -0.237 OA
ATOM    106  O   UNL     1      13.648  13.876 -17.492  1.00  0.00    -0.237 OA
ATOM    107  O   UNL     1      13.163  11.499 -17.883  1.00  0.00    -0.744 OA
ENDBRANCH 101 104
ENDBRANCH  74  97
ENDBRANCH  48  49
ENDBRANCH  41  43
ENDBRANCH  40  41
ENDBRANCH  39  40
ENDBRANCH  38  39
ENDBRANCH  37  38
ENDBRANCH   1  37
TORSDOF 25
