REMARK SMILES CC(C)[C@@H](CNC(=O)[C@@H]1CC[C@@H]2CCCC[C@@H]2[NH2+]1)C(=O)OCCOCCOC(=O)c1ccc(-c2c3nc(c(-c4cccc(S(=O)(=O)[O-])c4F)c4ccc([nH]4)c(-c4cccc(S(=O)(=O)[O-])c4F)c4nc(c(-c5cccc(S(=O)(=O)[O-])c5F)c5ccc2[nH]5)C=C4)C=C3)cc1
REMARK SMILES IDX 24 1 23 2 22 3 21 4 19 5 20 6 4 7 2 8 1 9 3 10 5 11 6 12
REMARK SMILES IDX 7 13 8 15 9 16 10 17 18 18 11 19 17 20 12 23 16 24 13 25
REMARK SMILES IDX 15 26 14 27 25 28 26 29 27 30 28 31 29 32 30 33 31 34 92 35
REMARK SMILES IDX 32 36 91 37 33 38 34 39 35 40 85 41 36 42 90 43 84 44 86 45
REMARK SMILES IDX 37 46 89 47 83 48 82 49 38 51 70 52 50 53 69 54 51 55 54 56
REMARK SMILES IDX 68 57 87 58 52 59 53 60 67 62 88 63 55 64 39 65 40 66 48 67
REMARK SMILES IDX 41 68 43 69 49 70 42 71 44 72 45 73 46 74 47 75 71 76 72 77
REMARK SMILES IDX 80 78 73 79 75 80 81 81 74 82 76 83 77 84 78 85 79 86 56 87
REMARK SMILES IDX 57 88 65 89 58 90 60 91 66 92 59 93 61 94 62 95 63 96 64 97
REMARK H PARENT 6 14 18 21 18 22 86 50 54 61
REMARK Flexibility Score: inf
ROOT
ATOM      1  O   UNL     1      -1.649   5.689  -0.032  1.00  0.00    -0.374 OA
ENDROOT
BRANCH   1   2
ATOM      2  C   UNL     1      -1.764   5.632   1.381  1.00  0.00     0.202 C 
BRANCH   2   3
ATOM      3  C   UNL     1      -2.047   4.270   2.019  1.00  0.00     0.261 C 
BRANCH   3   4
ATOM      4  O   UNL     1      -1.239   3.152   1.605  1.00  0.00    -0.463 OA
BRANCH   4   5
ATOM      5  C   UNL     1      -1.861   2.283   0.766  1.00  0.00     0.311 C 
ATOM      6  O   UNL     1      -2.941   2.497   0.220  1.00  0.00    -0.252 OA
BRANCH   5   7
ATOM      7  C   UNL     1      -1.161   0.943   0.599  1.00  0.00     0.121 C 
BRANCH   7   8
ATOM      8  C   UNL     1       0.380   0.876   0.795  1.00  0.00    -0.001 C 
ATOM      9  C   UNL     1       0.918  -0.515   0.420  1.00  0.00     0.008 C 
ATOM     10  C   UNL     1       1.135   1.905  -0.052  1.00  0.00     0.008 C 
ENDBRANCH   7   8
BRANCH   7  11
ATOM     11  C   UNL     1      -1.956  -0.091   1.426  1.00  0.00     0.131 C 
BRANCH  11  12
ATOM     12  N   UNL     1      -1.608  -0.109   2.835  1.00  0.00    -0.350 N 
ATOM     13  C   UNL     1      -2.363  -0.314   3.942  1.00  0.00     0.278 C 
ATOM     14  H   UNL     1      -0.655   0.056   3.019  1.00  0.00     0.163 HD
ATOM     15  O   UNL     1      -1.763  -0.859   4.879  1.00  0.00    -0.268 OA
BRANCH  13  16
ATOM     16  C   UNL     1      -3.881   0.006   4.062  1.00  0.00     0.272 C 
ATOM     17  C   UNL     1      -4.468   1.216   3.334  1.00  0.00     0.076 C 
ATOM     18  N   UNL     1      -4.262   0.052   5.505  1.00  0.00    -0.333 N 
ATOM     19  C   UNL     1      -4.165   2.539   4.016  1.00  0.00     0.016 C 
ATOM     20  C   UNL     1      -3.990   1.328   6.205  1.00  0.00     0.186 C 
ATOM     21  H   UNL     1      -3.747  -0.685   5.988  1.00  0.00     0.347 HD
ATOM     22  H   UNL     1      -5.275  -0.065   5.527  1.00  0.00     0.347 HD
ATOM     23  C   UNL     1      -4.629   2.518   5.470  1.00  0.00     0.048 C 
ATOM     24  C   UNL     1      -2.500   1.567   6.505  1.00  0.00     0.065 C 
ATOM     25  C   UNL     1      -4.332   3.853   6.173  1.00  0.00     0.010 C 
ATOM     26  C   UNL     1      -2.240   2.902   7.193  1.00  0.00     0.006 C 
ATOM     27  C   UNL     1      -2.845   4.075   6.433  1.00  0.00     0.001 C 
ENDBRANCH  13  16
ENDBRANCH  11  12
ENDBRANCH   7  11
ENDBRANCH   5   7
ENDBRANCH   4   5
ENDBRANCH   3   4
ENDBRANCH   2   3
ENDBRANCH   1   2
BRANCH   1  28
ATOM     28  C   UNL     1      -0.452   5.159  -0.599  1.00  0.00     0.202 C 
BRANCH  28  29
ATOM     29  C   UNL     1       0.864   5.807  -0.147  1.00  0.00     0.261 C 
BRANCH  29  30
ATOM     30  O   UNL     1       1.200   5.481   1.221  1.00  0.00    -0.460 OA
BRANCH  30  31
ATOM     31  C   UNL     1       1.597   6.543   1.965  1.00  0.00     0.338 C 
ATOM     32  O   UNL     1       1.761   7.689   1.568  1.00  0.00    -0.246 OA
BRANCH  31  33
ATOM     33  C   UNL     1       1.677   6.210   3.400  1.00  0.00     0.060 A 
ATOM     34  C   UNL     1       0.857   6.931   4.279  1.00  0.00     0.016 A 
ATOM     35  C   UNL     1       2.676   5.370   3.896  1.00  0.00     0.016 A 
ATOM     36  C   UNL     1       1.090   6.881   5.654  1.00  0.00     0.010 A 
ATOM     37  C   UNL     1       2.908   5.323   5.279  1.00  0.00     0.010 A 
ATOM     38  C   UNL     1       2.156   6.124   6.159  1.00  0.00    -0.014 A 
BRANCH  38  39
ATOM     39  C   UNL     1       2.584   6.317   7.572  1.00  0.00     0.031 A 
ATOM     40  C   UNL     1       3.757   7.210   7.873  1.00  0.00     0.074 A 
ATOM     41  C   UNL     1       1.927   5.729   8.589  1.00  0.00     0.049 A 
ATOM     42  N   UNL     1       4.268   7.539   9.031  1.00  0.00    -0.248 NA
ATOM     43  C   UNL     1       4.445   7.812   6.719  1.00  0.00     0.031 C 
ATOM     44  C   UNL     1       0.784   4.840   8.435  1.00  0.00     0.029 A 
ATOM     45  N   UNL     1       2.139   5.773   9.945  1.00  0.00    -0.354 N 
ATOM     46  C   UNL     1       5.347   8.366   8.749  1.00  0.00     0.074 A 
ATOM     47  C   UNL     1       5.428   8.478   7.308  1.00  0.00     0.031 C 
ATOM     48  C   UNL     1       0.408   4.392   9.645  1.00  0.00     0.029 A 
ATOM     49  C   UNL     1       1.289   4.963  10.662  1.00  0.00     0.049 A 
ATOM     50  H   UNL     1       2.832   6.332  10.364  1.00  0.00     0.167 HD
ATOM     51  C   UNL     1       6.181   8.997   9.609  1.00  0.00     0.034 A 
ATOM     52  C   UNL     1       1.232   4.703  11.984  1.00  0.00     0.034 A 
ATOM     53  C   UNL     1       6.085   8.921  11.041  1.00  0.00     0.049 A 
ATOM     54  C   UNL     1       2.174   5.416  12.918  1.00  0.00     0.074 A 
ATOM     55  C   UNL     1       6.848   9.581  11.989  1.00  0.00     0.029 A 
ATOM     56  N   UNL     1       5.180   8.133  11.734  1.00  0.00    -0.354 N 
ATOM     57  N   UNL     1       3.089   6.313  12.641  1.00  0.00    -0.248 NA
ATOM     58  C   UNL     1       2.049   5.114  14.353  1.00  0.00     0.031 C 
ATOM     59  C   UNL     1       6.413   9.180  13.257  1.00  0.00     0.029 A 
ATOM     60  C   UNL     1       5.372   8.280  13.098  1.00  0.00     0.049 A 
ATOM     61  H   UNL     1       4.501   7.555  11.318  1.00  0.00     0.167 HD
ATOM     62  C   UNL     1       3.623   6.705  13.863  1.00  0.00     0.074 A 
ATOM     63  C   UNL     1       2.916   5.964  14.886  1.00  0.00     0.031 C 
ATOM     64  C   UNL     1       4.623   7.586  14.113  1.00  0.00     0.034 A 
BRANCH  51  65
ATOM     65  C   UNL     1       7.252   9.872   9.019  1.00  0.00     0.023 A 
ATOM     66  C   UNL     1       6.907  11.140   8.510  1.00  0.00     0.012 A 
ATOM     67  C   UNL     1       8.601   9.470   9.025  1.00  0.00     0.148 A 
ATOM     68  C   UNL     1       7.886  11.987   7.995  1.00  0.00     0.002 A 
ATOM     69  C   UNL     1       9.576  10.334   8.543  1.00  0.00     0.091 A 
ATOM     70  F   UNL     1       8.903   8.248   9.488  1.00  0.00    -0.205 F 
ATOM     71  C   UNL     1       9.221  11.589   8.022  1.00  0.00     0.022 A 
BRANCH  69  72
ATOM     72  S   UNL     1      11.327   9.936   8.597  1.00  0.00     0.127 S 
ATOM     73  O   UNL     1      11.602   9.626   7.195  1.00  0.00    -0.237 OA
ATOM     74  O   UNL     1      11.917  11.188   9.071  1.00  0.00    -0.237 OA
ATOM     75  O   UNL     1      11.453   8.820   9.524  1.00  0.00    -0.744 OA
ENDBRANCH  69  72
ENDBRANCH  51  65
BRANCH  52  76
ATOM     76  C   UNL     1       0.211   3.756  12.513  1.00  0.00     0.023 A 
ATOM     77  C   UNL     1      -0.865   4.248  13.277  1.00  0.00     0.012 A 
ATOM     78  C   UNL     1       0.293   2.374  12.254  1.00  0.00     0.148 A 
ATOM     79  C   UNL     1      -1.825   3.379  13.795  1.00  0.00     0.002 A 
ATOM     80  C   UNL     1      -0.694   1.520  12.731  1.00  0.00     0.091 A 
ATOM     81  F   UNL     1       1.339   1.921  11.547  1.00  0.00    -0.205 F 
ATOM     82  C   UNL     1      -1.747   2.018  13.514  1.00  0.00     0.022 A 
BRANCH  80  83
ATOM     83  S   UNL     1      -0.730  -0.227  12.313  1.00  0.00     0.127 S 
ATOM     84  O   UNL     1      -0.264  -0.841  13.554  1.00  0.00    -0.237 OA
ATOM     85  O   UNL     1      -2.147  -0.439  12.014  1.00  0.00    -0.237 OA
ATOM     86  O   UNL     1       0.151  -0.365  11.162  1.00  0.00    -0.744 OA
ENDBRANCH  80  83
ENDBRANCH  52  76
BRANCH  64  87
ATOM     87  C   UNL     1       5.006   7.825  15.550  1.00  0.00     0.023 A 
ATOM     88  C   UNL     1       5.739   6.844  16.246  1.00  0.00     0.012 A 
ATOM     89  C   UNL     1       4.711   9.048  16.185  1.00  0.00     0.148 A 
ATOM     90  C   UNL     1       6.149   7.065  17.561  1.00  0.00     0.002 A 
ATOM     91  C   UNL     1       5.160   9.278  17.481  1.00  0.00     0.091 A 
ATOM     92  F   UNL     1       3.994   9.962  15.516  1.00  0.00    -0.205 F 
ATOM     93  C   UNL     1       5.871   8.284  18.173  1.00  0.00     0.022 A 
BRANCH  91  94
ATOM     94  S   UNL     1       4.921  10.856  18.306  1.00  0.00     0.127 S 
ATOM     95  O   UNL     1       3.779  10.572  19.172  1.00  0.00    -0.237 OA
ATOM     96  O   UNL     1       6.190  11.040  19.012  1.00  0.00    -0.237 OA
ATOM     97  O   UNL     1       4.683  11.824  17.243  1.00  0.00    -0.744 OA
ENDBRANCH  91  94
ENDBRANCH  64  87
ENDBRANCH  38  39
ENDBRANCH  31  33
ENDBRANCH  30  31
ENDBRANCH  29  30
ENDBRANCH  28  29
ENDBRANCH   1  28
TORSDOF 21
