REMARK SMILES Cc1oc2cc3c(cc2c1C)[C@H](C)[C@@H](CC(=O)N[C@H](CC1=c2ccccc2=NC1)C(=O)OCCOCCOC(=O)c1ccc(-c2c4nc(c(-c5cccc(S(=O)(=O)[O-])c5F)c5ccc([nH]5)c(-c5cccc(S(=O)(=O)[O-])c5F)c5nc(c(-c6cccc(S(=O)(=O)[O-])c6F)c6ccc2[nH]6)C=C5)C=C4)cc1)C(=O)O3
REMARK SMILES IDX 35 1 34 2 33 3 32 4 30 5 31 6 19 7 18 8 16 9 17 10 15 12
REMARK SMILES IDX 14 13 1 14 2 15 3 16 10 17 4 18 9 19 11 20 5 21 8 22 6 23
REMARK SMILES IDX 7 24 106 25 12 26 104 27 13 28 105 29 20 30 21 31 22 32
REMARK SMILES IDX 29 33 23 34 27 35 28 36 24 37 26 38 25 39 36 40 37 41 38 42
REMARK SMILES IDX 39 43 40 44 41 45 42 46 103 47 43 48 102 49 44 50 45 51
REMARK SMILES IDX 46 52 96 53 47 54 101 55 95 56 97 57 48 58 100 59 94 60
REMARK SMILES IDX 93 61 49 63 81 64 61 65 80 66 62 67 65 68 79 69 98 70 63 71
REMARK SMILES IDX 64 72 78 74 99 75 66 76 50 77 51 78 59 79 52 80 54 81 60 82
REMARK SMILES IDX 53 83 55 84 56 85 57 86 58 87 82 88 83 89 91 90 84 91 86 92
REMARK SMILES IDX 92 93 85 94 87 95 88 96 89 97 90 98 67 99 68 100 76 101
REMARK SMILES IDX 69 102 71 103 77 104 70 105 72 106 73 107 74 108 75 109
REMARK H PARENT 18 11 97 62 65 73
REMARK Flexibility Score: inf
ROOT
ATOM      1  O   UNL     1      -5.809  -9.094  -8.264  1.00  0.00    -0.374 OA
ENDROOT
BRANCH   1   2
ATOM      2  C   UNL     1      -6.268  -7.862  -8.824  1.00  0.00     0.202 C 
BRANCH   2   3
ATOM      3  C   UNL     1      -5.944  -6.599  -8.012  1.00  0.00     0.261 C 
BRANCH   3   4
ATOM      4  O   UNL     1      -4.575  -6.109  -8.015  1.00  0.00    -0.462 OA
BRANCH   4   5
ATOM      5  C   UNL     1      -3.642  -6.637  -7.192  1.00  0.00     0.329 C 
ATOM      6  O   UNL     1      -3.736  -7.725  -6.632  1.00  0.00    -0.250 OA
BRANCH   5   7
ATOM      7  C   UNL     1      -2.360  -5.785  -7.039  1.00  0.00     0.196 C 
BRANCH   7   8
ATOM      8  N   UNL     1      -2.511  -4.318  -7.090  1.00  0.00    -0.342 N 
ATOM      9  C   UNL     1      -2.580  -3.332  -6.159  1.00  0.00     0.221 C 
ATOM     10  O   UNL     1      -2.293  -2.186  -6.518  1.00  0.00    -0.275 OA
ATOM     11  H   UNL     1      -2.576  -3.976  -8.011  1.00  0.00     0.164 HD
BRANCH   9  12
ATOM     12  C   UNL     1      -2.885  -3.586  -4.688  1.00  0.00     0.116 C 
BRANCH  12  13
ATOM     13  C   UNL     1      -4.286  -4.155  -4.465  1.00  0.00     0.116 C 
ATOM     14  C   UNL     1     -10.954  -8.454  -1.545  1.00  0.00     0.088 C 
ATOM     15  C   UNL     1      -9.786  -7.601  -1.836  1.00  0.00     0.105 A 
ATOM     16  O   UNL     1      -9.307  -7.705  -3.100  1.00  0.00    -0.461 OA
ATOM     17  C   UNL     1      -9.024  -6.705  -1.103  1.00  0.00    -0.002 A 
ATOM     18  C   UNL     1      -8.251  -6.865  -3.192  1.00  0.00     0.138 A 
ATOM     19  C   UNL     1      -8.064  -6.158  -2.013  1.00  0.00     0.024 A 
ATOM     20  C   UNL     1      -9.132  -6.393   0.337  1.00  0.00     0.049 C 
ATOM     21  C   UNL     1      -7.425  -6.782  -4.288  1.00  0.00     0.095 A 
ATOM     22  C   UNL     1      -7.030  -5.186  -1.948  1.00  0.00     0.020 A 
ATOM     23  C   UNL     1      -6.340  -5.926  -4.122  1.00  0.00     0.138 A 
ATOM     24  C   UNL     1      -6.169  -5.032  -3.045  1.00  0.00    -0.001 A 
ATOM     25  O   UNL     1      -5.326  -6.156  -5.041  1.00  0.00    -0.426 OA
ATOM     26  C   UNL     1      -4.973  -4.048  -3.078  1.00  0.00     0.035 C 
ATOM     27  C   UNL     1      -4.173  -5.638  -4.537  1.00  0.00     0.315 C 
ATOM     28  C   UNL     1      -5.385  -2.616  -2.752  1.00  0.00     0.014 C 
ATOM     29  O   UNL     1      -3.232  -6.309  -4.130  1.00  0.00    -0.251 OA
ENDBRANCH  12  13
ENDBRANCH   9  12
ENDBRANCH   7   8
BRANCH   7  30
ATOM     30  C   UNL     1      -1.230  -6.393  -7.951  1.00  0.00     0.070 C 
BRANCH  30  31
ATOM     31  C   UNL     1      -1.044  -5.907  -9.386  1.00  0.00    -0.037 C 
ATOM     32  C   UNL     1      -2.024  -6.151 -10.266  1.00  0.00     0.001 A 
ATOM     33  C   UNL     1      -0.676  -4.452  -9.511  1.00  0.00     0.174 C 
ATOM     34  C   UNL     1      -1.877  -6.330 -11.701  1.00  0.00     0.010 A 
ATOM     35  C   UNL     1      -2.701  -4.807 -10.088  1.00  0.00     0.065 A 
ATOM     36  N   UNL     1      -1.987  -3.804  -9.682  1.00  0.00    -0.280 NA
ATOM     37  C   UNL     1      -2.905  -5.865 -12.427  1.00  0.00     0.001 A 
ATOM     38  C   UNL     1      -4.071  -4.795 -10.566  1.00  0.00     0.028 A 
ATOM     39  C   UNL     1      -4.119  -5.423 -11.742  1.00  0.00     0.002 A 
ENDBRANCH  30  31
ENDBRANCH   7  30
ENDBRANCH   5   7
ENDBRANCH   4   5
ENDBRANCH   3   4
ENDBRANCH   2   3
ENDBRANCH   1   2
BRANCH   1  40
ATOM     40  C   UNL     1      -4.457  -9.420  -8.580  1.00  0.00     0.202 C 
BRANCH  40  41
ATOM     41  C   UNL     1      -4.316 -10.432  -9.710  1.00  0.00     0.261 C 
BRANCH  41  42
ATOM     42  O   UNL     1      -4.316  -9.749 -10.981  1.00  0.00    -0.460 OA
BRANCH  42  43
ATOM     43  C   UNL     1      -5.503  -9.766 -11.651  1.00  0.00     0.338 C 
ATOM     44  O   UNL     1      -6.479 -10.407 -11.372  1.00  0.00    -0.246 OA
BRANCH  43  45
ATOM     45  C   UNL     1      -5.467  -8.722 -12.715  1.00  0.00     0.060 A 
ATOM     46  C   UNL     1      -4.381  -8.540 -13.576  1.00  0.00     0.016 A 
ATOM     47  C   UNL     1      -6.561  -7.864 -12.804  1.00  0.00     0.016 A 
ATOM     48  C   UNL     1      -4.374  -7.465 -14.494  1.00  0.00     0.010 A 
ATOM     49  C   UNL     1      -6.525  -6.769 -13.679  1.00  0.00     0.010 A 
ATOM     50  C   UNL     1      -5.407  -6.508 -14.505  1.00  0.00    -0.014 A 
BRANCH  50  51
ATOM     51  C   UNL     1      -5.311  -5.278 -15.399  1.00  0.00     0.031 A 
ATOM     52  C   UNL     1      -6.664  -5.022 -15.989  1.00  0.00     0.074 A 
ATOM     53  C   UNL     1      -4.660  -4.112 -15.109  1.00  0.00     0.049 A 
ATOM     54  N   UNL     1      -7.609  -4.370 -15.383  1.00  0.00    -0.248 NA
ATOM     55  C   UNL     1      -7.108  -5.826 -17.127  1.00  0.00     0.031 C 
ATOM     56  C   UNL     1      -4.695  -3.420 -13.822  1.00  0.00     0.029 A 
ATOM     57  N   UNL     1      -4.026  -3.178 -15.942  1.00  0.00    -0.354 N 
ATOM     58  C   UNL     1      -8.790  -4.734 -15.997  1.00  0.00     0.074 A 
ATOM     59  C   UNL     1      -8.430  -5.618 -17.087  1.00  0.00     0.031 C 
ATOM     60  C   UNL     1      -4.045  -2.247 -13.888  1.00  0.00     0.029 A 
ATOM     61  C   UNL     1      -3.701  -1.975 -15.280  1.00  0.00     0.049 A 
ATOM     62  H   UNL     1      -3.829  -3.345 -16.892  1.00  0.00     0.167 HD
ATOM     63  C   UNL     1     -10.014  -4.332 -15.569  1.00  0.00     0.034 A 
ATOM     64  C   UNL     1      -3.816  -0.708 -15.790  1.00  0.00     0.034 A 
ATOM     65  C   UNL     1     -10.048  -3.510 -14.397  1.00  0.00     0.049 A 
ATOM     66  C   UNL     1      -5.278  -0.395 -15.538  1.00  0.00     0.074 A 
ATOM     67  C   UNL     1     -10.359  -3.657 -13.063  1.00  0.00     0.029 A 
ATOM     68  N   UNL     1      -9.649  -2.200 -14.508  1.00  0.00    -0.354 N 
ATOM     69  N   UNL     1      -5.837  -0.071 -14.398  1.00  0.00    -0.248 NA
ATOM     70  C   UNL     1      -6.199  -0.917 -16.545  1.00  0.00     0.031 C 
ATOM     71  C   UNL     1      -9.707  -2.574 -12.390  1.00  0.00     0.029 A 
ATOM     72  C   UNL     1      -9.001  -1.850 -13.350  1.00  0.00     0.049 A 
ATOM     73  H   UNL     1      -9.802  -1.614 -15.284  1.00  0.00     0.167 HD
ATOM     74  C   UNL     1      -7.098  -0.680 -14.428  1.00  0.00     0.074 A 
ATOM     75  C   UNL     1      -7.261  -1.155 -15.790  1.00  0.00     0.031 C 
ATOM     76  C   UNL     1      -7.863  -0.945 -13.323  1.00  0.00     0.034 A 
BRANCH  63  77
ATOM     77  C   UNL     1     -11.206  -4.519 -16.416  1.00  0.00     0.023 A 
ATOM     78  C   UNL     1     -11.478  -3.471 -17.317  1.00  0.00     0.012 A 
ATOM     79  C   UNL     1     -12.083  -5.609 -16.320  1.00  0.00     0.148 A 
ATOM     80  C   UNL     1     -12.630  -3.479 -18.090  1.00  0.00     0.002 A 
ATOM     81  C   UNL     1     -13.235  -5.613 -17.101  1.00  0.00     0.091 A 
ATOM     82  F   UNL     1     -11.786  -6.602 -15.470  1.00  0.00    -0.205 F 
ATOM     83  C   UNL     1     -13.512  -4.546 -17.976  1.00  0.00     0.022 A 
BRANCH  81  84
ATOM     84  S   UNL     1     -14.447  -6.936 -17.062  1.00  0.00     0.127 S 
ATOM     85  O   UNL     1     -15.616  -6.258 -16.503  1.00  0.00    -0.237 OA
ATOM     86  O   UNL     1     -14.561  -7.282 -18.479  1.00  0.00    -0.237 OA
ATOM     87  O   UNL     1     -13.872  -7.982 -16.227  1.00  0.00    -0.744 OA
ENDBRANCH  81  84
ENDBRANCH  63  77
BRANCH  64  88
ATOM     88  C   UNL     1      -3.100  -0.347 -17.053  1.00  0.00     0.023 A 
ATOM     89  C   UNL     1      -1.717  -0.635 -17.114  1.00  0.00     0.012 A 
ATOM     90  C   UNL     1      -3.677   0.287 -18.171  1.00  0.00     0.148 A 
ATOM     91  C   UNL     1      -0.969  -0.411 -18.273  1.00  0.00     0.002 A 
ATOM     92  C   UNL     1      -2.952   0.433 -19.352  1.00  0.00     0.091 A 
ATOM     93  F   UNL     1      -4.926   0.757 -18.084  1.00  0.00    -0.205 F 
ATOM     94  C   UNL     1      -1.597   0.087 -19.407  1.00  0.00     0.022 A 
BRANCH  92  95
ATOM     95  S   UNL     1      -3.720   0.958 -20.892  1.00  0.00     0.127 S 
ATOM     96  O   UNL     1      -2.810   2.006 -21.350  1.00  0.00    -0.237 OA
ATOM     97  O   UNL     1      -3.676  -0.281 -21.667  1.00  0.00    -0.237 OA
ATOM     98  O   UNL     1      -5.056   1.416 -20.534  1.00  0.00    -0.744 OA
ENDBRANCH  92  95
ENDBRANCH  64  88
BRANCH  76  99
ATOM     99  C   UNL     1      -7.403  -0.388 -11.999  1.00  0.00     0.023 A 
ATOM    100  C   UNL     1      -7.384   1.008 -11.829  1.00  0.00     0.012 A 
ATOM    101  C   UNL     1      -7.130  -1.210 -10.880  1.00  0.00     0.148 A 
ATOM    102  C   UNL     1      -7.135   1.577 -10.578  1.00  0.00     0.002 A 
ATOM    103  C   UNL     1      -6.941  -0.640  -9.622  1.00  0.00     0.091 A 
ATOM    104  F   UNL     1      -7.093  -2.542 -11.047  1.00  0.00    -0.205 F 
ATOM    105  C   UNL     1      -6.934   0.755  -9.472  1.00  0.00     0.022 A 
BRANCH 103 106
ATOM    106  S   UNL     1      -6.817  -1.622  -8.115  1.00  0.00     0.127 S 
ATOM    107  O   UNL     1      -5.656  -1.042  -7.444  1.00  0.00    -0.237 OA
ATOM    108  O   UNL     1      -8.093  -1.332  -7.461  1.00  0.00    -0.237 OA
ATOM    109  O   UNL     1      -6.643  -3.007  -8.537  1.00  0.00    -0.744 OA
ENDBRANCH 103 106
ENDBRANCH  76  99
ENDBRANCH  50  51
ENDBRANCH  43  45
ENDBRANCH  42  43
ENDBRANCH  41  42
ENDBRANCH  40  41
ENDBRANCH   1  40
TORSDOF 22
