REMARK SMILES CC(C)CCn1nc(C(=O)OCCOCCOC(=O)c2ccc(-c3c4nc(c(-c5cccc(S(=O)(=O)[O-])c5F)c5ccc([nH]5)c(-c5cccc(S(=O)(=O)[O-])c5F)c5nc(c(-c6cccc(S(=O)(=O)[O-])c6F)c6ccc3[nH]6)C=C5)C=C4)cc2)c2c1CCN(C(=O)[C@@H]1CCc3nn(C)c(=O)n3C1)C2
REMARK SMILES IDX 14 1 13 2 12 3 11 4 9 5 10 6 8 7 6 8 7 9 84 10 83 11 85 12
REMARK SMILES IDX 101 13 86 14 87 15 5 16 4 17 2 18 1 19 3 20 88 21 89 22
REMARK SMILES IDX 90 23 91 24 100 25 92 26 99 27 93 28 97 29 94 30 95 31 98 32
REMARK SMILES IDX 96 33 15 34 16 35 17 36 18 37 19 38 20 39 21 40 82 41 22 42
REMARK SMILES IDX 81 43 23 44 24 45 25 46 75 47 26 48 80 49 74 50 76 51 27 52
REMARK SMILES IDX 79 53 73 54 72 55 28 57 60 58 40 59 59 60 41 61 44 62 58 63
REMARK SMILES IDX 77 64 42 65 43 66 57 68 78 69 45 70 29 71 30 72 38 73 31 74
REMARK SMILES IDX 33 75 39 76 32 77 34 78 35 79 36 80 37 81 61 82 62 83 70 84
REMARK SMILES IDX 63 85 65 86 71 87 64 88 66 89 67 90 68 91 69 92 46 93 47 94
REMARK SMILES IDX 55 95 48 96 50 97 56 98 49 99 51 100 52 101 53 102 54 103
REMARK H PARENT 76 56 44 67
REMARK Flexibility Score: inf
ROOT
ATOM      1  O   UNL     1      -1.274   8.641   1.669  1.00  0.00    -0.374 OA
ENDROOT
BRANCH   1   2
ATOM      2  C   UNL     1      -0.978   8.770   3.063  1.00  0.00     0.202 C 
BRANCH   2   3
ATOM      3  C   UNL     1      -1.891   7.997   4.013  1.00  0.00     0.261 C 
BRANCH   3   4
ATOM      4  O   UNL     1      -1.581   6.602   3.938  1.00  0.00    -0.458 OA
BRANCH   4   5
ATOM      5  C   UNL     1      -2.376   5.840   3.131  1.00  0.00     0.359 C 
ATOM      6  O   UNL     1      -3.476   6.190   2.721  1.00  0.00    -0.244 OA
BRANCH   5   7
ATOM      7  C   UNL     1      -1.694   4.585   2.758  1.00  0.00     0.175 A 
ATOM      8  N   UNL     1      -1.377   2.658   1.876  1.00  0.00    -0.268 N 
ATOM      9  N   UNL     1      -2.192   3.735   1.826  1.00  0.00    -0.165 NA
ATOM     10  C   UNL     1      -0.510   2.761   2.912  1.00  0.00     0.046 A 
ATOM     11  C   UNL     1      -0.470   4.086   3.291  1.00  0.00     0.028 A 
ATOM     12  C   UNL     1       0.164   1.687   3.664  1.00  0.00     0.078 C 
ATOM     13  C   UNL     1       0.515   4.638   4.296  1.00  0.00     0.159 C 
ATOM     14  C   UNL     1       0.506   2.320   5.026  1.00  0.00     0.126 C 
ATOM     15  N   UNL     1       1.300   3.525   4.878  1.00  0.00    -0.338 N 
BRANCH   8  16
ATOM     16  C   UNL     1      -1.637   1.491   1.052  1.00  0.00     0.145 C 
BRANCH  16  17
ATOM     17  C   UNL     1      -1.003   1.513  -0.348  1.00  0.00     0.027 C 
BRANCH  17  18
ATOM     18  C   UNL     1       0.531   1.347  -0.425  1.00  0.00    -0.016 C 
ATOM     19  C   UNL     1       1.020   0.001   0.118  1.00  0.00     0.007 C 
ATOM     20  C   UNL     1       0.990   1.476  -1.886  1.00  0.00     0.007 C 
ENDBRANCH  17  18
ENDBRANCH  16  17
ENDBRANCH   8  16
BRANCH  15  21
ATOM     21  C   UNL     1       2.569   3.766   5.376  1.00  0.00     0.227 C 
ATOM     22  O   UNL     1       2.949   4.945   5.443  1.00  0.00    -0.274 OA
BRANCH  21  23
ATOM     23  C   UNL     1       3.589   2.673   5.846  1.00  0.00     0.099 C 
ATOM     24  C   UNL     1       4.216   1.772   4.772  1.00  0.00     0.023 C 
ATOM     25  C   UNL     1       3.270   1.857   7.099  1.00  0.00     0.142 C 
ATOM     26  C   UNL     1       3.466   0.477   4.475  1.00  0.00     0.078 C 
ATOM     27  N   UNL     1       2.591   0.615   6.796  1.00  0.00    -0.278 N 
ATOM     28  C   UNL     1       2.558   0.022   5.582  1.00  0.00     0.133 A 
ATOM     29  C   UNL     1       1.491   0.158   7.487  1.00  0.00     0.345 A 
ATOM     30  N   UNL     1       1.556  -0.796   5.406  1.00  0.00    -0.155 NA
ATOM     31  N   UNL     1       0.841  -0.712   6.591  1.00  0.00    -0.216 N 
ATOM     32  O   UNL     1       1.042   0.588   8.538  1.00  0.00    -0.246 OA
ATOM     33  C   UNL     1      -0.588  -0.915   6.615  1.00  0.00     0.179 C 
ENDBRANCH  21  23
ENDBRANCH  15  21
ENDBRANCH   5   7
ENDBRANCH   4   5
ENDBRANCH   3   4
ENDBRANCH   2   3
ENDBRANCH   1   2
BRANCH   1  34
ATOM     34  C   UNL     1      -0.771   7.509   0.957  1.00  0.00     0.202 C 
BRANCH  34  35
ATOM     35  C   UNL     1       0.678   7.544   0.501  1.00  0.00     0.261 C 
BRANCH  35  36
ATOM     36  O   UNL     1       1.533   7.559   1.630  1.00  0.00    -0.460 OA
BRANCH  36  37
ATOM     37  C   UNL     1       1.913   8.794   2.037  1.00  0.00     0.338 C 
ATOM     38  O   UNL     1       1.545   9.862   1.603  1.00  0.00    -0.246 OA
BRANCH  37  39
ATOM     39  C   UNL     1       2.969   8.616   3.044  1.00  0.00     0.060 A 
ATOM     40  C   UNL     1       3.736   9.753   3.284  1.00  0.00     0.016 A 
ATOM     41  C   UNL     1       3.433   7.322   3.308  1.00  0.00     0.016 A 
ATOM     42  C   UNL     1       5.089   9.569   3.400  1.00  0.00     0.010 A 
ATOM     43  C   UNL     1       4.776   7.137   3.428  1.00  0.00     0.010 A 
ATOM     44  C   UNL     1       5.577   8.263   3.323  1.00  0.00    -0.014 A 
BRANCH  44  45
ATOM     45  C   UNL     1       6.987   8.071   3.134  1.00  0.00     0.031 A 
ATOM     46  C   UNL     1       7.712   8.182   4.410  1.00  0.00     0.074 A 
ATOM     47  C   UNL     1       7.485   7.722   1.934  1.00  0.00     0.049 A 
ATOM     48  N   UNL     1       8.436   9.172   4.809  1.00  0.00    -0.248 NA
ATOM     49  C   UNL     1       7.370   7.215   5.468  1.00  0.00     0.031 C 
ATOM     50  C   UNL     1       6.772   7.286   0.728  1.00  0.00     0.029 A 
ATOM     51  N   UNL     1       8.781   7.535   1.595  1.00  0.00    -0.354 N 
ATOM     52  C   UNL     1       8.844   8.812   6.087  1.00  0.00     0.074 A 
ATOM     53  C   UNL     1       7.938   7.790   6.527  1.00  0.00     0.031 C 
ATOM     54  C   UNL     1       7.637   6.617  -0.072  1.00  0.00     0.029 A 
ATOM     55  C   UNL     1       8.965   6.683   0.515  1.00  0.00     0.049 A 
ATOM     56  H   UNL     1       9.528   7.964   2.072  1.00  0.00     0.167 HD
ATOM     57  C   UNL     1      10.081   9.142   6.543  1.00  0.00     0.034 A 
ATOM     58  C   UNL     1      10.101   5.986   0.250  1.00  0.00     0.034 A 
ATOM     59  C   UNL     1      10.685  10.155   5.711  1.00  0.00     0.049 A 
ATOM     60  C   UNL     1      11.198   6.630   1.026  1.00  0.00     0.074 A 
ATOM     61  C   UNL     1      10.338  11.440   5.344  1.00  0.00     0.029 A 
ATOM     62  N   UNL     1      11.601   9.724   4.778  1.00  0.00    -0.354 N 
ATOM     63  N   UNL     1      11.610   7.849   0.803  1.00  0.00    -0.248 NA
ATOM     64  C   UNL     1      11.462   6.119   2.366  1.00  0.00     0.031 C 
ATOM     65  C   UNL     1      10.687  11.532   3.965  1.00  0.00     0.029 A 
ATOM     66  C   UNL     1      11.297  10.333   3.587  1.00  0.00     0.049 A 
ATOM     67  H   UNL     1      12.339   9.093   4.936  1.00  0.00     0.167 HD
ATOM     68  C   UNL     1      11.759   8.407   2.070  1.00  0.00     0.074 A 
ATOM     69  C   UNL     1      11.734   7.269   2.992  1.00  0.00     0.031 C 
ATOM     70  C   UNL     1      11.559   9.741   2.292  1.00  0.00     0.034 A 
BRANCH  57  71
ATOM     71  C   UNL     1      10.904   8.284   7.473  1.00  0.00     0.023 A 
ATOM     72  C   UNL     1      12.105   8.848   7.951  1.00  0.00     0.012 A 
ATOM     73  C   UNL     1      10.718   6.897   7.688  1.00  0.00     0.148 A 
ATOM     74  C   UNL     1      13.095   8.063   8.547  1.00  0.00     0.002 A 
ATOM     75  C   UNL     1      11.671   6.134   8.348  1.00  0.00     0.091 A 
ATOM     76  F   UNL     1       9.684   6.256   7.142  1.00  0.00    -0.205 F 
ATOM     77  C   UNL     1      12.878   6.706   8.750  1.00  0.00     0.022 A 
BRANCH  75  78
ATOM     78  S   UNL     1      11.420   4.381   8.662  1.00  0.00     0.127 S 
ATOM     79  O   UNL     1      12.341   3.777   7.704  1.00  0.00    -0.237 OA
ATOM     80  O   UNL     1      11.821   4.269  10.065  1.00  0.00    -0.237 OA
ATOM     81  O   UNL     1      10.002   4.133   8.428  1.00  0.00    -0.744 OA
ENDBRANCH  75  78
ENDBRANCH  57  71
BRANCH  58  82
ATOM     82  C   UNL     1      10.204   4.602  -0.284  1.00  0.00     0.023 A 
ATOM     83  C   UNL     1      11.410   4.142  -0.849  1.00  0.00     0.012 A 
ATOM     84  C   UNL     1       9.194   3.646  -0.019  1.00  0.00     0.148 A 
ATOM     85  C   UNL     1      11.600   2.781  -1.139  1.00  0.00     0.002 A 
ATOM     86  C   UNL     1       9.378   2.301  -0.326  1.00  0.00     0.091 A 
ATOM     87  F   UNL     1       8.087   4.037   0.624  1.00  0.00    -0.205 F 
ATOM     88  C   UNL     1      10.585   1.862  -0.879  1.00  0.00     0.022 A 
BRANCH  86  89
ATOM     89  S   UNL     1       8.104   1.071  -0.003  1.00  0.00     0.127 S 
ATOM     90  O   UNL     1       8.053   0.345  -1.273  1.00  0.00    -0.237 OA
ATOM     91  O   UNL     1       8.678   0.321   1.110  1.00  0.00    -0.237 OA
ATOM     92  O   UNL     1       6.890   1.819   0.304  1.00  0.00    -0.744 OA
ENDBRANCH  86  89
ENDBRANCH  58  82
BRANCH  70  93
ATOM     93  C   UNL     1      11.351  10.646   1.101  1.00  0.00     0.023 A 
ATOM     94  C   UNL     1      10.229  10.539   0.250  1.00  0.00     0.012 A 
ATOM     95  C   UNL     1      12.194  11.760   0.967  1.00  0.00     0.148 A 
ATOM     96  C   UNL     1       9.966  11.512  -0.720  1.00  0.00     0.002 A 
ATOM     97  C   UNL     1      11.904  12.748   0.035  1.00  0.00     0.091 A 
ATOM     98  F   UNL     1      13.250  11.854   1.789  1.00  0.00    -0.205 F 
ATOM     99  C   UNL     1      10.796  12.625  -0.817  1.00  0.00     0.022 A 
BRANCH  97 100
ATOM    100  S   UNL     1      12.858  14.265  -0.043  1.00  0.00     0.127 S 
ATOM    101  O   UNL     1      13.644  14.066  -1.259  1.00  0.00    -0.237 OA
ATOM    102  O   UNL     1      11.816  15.288  -0.147  1.00  0.00    -0.237 OA
ATOM    103  O   UNL     1      13.623  14.322   1.196  1.00  0.00    -0.744 OA
ENDBRANCH  97 100
ENDBRANCH  70  93
ENDBRANCH  44  45
ENDBRANCH  37  39
ENDBRANCH  36  37
ENDBRANCH  35  36
ENDBRANCH  34  35
ENDBRANCH   1  34
TORSDOF 22
