REMARK SMILES COc1cccc([C@H]2CC(c3ccc(S(C)(=O)=O)cc3)=NN2c2ccc(C(=O)OCCOCCOC(=O)c3ccc(-c4c5nc(c(-c6cccc(S(=O)(=O)[O-])c6F)c6ccc([nH]6)c(-c6cccc(S(=O)(=O)[O-])c6F)c6nc(c(-c7cccc(S(=O)(=O)[O-])c7F)c7ccc4[nH]7)C=C6)C=C5)cc3)cc2)c1
REMARK SMILES IDX 32 1 31 2 30 3 29 4 27 5 28 6 26 7 23 8 24 9 102 10 25 11
REMARK SMILES IDX 101 12 22 13 8 14 9 15 10 16 21 17 7 18 3 19 4 20 103 21
REMARK SMILES IDX 5 22 6 23 2 24 1 25 11 26 12 27 20 28 13 29 19 30 14 31
REMARK SMILES IDX 15 32 16 33 17 34 18 35 33 36 34 37 35 38 36 39 37 40 38 41
REMARK SMILES IDX 39 42 100 43 40 44 99 45 41 46 42 47 43 48 93 49 44 50 98 51
REMARK SMILES IDX 92 52 94 53 45 54 97 55 91 56 90 57 46 59 78 60 58 61 77 62
REMARK SMILES IDX 59 63 62 64 76 65 95 66 60 67 61 68 75 70 96 71 63 72 47 73
REMARK SMILES IDX 48 74 56 75 49 76 51 77 57 78 50 79 52 80 53 81 54 82 55 83
REMARK SMILES IDX 79 84 80 85 88 86 81 87 83 88 89 89 82 90 84 91 85 92 86 93
REMARK SMILES IDX 87 94 64 95 65 96 73 97 66 98 68 99 74 100 67 101 69 102
REMARK SMILES IDX 70 103 71 104 72 105
REMARK H PARENT 94 58 62 69
REMARK Flexibility Score: inf
ROOT
ATOM      1  O   UNL     1       3.856  -6.062  -8.731  1.00  0.00    -0.374 OA
ENDROOT
BRANCH   1   2
ATOM      2  C   UNL     1       3.358  -5.335  -9.855  1.00  0.00     0.202 C 
BRANCH   2   3
ATOM      3  C   UNL     1       2.299  -4.269  -9.560  1.00  0.00     0.261 C 
BRANCH   3   4
ATOM      4  O   UNL     1       2.830  -3.213  -8.744  1.00  0.00    -0.460 OA
BRANCH   4   5
ATOM      5  C   UNL     1       2.410  -3.217  -7.458  1.00  0.00     0.338 C 
ATOM      6  O   UNL     1       1.564  -3.953  -6.966  1.00  0.00    -0.246 OA
BRANCH   5   7
ATOM      7  C   UNL     1       3.229  -2.289  -6.648  1.00  0.00     0.060 A 
ATOM      8  C   UNL     1       4.565  -0.502  -4.944  1.00  0.00     0.060 A 
ATOM      9  C   UNL     1       4.143  -1.749  -4.470  1.00  0.00     0.029 A 
ATOM     10  C   UNL     1       4.406  -0.212  -6.309  1.00  0.00     0.029 A 
ATOM     11  C   UNL     1       3.453  -2.625  -5.307  1.00  0.00     0.018 A 
ATOM     12  C   UNL     1       3.754  -1.103  -7.166  1.00  0.00     0.018 A 
BRANCH   8  13
ATOM     13  N   UNL     1       4.994   0.487  -4.058  1.00  0.00    -0.257 N 
ATOM     14  C   UNL     1       4.184   1.698  -3.860  1.00  0.00     0.144 C 
ATOM     15  C   UNL     1       4.851   2.348  -2.646  1.00  0.00     0.091 C 
ATOM     16  C   UNL     1       5.832   1.270  -2.273  1.00  0.00     0.071 C 
ATOM     17  N   UNL     1       5.867   0.230  -3.047  1.00  0.00    -0.176 NA
BRANCH  14  18
ATOM     18  C   UNL     1       2.705   1.381  -3.643  1.00  0.00    -0.019 A 
ATOM     19  C   UNL     1       0.896   0.325  -2.393  1.00  0.00     0.119 A 
ATOM     20  C   UNL     1      -0.002   0.664  -3.403  1.00  0.00     0.046 A 
ATOM     21  C   UNL     1       2.247   0.662  -2.522  1.00  0.00     0.052 A 
ATOM     22  C   UNL     1       0.434   1.371  -4.521  1.00  0.00     0.004 A 
ATOM     23  C   UNL     1       1.776   1.732  -4.638  1.00  0.00     0.006 A 
BRANCH  19  24
ATOM     24  O   UNL     1       0.373  -0.397  -1.353  1.00  0.00    -0.497 OA
ATOM     25  C   UNL     1       0.916  -0.073  -0.079  1.00  0.00     0.278 C 
ENDBRANCH  19  24
ENDBRANCH  14  18
BRANCH  16  26
ATOM     26  C   UNL     1       6.742   1.461  -1.138  1.00  0.00    -0.002 A 
ATOM     27  C   UNL     1       8.120   1.402  -1.376  1.00  0.00     0.011 A 
ATOM     28  C   UNL     1       6.248   1.752   0.136  1.00  0.00     0.011 A 
ATOM     29  C   UNL     1       9.015   1.656  -0.337  1.00  0.00     0.021 A 
ATOM     30  C   UNL     1       7.143   1.981   1.185  1.00  0.00     0.021 A 
ATOM     31  C   UNL     1       8.520   1.933   0.942  1.00  0.00     0.067 A 
BRANCH  31  32
ATOM     32  S   UNL     1       9.666   2.257   2.262  1.00  0.00     0.175 S 
ATOM     33  C   UNL     1      10.628   0.772   2.383  1.00  0.00     0.163 C 
ATOM     34  O   UNL     1      10.532   3.330   1.817  1.00  0.00    -0.224 OA
ATOM     35  O   UNL     1       8.900   2.378   3.489  1.00  0.00    -0.224 OA
ENDBRANCH  31  32
ENDBRANCH  16  26
ENDBRANCH   8  13
ENDBRANCH   5   7
ENDBRANCH   4   5
ENDBRANCH   3   4
ENDBRANCH   2   3
ENDBRANCH   1   2
BRANCH   1  36
ATOM     36  C   UNL     1       4.883  -5.435  -7.960  1.00  0.00     0.202 C 
BRANCH  36  37
ATOM     37  C   UNL     1       6.306  -5.512  -8.527  1.00  0.00     0.261 C 
BRANCH  37  38
ATOM     38  O   UNL     1       6.454  -4.723  -9.720  1.00  0.00    -0.460 OA
BRANCH  38  39
ATOM     39  C   UNL     1       6.564  -5.431 -10.868  1.00  0.00     0.338 C 
ATOM     40  O   UNL     1       6.619  -6.650 -10.982  1.00  0.00    -0.246 OA
BRANCH  39  41
ATOM     41  C   UNL     1       6.428  -4.529 -12.025  1.00  0.00     0.060 A 
ATOM     42  C   UNL     1       5.492  -4.867 -13.012  1.00  0.00     0.016 A 
ATOM     43  C   UNL     1       7.236  -3.400 -12.170  1.00  0.00     0.016 A 
ATOM     44  C   UNL     1       5.391  -4.102 -14.172  1.00  0.00     0.010 A 
ATOM     45  C   UNL     1       7.141  -2.640 -13.338  1.00  0.00     0.010 A 
ATOM     46  C   UNL     1       6.242  -3.005 -14.358  1.00  0.00    -0.014 A 
BRANCH  46  47
ATOM     47  C   UNL     1       6.298  -2.313 -15.667  1.00  0.00     0.031 A 
ATOM     48  C   UNL     1       7.435  -2.622 -16.602  1.00  0.00     0.074 A 
ATOM     49  C   UNL     1       5.374  -1.395 -16.000  1.00  0.00     0.049 A 
ATOM     50  N   UNL     1       7.745  -2.063 -17.741  1.00  0.00    -0.248 NA
ATOM     51  C   UNL     1       8.348  -3.703 -16.192  1.00  0.00     0.031 C 
ATOM     52  C   UNL     1       4.222  -1.022 -15.182  1.00  0.00     0.029 A 
ATOM     53  N   UNL     1       5.283  -0.582 -17.102  1.00  0.00    -0.354 N 
ATOM     54  C   UNL     1       8.907  -2.695 -18.168  1.00  0.00     0.074 A 
ATOM     55  C   UNL     1       9.250  -3.678 -17.163  1.00  0.00     0.031 C 
ATOM     56  C   UNL     1       3.559  -0.025 -15.792  1.00  0.00     0.029 A 
ATOM     57  C   UNL     1       4.259   0.332 -17.025  1.00  0.00     0.049 A 
ATOM     58  H   UNL     1       5.892  -0.647 -17.873  1.00  0.00     0.167 HD
ATOM     59  C   UNL     1       9.618  -2.483 -19.300  1.00  0.00     0.034 A 
ATOM     60  C   UNL     1       3.943   1.359 -17.840  1.00  0.00     0.034 A 
ATOM     61  C   UNL     1       9.260  -1.520 -20.305  1.00  0.00     0.049 A 
ATOM     62  C   UNL     1       4.769   1.595 -19.079  1.00  0.00     0.074 A 
ATOM     63  C   UNL     1       9.890  -1.260 -21.509  1.00  0.00     0.029 A 
ATOM     64  N   UNL     1       8.184  -0.651 -20.219  1.00  0.00    -0.354 N 
ATOM     65  N   UNL     1       5.802   0.920 -19.523  1.00  0.00    -0.248 NA
ATOM     66  C   UNL     1       4.369   2.715 -19.945  1.00  0.00     0.031 C 
ATOM     67  C   UNL     1       9.209  -0.214 -22.139  1.00  0.00     0.029 A 
ATOM     68  C   UNL     1       8.137   0.154 -21.343  1.00  0.00     0.049 A 
ATOM     69  H   UNL     1       7.548  -0.612 -19.469  1.00  0.00     0.167 HD
ATOM     70  C   UNL     1       6.146   1.503 -20.739  1.00  0.00     0.074 A 
ATOM     71  C   UNL     1       5.207   2.582 -20.965  1.00  0.00     0.031 C 
ATOM     72  C   UNL     1       7.154   1.179 -21.586  1.00  0.00     0.034 A 
BRANCH  59  73
ATOM     73  C   UNL     1      10.845  -3.326 -19.527  1.00  0.00     0.023 A 
ATOM     74  C   UNL     1      10.703  -4.684 -19.876  1.00  0.00     0.012 A 
ATOM     75  C   UNL     1      12.133  -2.760 -19.456  1.00  0.00     0.148 A 
ATOM     76  C   UNL     1      11.826  -5.474 -20.122  1.00  0.00     0.002 A 
ATOM     77  C   UNL     1      13.245  -3.542 -19.744  1.00  0.00     0.091 A 
ATOM     78  F   UNL     1      12.247  -1.472 -19.100  1.00  0.00    -0.205 F 
ATOM     79  C   UNL     1      13.094  -4.901 -20.067  1.00  0.00     0.022 A 
BRANCH  77  80
ATOM     80  S   UNL     1      14.913  -2.877 -19.776  1.00  0.00     0.127 S 
ATOM     81  O   UNL     1      15.494  -3.481 -18.577  1.00  0.00    -0.237 OA
ATOM     82  O   UNL     1      15.432  -3.406 -21.038  1.00  0.00    -0.237 OA
ATOM     83  O   UNL     1      14.769  -1.429 -19.739  1.00  0.00    -0.744 OA
ENDBRANCH  77  80
ENDBRANCH  59  73
BRANCH  60  84
ATOM     84  C   UNL     1       2.773   2.227 -17.525  1.00  0.00     0.023 A 
ATOM     85  C   UNL     1       1.630   2.174 -18.345  1.00  0.00     0.012 A 
ATOM     86  C   UNL     1       2.779   3.088 -16.410  1.00  0.00     0.148 A 
ATOM     87  C   UNL     1       0.525   2.983 -18.078  1.00  0.00     0.002 A 
ATOM     88  C   UNL     1       1.654   3.851 -16.118  1.00  0.00     0.091 A 
ATOM     89  F   UNL     1       3.883   3.138 -15.651  1.00  0.00    -0.205 F 
ATOM     90  C   UNL     1       0.533   3.813 -16.960  1.00  0.00     0.022 A 
BRANCH  88  91
ATOM     91  S   UNL     1       1.528   4.850 -14.630  1.00  0.00     0.127 S 
ATOM     92  O   UNL     1       1.596   6.205 -15.171  1.00  0.00    -0.237 OA
ATOM     93  O   UNL     1       0.217   4.457 -14.112  1.00  0.00    -0.237 OA
ATOM     94  O   UNL     1       2.647   4.447 -13.789  1.00  0.00    -0.744 OA
ENDBRANCH  88  91
ENDBRANCH  60  84
BRANCH  72  95
ATOM     95  C   UNL     1       7.275   1.952 -22.873  1.00  0.00     0.023 A 
ATOM     96  C   UNL     1       7.782   3.265 -22.860  1.00  0.00     0.012 A 
ATOM     97  C   UNL     1       6.993   1.328 -24.106  1.00  0.00     0.148 A 
ATOM     98  C   UNL     1       7.989   3.954 -24.055  1.00  0.00     0.002 A 
ATOM     99  C   UNL     1       7.248   2.003 -25.293  1.00  0.00     0.091 A 
ATOM    100  F   UNL     1       6.497   0.083 -24.092  1.00  0.00    -0.205 F 
ATOM    101  C   UNL     1       7.736   3.319 -25.270  1.00  0.00     0.022 A 
BRANCH  99 102
ATOM    102  S   UNL     1       7.048   1.233 -26.904  1.00  0.00     0.127 S 
ATOM    103  O   UNL     1       5.905   1.966 -27.445  1.00  0.00    -0.237 OA
ATOM    104  O   UNL     1       8.326   1.532 -27.550  1.00  0.00    -0.237 OA
ATOM    105  O   UNL     1       6.814  -0.182 -26.649  1.00  0.00    -0.744 OA
ENDBRANCH  99 102
ENDBRANCH  72  95
ENDBRANCH  46  47
ENDBRANCH  39  41
ENDBRANCH  38  39
ENDBRANCH  37  38
ENDBRANCH  36  37
ENDBRANCH   1  36
TORSDOF 22
