REMARK SMILES Cc1ccc2c(c1)OCCN2c1sc(C(=O)OCCOCCOC(=O)c2ccc(-c3c4nc(c(-c5cccc(S(=O)(=O)[O-])c5F)c5ccc([nH]5)c(-c5cccc(S(=O)(=O)[O-])c5F)c5nc(c(-c6cccc(S(=O)(=O)[O-])c6F)c6ccc3[nH]6)C=C5)C=C4)cc2)cc1C
REMARK SMILES IDX 21 1 20 2 19 3 18 4 17 5 15 6 16 7 14 8 12 9 13 10 90 11
REMARK SMILES IDX 89 12 91 13 11 14 1 15 2 16 3 17 7 18 4 19 6 20 5 21 8 22
REMARK SMILES IDX 9 23 10 24 22 25 23 26 24 27 25 28 26 29 27 30 88 31 28 32
REMARK SMILES IDX 87 33 29 34 30 35 31 36 81 37 32 38 86 39 80 40 82 41 33 42
REMARK SMILES IDX 85 43 79 44 78 45 34 47 66 48 46 49 65 50 47 51 50 52 64 53
REMARK SMILES IDX 83 54 48 55 49 56 63 58 84 59 51 60 35 61 36 62 44 63 37 64
REMARK SMILES IDX 39 65 45 66 38 67 40 68 41 69 42 70 43 71 67 72 68 73 76 74
REMARK SMILES IDX 69 75 71 76 77 77 70 78 72 79 73 80 74 81 75 82 52 83 53 84
REMARK SMILES IDX 61 85 54 86 56 87 62 88 55 89 57 90 58 91 59 92 60 93
REMARK H PARENT 82 46 50 57
REMARK Flexibility Score: inf
ROOT
ATOM      1  C   UNL     1      -0.291  -8.756   7.228  1.00  0.00     0.202 C 
ENDROOT
BRANCH   1   2
ATOM      2  O   UNL     1      -0.400  -9.966   6.473  1.00  0.00    -0.374 OA
BRANCH   2   3
ATOM      3  C   UNL     1       0.591 -10.196   5.470  1.00  0.00     0.202 C 
BRANCH   3   4
ATOM      4  C   UNL     1       0.330  -9.550   4.106  1.00  0.00     0.261 C 
BRANCH   4   5
ATOM      5  O   UNL     1       0.209  -8.125   4.216  1.00  0.00    -0.459 OA
BRANCH   5   6
ATOM      6  C   UNL     1      -1.070  -7.655   4.168  1.00  0.00     0.348 C 
ATOM      7  O   UNL     1      -2.050  -8.330   3.875  1.00  0.00    -0.245 OA
BRANCH   6   8
ATOM      8  C   UNL     1      -1.157  -6.283   4.627  1.00  0.00     0.114 A 
ATOM      9  C   UNL     1      -0.902  -3.835   4.967  1.00  0.00     0.099 A 
ATOM     10  S   UNL     1       0.135  -5.178   4.609  1.00  0.00    -0.110 S 
ATOM     11  C   UNL     1      -2.139  -4.298   5.411  1.00  0.00    -0.015 A 
ATOM     12  C   UNL     1      -2.281  -5.701   5.170  1.00  0.00     0.033 A 
ATOM     13  C   UNL     1      -3.266  -3.491   5.962  1.00  0.00     0.047 C 
BRANCH   9  14
ATOM     14  N   UNL     1      -0.497  -2.533   4.841  1.00  0.00    -0.327 N 
ATOM     15  C   UNL     1       1.017   0.157  -0.041  1.00  0.00     0.044 C 
ATOM     16  C   UNL     1       0.590  -0.531   1.220  1.00  0.00    -0.047 A 
ATOM     17  C   UNL     1       0.535  -1.923   1.270  1.00  0.00     0.006 A 
ATOM     18  C   UNL     1       0.290   0.193   2.375  1.00  0.00     0.052 A 
ATOM     19  C   UNL     1       0.160  -2.580   2.448  1.00  0.00     0.030 A 
ATOM     20  C   UNL     1      -0.077  -0.469   3.555  1.00  0.00     0.143 A 
ATOM     21  C   UNL     1      -0.132  -1.880   3.629  1.00  0.00     0.085 A 
ATOM     22  O   UNL     1      -0.383   0.363   4.611  1.00  0.00    -0.490 OA
ATOM     23  C   UNL     1      -1.129  -0.312   5.628  1.00  0.00     0.251 C 
ATOM     24  C   UNL     1      -0.475  -1.639   6.001  1.00  0.00     0.165 C 
ENDBRANCH   9  14
ENDBRANCH   6   8
ENDBRANCH   5   6
ENDBRANCH   4   5
ENDBRANCH   3   4
ENDBRANCH   2   3
ENDBRANCH   1   2
BRANCH   1  25
ATOM     25  C   UNL     1       0.774  -8.728   8.329  1.00  0.00     0.261 C 
BRANCH  25  26
ATOM     26  O   UNL     1       2.097  -8.630   7.772  1.00  0.00    -0.460 OA
BRANCH  26  27
ATOM     27  C   UNL     1       2.877  -9.727   7.934  1.00  0.00     0.338 C 
ATOM     28  O   UNL     1       2.610 -10.726   8.583  1.00  0.00    -0.246 OA
BRANCH  27  29
ATOM     29  C   UNL     1       4.038  -9.636   7.023  1.00  0.00     0.060 A 
ATOM     30  C   UNL     1       4.811  -8.476   6.924  1.00  0.00     0.016 A 
ATOM     31  C   UNL     1       4.353 -10.764   6.254  1.00  0.00     0.016 A 
ATOM     32  C   UNL     1       5.923  -8.463   6.076  1.00  0.00     0.010 A 
ATOM     33  C   UNL     1       5.460 -10.747   5.406  1.00  0.00     0.010 A 
ATOM     34  C   UNL     1       6.265  -9.603   5.325  1.00  0.00    -0.014 A 
BRANCH  34  35
ATOM     35  C   UNL     1       7.542  -9.650   4.574  1.00  0.00     0.031 A 
ATOM     36  C   UNL     1       7.585  -9.535   3.079  1.00  0.00     0.074 A 
ATOM     37  C   UNL     1       8.680  -9.849   5.266  1.00  0.00     0.049 A 
ATOM     38  N   UNL     1       8.630  -9.493   2.294  1.00  0.00    -0.248 NA
ATOM     39  C   UNL     1       6.297  -9.464   2.373  1.00  0.00     0.031 C 
ATOM     40  C   UNL     1       8.755 -10.052   6.715  1.00  0.00     0.029 A 
ATOM     41  N   UNL     1       9.984  -9.925   4.850  1.00  0.00    -0.354 N 
ATOM     42  C   UNL     1       8.134  -9.396   1.002  1.00  0.00     0.074 A 
ATOM     43  C   UNL     1       6.689  -9.405   1.105  1.00  0.00     0.031 C 
ATOM     44  C   UNL     1      10.039 -10.216   7.068  1.00  0.00     0.029 A 
ATOM     45  C   UNL     1      10.875 -10.140   5.874  1.00  0.00     0.049 A 
ATOM     46  H   UNL     1      10.256  -9.835   3.908  1.00  0.00     0.167 HD
ATOM     47  C   UNL     1       8.823  -9.283  -0.159  1.00  0.00     0.034 A 
ATOM     48  C   UNL     1      12.218 -10.251   5.859  1.00  0.00     0.034 A 
ATOM     49  C   UNL     1      10.258  -9.256  -0.254  1.00  0.00     0.049 A 
ATOM     50  C   UNL     1      12.957 -10.099   4.562  1.00  0.00     0.074 A 
ATOM     51  C   UNL     1      11.039  -9.067  -1.382  1.00  0.00     0.029 A 
ATOM     52  N   UNL     1      11.129  -9.434   0.808  1.00  0.00    -0.354 N 
ATOM     53  N   UNL     1      12.476  -9.850   3.369  1.00  0.00    -0.248 NA
ATOM     54  C   UNL     1      14.422 -10.212   4.610  1.00  0.00     0.031 C 
ATOM     55  C   UNL     1      12.382  -9.144  -1.004  1.00  0.00     0.029 A 
ATOM     56  C   UNL     1      12.438  -9.370   0.362  1.00  0.00     0.049 A 
ATOM     57  H   UNL     1      10.858  -9.585   1.743  1.00  0.00     0.167 HD
ATOM     58  C   UNL     1      13.577  -9.757   2.527  1.00  0.00     0.074 A 
ATOM     59  C   UNL     1      14.753  -9.962   3.349  1.00  0.00     0.031 C 
ATOM     60  C   UNL     1      13.604  -9.535   1.191  1.00  0.00     0.034 A 
BRANCH  47  61
ATOM     61  C   UNL     1       8.042  -9.102  -1.431  1.00  0.00     0.023 A 
ATOM     62  C   UNL     1       7.523  -7.828  -1.733  1.00  0.00     0.012 A 
ATOM     63  C   UNL     1       7.929 -10.142  -2.374  1.00  0.00     0.148 A 
ATOM     64  C   UNL     1       6.895  -7.590  -2.955  1.00  0.00     0.002 A 
ATOM     65  C   UNL     1       7.324  -9.890  -3.601  1.00  0.00     0.091 A 
ATOM     66  F   UNL     1       8.423 -11.347  -2.059  1.00  0.00    -0.205 F 
ATOM     67  C   UNL     1       6.805  -8.617  -3.891  1.00  0.00     0.022 A 
BRANCH  65  68
ATOM     68  S   UNL     1       7.202 -11.125  -4.900  1.00  0.00     0.127 S 
ATOM     69  O   UNL     1       5.755 -11.332  -4.972  1.00  0.00    -0.237 OA
ATOM     70  O   UNL     1       7.775 -10.421  -6.047  1.00  0.00    -0.237 OA
ATOM     71  O   UNL     1       7.969 -12.273  -4.440  1.00  0.00    -0.744 OA
ENDBRANCH  65  68
ENDBRANCH  47  61
BRANCH  48  72
ATOM     72  C   UNL     1      12.940 -10.428   7.146  1.00  0.00     0.023 A 
ATOM     73  C   UNL     1      13.592  -9.322   7.723  1.00  0.00     0.012 A 
ATOM     74  C   UNL     1      12.905 -11.653   7.840  1.00  0.00     0.148 A 
ATOM     75  C   UNL     1      14.205  -9.434   8.970  1.00  0.00     0.002 A 
ATOM     76  C   UNL     1      13.485 -11.747   9.099  1.00  0.00     0.091 A 
ATOM     77  F   UNL     1      12.275 -12.688   7.266  1.00  0.00    -0.205 F 
ATOM     78  C   UNL     1      14.143 -10.641   9.662  1.00  0.00     0.022 A 
BRANCH  76  79
ATOM     79  S   UNL     1      13.371 -13.225  10.113  1.00  0.00     0.127 S 
ATOM     80  O   UNL     1      14.775 -13.611  10.236  1.00  0.00    -0.237 OA
ATOM     81  O   UNL     1      12.767 -12.699  11.337  1.00  0.00    -0.237 OA
ATOM     82  O   UNL     1      12.530 -14.153   9.370  1.00  0.00    -0.744 OA
ENDBRANCH  76  79
ENDBRANCH  48  72
BRANCH  60  83
ATOM     83  C   UNL     1      14.943  -9.497   0.507  1.00  0.00     0.023 A 
ATOM     84  C   UNL     1      15.592 -10.708   0.201  1.00  0.00     0.012 A 
ATOM     85  C   UNL     1      15.490  -8.280   0.057  1.00  0.00     0.148 A 
ATOM     86  C   UNL     1      16.773 -10.708  -0.540  1.00  0.00     0.002 A 
ATOM     87  C   UNL     1      16.649  -8.290  -0.709  1.00  0.00     0.091 A 
ATOM     88  F   UNL     1      14.855  -7.141   0.370  1.00  0.00    -0.205 F 
ATOM     89  C   UNL     1      17.294  -9.502  -1.005  1.00  0.00     0.022 A 
BRANCH  87  90
ATOM     90  S   UNL     1      17.358  -6.798  -1.417  1.00  0.00     0.127 S 
ATOM     91  O   UNL     1      18.628  -6.702  -0.698  1.00  0.00    -0.237 OA
ATOM     92  O   UNL     1      17.483  -7.156  -2.830  1.00  0.00    -0.237 OA
ATOM     93  O   UNL     1      16.409  -5.728  -1.141  1.00  0.00    -0.744 OA
ENDBRANCH  87  90
ENDBRANCH  60  83
ENDBRANCH  34  35
ENDBRANCH  27  29
ENDBRANCH  26  27
ENDBRANCH  25  26
ENDBRANCH   1  25
TORSDOF 18
