REMARK SMILES CC(C)[N@H+](C)Cc1cc2c(cc1Cl)C=C(C(=O)OCCOCCOC(=O)c1ccc(-c3c4nc(c(-c5cccc(S(=O)(=O)[O-])c5F)c5ccc([nH]5)c(-c5cccc(S(=O)(=O)[O-])c5F)c5nc(c(-c6cccc(S(=O)(=O)[O-])c6F)c6ccc3[nH]6)C=C5)C=C4)cc1)[C@@H](C(F)(F)F)O2
REMARK SMILES IDX 21 1 20 2 19 3 18 4 16 5 17 6 15 7 7 8 8 9 12 10 9 11 11 12
REMARK SMILES IDX 13 13 10 14 95 15 14 16 90 17 6 18 4 19 5 20 2 22 1 23 3 24
REMARK SMILES IDX 91 25 92 26 93 27 94 28 22 29 23 30 24 31 25 32 26 33 27 34
REMARK SMILES IDX 28 35 89 36 29 37 88 38 30 39 31 40 32 41 82 42 33 43 87 44
REMARK SMILES IDX 81 45 83 46 34 47 86 48 80 49 79 50 35 52 67 53 47 54 66 55
REMARK SMILES IDX 48 56 51 57 65 58 84 59 49 60 50 61 64 63 85 64 52 65 36 66
REMARK SMILES IDX 37 67 45 68 38 69 40 70 46 71 39 72 41 73 42 74 43 75 44 76
REMARK SMILES IDX 68 77 69 78 77 79 70 80 72 81 78 82 71 83 73 84 74 85 75 86
REMARK SMILES IDX 76 87 53 88 54 89 62 90 55 91 57 92 63 93 56 94 58 95 59 96
REMARK SMILES IDX 60 97 61 98
REMARK H PARENT 4 21 83 51 51 62
REMARK Flexibility Score: inf
ROOT
ATOM      1  O   UNL     1      -0.302   6.883   9.324  1.00  0.00    -0.374 OA
ENDROOT
BRANCH   1   2
ATOM      2  C   UNL     1      -0.092   8.239   8.934  1.00  0.00     0.202 C 
BRANCH   2   3
ATOM      3  C   UNL     1       0.803   8.497   7.717  1.00  0.00     0.261 C 
BRANCH   3   4
ATOM      4  O   UNL     1       0.328   7.799   6.556  1.00  0.00    -0.460 OA
BRANCH   4   5
ATOM      5  C   UNL     1       1.130   6.790   6.148  1.00  0.00     0.338 C 
ATOM      6  O   UNL     1       2.250   6.522   6.551  1.00  0.00    -0.246 OA
BRANCH   5   7
ATOM      7  C   UNL     1       0.364   5.903   5.259  1.00  0.00     0.087 C 
ATOM      8  C   UNL     1      -1.202   1.779   2.907  1.00  0.00     0.029 A 
ATOM      9  C   UNL     1      -1.291   3.161   2.635  1.00  0.00     0.058 A 
ATOM     10  C   UNL     1      -0.842   1.388   4.210  1.00  0.00     0.050 A 
ATOM     11  C   UNL     1      -0.855   4.104   3.563  1.00  0.00     0.128 A 
ATOM     12  C   UNL     1      -0.349   2.330   5.111  1.00  0.00     0.033 A 
ATOM     13  Cl  UNL     1      -0.949  -0.226   4.824  1.00  0.00    -0.084 Cl
ATOM     14  C   UNL     1      -0.304   3.676   4.764  1.00  0.00     0.019 A 
ATOM     15  O   UNL     1      -0.959   5.416   3.203  1.00  0.00    -0.475 OA
ATOM     16  C   UNL     1       0.387   4.614   5.616  1.00  0.00     0.027 C 
ATOM     17  C   UNL     1      -0.401   6.439   4.082  1.00  0.00     0.316 C 
BRANCH   8  18
ATOM     18  C   UNL     1      -1.482   0.828   1.757  1.00  0.00     0.300 C 
BRANCH  18  19
ATOM     19  N   UNL     1      -0.734  -0.420   1.828  1.00  0.00    -0.332 N 
ATOM     20  C   UNL     1      -1.555  -1.613   1.799  1.00  0.00     0.333 C 
ATOM     21  H   UNL     1      -0.395  -0.327   2.785  1.00  0.00     0.348 HD
BRANCH  19  22
ATOM     22  C   UNL     1       0.616  -0.531   1.276  1.00  0.00     0.177 C 
ATOM     23  C   UNL     1       0.754  -0.220  -0.216  1.00  0.00     0.075 C 
ATOM     24  C   UNL     1       1.621   0.313   2.070  1.00  0.00     0.075 C 
ENDBRANCH  19  22
ENDBRANCH  18  19
ENDBRANCH   8  18
BRANCH  17  25
ATOM     25  C   UNL     1       0.438   7.381   3.209  1.00  0.00     0.430 C 
ATOM     26  F   UNL     1      -0.281   7.829   2.151  1.00  0.00    -0.167 F 
ATOM     27  F   UNL     1       0.851   8.470   3.893  1.00  0.00    -0.167 F 
ATOM     28  F   UNL     1       1.536   6.761   2.720  1.00  0.00    -0.167 F 
ENDBRANCH  17  25
ENDBRANCH   5   7
ENDBRANCH   4   5
ENDBRANCH   3   4
ENDBRANCH   2   3
ENDBRANCH   1   2
BRANCH   1  29
ATOM     29  C   UNL     1      -1.237   6.105   8.577  1.00  0.00     0.202 C 
BRANCH  29  30
ATOM     30  C   UNL     1      -2.731   6.427   8.704  1.00  0.00     0.261 C 
BRANCH  30  31
ATOM     31  O   UNL     1      -3.072   7.682   8.091  1.00  0.00    -0.460 OA
BRANCH  31  32
ATOM     32  C   UNL     1      -3.430   8.665   8.955  1.00  0.00     0.338 C 
ATOM     33  O   UNL     1      -3.539   8.574  10.168  1.00  0.00    -0.246 OA
BRANCH  32  34
ATOM     34  C   UNL     1      -3.452   9.947   8.229  1.00  0.00     0.060 A 
ATOM     35  C   UNL     1      -4.288  10.138   7.128  1.00  0.00     0.016 A 
ATOM     36  C   UNL     1      -2.624  10.982   8.685  1.00  0.00     0.016 A 
ATOM     37  C   UNL     1      -4.311  11.384   6.497  1.00  0.00     0.010 A 
ATOM     38  C   UNL     1      -2.641  12.221   8.047  1.00  0.00     0.010 A 
ATOM     39  C   UNL     1      -3.500  12.437   6.962  1.00  0.00    -0.014 A 
BRANCH  39  40
ATOM     40  C   UNL     1      -3.663  13.806   6.418  1.00  0.00     0.031 A 
ATOM     41  C   UNL     1      -2.635  14.425   5.521  1.00  0.00     0.074 A 
ATOM     42  C   UNL     1      -4.745  14.512   6.798  1.00  0.00     0.049 A 
ATOM     43  N   UNL     1      -2.650  15.606   4.958  1.00  0.00    -0.248 NA
ATOM     44  C   UNL     1      -1.438  13.627   5.214  1.00  0.00     0.031 C 
ATOM     45  C   UNL     1      -5.782  14.031   7.715  1.00  0.00     0.029 A 
ATOM     46  N   UNL     1      -5.148  15.783   6.477  1.00  0.00    -0.354 N 
ATOM     47  C   UNL     1      -1.468  15.701   4.238  1.00  0.00     0.074 A 
ATOM     48  C   UNL     1      -0.749  14.461   4.444  1.00  0.00     0.031 C 
ATOM     49  C   UNL     1      -6.706  14.990   7.874  1.00  0.00     0.029 A 
ATOM     50  C   UNL     1      -6.316  16.161   7.094  1.00  0.00     0.049 A 
ATOM     51  H   UNL     1      -4.648  16.368   5.863  1.00  0.00     0.167 HD
ATOM     52  C   UNL     1      -1.036  16.724   3.463  1.00  0.00     0.034 A 
ATOM     53  C   UNL     1      -6.999  17.320   7.046  1.00  0.00     0.034 A 
ATOM     54  C   UNL     1      -1.758  17.951   3.257  1.00  0.00     0.049 A 
ATOM     55  C   UNL     1      -6.497  18.436   6.178  1.00  0.00     0.074 A 
ATOM     56  C   UNL     1      -1.417  19.018   2.444  1.00  0.00     0.029 A 
ATOM     57  N   UNL     1      -2.954  18.284   3.873  1.00  0.00    -0.354 N 
ATOM     58  N   UNL     1      -5.432  18.463   5.416  1.00  0.00    -0.248 NA
ATOM     59  C   UNL     1      -7.299  19.667   6.139  1.00  0.00     0.031 C 
ATOM     60  C   UNL     1      -2.394  20.007   2.586  1.00  0.00     0.029 A 
ATOM     61  C   UNL     1      -3.361  19.542   3.463  1.00  0.00     0.049 A 
ATOM     62  H   UNL     1      -3.441  17.712   4.509  1.00  0.00     0.167 HD
ATOM     63  C   UNL     1      -5.451  19.698   4.781  1.00  0.00     0.074 A 
ATOM     64  C   UNL     1      -6.635  20.391   5.245  1.00  0.00     0.031 C 
ATOM     65  C   UNL     1      -4.562  20.207   3.895  1.00  0.00     0.034 A 
BRANCH  52  66
ATOM     66  C   UNL     1       0.262  16.558   2.721  1.00  0.00     0.023 A 
ATOM     67  C   UNL     1       0.285  15.782   1.545  1.00  0.00     0.012 A 
ATOM     68  C   UNL     1       1.412  17.275   3.103  1.00  0.00     0.148 A 
ATOM     69  C   UNL     1       1.436  15.720   0.760  1.00  0.00     0.002 A 
ATOM     70  C   UNL     1       2.546  17.231   2.301  1.00  0.00     0.091 A 
ATOM     71  F   UNL     1       1.365  18.001   4.229  1.00  0.00    -0.205 F 
ATOM     72  C   UNL     1       2.560  16.453   1.131  1.00  0.00     0.022 A 
BRANCH  70  73
ATOM     73  S   UNL     1       4.030  18.178   2.659  1.00  0.00     0.127 S 
ATOM     74  O   UNL     1       5.006  17.115   2.901  1.00  0.00    -0.237 OA
ATOM     75  O   UNL     1       4.230  18.918   1.413  1.00  0.00    -0.237 OA
ATOM     76  O   UNL     1       3.716  19.001   3.819  1.00  0.00    -0.744 OA
ENDBRANCH  70  73
ENDBRANCH  52  66
BRANCH  53  77
ATOM     77  C   UNL     1      -8.274  17.439   7.801  1.00  0.00     0.023 A 
ATOM     78  C   UNL     1      -9.495  17.357   7.108  1.00  0.00     0.012 A 
ATOM     79  C   UNL     1      -8.277  17.544   9.205  1.00  0.00     0.148 A 
ATOM     80  C   UNL     1     -10.705  17.384   7.801  1.00  0.00     0.002 A 
ATOM     81  C   UNL     1      -9.484  17.533   9.893  1.00  0.00     0.091 A 
ATOM     82  F   UNL     1      -7.098  17.614   9.837  1.00  0.00    -0.205 F 
ATOM     83  C   UNL     1     -10.699  17.462   9.192  1.00  0.00     0.022 A 
BRANCH  81  84
ATOM     84  S   UNL     1      -9.579  17.534  11.685  1.00  0.00     0.127 S 
ATOM     85  O   UNL     1     -10.286  18.786  11.945  1.00  0.00    -0.237 OA
ATOM     86  O   UNL     1     -10.356  16.322  11.942  1.00  0.00    -0.237 OA
ATOM     87  O   UNL     1      -8.202  17.486  12.157  1.00  0.00    -0.744 OA
ENDBRANCH  81  84
ENDBRANCH  53  77
BRANCH  65  88
ATOM     88  C   UNL     1      -4.833  21.570   3.319  1.00  0.00     0.023 A 
ATOM     89  C   UNL     1      -4.560  22.719   4.084  1.00  0.00     0.012 A 
ATOM     90  C   UNL     1      -5.232  21.705   1.974  1.00  0.00     0.148 A 
ATOM     91  C   UNL     1      -4.686  23.988   3.519  1.00  0.00     0.002 A 
ATOM     92  C   UNL     1      -5.321  22.970   1.408  1.00  0.00     0.091 A 
ATOM     93  F   UNL     1      -5.492  20.593   1.272  1.00  0.00    -0.205 F 
ATOM     94  C   UNL     1      -5.053  24.113   2.180  1.00  0.00     0.022 A 
BRANCH  92  95
ATOM     95  S   UNL     1      -5.717  23.229  -0.325  1.00  0.00     0.127 S 
ATOM     96  O   UNL     1      -7.007  23.912  -0.236  1.00  0.00    -0.237 OA
ATOM     97  O   UNL     1      -4.609  24.073  -0.771  1.00  0.00    -0.237 OA
ATOM     98  O   UNL     1      -5.760  21.907  -0.934  1.00  0.00    -0.744 OA
ENDBRANCH  92  95
ENDBRANCH  65  88
ENDBRANCH  39  40
ENDBRANCH  32  34
ENDBRANCH  31  32
ENDBRANCH  30  31
ENDBRANCH  29  30
ENDBRANCH   1  29
TORSDOF 21
