REMARK SMILES O=C(OCCOCCOC(=O)c1ccc(-c2c3nc(c(-c4cccc(S(=O)(=O)[O-])c4F)c4ccc([nH]4)c(-c4cccc(S(=O)(=O)[O-])c4F)c4nc(c(-c5cccc(S(=O)(=O)[O-])c5F)c5ccc2[nH]5)C=C4)C=C3)cc1)C1=Cc2cc(Cl)cc(Cl)c2O[C@@H]1C(F)(F)F
REMARK SMILES IDX 7 1 6 2 5 3 4 4 3 5 2 6 1 7 75 8 76 9 86 10 77 11 85 12
REMARK SMILES IDX 78 13 84 14 79 15 82 16 80 17 81 18 83 19 87 20 88 21 89 22
REMARK SMILES IDX 90 23 8 24 9 25 10 26 11 27 12 28 13 29 74 30 14 31 73 32
REMARK SMILES IDX 15 33 16 34 17 35 67 36 18 37 72 38 66 39 68 40 19 41 71 42
REMARK SMILES IDX 65 43 64 44 20 46 52 47 32 48 51 49 33 50 36 51 50 52 69 53
REMARK SMILES IDX 34 54 35 55 49 57 70 58 37 59 21 60 22 61 30 62 23 63 25 64
REMARK SMILES IDX 31 65 24 66 26 67 27 68 28 69 29 70 53 71 54 72 62 73 55 74
REMARK SMILES IDX 57 75 63 76 56 77 58 78 59 79 60 80 61 81 38 82 39 83 47 84
REMARK SMILES IDX 40 85 42 86 48 87 41 88 43 89 44 90 45 91 46 92
REMARK H PARENT 68 45 36 56
REMARK Flexibility Score: inf
ROOT
ATOM      1  C   UNL     1       2.802   2.643   1.593  1.00  0.00     0.202 C 
ENDROOT
BRANCH   1   2
ATOM      2  O   UNL     1       3.872   1.718   1.829  1.00  0.00    -0.374 OA
BRANCH   2   3
ATOM      3  C   UNL     1       4.363   0.381   1.130  1.00  0.00     0.202 C 
BRANCH   3   4
ATOM      4  C   UNL     1       3.467  -0.956  -0.326  1.00  0.00     0.261 C 
BRANCH   4   5
ATOM      5  O   UNL     1       2.565  -2.176  -0.035  1.00  0.00    -0.460 OA
BRANCH   5   6
ATOM      6  C   UNL     1       2.790  -2.711   1.167  1.00  0.00     0.338 C 
ATOM      7  O   UNL     1       2.219  -3.604   1.739  1.00  0.00    -0.246 OA
BRANCH   6   8
ATOM      8  C   UNL     1       3.658  -1.653   1.629  1.00  0.00     0.087 C 
ATOM      9  C   UNL     1       5.027  -1.794   1.050  1.00  0.00     0.027 C 
ATOM     10  C   UNL     1       2.444  -0.192   1.245  1.00  0.00     0.316 C 
ATOM     11  C   UNL     1       5.681  -0.697  -0.250  1.00  0.00     0.020 A 
ATOM     12  O   UNL     1       3.100   0.933  -0.172  1.00  0.00    -0.474 OA
ATOM     13  C   UNL     1       6.863  -1.016  -0.864  1.00  0.00     0.032 A 
ATOM     14  C   UNL     1       4.710   0.565  -0.943  1.00  0.00     0.146 A 
ATOM     15  C   UNL     1       7.127  -0.310  -2.054  1.00  0.00     0.043 A 
ATOM     16  C   UNL     1       4.978   1.058  -2.188  1.00  0.00     0.085 A 
ATOM     17  Cl  UNL     1       8.629  -0.666  -2.849  1.00  0.00    -0.084 Cl
ATOM     18  C   UNL     1       6.223   0.628  -2.704  1.00  0.00     0.045 A 
ATOM     19  Cl  UNL     1       3.800   1.800  -3.164  1.00  0.00    -0.080 Cl
BRANCH  10  20
ATOM     20  C   UNL     1       1.980   0.159   2.715  1.00  0.00     0.430 C 
ATOM     21  F   UNL     1       1.108   1.176   2.828  1.00  0.00    -0.167 F 
ATOM     22  F   UNL     1       1.306  -0.932   3.191  1.00  0.00    -0.167 F 
ATOM     23  F   UNL     1       2.988   0.338   3.600  1.00  0.00    -0.167 F 
ENDBRANCH  10  20
ENDBRANCH   6   8
ENDBRANCH   5   6
ENDBRANCH   4   5
ENDBRANCH   3   4
ENDBRANCH   2   3
ENDBRANCH   1   2
BRANCH   1  24
ATOM     24  C   UNL     1       3.069   4.030   1.037  1.00  0.00     0.261 C 
BRANCH  24  25
ATOM     25  O   UNL     1       3.608   4.006  -0.267  1.00  0.00    -0.460 OA
BRANCH  25  26
ATOM     26  C   UNL     1       4.934   4.245  -0.326  1.00  0.00     0.338 C 
ATOM     27  O   UNL     1       5.735   4.255   0.590  1.00  0.00    -0.246 OA
BRANCH  26  28
ATOM     28  C   UNL     1       5.269   4.465  -1.740  1.00  0.00     0.060 A 
ATOM     29  C   UNL     1       6.505   4.009  -2.204  1.00  0.00     0.016 A 
ATOM     30  C   UNL     1       4.335   5.049  -2.609  1.00  0.00     0.016 A 
ATOM     31  C   UNL     1       6.792   4.086  -3.563  1.00  0.00     0.010 A 
ATOM     32  C   UNL     1       4.621   5.123  -3.963  1.00  0.00     0.010 A 
ATOM     33  C   UNL     1       5.851   4.645  -4.438  1.00  0.00    -0.014 A 
BRANCH  33  34
ATOM     34  C   UNL     1       6.230   4.958  -5.824  1.00  0.00     0.031 A 
ATOM     35  C   UNL     1       6.734   6.341  -6.085  1.00  0.00     0.074 A 
ATOM     36  C   UNL     1       6.057   4.071  -6.817  1.00  0.00     0.049 A 
ATOM     37  N   UNL     1       7.069   6.897  -7.213  1.00  0.00    -0.248 NA
ATOM     38  C   UNL     1       6.863   7.221  -4.908  1.00  0.00     0.031 C 
ATOM     39  C   UNL     1       5.551   2.710  -6.659  1.00  0.00     0.029 A 
ATOM     40  N   UNL     1       6.251   4.207  -8.167  1.00  0.00    -0.354 N 
ATOM     41  C   UNL     1       7.422   8.198  -6.889  1.00  0.00     0.074 A 
ATOM     42  C   UNL     1       7.247   8.356  -5.464  1.00  0.00     0.031 C 
ATOM     43  C   UNL     1       5.432   2.146  -7.874  1.00  0.00     0.029 A 
ATOM     44  C   UNL     1       5.824   3.119  -8.891  1.00  0.00     0.049 A 
ATOM     45  H   UNL     1       6.655   5.005  -8.578  1.00  0.00     0.167 HD
ATOM     46  C   UNL     1       7.855   9.177  -7.713  1.00  0.00     0.034 A 
ATOM     47  C   UNL     1       5.728   2.952 -10.225  1.00  0.00     0.034 A 
ATOM     48  C   UNL     1       7.984   9.014  -9.131  1.00  0.00     0.049 A 
ATOM     49  C   UNL     1       6.180   4.069 -11.129  1.00  0.00     0.074 A 
ATOM     50  C   UNL     1       8.455   9.921 -10.059  1.00  0.00     0.029 A 
ATOM     51  N   UNL     1       7.592   7.882  -9.830  1.00  0.00    -0.354 N 
ATOM     52  N   UNL     1       6.647   5.252 -10.807  1.00  0.00    -0.248 NA
ATOM     53  C   UNL     1       6.125   3.822 -12.577  1.00  0.00     0.031 C 
ATOM     54  C   UNL     1       8.288   9.362 -11.328  1.00  0.00     0.029 A 
ATOM     55  C   UNL     1       7.783   8.077 -11.184  1.00  0.00     0.049 A 
ATOM     56  H   UNL     1       7.232   7.061  -9.422  1.00  0.00     0.167 HD
ATOM     57  C   UNL     1       6.978   5.874 -12.005  1.00  0.00     0.074 A 
ATOM     58  C   UNL     1       6.662   4.934 -13.062  1.00  0.00     0.031 C 
ATOM     59  C   UNL     1       7.498   7.109 -12.213  1.00  0.00     0.034 A 
BRANCH  46  60
ATOM     60  C   UNL     1       8.174  10.504  -7.087  1.00  0.00     0.023 A 
ATOM     61  C   UNL     1       9.274  10.633  -6.213  1.00  0.00     0.012 A 
ATOM     62  C   UNL     1       7.367  11.624  -7.355  1.00  0.00     0.148 A 
ATOM     63  C   UNL     1       9.532  11.844  -5.574  1.00  0.00     0.002 A 
ATOM     64  C   UNL     1       7.665  12.841  -6.760  1.00  0.00     0.091 A 
ATOM     65  F   UNL     1       6.308  11.471  -8.162  1.00  0.00    -0.205 F 
ATOM     66  C   UNL     1       8.734  12.950  -5.855  1.00  0.00     0.022 A 
BRANCH  64  67
ATOM     67  S   UNL     1       6.745  14.339  -7.121  1.00  0.00     0.127 S 
ATOM     68  O   UNL     1       6.068  14.583  -5.848  1.00  0.00    -0.237 OA
ATOM     69  O   UNL     1       7.817  15.284  -7.434  1.00  0.00    -0.237 OA
ATOM     70  O   UNL     1       5.871  14.017  -8.240  1.00  0.00    -0.744 OA
ENDBRANCH  64  67
ENDBRANCH  46  60
BRANCH  47  71
ATOM     71  C   UNL     1       5.183   1.681 -10.778  1.00  0.00     0.023 A 
ATOM     72  C   UNL     1       6.031   0.789 -11.463  1.00  0.00     0.012 A 
ATOM     73  C   UNL     1       3.827   1.343 -10.604  1.00  0.00     0.148 A 
ATOM     74  C   UNL     1       5.530  -0.403 -11.990  1.00  0.00     0.002 A 
ATOM     75  C   UNL     1       3.347   0.131 -11.084  1.00  0.00     0.091 A 
ATOM     76  F   UNL     1       3.037   2.210  -9.956  1.00  0.00    -0.205 F 
ATOM     77  C   UNL     1       4.193  -0.736 -11.793  1.00  0.00     0.022 A 
BRANCH  75  78
ATOM     78  S   UNL     1       1.671  -0.436 -10.777  1.00  0.00     0.127 S 
ATOM     79  O   UNL     1       1.125  -0.502 -12.131  1.00  0.00    -0.237 OA
ATOM     80  O   UNL     1       1.909  -1.734 -10.145  1.00  0.00    -0.237 OA
ATOM     81  O   UNL     1       1.067   0.561  -9.905  1.00  0.00    -0.744 OA
ENDBRANCH  75  78
ENDBRANCH  47  71
BRANCH  59  82
ATOM     82  C   UNL     1       7.825   7.512 -13.627  1.00  0.00     0.023 A 
ATOM     83  C   UNL     1       6.799   7.831 -14.535  1.00  0.00     0.012 A 
ATOM     84  C   UNL     1       9.171   7.699 -14.003  1.00  0.00     0.148 A 
ATOM     85  C   UNL     1       7.109   8.315 -15.806  1.00  0.00     0.002 A 
ATOM     86  C   UNL     1       9.470   8.236 -15.247  1.00  0.00     0.091 A 
ATOM     87  F   UNL     1      10.130   7.375 -13.124  1.00  0.00    -0.205 F 
ATOM     88  C   UNL     1       8.441   8.533 -16.155  1.00  0.00     0.022 A 
BRANCH  86  89
ATOM     89  S   UNL     1      11.146   8.653 -15.738  1.00  0.00     0.127 S 
ATOM     90  O   UNL     1      11.377   7.713 -16.834  1.00  0.00    -0.237 OA
ATOM     91  O   UNL     1      11.005  10.050 -16.150  1.00  0.00    -0.237 OA
ATOM     92  O   UNL     1      11.978   8.446 -14.561  1.00  0.00    -0.744 OA
ENDBRANCH  86  89
ENDBRANCH  59  82
ENDBRANCH  33  34
ENDBRANCH  26  28
ENDBRANCH  25  26
ENDBRANCH  24  25
ENDBRANCH   1  24
TORSDOF 18
