REMARK SMILES CC(C)(C)[N@@H+](CCC(=O)OCCOCCOC(=O)c1ccc(-c2c3nc(c(-c4cccc(S(=O)(=O)[O-])c4F)c4ccc([nH]4)c(-c4cccc(S(=O)(=O)[O-])c4F)c4nc(c(-c5cccc(S(=O)(=O)[O-])c5F)c5ccc2[nH]5)C=C4)C=C3)cc1)C[C@H]1COc2ccccc21
REMARK SMILES IDX 12 1 11 2 10 3 8 4 9 5 7 6 6 7 5 8 2 10 1 11 3 12 4 13 82 14
REMARK SMILES IDX 83 15 84 16 91 17 85 18 86 19 90 20 87 21 89 22 88 23 13 24
REMARK SMILES IDX 14 25 15 26 16 27 17 28 18 29 19 30 20 31 81 32 21 33 80 34
REMARK SMILES IDX 22 35 23 36 24 37 74 38 25 39 79 40 73 41 75 42 26 43 78 44
REMARK SMILES IDX 72 45 71 46 27 48 59 49 39 50 58 51 40 52 43 53 57 54 76 55
REMARK SMILES IDX 41 56 42 57 56 59 77 60 44 61 28 62 29 63 37 64 30 65 32 66
REMARK SMILES IDX 38 67 31 68 33 69 34 70 35 71 36 72 60 73 61 74 69 75 62 76
REMARK SMILES IDX 64 77 70 78 63 79 65 80 66 81 67 82 68 83 45 84 46 85 54 86
REMARK SMILES IDX 47 87 49 88 55 89 48 90 50 91 51 92 52 93 53 94
REMARK H PARENT 5 9 75 47 43 58
REMARK Flexibility Score: inf
ROOT
ATOM      1  C   UNL     1       0.481  -0.581  -7.276  1.00  0.00     0.202 C 
ENDROOT
BRANCH   1   2
ATOM      2  C   UNL     1      -1.119   0.060  -5.925  1.00  0.00     0.261 C 
BRANCH   2   3
ATOM      3  O   UNL     1      -1.010   0.076  -4.201  1.00  0.00    -0.463 OA
BRANCH   3   4
ATOM      4  C   UNL     1      -1.204  -0.993  -3.383  1.00  0.00     0.311 C 
ATOM      5  O   UNL     1      -2.146  -1.770  -3.533  1.00  0.00    -0.252 OA
BRANCH   4   6
ATOM      6  C   UNL     1      -0.118  -1.249  -2.284  1.00  0.00     0.184 C 
BRANCH   6   7
ATOM      7  C   UNL     1       1.457  -1.282  -2.388  1.00  0.00     0.274 C 
BRANCH   7   8
ATOM      8  N   UNL     1       2.427  -0.155  -2.393  1.00  0.00    -0.330 N 
ATOM      9  H   UNL     1       3.243  -0.636  -2.014  1.00  0.00     0.348 HD
BRANCH   8  10
ATOM     10  C   UNL     1       2.462   0.859  -1.303  1.00  0.00     0.089 C 
ATOM     11  C   UNL     1       3.183   0.216  -0.099  1.00  0.00     0.078 C 
ATOM     12  C   UNL     1       1.082   1.346  -0.830  1.00  0.00     0.078 C 
ATOM     13  C   UNL     1       3.283   2.141  -1.636  1.00  0.00     0.078 C 
ENDBRANCH   8  10
BRANCH   8  14
ATOM     14  C   UNL     1       2.758   0.307  -3.746  1.00  0.00     0.274 C 
BRANCH  14  15
ATOM     15  C   UNL     1       1.524   0.924  -4.335  1.00  0.00     0.116 C 
ATOM     16  C   UNL     1       1.663   2.366  -4.916  1.00  0.00     0.244 C 
ATOM     17  C   UNL     1       0.865   0.126  -5.398  1.00  0.00     0.006 A 
ATOM     18  O   UNL     1       0.973   2.603  -6.171  1.00  0.00    -0.492 OA
ATOM     19  C   UNL     1       0.420   1.415  -6.516  1.00  0.00     0.123 A 
ATOM     20  C   UNL     1       0.052  -1.516  -5.535  1.00  0.00     0.008 A 
ATOM     21  C   UNL     1      -0.753   1.157  -7.786  1.00  0.00     0.047 A 
ATOM     22  C   UNL     1      -1.153  -1.790  -6.868  1.00  0.00     0.001 A 
ATOM     23  C   UNL     1      -1.559  -0.424  -7.957  1.00  0.00     0.004 A 
ENDBRANCH  14  15
ENDBRANCH   8  14
ENDBRANCH   7   8
ENDBRANCH   6   7
ENDBRANCH   4   6
ENDBRANCH   3   4
ENDBRANCH   2   3
ENDBRANCH   1   2
BRANCH   1  24
ATOM     24  O   UNL     1       1.170  -2.066  -7.502  1.00  0.00    -0.374 OA
BRANCH  24  25
ATOM     25  C   UNL     1       2.117  -2.620  -6.549  1.00  0.00     0.202 C 
BRANCH  25  26
ATOM     26  C   UNL     1       3.595  -2.678  -6.901  1.00  0.00     0.261 C 
BRANCH  26  27
ATOM     27  O   UNL     1       4.119  -1.351  -6.919  1.00  0.00    -0.460 OA
BRANCH  27  28
ATOM     28  C   UNL     1       3.997  -0.772  -8.131  1.00  0.00     0.338 C 
ATOM     29  O   UNL     1       3.728  -1.321  -9.186  1.00  0.00    -0.246 OA
BRANCH  28  30
ATOM     30  C   UNL     1       4.080   0.685  -7.971  1.00  0.00     0.060 A 
ATOM     31  C   UNL     1       3.219   1.448  -8.767  1.00  0.00     0.016 A 
ATOM     32  C   UNL     1       4.993   1.293  -7.104  1.00  0.00     0.016 A 
ATOM     33  C   UNL     1       3.326   2.828  -8.769  1.00  0.00     0.010 A 
ATOM     34  C   UNL     1       5.114   2.681  -7.119  1.00  0.00     0.010 A 
ATOM     35  C   UNL     1       4.319   3.438  -7.997  1.00  0.00    -0.014 A 
BRANCH  35  36
ATOM     36  C   UNL     1       4.694   4.827  -8.321  1.00  0.00     0.031 A 
ATOM     37  C   UNL     1       5.839   5.038  -9.270  1.00  0.00     0.074 A 
ATOM     38  C   UNL     1       4.004   5.864  -7.824  1.00  0.00     0.049 A 
ATOM     39  N   UNL     1       6.356   6.154  -9.705  1.00  0.00    -0.248 NA
ATOM     40  C   UNL     1       6.485   3.825  -9.804  1.00  0.00     0.031 C 
ATOM     41  C   UNL     1       2.852   5.763  -6.931  1.00  0.00     0.029 A 
ATOM     42  N   UNL     1       4.191   7.210  -7.990  1.00  0.00    -0.354 N 
ATOM     43  C   UNL     1       7.400   5.782 -10.541  1.00  0.00     0.074 A 
ATOM     44  C   UNL     1       7.455   4.338 -10.544  1.00  0.00     0.031 C 
ATOM     45  C   UNL     1       2.455   7.002  -6.596  1.00  0.00     0.029 A 
ATOM     46  C   UNL     1       3.341   7.975  -7.230  1.00  0.00     0.049 A 
ATOM     47  H   UNL     1       4.868   7.592  -8.594  1.00  0.00     0.167 HD
ATOM     48  C   UNL     1       8.234   6.575 -11.252  1.00  0.00     0.034 A 
ATOM     49  C   UNL     1       3.309   9.309  -7.050  1.00  0.00     0.034 A 
ATOM     50  C   UNL     1       8.174   8.010 -11.235  1.00  0.00     0.049 A 
ATOM     51  C   UNL     1       4.290  10.169  -7.804  1.00  0.00     0.074 A 
ATOM     52  C   UNL     1       8.957   8.910 -11.933  1.00  0.00     0.029 A 
ATOM     53  N   UNL     1       7.297   8.754 -10.460  1.00  0.00    -0.354 N 
ATOM     54  N   UNL     1       5.216   9.812  -8.662  1.00  0.00    -0.248 NA
ATOM     55  C   UNL     1       4.200  11.620  -7.590  1.00  0.00     0.031 C 
ATOM     56  C   UNL     1       8.588  10.200 -11.540  1.00  0.00     0.029 A 
ATOM     57  C   UNL     1       7.533  10.104 -10.645  1.00  0.00     0.049 A 
ATOM     58  H   UNL     1       6.608   8.377  -9.866  1.00  0.00     0.167 HD
ATOM     59  C   UNL     1       5.789  10.993  -9.121  1.00  0.00     0.074 A 
ATOM     60  C   UNL     1       5.094  12.077  -8.457  1.00  0.00     0.031 C 
ATOM     61  C   UNL     1       6.801  11.168 -10.007  1.00  0.00     0.034 A 
BRANCH  48  62
ATOM     62  C   UNL     1       9.287   5.904 -12.091  1.00  0.00     0.023 A 
ATOM     63  C   UNL     1       8.922   5.187 -13.248  1.00  0.00     0.012 A 
ATOM     64  C   UNL     1      10.648   6.013 -11.746  1.00  0.00     0.148 A 
ATOM     65  C   UNL     1       9.892   4.560 -14.030  1.00  0.00     0.002 A 
ATOM     66  C   UNL     1      11.612   5.430 -12.557  1.00  0.00     0.091 A 
ATOM     67  F   UNL     1      10.972   6.677 -10.627  1.00  0.00    -0.205 F 
ATOM     68  C   UNL     1      11.236   4.691 -13.691  1.00  0.00     0.022 A 
BRANCH  66  69
ATOM     69  S   UNL     1      13.372   5.609 -12.250  1.00  0.00     0.127 S 
ATOM     70  O   UNL     1      13.753   4.237 -11.914  1.00  0.00    -0.237 OA
ATOM     71  O   UNL     1      13.861   6.078 -13.546  1.00  0.00    -0.237 OA
ATOM     72  O   UNL     1      13.498   6.571 -11.165  1.00  0.00    -0.744 OA
ENDBRANCH  66  69
ENDBRANCH  48  62
BRANCH  49  73
ATOM     73  C   UNL     1       2.317   9.912  -6.119  1.00  0.00     0.023 A 
ATOM     74  C   UNL     1       1.291  10.735  -6.621  1.00  0.00     0.012 A 
ATOM     75  C   UNL     1       2.390   9.671  -4.733  1.00  0.00     0.148 A 
ATOM     76  C   UNL     1       0.380  11.341  -5.754  1.00  0.00     0.002 A 
ATOM     77  C   UNL     1       1.445  10.230  -3.882  1.00  0.00     0.091 A 
ATOM     78  F   UNL     1       3.381   8.893  -4.276  1.00  0.00    -0.205 F 
ATOM     79  C   UNL     1       0.452  11.082  -4.387  1.00  0.00     0.022 A 
BRANCH  77  80
ATOM     80  S   UNL     1       1.388   9.854  -2.127  1.00  0.00     0.127 S 
ATOM     81  O   UNL     1       1.724  11.146  -1.534  1.00  0.00    -0.237 OA
ATOM     82  O   UNL     1      -0.004   9.439  -1.956  1.00  0.00    -0.237 OA
ATOM     83  O   UNL     1       2.363   8.792  -1.916  1.00  0.00    -0.744 OA
ENDBRANCH  77  80
ENDBRANCH  49  73
BRANCH  61  84
ATOM     84  C   UNL     1       7.188  12.582 -10.359  1.00  0.00     0.023 A 
ATOM     85  C   UNL     1       7.844  13.397  -9.416  1.00  0.00     0.012 A 
ATOM     86  C   UNL     1       6.965  13.073 -11.662  1.00  0.00     0.148 A 
ATOM     87  C   UNL     1       8.235  14.693  -9.752  1.00  0.00     0.002 A 
ATOM     88  C   UNL     1       7.409  14.342 -12.006  1.00  0.00     0.091 A 
ATOM     89  F   UNL     1       6.328  12.285 -12.541  1.00  0.00    -0.205 F 
ATOM     90  C   UNL     1       8.030  15.160 -11.049  1.00  0.00     0.022 A 
BRANCH  88  91
ATOM     91  S   UNL     1       7.281  14.989 -13.677  1.00  0.00     0.127 S 
ATOM     92  O   UNL     1       6.294  16.054 -13.508  1.00  0.00    -0.237 OA
ATOM     93  O   UNL     1       8.645  15.455 -13.931  1.00  0.00    -0.237 OA
ATOM     94  O   UNL     1       6.855  13.874 -14.511  1.00  0.00    -0.744 OA
ENDBRANCH  88  91
ENDBRANCH  61  84
ENDBRANCH  35  36
ENDBRANCH  28  30
ENDBRANCH  27  28
ENDBRANCH  26  27
ENDBRANCH  25  26
ENDBRANCH  24  25
ENDBRANCH   1  24
TORSDOF 22
