REMARK SMILES O=C(OCCOCCOC(=O)[C@H]1CC=CC[C@H]1C(=O)Nc1ccc(S(=O)(=O)N2CCc3ccccc32)cc1)c1ccc(-c2c3nc(c(-c4cccc(S(=O)(=O)[O-])c4F)c4ccc([nH]4)c(-c4cccc(S(=O)(=O)[O-])c4F)c4nc(c(-c5cccc(S(=O)(=O)[O-])c5F)c5ccc2[nH]5)C=C4)C=C3)cc1
REMARK SMILES IDX 7 1 6 2 5 3 4 4 3 5 2 6 1 7 39 8 40 9 101 10 41 11 100 12
REMARK SMILES IDX 42 13 43 14 44 15 94 16 45 17 99 18 93 19 95 20 46 21 98 22
REMARK SMILES IDX 92 23 91 24 47 26 79 27 59 28 78 29 60 30 63 31 77 32 96 33
REMARK SMILES IDX 61 34 62 35 76 37 97 38 64 39 48 40 49 41 57 42 50 43 52 44
REMARK SMILES IDX 58 45 51 46 53 47 54 48 55 49 56 50 80 51 81 52 89 53 82 54
REMARK SMILES IDX 84 55 90 56 83 57 85 58 86 59 87 60 88 61 65 62 66 63 74 64
REMARK SMILES IDX 67 65 69 66 75 67 68 68 70 69 71 70 72 71 73 72 8 73 9 74
REMARK SMILES IDX 10 75 11 76 12 77 13 78 17 79 14 80 16 81 15 82 18 83 19 84
REMARK SMILES IDX 20 85 21 87 22 88 38 89 23 90 37 91 24 92 25 93 26 94 27 95
REMARK SMILES IDX 28 96 29 97 36 98 30 99 31 100 35 101 32 102 34 103 33 104
REMARK H PARENT 95 25 63 36 20 86
REMARK Flexibility Score: inf
ROOT
ATOM      1  C   UNL     1       2.551   0.844   0.934  1.00  0.00     0.202 C 
ENDROOT
BRANCH   1   2
ATOM      2  O   UNL     1       3.866   0.593   0.473  1.00  0.00    -0.374 OA
BRANCH   2   3
ATOM      3  C   UNL     1       4.500   1.598  -0.292  1.00  0.00     0.202 C 
BRANCH   3   4
ATOM      4  C   UNL     1       4.144   1.527  -1.776  1.00  0.00     0.261 C 
BRANCH   4   5
ATOM      5  O   UNL     1       2.748   1.250  -1.974  1.00  0.00    -0.460 OA
BRANCH   5   6
ATOM      6  C   UNL     1       2.187   0.042  -2.246  1.00  0.00     0.338 C 
ATOM      7  O   UNL     1       0.975  -0.002  -2.454  1.00  0.00    -0.246 OA
BRANCH   6   8
ATOM      8  C   UNL     1       2.959  -1.237  -2.319  1.00  0.00     0.060 A 
ATOM      9  C   UNL     1       4.058  -1.554  -1.517  1.00  0.00     0.016 A 
ATOM     10  C   UNL     1       2.481  -2.226  -3.193  1.00  0.00     0.016 A 
ATOM     11  C   UNL     1       4.696  -2.780  -1.595  1.00  0.00     0.010 A 
ATOM     12  C   UNL     1       3.112  -3.472  -3.278  1.00  0.00     0.010 A 
ATOM     13  C   UNL     1       4.235  -3.738  -2.485  1.00  0.00    -0.014 A 
BRANCH  13  14
ATOM     14  C   UNL     1       5.073  -4.930  -2.678  1.00  0.00     0.031 A 
ATOM     15  C   UNL     1       5.963  -4.957  -3.880  1.00  0.00     0.074 A 
ATOM     16  C   UNL     1       5.123  -5.878  -1.725  1.00  0.00     0.049 A 
ATOM     17  N   UNL     1       6.728  -5.914  -4.320  1.00  0.00    -0.248 NA
ATOM     18  C   UNL     1       6.011  -3.725  -4.691  1.00  0.00     0.031 C 
ATOM     19  C   UNL     1       4.390  -5.840  -0.457  1.00  0.00     0.029 A 
ATOM     20  N   UNL     1       5.823  -7.052  -1.672  1.00  0.00    -0.354 N 
ATOM     21  C   UNL     1       7.286  -5.431  -5.496  1.00  0.00     0.074 A 
ATOM     22  C   UNL     1       6.816  -4.079  -5.680  1.00  0.00     0.031 C 
ATOM     23  C   UNL     1       4.664  -6.955   0.241  1.00  0.00     0.029 A 
ATOM     24  C   UNL     1       5.528  -7.811  -0.562  1.00  0.00     0.049 A 
ATOM     25  H   UNL     1       6.473  -7.327  -2.358  1.00  0.00     0.167 HD
ATOM     26  C   UNL     1       8.099  -6.084  -6.354  1.00  0.00     0.034 A 
ATOM     27  C   UNL     1       5.876  -9.080  -0.277  1.00  0.00     0.034 A 
ATOM     28  C   UNL     1       8.551  -7.426  -6.124  1.00  0.00     0.049 A 
ATOM     29  C   UNL     1       6.732  -9.805  -1.284  1.00  0.00     0.074 A 
ATOM     30  C   UNL     1       9.340  -8.222  -6.929  1.00  0.00     0.029 A 
ATOM     31  N   UNL     1       8.233  -8.172  -4.997  1.00  0.00    -0.354 N 
ATOM     32  N   UNL     1       7.262  -9.350  -2.397  1.00  0.00    -0.248 NA
ATOM     33  C   UNL     1       7.041 -11.212  -1.004  1.00  0.00     0.031 C 
ATOM     34  C   UNL     1       9.469  -9.466  -6.302  1.00  0.00     0.029 A 
ATOM     35  C   UNL     1       8.793  -9.429  -5.090  1.00  0.00     0.049 A 
ATOM     36  H   UNL     1       7.688  -7.851  -4.242  1.00  0.00     0.167 HD
ATOM     37  C   UNL     1       7.979 -10.406  -2.941  1.00  0.00     0.074 A 
ATOM     38  C   UNL     1       7.844 -11.515  -2.015  1.00  0.00     0.031 C 
ATOM     39  C   UNL     1       8.667 -10.476  -4.108  1.00  0.00     0.034 A 
BRANCH  26  40
ATOM     40  C   UNL     1       8.473  -5.382  -7.628  1.00  0.00     0.023 A 
ATOM     41  C   UNL     1       9.420  -4.340  -7.623  1.00  0.00     0.012 A 
ATOM     42  C   UNL     1       7.868  -5.764  -8.842  1.00  0.00     0.148 A 
ATOM     43  C   UNL     1       9.740  -3.671  -8.805  1.00  0.00     0.002 A 
ATOM     44  C   UNL     1       8.220  -5.121 -10.020  1.00  0.00     0.091 A 
ATOM     45  F   UNL     1       6.948  -6.739  -8.815  1.00  0.00    -0.205 F 
ATOM     46  C   UNL     1       9.148  -4.066 -10.003  1.00  0.00     0.022 A 
BRANCH  44  47
ATOM     47  S   UNL     1       7.552  -5.588 -11.620  1.00  0.00     0.127 S 
ATOM     48  O   UNL     1       6.865  -4.361 -12.024  1.00  0.00    -0.237 OA
ATOM     49  O   UNL     1       8.766  -5.886 -12.379  1.00  0.00    -0.237 OA
ATOM     50  O   UNL     1       6.680  -6.729 -11.379  1.00  0.00    -0.744 OA
ENDBRANCH  44  47
ENDBRANCH  26  40
BRANCH  27  51
ATOM     51  C   UNL     1       5.380  -9.758   0.958  1.00  0.00     0.023 A 
ATOM     52  C   UNL     1       6.294 -10.202   1.933  1.00  0.00     0.012 A 
ATOM     53  C   UNL     1       4.003  -9.987   1.163  1.00  0.00     0.148 A 
ATOM     54  C   UNL     1       5.852 -10.893   3.064  1.00  0.00     0.002 A 
ATOM     55  C   UNL     1       3.565 -10.624   2.319  1.00  0.00     0.091 A 
ATOM     56  F   UNL     1       3.142  -9.588   0.216  1.00  0.00    -0.205 F 
ATOM     57  C   UNL     1       4.489 -11.095   3.262  1.00  0.00     0.022 A 
BRANCH  55  58
ATOM     58  S   UNL     1       1.820 -10.818   2.701  1.00  0.00     0.127 S 
ATOM     59  O   UNL     1       1.602 -12.229   2.393  1.00  0.00    -0.237 OA
ATOM     60  O   UNL     1       1.781 -10.487   4.127  1.00  0.00    -0.237 OA
ATOM     61  O   UNL     1       1.129  -9.864   1.846  1.00  0.00    -0.744 OA
ENDBRANCH  55  58
ENDBRANCH  27  51
BRANCH  39  62
ATOM     62  C   UNL     1       9.347 -11.776  -4.423  1.00  0.00     0.023 A 
ATOM     63  C   UNL     1       8.582 -12.883  -4.838  1.00  0.00     0.012 A 
ATOM     64  C   UNL     1      10.752 -11.862  -4.405  1.00  0.00     0.148 A 
ATOM     65  C   UNL     1       9.209 -14.071  -5.206  1.00  0.00     0.002 A 
ATOM     66  C   UNL     1      11.370 -13.029  -4.828  1.00  0.00     0.091 A 
ATOM     67  F   UNL     1      11.453 -10.797  -3.988  1.00  0.00    -0.205 F 
ATOM     68  C   UNL     1      10.601 -14.139  -5.216  1.00  0.00     0.022 A 
BRANCH  66  69
ATOM     69  S   UNL     1      13.153 -13.162  -4.984  1.00  0.00     0.127 S 
ATOM     70  O   UNL     1      13.485 -14.042  -3.865  1.00  0.00    -0.237 OA
ATOM     71  O   UNL     1      13.303 -13.771  -6.306  1.00  0.00    -0.237 OA
ATOM     72  O   UNL     1      13.668 -11.803  -4.885  1.00  0.00    -0.744 OA
ENDBRANCH  66  69
ENDBRANCH  39  62
ENDBRANCH  13  14
ENDBRANCH   6   8
ENDBRANCH   5   6
ENDBRANCH   4   5
ENDBRANCH   3   4
ENDBRANCH   2   3
ENDBRANCH   1   2
BRANCH   1  73
ATOM     73  C   UNL     1       2.491   0.307   2.349  1.00  0.00     0.261 C 
BRANCH  73  74
ATOM     74  O   UNL     1       3.253   1.138   3.244  1.00  0.00    -0.463 OA
BRANCH  74  75
ATOM     75  C   UNL     1       4.592   0.910   3.293  1.00  0.00     0.310 C 
ATOM     76  O   UNL     1       5.210   0.097   2.618  1.00  0.00    -0.252 OA
BRANCH  75  77
ATOM     77  C   UNL     1       5.288   1.780   4.317  1.00  0.00     0.116 C 
ATOM     78  C   UNL     1       4.473   2.988   4.802  1.00  0.00     0.043 C 
ATOM     79  C   UNL     1       5.988   0.982   5.438  1.00  0.00     0.097 C 
ATOM     80  C   UNL     1       3.820   2.816   6.136  1.00  0.00    -0.030 C 
ATOM     81  C   UNL     1       5.424   1.044   6.861  1.00  0.00     0.041 C 
ATOM     82  C   UNL     1       4.261   1.958   7.061  1.00  0.00    -0.030 C 
BRANCH  79  83
ATOM     83  C   UNL     1       6.397  -0.448   5.119  1.00  0.00     0.228 C 
ATOM     84  O   UNL     1       7.609  -0.677   4.975  1.00  0.00    -0.274 OA
ATOM     85  N   UNL     1       5.579  -1.520   4.981  1.00  0.00    -0.326 N 
ATOM     86  H   UNL     1       6.110  -2.339   4.853  1.00  0.00     0.169 HD
BRANCH  85  87
ATOM     87  C   UNL     1       4.203  -1.822   4.964  1.00  0.00     0.041 A 
ATOM     88  C   UNL     1       3.913  -3.066   4.401  1.00  0.00     0.027 A 
ATOM     89  C   UNL     1       3.122  -1.018   5.355  1.00  0.00     0.027 A 
ATOM     90  C   UNL     1       2.605  -3.426   4.112  1.00  0.00     0.024 A 
ATOM     91  C   UNL     1       1.775  -1.383   5.079  1.00  0.00     0.024 A 
ATOM     92  C   UNL     1       1.535  -2.564   4.398  1.00  0.00     0.088 A 
BRANCH  92  93
ATOM     93  S   UNL     1       0.015  -3.133   3.694  1.00  0.00     0.264 S 
ATOM     94  O   UNL     1       0.191  -2.945   2.268  1.00  0.00    -0.201 OA
ATOM     95  O   UNL     1      -0.139  -4.450   4.285  1.00  0.00    -0.201 OA
BRANCH  93  96
ATOM     96  N   UNL     1      -1.399  -2.187   4.159  1.00  0.00    -0.266 N 
ATOM     97  C   UNL     1      -1.486  -0.837   3.469  1.00  0.00     0.140 C 
ATOM     98  C   UNL     1      -2.535  -2.918   3.590  1.00  0.00     0.055 A 
ATOM     99  C   UNL     1      -2.348  -1.002   2.197  1.00  0.00     0.060 C 
ATOM    100  C   UNL     1      -2.928  -2.363   2.375  1.00  0.00    -0.022 A 
ATOM    101  C   UNL     1      -2.923  -4.198   3.957  1.00  0.00     0.027 A 
ATOM    102  C   UNL     1      -3.594  -3.132   1.431  1.00  0.00     0.006 A 
ATOM    103  C   UNL     1      -3.567  -4.988   3.004  1.00  0.00     0.002 A 
ATOM    104  C   UNL     1      -3.873  -4.467   1.739  1.00  0.00     0.000 A 
ENDBRANCH  93  96
ENDBRANCH  92  93
ENDBRANCH  85  87
ENDBRANCH  79  83
ENDBRANCH  75  77
ENDBRANCH  74  75
ENDBRANCH  73  74
ENDBRANCH   1  73
TORSDOF 21
