REMARK SMILES COc1cccc(NC(=O)COc2csc(C(=O)OCCOCCOC(=O)c3ccc(-c4c5nc(c(-c6cccc(S(=O)(=O)[O-])c6F)c6ccc([nH]6)c(-c6cccc(S(=O)(=O)[O-])c6F)c6nc(c(-c7cccc(S(=O)(=O)[O-])c7F)c7ccc4[nH]7)C=C6)C=C5)cc3)c2)c1
REMARK SMILES IDX 21 1 20 2 19 3 17 4 18 5 16 6 13 7 14 8 91 9 15 10 12 11
REMARK SMILES IDX 11 12 9 13 8 14 10 16 7 17 3 18 4 19 92 20 5 21 6 22 2 23
REMARK SMILES IDX 1 24 22 25 23 26 24 27 25 28 26 29 27 30 28 31 29 32 90 33
REMARK SMILES IDX 30 34 89 35 31 36 32 37 33 38 83 39 34 40 88 41 82 42 84 43
REMARK SMILES IDX 35 44 87 45 81 46 80 47 36 49 68 50 48 51 67 52 49 53 52 54
REMARK SMILES IDX 66 55 85 56 50 57 51 58 65 60 86 61 53 62 37 63 38 64 46 65
REMARK SMILES IDX 39 66 41 67 47 68 40 69 42 70 43 71 44 72 45 73 69 74 70 75
REMARK SMILES IDX 78 76 71 77 73 78 79 79 72 80 74 81 75 82 76 83 77 84 54 85
REMARK SMILES IDX 55 86 63 87 56 88 58 89 64 90 57 91 59 92 60 93 61 94 62 95
REMARK H PARENT 8 15 84 48 52 59
REMARK Flexibility Score: inf
ROOT
ATOM      1  C   UNL     1       4.034  -0.690  12.622  1.00  0.00     0.202 C 
ENDROOT
BRANCH   1   2
ATOM      2  C   UNL     1       3.215   0.239  11.720  1.00  0.00     0.261 C 
BRANCH   2   3
ATOM      3  O   UNL     1       3.080  -0.343  10.412  1.00  0.00    -0.459 OA
BRANCH   3   4
ATOM      4  C   UNL     1       3.756   0.282   9.406  1.00  0.00     0.348 C 
ATOM      5  O   UNL     1       4.253   1.399   9.490  1.00  0.00    -0.245 OA
BRANCH   4   6
ATOM      6  C   UNL     1       3.904  -0.631   8.289  1.00  0.00     0.116 A 
ATOM      7  C   UNL     1       3.701  -2.436   6.811  1.00  0.00     0.131 A 
ATOM      8  C   UNL     1       4.846  -1.831   6.346  1.00  0.00     0.112 A 
ATOM      9  C   UNL     1       3.168  -1.750   7.943  1.00  0.00     0.074 A 
ATOM     10  S   UNL     1       5.223  -0.407   7.217  1.00  0.00    -0.133 S 
BRANCH   7  11
ATOM     11  O   UNL     1       3.072  -3.521   6.297  1.00  0.00    -0.483 OA
BRANCH  11  12
ATOM     12  C   UNL     1       3.804  -4.354   5.422  1.00  0.00     0.329 C 
BRANCH  12  13
ATOM     13  C   UNL     1       4.309  -3.865   4.060  1.00  0.00     0.262 C 
ATOM     14  N   UNL     1       3.581  -3.098   3.205  1.00  0.00    -0.323 N 
ATOM     15  H   UNL     1       4.099  -2.806   2.420  1.00  0.00     0.170 HD
ATOM     16  O   UNL     1       5.460  -4.150   3.701  1.00  0.00    -0.271 OA
BRANCH  14  17
ATOM     17  C   UNL     1       2.258  -2.628   3.186  1.00  0.00     0.044 A 
ATOM     18  C   UNL     1       0.701  -1.054   2.160  1.00  0.00     0.120 A 
ATOM     19  C   UNL     1      -0.303  -1.494   3.017  1.00  0.00     0.046 A 
ATOM     20  C   UNL     1       1.978  -1.614   2.253  1.00  0.00     0.072 A 
ATOM     21  C   UNL     1      -0.047  -2.525   3.917  1.00  0.00     0.006 A 
ATOM     22  C   UNL     1       1.225  -3.101   3.990  1.00  0.00     0.026 A 
BRANCH  18  23
ATOM     23  O   UNL     1       0.350  -0.043   1.307  1.00  0.00    -0.497 OA
ATOM     24  C   UNL     1       1.018  -0.050   0.050  1.00  0.00     0.278 C 
ENDBRANCH  18  23
ENDBRANCH  14  17
ENDBRANCH  12  13
ENDBRANCH  11  12
ENDBRANCH   7  11
ENDBRANCH   4   6
ENDBRANCH   3   4
ENDBRANCH   2   3
ENDBRANCH   1   2
BRANCH   1  25
ATOM     25  O   UNL     1       5.415  -0.782  12.261  1.00  0.00    -0.374 OA
BRANCH  25  26
ATOM     26  C   UNL     1       5.743  -1.789  11.299  1.00  0.00     0.202 C 
BRANCH  26  27
ATOM     27  C   UNL     1       6.000  -3.180  11.886  1.00  0.00     0.261 C 
BRANCH  27  28
ATOM     28  O   UNL     1       4.773  -3.774  12.346  1.00  0.00    -0.460 OA
BRANCH  28  29
ATOM     29  C   UNL     1       4.637  -3.837  13.692  1.00  0.00     0.338 C 
ATOM     30  O   UNL     1       5.478  -3.554  14.529  1.00  0.00    -0.246 OA
BRANCH  29  31
ATOM     31  C   UNL     1       3.234  -4.146  14.041  1.00  0.00     0.060 A 
ATOM     32  C   UNL     1       2.655  -3.407  15.081  1.00  0.00     0.016 A 
ATOM     33  C   UNL     1       2.510  -5.159  13.405  1.00  0.00     0.016 A 
ATOM     34  C   UNL     1       1.374  -3.718  15.530  1.00  0.00     0.010 A 
ATOM     35  C   UNL     1       1.224  -5.471  13.860  1.00  0.00     0.010 A 
ATOM     36  C   UNL     1       0.667  -4.779  14.950  1.00  0.00    -0.014 A 
BRANCH  36  37
ATOM     37  C   UNL     1      -0.584  -5.256  15.587  1.00  0.00     0.031 A 
ATOM     38  C   UNL     1      -0.527  -6.453  16.497  1.00  0.00     0.074 A 
ATOM     39  C   UNL     1      -1.750  -4.620  15.379  1.00  0.00     0.049 A 
ATOM     40  N   UNL     1      -1.488  -7.023  17.175  1.00  0.00    -0.248 NA
ATOM     41  C   UNL     1       0.789  -7.091  16.663  1.00  0.00     0.031 C 
ATOM     42  C   UNL     1      -1.932  -3.447  14.526  1.00  0.00     0.029 A 
ATOM     43  N   UNL     1      -3.006  -4.883  15.864  1.00  0.00    -0.354 N 
ATOM     44  C   UNL     1      -0.900  -8.094  17.837  1.00  0.00     0.074 A 
ATOM     45  C   UNL     1       0.497  -8.109  17.459  1.00  0.00     0.031 C 
ATOM     46  C   UNL     1      -3.231  -3.098  14.537  1.00  0.00     0.029 A 
ATOM     47  C   UNL     1      -3.972  -4.030  15.384  1.00  0.00     0.049 A 
ATOM     48  H   UNL     1      -3.198  -5.613  16.496  1.00  0.00     0.167 HD
ATOM     49  C   UNL     1      -1.462  -8.972  18.701  1.00  0.00     0.034 A 
ATOM     50  C   UNL     1      -5.302  -4.010  15.603  1.00  0.00     0.034 A 
ATOM     51  C   UNL     1      -2.846  -8.949  19.089  1.00  0.00     0.049 A 
ATOM     52  C   UNL     1      -5.911  -5.019  16.541  1.00  0.00     0.074 A 
ATOM     53  C   UNL     1      -3.505  -9.776  19.981  1.00  0.00     0.029 A 
ATOM     54  N   UNL     1      -3.787  -8.055  18.603  1.00  0.00    -0.354 N 
ATOM     55  N   UNL     1      -5.320  -5.952  17.249  1.00  0.00    -0.248 NA
ATOM     56  C   UNL     1      -7.367  -4.951  16.736  1.00  0.00     0.031 C 
ATOM     57  C   UNL     1      -4.849  -9.391  20.023  1.00  0.00     0.029 A 
ATOM     58  C   UNL     1      -5.024  -8.313  19.169  1.00  0.00     0.049 A 
ATOM     59  H   UNL     1      -3.603  -7.341  17.950  1.00  0.00     0.167 HD
ATOM     60  C   UNL     1      -6.323  -6.553  18.003  1.00  0.00     0.074 A 
ATOM     61  C   UNL     1      -7.557  -5.870  17.674  1.00  0.00     0.031 C 
ATOM     62  C   UNL     1      -6.233  -7.586  18.877  1.00  0.00     0.034 A 
BRANCH  49  63
ATOM     63  C   UNL     1      -0.559 -10.008  19.316  1.00  0.00     0.023 A 
ATOM     64  C   UNL     1       0.361  -9.620  20.311  1.00  0.00     0.012 A 
ATOM     65  C   UNL     1      -0.636 -11.361  18.935  1.00  0.00     0.148 A 
ATOM     66  C   UNL     1       1.216 -10.555  20.892  1.00  0.00     0.002 A 
ATOM     67  C   UNL     1       0.193 -12.295  19.548  1.00  0.00     0.091 A 
ATOM     68  F   UNL     1      -1.495 -11.708  17.967  1.00  0.00    -0.205 F 
ATOM     69  C   UNL     1       1.125 -11.893  20.518  1.00  0.00     0.022 A 
BRANCH  67  70
ATOM     70  S   UNL     1       0.098 -14.050  19.175  1.00  0.00     0.127 S 
ATOM     71  O   UNL     1       1.247 -14.228  18.290  1.00  0.00    -0.237 OA
ATOM     72  O   UNL     1       0.247 -14.660  20.498  1.00  0.00    -0.237 OA
ATOM     73  O   UNL     1      -1.209 -14.253  18.564  1.00  0.00    -0.744 OA
ENDBRANCH  67  70
ENDBRANCH  49  63
BRANCH  50  74
ATOM     74  C   UNL     1      -6.142  -2.954  14.971  1.00  0.00     0.023 A 
ATOM     75  C   UNL     1      -6.698  -1.942  15.777  1.00  0.00     0.012 A 
ATOM     76  C   UNL     1      -6.372  -2.931  13.582  1.00  0.00     0.148 A 
ATOM     77  C   UNL     1      -7.489  -0.939  15.214  1.00  0.00     0.002 A 
ATOM     78  C   UNL     1      -7.118  -1.900  13.021  1.00  0.00     0.091 A 
ATOM     79  F   UNL     1      -5.850  -3.914  12.835  1.00  0.00    -0.205 F 
ATOM     80  C   UNL     1      -7.690  -0.911  13.837  1.00  0.00     0.022 A 
BRANCH  78  81
ATOM     81  S   UNL     1      -7.327  -1.718  11.246  1.00  0.00     0.127 S 
ATOM     82  O   UNL     1      -8.737  -2.058  11.074  1.00  0.00    -0.237 OA
ATOM     83  O   UNL     1      -7.005  -0.304  11.048  1.00  0.00    -0.237 OA
ATOM     84  O   UNL     1      -6.375  -2.639  10.642  1.00  0.00    -0.744 OA
ENDBRANCH  78  81
ENDBRANCH  50  74
BRANCH  62  85
ATOM     85  C   UNL     1      -7.494  -8.027  19.574  1.00  0.00     0.023 A 
ATOM     86  C   UNL     1      -8.468  -8.754  18.861  1.00  0.00     0.012 A 
ATOM     87  C   UNL     1      -7.679  -7.789  20.950  1.00  0.00     0.148 A 
ATOM     88  C   UNL     1      -9.619  -9.213  19.500  1.00  0.00     0.002 A 
ATOM     89  C   UNL     1      -8.808  -8.287  21.591  1.00  0.00     0.091 A 
ATOM     90  F   UNL     1      -6.753  -7.077  21.608  1.00  0.00    -0.205 F 
ATOM     91  C   UNL     1      -9.784  -8.990  20.866  1.00  0.00     0.022 A 
BRANCH  89  92
ATOM     92  S   UNL     1      -9.053  -8.126  23.364  1.00  0.00     0.127 S 
ATOM     93  O   UNL     1     -10.041  -7.051  23.432  1.00  0.00    -0.237 OA
ATOM     94  O   UNL     1      -9.563  -9.447  23.732  1.00  0.00    -0.237 OA
ATOM     95  O   UNL     1      -7.742  -7.813  23.918  1.00  0.00    -0.744 OA
ENDBRANCH  89  92
ENDBRANCH  62  85
ENDBRANCH  36  37
ENDBRANCH  29  31
ENDBRANCH  28  29
ENDBRANCH  27  28
ENDBRANCH  26  27
ENDBRANCH  25  26
ENDBRANCH   1  25
TORSDOF 22
