REMARK SMILES N#C/C(=C\c1ccc(Oc2ccccc2Cl)c([N+](=O)[O-])c1)C(=O)OCCOCCOC(=O)c1ccc(-c2c3nc(c(-c4cccc(S(=O)(=O)[O-])c4F)c4ccc([nH]4)c(-c4cccc(S(=O)(=O)[O-])c4F)c4nc(c(-c5cccc(S(=O)(=O)[O-])c5F)c5ccc2[nH]5)C=C4)C=C3)cc1
REMARK SMILES IDX 27 1 26 2 25 3 24 4 22 5 23 6 3 7 4 8 2 9 1 10 5 11 6 12
REMARK SMILES IDX 21 13 7 14 17 15 8 16 18 17 19 18 20 19 9 20 10 21 11 22
REMARK SMILES IDX 15 23 12 24 14 25 16 26 13 27 28 28 29 29 30 30 31 31 32 32
REMARK SMILES IDX 33 33 34 34 95 35 35 36 94 37 36 38 37 39 38 40 88 41 39 42
REMARK SMILES IDX 93 43 87 44 89 45 40 46 92 47 86 48 85 49 41 51 73 52 53 53
REMARK SMILES IDX 72 54 54 55 57 56 71 57 90 58 55 59 56 60 70 62 91 63 58 64
REMARK SMILES IDX 42 65 43 66 51 67 44 68 46 69 52 70 45 71 47 72 48 73 49 74
REMARK SMILES IDX 50 75 74 76 75 77 83 78 76 79 78 80 84 81 77 82 79 83 80 84
REMARK SMILES IDX 81 85 82 86 59 87 60 88 68 89 61 90 63 91 69 92 62 93 64 94
REMARK SMILES IDX 65 95 66 96 67 97
REMARK H PARENT 89 50 57 61
REMARK Flexibility Score: inf
ROOT
ATOM      1  O   UNL     1       4.928   3.580   2.524  1.00  0.00    -0.374 OA
ENDROOT
BRANCH   1   2
ATOM      2  C   UNL     1       6.134   2.831   2.667  1.00  0.00     0.202 C 
BRANCH   2   3
ATOM      3  C   UNL     1       6.044   1.304   2.641  1.00  0.00     0.261 C 
BRANCH   3   4
ATOM      4  O   UNL     1       5.577   0.837   1.365  1.00  0.00    -0.459 OA
BRANCH   4   5
ATOM      5  C   UNL     1       4.377   0.215   1.411  1.00  0.00     0.348 C 
ATOM      6  O   UNL     1       3.766  -0.099   2.423  1.00  0.00    -0.245 OA
BRANCH   5   7
ATOM      7  C   UNL     1       3.783   0.075   0.066  1.00  0.00     0.138 C 
ATOM      8  C   UNL     1       4.484  -0.374  -0.998  1.00  0.00     0.035 C 
BRANCH   7   9
ATOM      9  C   UNL     1       2.263   0.075   0.066  1.00  0.00     0.107 C 
ATOM     10  N   UNL     1       1.002   0.075   0.066  1.00  0.00    -0.192 NA
ENDBRANCH   7   9
BRANCH   8  11
ATOM     11  C   UNL     1       3.831  -0.968  -2.187  1.00  0.00    -0.017 A 
ATOM     12  C   UNL     1       4.215  -2.247  -2.604  1.00  0.00     0.012 A 
ATOM     13  C   UNL     1       2.732  -0.374  -2.814  1.00  0.00     0.098 A 
ATOM     14  C   UNL     1       3.478  -2.935  -3.582  1.00  0.00     0.055 A 
ATOM     15  C   UNL     1       1.944  -1.111  -3.718  1.00  0.00     0.312 A 
ATOM     16  C   UNL     1       2.315  -2.389  -4.146  1.00  0.00     0.204 A 
BRANCH  15  17
ATOM     17  N   UNL     1       0.658  -0.517  -4.021  1.00  0.00     0.066 N 
ATOM     18  O   UNL     1      -0.348  -1.085  -3.574  1.00  0.00    -0.258 OA
ATOM     19  O   UNL     1       0.664   0.556  -4.640  1.00  0.00    -0.258 OA
ENDBRANCH  15  17
BRANCH  16  20
ATOM     20  O   UNL     1       1.706  -3.248  -5.036  1.00  0.00    -0.449 OA
BRANCH  20  21
ATOM     21  C   UNL     1       0.707  -2.813  -5.869  1.00  0.00     0.146 A 
ATOM     22  C   UNL     1      -0.547  -3.407  -5.681  1.00  0.00     0.049 A 
ATOM     23  C   UNL     1       0.887  -1.878  -6.893  1.00  0.00     0.083 A 
ATOM     24  C   UNL     1      -1.640  -2.993  -6.442  1.00  0.00     0.004 A 
ATOM     25  C   UNL     1      -0.214  -1.451  -7.640  1.00  0.00     0.024 A 
ATOM     26  Cl  UNL     1       2.434  -1.210  -7.263  1.00  0.00    -0.080 Cl
ATOM     27  C   UNL     1      -1.478  -1.999  -7.405  1.00  0.00     0.002 A 
ENDBRANCH  20  21
ENDBRANCH  16  20
ENDBRANCH   8  11
ENDBRANCH   5   7
ENDBRANCH   4   5
ENDBRANCH   3   4
ENDBRANCH   2   3
ENDBRANCH   1   2
BRANCH   1  28
ATOM     28  C   UNL     1       4.225   3.545   1.287  1.00  0.00     0.202 C 
BRANCH  28  29
ATOM     29  C   UNL     1       4.851   4.190   0.041  1.00  0.00     0.261 C 
BRANCH  29  30
ATOM     30  O   UNL     1       6.184   3.746  -0.248  1.00  0.00    -0.460 OA
BRANCH  30  31
ATOM     31  C   UNL     1       7.142   4.666   0.025  1.00  0.00     0.338 C 
ATOM     32  O   UNL     1       6.969   5.803   0.456  1.00  0.00    -0.246 OA
BRANCH  31  33
ATOM     33  C   UNL     1       8.482   4.069  -0.087  1.00  0.00     0.060 A 
ATOM     34  C   UNL     1       9.314   4.130   1.039  1.00  0.00     0.016 A 
ATOM     35  C   UNL     1       8.952   3.548  -1.293  1.00  0.00     0.016 A 
ATOM     36  C   UNL     1      10.637   3.709   0.952  1.00  0.00     0.010 A 
ATOM     37  C   UNL     1      10.287   3.138  -1.381  1.00  0.00     0.010 A 
ATOM     38  C   UNL     1      11.143   3.252  -0.271  1.00  0.00    -0.014 A 
BRANCH  38  39
ATOM     39  C   UNL     1      12.601   3.031  -0.417  1.00  0.00     0.031 A 
ATOM     40  C   UNL     1      13.441   4.105  -1.052  1.00  0.00     0.074 A 
ATOM     41  C   UNL     1      13.168   1.893   0.020  1.00  0.00     0.049 A 
ATOM     42  N   UNL     1      14.728   4.121  -1.277  1.00  0.00    -0.248 NA
ATOM     43  C   UNL     1      12.738   5.322  -1.492  1.00  0.00     0.031 C 
ATOM     44  C   UNL     1      12.457   0.785   0.656  1.00  0.00     0.029 A 
ATOM     45  N   UNL     1      14.474   1.474  -0.026  1.00  0.00    -0.354 N 
ATOM     46  C   UNL     1      14.987   5.329  -1.913  1.00  0.00     0.074 A 
ATOM     47  C   UNL     1      13.722   6.019  -2.042  1.00  0.00     0.031 C 
ATOM     48  C   UNL     1      13.333  -0.200   0.920  1.00  0.00     0.029 A 
ATOM     49  C   UNL     1      14.660   0.200   0.454  1.00  0.00     0.049 A 
ATOM     50  H   UNL     1      15.207   2.033  -0.370  1.00  0.00     0.167 HD
ATOM     51  C   UNL     1      16.172   5.826  -2.336  1.00  0.00     0.034 A 
ATOM     52  C   UNL     1      15.772  -0.561   0.498  1.00  0.00     0.034 A 
ATOM     53  C   UNL     1      17.433   5.153  -2.177  1.00  0.00     0.049 A 
ATOM     54  C   UNL     1      17.075   0.013   0.002  1.00  0.00     0.074 A 
ATOM     55  C   UNL     1      18.697   5.605  -2.511  1.00  0.00     0.029 A 
ATOM     56  N   UNL     1      17.588   3.880  -1.652  1.00  0.00    -0.354 N 
ATOM     57  N   UNL     1      17.325   1.212  -0.466  1.00  0.00    -0.248 NA
ATOM     58  C   UNL     1      18.255  -0.862   0.070  1.00  0.00     0.031 C 
ATOM     59  C   UNL     1      19.615   4.594  -2.211  1.00  0.00     0.029 A 
ATOM     60  C   UNL     1      18.925   3.522  -1.669  1.00  0.00     0.049 A 
ATOM     61  H   UNL     1      16.856   3.314  -1.316  1.00  0.00     0.167 HD
ATOM     62  C   UNL     1      18.694   1.249  -0.710  1.00  0.00     0.074 A 
ATOM     63  C   UNL     1      19.222  -0.042  -0.321  1.00  0.00     0.031 C 
ATOM     64  C   UNL     1      19.445   2.255  -1.222  1.00  0.00     0.034 A 
BRANCH  51  65
ATOM     65  C   UNL     1      16.172   7.180  -2.993  1.00  0.00     0.023 A 
ATOM     66  C   UNL     1      16.012   8.337  -2.206  1.00  0.00     0.012 A 
ATOM     67  C   UNL     1      16.398   7.308  -4.377  1.00  0.00     0.148 A 
ATOM     68  C   UNL     1      16.053   9.603  -2.790  1.00  0.00     0.002 A 
ATOM     69  C   UNL     1      16.477   8.574  -4.946  1.00  0.00     0.091 A 
ATOM     70  F   UNL     1      16.521   6.193  -5.111  1.00  0.00    -0.205 F 
ATOM     71  C   UNL     1      16.297   9.721  -4.156  1.00  0.00     0.022 A 
BRANCH  69  72
ATOM     72  S   UNL     1      16.860   8.830  -6.682  1.00  0.00     0.127 S 
ATOM     73  O   UNL     1      15.569   9.274  -7.206  1.00  0.00    -0.237 OA
ATOM     74  O   UNL     1      17.884   9.873  -6.622  1.00  0.00    -0.237 OA
ATOM     75  O   UNL     1      17.330   7.546  -7.183  1.00  0.00    -0.744 OA
ENDBRANCH  69  72
ENDBRANCH  51  65
BRANCH  52  76
ATOM     76  C   UNL     1      15.715  -1.935   1.071  1.00  0.00     0.023 A 
ATOM     77  C   UNL     1      16.368  -2.205   2.289  1.00  0.00     0.012 A 
ATOM     78  C   UNL     1      15.013  -2.970   0.425  1.00  0.00     0.148 A 
ATOM     79  C   UNL     1      16.350  -3.488   2.837  1.00  0.00     0.002 A 
ATOM     80  C   UNL     1      14.952  -4.232   1.004  1.00  0.00     0.091 A 
ATOM     81  F   UNL     1      14.416  -2.701  -0.745  1.00  0.00    -0.205 F 
ATOM     82  C   UNL     1      15.634  -4.498   2.201  1.00  0.00     0.022 A 
BRANCH  80  83
ATOM     83  S   UNL     1      13.942  -5.551   0.319  1.00  0.00     0.127 S 
ATOM     84  O   UNL     1      14.950  -6.424  -0.275  1.00  0.00    -0.237 OA
ATOM     85  O   UNL     1      13.287  -6.086   1.513  1.00  0.00    -0.237 OA
ATOM     86  O   UNL     1      13.034  -4.898  -0.615  1.00  0.00    -0.744 OA
ENDBRANCH  80  83
ENDBRANCH  52  76
BRANCH  64  87
ATOM     87  C   UNL     1      20.927   2.025  -1.361  1.00  0.00     0.023 A 
ATOM     88  C   UNL     1      21.410   1.177  -2.376  1.00  0.00     0.012 A 
ATOM     89  C   UNL     1      21.842   2.713  -0.540  1.00  0.00     0.148 A 
ATOM     90  C   UNL     1      22.781   0.994  -2.553  1.00  0.00     0.002 A 
ATOM     91  C   UNL     1      23.208   2.563  -0.754  1.00  0.00     0.091 A 
ATOM     92  F   UNL     1      21.363   3.502   0.433  1.00  0.00    -0.205 F 
ATOM     93  C   UNL     1      23.679   1.696  -1.752  1.00  0.00     0.022 A 
BRANCH  91  94
ATOM     94  S   UNL     1      24.432   3.502   0.167  1.00  0.00     0.127 S 
ATOM     95  O   UNL     1      24.959   2.490   1.080  1.00  0.00    -0.237 OA
ATOM     96  O   UNL     1      25.360   3.920  -0.884  1.00  0.00    -0.237 OA
ATOM     97  O   UNL     1      23.704   4.596   0.796  1.00  0.00    -0.744 OA
ENDBRANCH  91  94
ENDBRANCH  64  87
ENDBRANCH  38  39
ENDBRANCH  31  33
ENDBRANCH  30  31
ENDBRANCH  29  30
ENDBRANCH  28  29
ENDBRANCH   1  28
TORSDOF 22
