REMARK SMILES O=C(Cc1ccc(-c2ccn(C(F)F)c(=O)c2)cc1)OCCOCCOC(=O)c1ccc(-c2c3nc(c(-c4cccc(S(=O)(=O)[O-])c4F)c4ccc([nH]4)c(-c4cccc(S(=O)(=O)[O-])c4F)c4nc(c(-c5cccc(S(=O)(=O)[O-])c5F)c5ccc2[nH]5)C=C4)C=C3)cc1
REMARK SMILES IDX 23 1 22 2 21 3 20 4 2 5 1 6 3 7 4 8 5 9 19 10 6 11 18 12
REMARK SMILES IDX 7 13 8 14 9 15 17 16 10 17 15 18 11 19 16 20 12 21 13 22
REMARK SMILES IDX 14 23 24 24 25 25 26 26 27 27 28 28 29 29 30 30 91 31 31 32
REMARK SMILES IDX 90 33 32 34 33 35 34 36 84 37 35 38 89 39 83 40 85 41 36 42
REMARK SMILES IDX 88 43 82 44 81 45 37 47 69 48 49 49 68 50 50 51 53 52 67 53
REMARK SMILES IDX 86 54 51 55 52 56 66 58 87 59 54 60 38 61 39 62 47 63 40 64
REMARK SMILES IDX 42 65 48 66 41 67 43 68 44 69 45 70 46 71 70 72 71 73 79 74
REMARK SMILES IDX 72 75 74 76 80 77 73 78 75 79 76 80 77 81 78 82 55 83 56 84
REMARK SMILES IDX 64 85 57 86 59 87 65 88 58 89 60 90 61 91 62 92 63 93
REMARK H PARENT 85 46 53 57
REMARK Flexibility Score: inf
ROOT
ATOM      1  O   UNL     1       4.213   1.619   0.362  1.00  0.00    -0.374 OA
ENDROOT
BRANCH   1   2
ATOM      2  C   UNL     1       4.710   0.740  -0.644  1.00  0.00     0.202 C 
BRANCH   2   3
ATOM      3  C   UNL     1       4.143  -0.676  -0.679  1.00  0.00     0.261 C 
BRANCH   3   4
ATOM      4  O   UNL     1       2.705  -0.733  -0.688  1.00  0.00    -0.463 OA
BRANCH   4   5
ATOM      5  C   UNL     1       1.892  -0.746   0.392  1.00  0.00     0.310 C 
ATOM      6  O   UNL     1       0.671  -0.755   0.228  1.00  0.00    -0.252 OA
BRANCH   5   7
ATOM      7  C   UNL     1       2.459  -0.652   1.791  1.00  0.00     0.158 C 
BRANCH   7   8
ATOM      8  C   UNL     1       3.477  -1.695   2.154  1.00  0.00    -0.037 A 
ATOM      9  C   UNL     1       3.217  -3.045   1.891  1.00  0.00     0.005 A 
ATOM     10  C   UNL     1       4.720  -1.313   2.682  1.00  0.00     0.005 A 
ATOM     11  C   UNL     1       4.208  -3.997   2.100  1.00  0.00     0.009 A 
ATOM     12  C   UNL     1       5.712  -2.269   2.890  1.00  0.00     0.009 A 
ATOM     13  C   UNL     1       5.462  -3.614   2.591  1.00  0.00    -0.018 A 
BRANCH  13  14
ATOM     14  C   UNL     1       6.487  -4.634   2.843  1.00  0.00    -0.011 A 
ATOM     15  C   UNL     1       6.903  -4.974   4.187  1.00  0.00     0.027 A 
ATOM     16  C   UNL     1       7.014  -5.294   1.797  1.00  0.00     0.080 A 
ATOM     17  C   UNL     1       7.787  -5.954   4.392  1.00  0.00     0.095 A 
ATOM     18  C   UNL     1       8.007  -6.382   2.011  1.00  0.00     0.255 A 
ATOM     19  N   UNL     1       8.330  -6.654   3.332  1.00  0.00    -0.258 N 
ATOM     20  O   UNL     1       8.463  -6.966   1.034  1.00  0.00    -0.269 OA
BRANCH  19  21
ATOM     21  C   UNL     1       9.279  -7.709   3.565  1.00  0.00     0.451 C 
ATOM     22  F   UNL     1       8.843  -8.887   3.058  1.00  0.00    -0.185 F 
ATOM     23  F   UNL     1      10.477  -7.422   3.003  1.00  0.00    -0.185 F 
ENDBRANCH  19  21
ENDBRANCH  13  14
ENDBRANCH   7   8
ENDBRANCH   5   7
ENDBRANCH   4   5
ENDBRANCH   3   4
ENDBRANCH   2   3
ENDBRANCH   1   2
BRANCH   1  24
ATOM     24  C   UNL     1       3.000   2.316   0.046  1.00  0.00     0.202 C 
BRANCH  24  25
ATOM     25  C   UNL     1       3.110   3.545  -0.864  1.00  0.00     0.261 C 
BRANCH  25  26
ATOM     26  O   UNL     1       3.476   3.190  -2.205  1.00  0.00    -0.460 OA
BRANCH  26  27
ATOM     27  C   UNL     1       4.779   3.386  -2.516  1.00  0.00     0.338 C 
ATOM     28  O   UNL     1       5.633   3.904  -1.812  1.00  0.00    -0.246 OA
BRANCH  27  29
ATOM     29  C   UNL     1       5.088   2.659  -3.762  1.00  0.00     0.060 A 
ATOM     30  C   UNL     1       6.244   1.865  -3.786  1.00  0.00     0.016 A 
ATOM     31  C   UNL     1       4.263   2.752  -4.885  1.00  0.00     0.016 A 
ATOM     32  C   UNL     1       6.613   1.207  -4.956  1.00  0.00     0.010 A 
ATOM     33  C   UNL     1       4.638   2.099  -6.058  1.00  0.00     0.010 A 
ATOM     34  C   UNL     1       5.835   1.361  -6.108  1.00  0.00    -0.014 A 
BRANCH  34  35
ATOM     35  C   UNL     1       6.346   0.895  -7.416  1.00  0.00     0.031 A 
ATOM     36  C   UNL     1       6.913   1.915  -8.363  1.00  0.00     0.074 A 
ATOM     37  C   UNL     1       6.267  -0.400  -7.763  1.00  0.00     0.049 A 
ATOM     38  N   UNL     1       7.319   1.766  -9.594  1.00  0.00    -0.248 NA
ATOM     39  C   UNL     1       7.025   3.294  -7.854  1.00  0.00     0.031 C 
ATOM     40  C   UNL     1       5.740  -1.470  -6.918  1.00  0.00     0.029 A 
ATOM     41  N   UNL     1       6.596  -1.026  -8.938  1.00  0.00    -0.354 N 
ATOM     42  C   UNL     1       7.691   3.034 -10.024  1.00  0.00     0.074 A 
ATOM     43  C   UNL     1       7.461   3.943  -8.924  1.00  0.00     0.031 C 
ATOM     44  C   UNL     1       5.740  -2.617  -7.618  1.00  0.00     0.029 A 
ATOM     45  C   UNL     1       6.233  -2.352  -8.968  1.00  0.00     0.049 A 
ATOM     46  H   UNL     1       7.046  -0.571  -9.686  1.00  0.00     0.167 HD
ATOM     47  C   UNL     1       8.184   3.404 -11.228  1.00  0.00     0.034 A 
ATOM     48  C   UNL     1       6.259  -3.236  -9.985  1.00  0.00     0.034 A 
ATOM     49  C   UNL     1       8.424   2.486 -12.307  1.00  0.00     0.049 A 
ATOM     50  C   UNL     1       6.790  -2.793 -11.323  1.00  0.00     0.074 A 
ATOM     51  C   UNL     1       8.984   2.743 -13.545  1.00  0.00     0.029 A 
ATOM     52  N   UNL     1       8.096   1.139 -12.286  1.00  0.00    -0.354 N 
ATOM     53  N   UNL     1       7.256  -1.619 -11.680  1.00  0.00    -0.248 NA
ATOM     54  C   UNL     1       6.825  -3.801 -12.393  1.00  0.00     0.031 C 
ATOM     55  C   UNL     1       8.953   1.560 -14.290  1.00  0.00     0.029 A 
ATOM     56  C   UNL     1       8.418   0.555 -13.498  1.00  0.00     0.049 A 
ATOM     57  H   UNL     1       7.694   0.668 -11.521  1.00  0.00     0.167 HD
ATOM     58  C   UNL     1       7.671  -1.758 -13.000  1.00  0.00     0.074 A 
ATOM     59  C   UNL     1       7.419  -3.134 -13.373  1.00  0.00     0.031 C 
ATOM     60  C   UNL     1       8.203  -0.829 -13.833  1.00  0.00     0.034 A 
BRANCH  47  61
ATOM     61  C   UNL     1       8.500   4.860 -11.444  1.00  0.00     0.023 A 
ATOM     62  C   UNL     1       9.602   5.448 -10.792  1.00  0.00     0.012 A 
ATOM     63  C   UNL     1       7.736   5.631 -12.341  1.00  0.00     0.148 A 
ATOM     64  C   UNL     1       9.921   6.788 -11.006  1.00  0.00     0.002 A 
ATOM     65  C   UNL     1       8.088   6.952 -12.586  1.00  0.00     0.091 A 
ATOM     66  F   UNL     1       6.676   5.061 -12.933  1.00  0.00    -0.205 F 
ATOM     67  C   UNL     1       9.172   7.536 -11.911  1.00  0.00     0.022 A 
BRANCH  65  68
ATOM     68  S   UNL     1       7.237   7.975 -13.793  1.00  0.00     0.127 S 
ATOM     69  O   UNL     1       6.587   8.964 -12.935  1.00  0.00    -0.237 OA
ATOM     70  O   UNL     1       8.349   8.496 -14.589  1.00  0.00    -0.237 OA
ATOM     71  O   UNL     1       6.336   7.086 -14.512  1.00  0.00    -0.744 OA
ENDBRANCH  65  68
ENDBRANCH  47  61
BRANCH  48  72
ATOM     72  C   UNL     1       5.773  -4.629  -9.776  1.00  0.00     0.023 A 
ATOM     73  C   UNL     1       6.686  -5.699  -9.810  1.00  0.00     0.012 A 
ATOM     74  C   UNL     1       4.411  -4.895  -9.532  1.00  0.00     0.148 A 
ATOM     75  C   UNL     1       6.248  -7.013  -9.639  1.00  0.00     0.002 A 
ATOM     76  C   UNL     1       3.990  -6.200  -9.306  1.00  0.00     0.091 A 
ATOM     77  F   UNL     1       3.555  -3.864  -9.517  1.00  0.00    -0.205 F 
ATOM     78  C   UNL     1       4.903  -7.263  -9.377  1.00  0.00     0.022 A 
BRANCH  76  79
ATOM     79  S   UNL     1       2.303  -6.602  -8.839  1.00  0.00     0.127 S 
ATOM     80  O   UNL     1       1.826  -7.311 -10.023  1.00  0.00    -0.237 OA
ATOM     81  O   UNL     1       2.510  -7.442  -7.658  1.00  0.00    -0.237 OA
ATOM     82  O   UNL     1       1.655  -5.327  -8.563  1.00  0.00    -0.744 OA
ENDBRANCH  76  79
ENDBRANCH  48  72
BRANCH  60  83
ATOM     83  C   UNL     1       8.594  -1.270 -15.220  1.00  0.00     0.023 A 
ATOM     84  C   UNL     1       7.600  -1.551 -16.177  1.00  0.00     0.012 A 
ATOM     85  C   UNL     1       9.951  -1.315 -15.596  1.00  0.00     0.148 A 
ATOM     86  C   UNL     1       7.952  -1.900 -17.481  1.00  0.00     0.002 A 
ATOM     87  C   UNL     1      10.293  -1.610 -16.910  1.00  0.00     0.091 A 
ATOM     88  F   UNL     1      10.881  -1.057 -14.665  1.00  0.00    -0.205 F 
ATOM     89  C   UNL     1       9.296  -1.916 -17.850  1.00  0.00     0.022 A 
BRANCH  87  90
ATOM     90  S   UNL     1      11.987  -1.554 -17.503  1.00  0.00     0.127 S 
ATOM     91  O   UNL     1      12.250  -2.964 -17.786  1.00  0.00    -0.237 OA
ATOM     92  O   UNL     1      11.870  -0.705 -18.689  1.00  0.00    -0.237 OA
ATOM     93  O   UNL     1      12.777  -0.982 -16.421  1.00  0.00    -0.744 OA
ENDBRANCH  87  90
ENDBRANCH  60  83
ENDBRANCH  34  35
ENDBRANCH  27  29
ENDBRANCH  26  27
ENDBRANCH  25  26
ENDBRANCH  24  25
ENDBRANCH   1  24
TORSDOF 20
