REMARK SMILES C[C@H](NC(=O)c1c(C(=O)OCCOCCOC(=O)c2ccc(-c3c4nc(c(-c5cccc(S(=O)(=O)[O-])c5F)c5ccc([nH]5)c(-c5cccc(S(=O)(=O)[O-])c5F)c5nc(c(-c6cccc(S(=O)(=O)[O-])c6F)c6ccc3[nH]6)C=C5)C=C4)cc2)cnn1C)[C@]12C[C@H]3C[C@H](C[C@H](C3)C1)C2
REMARK SMILES IDX 13 1 12 2 11 3 10 4 8 5 9 6 7 7 6 8 84 9 82 10 83 11 85 12
REMARK SMILES IDX 4 13 3 14 5 16 2 17 1 18 86 19 87 20 94 21 95 22 88 23 92 24
REMARK SMILES IDX 90 25 89 26 93 27 91 28 14 29 15 30 16 31 17 32 18 33 19 34
REMARK SMILES IDX 20 35 81 36 21 37 80 38 22 39 23 40 24 41 74 42 25 43 79 44
REMARK SMILES IDX 73 45 75 46 26 47 78 48 72 49 71 50 27 52 59 53 39 54 58 55
REMARK SMILES IDX 40 56 43 57 57 58 76 59 41 60 42 61 56 63 77 64 44 65 28 66
REMARK SMILES IDX 29 67 37 68 30 69 32 70 38 71 31 72 33 73 34 74 35 75 36 76
REMARK SMILES IDX 60 77 61 78 69 79 62 80 64 81 70 82 63 83 65 84 66 85 67 86
REMARK SMILES IDX 68 87 45 88 46 89 54 90 47 91 49 92 55 93 48 94 50 95 51 96
REMARK SMILES IDX 52 97 53 98
REMARK H PARENT 3 15 75 51 43 62
REMARK Flexibility Score: inf
ROOT
ATOM      1  O   UNL     1       4.599  -1.910   4.733  1.00  0.00    -0.374 OA
ENDROOT
BRANCH   1   2
ATOM      2  C   UNL     1       4.368  -0.499   4.757  1.00  0.00     0.202 C 
BRANCH   2   3
ATOM      3  C   UNL     1       5.056   0.275   3.632  1.00  0.00     0.261 C 
BRANCH   3   4
ATOM      4  O   UNL     1       4.531  -0.127   2.356  1.00  0.00    -0.460 OA
BRANCH   4   5
ATOM      5  C   UNL     1       5.372  -0.851   1.573  1.00  0.00     0.342 C 
ATOM      6  O   UNL     1       6.544  -1.088   1.848  1.00  0.00    -0.246 OA
BRANCH   5   7
ATOM      7  C   UNL     1       4.742  -1.440   0.404  1.00  0.00     0.111 A 
ATOM      8  C   UNL     1       3.539  -1.156  -0.251  1.00  0.00     0.140 A 
ATOM      9  N   UNL     1       3.592  -1.928  -1.389  1.00  0.00    -0.262 N 
ATOM     10  C   UNL     1       5.286  -2.532  -0.306  1.00  0.00     0.151 A 
ATOM     11  N   UNL     1       4.552  -2.876  -1.361  1.00  0.00    -0.180 NA
ATOM     12  C   UNL     1       2.864  -1.769  -2.626  1.00  0.00     0.174 C 
BRANCH   8  13
ATOM     13  C   UNL     1       2.554  -0.153   0.074  1.00  0.00     0.270 C 
ATOM     14  N   UNL     1       1.210  -0.454   0.123  1.00  0.00    -0.348 N 
ATOM     15  H   UNL     1       0.652   0.291   0.443  1.00  0.00     0.164 HD
ATOM     16  O   UNL     1       2.877   0.997   0.361  1.00  0.00    -0.267 OA
BRANCH  14  17
ATOM     17  C   UNL     1       0.441  -1.663  -0.207  1.00  0.00     0.085 C 
ATOM     18  C   UNL     1       0.865  -2.849   0.669  1.00  0.00     0.031 C 
BRANCH  17  19
ATOM     19  C   UNL     1      -1.145  -1.465  -0.282  1.00  0.00    -0.009 C 
ATOM     20  C   UNL     1      -1.912  -2.199   0.860  1.00  0.00     0.012 C 
ATOM     21  C   UNL     1      -1.643  -2.065  -1.637  1.00  0.00     0.012 C 
ATOM     22  C   UNL     1      -1.605   0.024  -0.257  1.00  0.00     0.012 C 
ATOM     23  C   UNL     1      -3.438  -2.076   0.700  1.00  0.00    -0.010 C 
ATOM     24  C   UNL     1      -3.169  -1.942  -1.796  1.00  0.00    -0.010 C 
ATOM     25  C   UNL     1      -3.135   0.153  -0.411  1.00  0.00    -0.010 C 
ATOM     26  C   UNL     1      -3.832  -0.595   0.735  1.00  0.00     0.007 C 
ATOM     27  C   UNL     1      -3.858  -2.689  -0.646  1.00  0.00     0.007 C 
ATOM     28  C   UNL     1      -3.569  -0.460  -1.750  1.00  0.00     0.007 C 
ENDBRANCH  17  19
ENDBRANCH  14  17
ENDBRANCH   8  13
ENDBRANCH   5   7
ENDBRANCH   4   5
ENDBRANCH   3   4
ENDBRANCH   2   3
ENDBRANCH   1   2
BRANCH   1  29
ATOM     29  C   UNL     1       3.708  -2.678   3.918  1.00  0.00     0.202 C 
BRANCH  29  30
ATOM     30  C   UNL     1       2.376  -3.036   4.583  1.00  0.00     0.261 C 
BRANCH  30  31
ATOM     31  O   UNL     1       1.520  -1.882   4.670  1.00  0.00    -0.460 OA
BRANCH  31  32
ATOM     32  C   UNL     1       1.312  -1.416   5.926  1.00  0.00     0.338 C 
ATOM     33  O   UNL     1       1.660  -1.941   6.970  1.00  0.00    -0.246 OA
BRANCH  32  34
ATOM     34  C   UNL     1       0.740  -0.054   5.870  1.00  0.00     0.060 A 
ATOM     35  C   UNL     1       1.295   0.909   6.722  1.00  0.00     0.016 A 
ATOM     36  C   UNL     1      -0.338   0.272   5.042  1.00  0.00     0.016 A 
ATOM     37  C   UNL     1       0.740   2.185   6.793  1.00  0.00     0.010 A 
ATOM     38  C   UNL     1      -0.898   1.552   5.119  1.00  0.00     0.010 A 
ATOM     39  C   UNL     1      -0.385   2.501   6.021  1.00  0.00    -0.014 A 
BRANCH  39  40
ATOM     40  C   UNL     1      -1.101   3.777   6.264  1.00  0.00     0.031 A 
ATOM     41  C   UNL     1      -2.328   3.774   7.134  1.00  0.00     0.074 A 
ATOM     42  C   UNL     1      -0.662   4.927   5.723  1.00  0.00     0.049 A 
ATOM     43  N   UNL     1      -3.101   4.770   7.478  1.00  0.00    -0.248 NA
ATOM     44  C   UNL     1      -2.739   2.473   7.688  1.00  0.00     0.031 C 
ATOM     45  C   UNL     1       0.505   5.058   4.852  1.00  0.00     0.029 A 
ATOM     46  N   UNL     1      -1.167   6.200   5.807  1.00  0.00    -0.354 N 
ATOM     47  C   UNL     1      -4.098   4.218   8.273  1.00  0.00     0.074 A 
ATOM     48  C   UNL     1      -3.844   2.795   8.344  1.00  0.00     0.031 C 
ATOM     49  C   UNL     1       0.605   6.337   4.451  1.00  0.00     0.029 A 
ATOM     50  C   UNL     1      -0.494   7.110   5.028  1.00  0.00     0.049 A 
ATOM     51  H   UNL     1      -1.938   6.439   6.371  1.00  0.00     0.167 HD
ATOM     52  C   UNL     1      -5.120   4.841   8.907  1.00  0.00     0.034 A 
ATOM     53  C   UNL     1      -0.746   8.413   4.793  1.00  0.00     0.034 A 
ATOM     54  C   UNL     1      -5.365   6.256   8.852  1.00  0.00     0.049 A 
ATOM     55  C   UNL     1      -1.893   9.084   5.502  1.00  0.00     0.074 A 
ATOM     56  C   UNL     1      -6.348   6.986   9.496  1.00  0.00     0.029 A 
ATOM     57  N   UNL     1      -4.625   7.157   8.102  1.00  0.00    -0.354 N 
ATOM     58  N   UNL     1      -2.746   8.575   6.358  1.00  0.00    -0.248 NA
ATOM     59  C   UNL     1      -2.090  10.518   5.243  1.00  0.00     0.031 C 
ATOM     60  C   UNL     1      -6.212   8.328   9.124  1.00  0.00     0.029 A 
ATOM     61  C   UNL     1      -5.134   8.435   8.258  1.00  0.00     0.049 A 
ATOM     62  H   UNL     1      -3.852   6.923   7.540  1.00  0.00     0.167 HD
ATOM     63  C   UNL     1      -3.562   9.627   6.759  1.00  0.00     0.074 A 
ATOM     64  C   UNL     1      -3.086  10.809   6.069  1.00  0.00     0.031 C 
ATOM     65  C   UNL     1      -4.621   9.613   7.607  1.00  0.00     0.034 A 
BRANCH  52  66
ATOM     66  C   UNL     1      -6.026   3.989   9.755  1.00  0.00     0.023 A 
ATOM     67  C   UNL     1      -5.562   3.516  10.999  1.00  0.00     0.012 A 
ATOM     68  C   UNL     1      -7.338   3.686   9.345  1.00  0.00     0.148 A 
ATOM     69  C   UNL     1      -6.378   2.728  11.808  1.00  0.00     0.002 A 
ATOM     70  C   UNL     1      -8.159   2.929  10.174  1.00  0.00     0.091 A 
ATOM     71  F   UNL     1      -7.752   4.119   8.145  1.00  0.00    -0.205 F 
ATOM     72  C   UNL     1      -7.679   2.443  11.401  1.00  0.00     0.022 A 
BRANCH  70  73
ATOM     73  S   UNL     1      -9.869   2.569   9.757  1.00  0.00     0.127 S 
ATOM     74  O   UNL     1      -9.773   1.189   9.284  1.00  0.00    -0.237 OA
ATOM     75  O   UNL     1     -10.546   2.726  11.045  1.00  0.00    -0.237 OA
ATOM     76  O   UNL     1     -10.247   3.556   8.755  1.00  0.00    -0.744 OA
ENDBRANCH  70  73
ENDBRANCH  52  66
BRANCH  53  77
ATOM     77  C   UNL     1       0.136   9.175   3.866  1.00  0.00     0.023 A 
ATOM     78  C   UNL     1       1.021  10.141   4.381  1.00  0.00     0.012 A 
ATOM     79  C   UNL     1       0.130   8.916   2.481  1.00  0.00     0.148 A 
ATOM     80  C   UNL     1       1.871  10.850   3.531  1.00  0.00     0.002 A 
ATOM     81  C   UNL     1       1.014   9.589   1.647  1.00  0.00     0.091 A 
ATOM     82  F   UNL     1      -0.736   8.008   2.009  1.00  0.00    -0.205 F 
ATOM     83  C   UNL     1       1.877  10.566   2.168  1.00  0.00     0.022 A 
BRANCH  81  84
ATOM     84  S   UNL     1       1.174   9.197  -0.099  1.00  0.00     0.127 S 
ATOM     85  O   UNL     1       0.547  10.358  -0.725  1.00  0.00    -0.237 OA
ATOM     86  O   UNL     1       2.626   9.119  -0.261  1.00  0.00    -0.237 OA
ATOM     87  O   UNL     1       0.481   7.928  -0.280  1.00  0.00    -0.744 OA
ENDBRANCH  81  84
ENDBRANCH  53  77
BRANCH  65  88
ATOM     88  C   UNL     1      -5.338  10.914   7.855  1.00  0.00     0.023 A 
ATOM     89  C   UNL     1      -6.185  11.441   6.860  1.00  0.00     0.012 A 
ATOM     90  C   UNL     1      -5.240  11.570   9.098  1.00  0.00     0.148 A 
ATOM     91  C   UNL     1      -6.904  12.614   7.089  1.00  0.00     0.002 A 
ATOM     92  C   UNL     1      -5.992  12.716   9.334  1.00  0.00     0.091 A 
ATOM     93  F   UNL     1      -4.413  11.066  10.026  1.00  0.00    -0.205 F 
ATOM     94  C   UNL     1      -6.818  13.244   8.328  1.00  0.00     0.022 A 
BRANCH  92  95
ATOM     95  S   UNL     1      -6.009  13.540  10.931  1.00  0.00     0.127 S 
ATOM     96  O   UNL     1      -5.158  14.701  10.677  1.00  0.00    -0.237 OA
ATOM     97  O   UNL     1      -7.428  13.852  11.109  1.00  0.00    -0.237 OA
ATOM     98  O   UNL     1      -5.484  12.571  11.883  1.00  0.00    -0.744 OA
ENDBRANCH  92  95
ENDBRANCH  65  88
ENDBRANCH  39  40
ENDBRANCH  32  34
ENDBRANCH  31  32
ENDBRANCH  30  31
ENDBRANCH  29  30
ENDBRANCH   1  29
TORSDOF 20
