REMARK SMILES CCC[C@]1(C(=O)OCCOCCOC(=O)c2ccc(-c3c4nc(c(-c5cccc(S(=O)(=O)[O-])c5F)c5ccc([nH]5)c(-c5cccc(S(=O)(=O)[O-])c5F)c5nc(c(-c6cccc(S(=O)(=O)[O-])c6F)c6ccc3[nH]6)C=C5)C=C4)cc2)CCCN(C(=O)c2ccc(NS(=O)(=O)CC)cc2)C1
REMARK SMILES IDX 9 1 8 2 7 3 5 4 6 5 4 6 79 7 97 8 80 9 82 10 81 11 3 12 2 13
REMARK SMILES IDX 1 14 83 15 84 16 85 17 86 18 96 19 87 20 95 21 88 22 89 23
REMARK SMILES IDX 90 25 91 26 92 27 93 28 94 29 10 30 11 31 12 32 13 33 14 34
REMARK SMILES IDX 15 35 16 36 17 37 78 38 18 39 77 40 19 41 20 42 21 43 71 44
REMARK SMILES IDX 22 45 76 46 70 47 72 48 23 49 75 50 69 51 68 52 24 54 56 55
REMARK SMILES IDX 36 56 55 57 37 58 40 59 54 60 73 61 38 62 39 63 53 65 74 66
REMARK SMILES IDX 41 67 25 68 26 69 34 70 27 71 29 72 35 73 28 74 30 75 31 76
REMARK SMILES IDX 32 77 33 78 57 79 58 80 66 81 59 82 61 83 67 84 60 85 62 86
REMARK SMILES IDX 63 87 64 88 65 89 42 90 43 91 51 92 44 93 46 94 52 95 45 96
REMARK SMILES IDX 47 97 48 98 49 99 50 100
REMARK H PARENT 89 24 72 53 40 64
REMARK Flexibility Score: inf
ROOT
ATOM      1  C   UNL     1       3.392   3.377  -3.050  1.00  0.00     0.202 C 
ENDROOT
BRANCH   1   2
ATOM      2  C   UNL     1       1.975   2.797  -3.166  1.00  0.00     0.261 C 
BRANCH   2   3
ATOM      3  O   UNL     1       1.130   3.092  -2.045  1.00  0.00    -0.463 OA
BRANCH   3   4
ATOM      4  C   UNL     1       1.142   2.119  -1.096  1.00  0.00     0.313 C 
ATOM      5  O   UNL     1       1.808   1.097  -1.211  1.00  0.00    -0.252 OA
BRANCH   4   6
ATOM      6  C   UNL     1       0.293   2.454   0.137  1.00  0.00     0.086 C 
ATOM      7  C   UNL     1       0.316   3.990   0.458  1.00  0.00     0.022 C 
ATOM      8  C   UNL     1      -1.154   2.075  -0.204  1.00  0.00     0.138 C 
ATOM      9  C   UNL     1      -0.715   4.414   1.513  1.00  0.00     0.023 C 
ATOM     10  N   UNL     1      -2.061   2.464   0.873  1.00  0.00    -0.338 N 
ATOM     11  C   UNL     1      -2.106   3.891   1.186  1.00  0.00     0.120 C 
BRANCH   6  12
ATOM     12  C   UNL     1       0.916   1.695   1.363  1.00  0.00     0.020 C 
BRANCH  12  13
ATOM     13  C   UNL     1       0.593   0.214   1.631  1.00  0.00    -0.002 C 
ATOM     14  C   UNL     1       0.958  -0.804   0.566  1.00  0.00     0.004 C 
ENDBRANCH  12  13
ENDBRANCH   6  12
BRANCH  10  15
ATOM     15  C   UNL     1      -2.807   1.478   1.491  1.00  0.00     0.253 C 
ATOM     16  O   UNL     1      -2.841   0.301   1.143  1.00  0.00    -0.269 OA
BRANCH  15  17
ATOM     17  C   UNL     1      -3.537   1.816   2.715  1.00  0.00     0.040 A 
ATOM     18  C   UNL     1      -2.934   1.524   3.937  1.00  0.00     0.016 A 
ATOM     19  C   UNL     1      -4.854   2.257   2.648  1.00  0.00     0.016 A 
ATOM     20  C   UNL     1      -3.683   1.617   5.109  1.00  0.00     0.027 A 
ATOM     21  C   UNL     1      -5.603   2.318   3.824  1.00  0.00     0.027 A 
ATOM     22  C   UNL     1      -5.038   1.954   5.057  1.00  0.00     0.049 A 
BRANCH  22  23
ATOM     23  N   UNL     1      -5.956   1.629   6.099  1.00  0.00    -0.284 N 
ATOM     24  H   UNL     1      -6.887   1.452   5.832  1.00  0.00     0.180 HD
BRANCH  23  25
ATOM     25  S   UNL     1      -5.609   1.518   7.717  1.00  0.00     0.232 S 
ATOM     26  O   UNL     1      -4.868   2.696   8.111  1.00  0.00    -0.207 OA
ATOM     27  O   UNL     1      -6.880   1.213   8.345  1.00  0.00    -0.207 OA
BRANCH  25  28
ATOM     28  C   UNL     1      -4.554   0.084   7.942  1.00  0.00     0.156 C 
ATOM     29  C   UNL     1      -4.816  -1.085   7.015  1.00  0.00     0.023 C 
ENDBRANCH  25  28
ENDBRANCH  23  25
ENDBRANCH  22  23
ENDBRANCH  15  17
ENDBRANCH  10  15
ENDBRANCH   4   6
ENDBRANCH   3   4
ENDBRANCH   2   3
ENDBRANCH   1   2
BRANCH   1  30
ATOM     30  O   UNL     1       4.173   3.123  -1.886  1.00  0.00    -0.374 OA
BRANCH  30  31
ATOM     31  C   UNL     1       3.855   3.831  -0.690  1.00  0.00     0.202 C 
BRANCH  31  32
ATOM     32  C   UNL     1       4.100   5.345  -0.631  1.00  0.00     0.261 C 
BRANCH  32  33
ATOM     33  O   UNL     1       3.282   6.079  -1.559  1.00  0.00    -0.460 OA
BRANCH  33  34
ATOM     34  C   UNL     1       3.963   6.679  -2.566  1.00  0.00     0.338 C 
ATOM     35  O   UNL     1       5.178   6.729  -2.707  1.00  0.00    -0.246 OA
BRANCH  34  36
ATOM     36  C   UNL     1       3.025   7.081  -3.627  1.00  0.00     0.060 A 
ATOM     37  C   UNL     1       3.201   6.518  -4.900  1.00  0.00     0.016 A 
ATOM     38  C   UNL     1       2.019   8.019  -3.397  1.00  0.00     0.016 A 
ATOM     39  C   UNL     1       2.382   6.906  -5.956  1.00  0.00     0.010 A 
ATOM     40  C   UNL     1       1.212   8.424  -4.465  1.00  0.00     0.010 A 
ATOM     41  C   UNL     1       1.406   7.887  -5.751  1.00  0.00    -0.014 A 
BRANCH  41  42
ATOM     42  C   UNL     1       0.663   8.439  -6.907  1.00  0.00     0.031 A 
ATOM     43  C   UNL     1       1.080   9.764  -7.477  1.00  0.00     0.074 A 
ATOM     44  C   UNL     1      -0.381   7.770  -7.428  1.00  0.00     0.049 A 
ATOM     45  N   UNL     1       0.524  10.466  -8.428  1.00  0.00    -0.248 NA
ATOM     46  C   UNL     1       2.284  10.381  -6.896  1.00  0.00     0.031 C 
ATOM     47  C   UNL     1      -0.862   6.467  -6.971  1.00  0.00     0.029 A 
ATOM     48  N   UNL     1      -1.244   8.115  -8.437  1.00  0.00    -0.354 N 
ATOM     49  C   UNL     1       1.287  11.622  -8.539  1.00  0.00     0.074 A 
ATOM     50  C   UNL     1       2.344  11.529  -7.555  1.00  0.00     0.031 C 
ATOM     51  C   UNL     1      -1.960   6.139  -7.672  1.00  0.00     0.029 A 
ATOM     52  C   UNL     1      -2.278   7.223  -8.599  1.00  0.00     0.049 A 
ATOM     53  H   UNL     1      -1.135   8.922  -8.991  1.00  0.00     0.167 HD
ATOM     54  C   UNL     1       1.125  12.662  -9.390  1.00  0.00     0.034 A 
ATOM     55  C   UNL     1      -3.375   7.294  -9.379  1.00  0.00     0.034 A 
ATOM     56  C   UNL     1       0.079  12.742 -10.373  1.00  0.00     0.049 A 
ATOM     57  C   UNL     1      -3.562   8.489 -10.278  1.00  0.00     0.074 A 
ATOM     58  C   UNL     1      -0.141  13.730 -11.316  1.00  0.00     0.029 A 
ATOM     59  N   UNL     1      -0.935  11.810 -10.528  1.00  0.00    -0.354 N 
ATOM     60  N   UNL     1      -2.773   9.521 -10.454  1.00  0.00    -0.248 NA
ATOM     61  C   UNL     1      -4.778   8.517 -11.103  1.00  0.00     0.031 C 
ATOM     62  C   UNL     1      -1.311  13.415 -12.014  1.00  0.00     0.029 A 
ATOM     63  C   UNL     1      -1.799  12.212 -11.532  1.00  0.00     0.049 A 
ATOM     64  H   UNL     1      -1.028  10.983 -10.001  1.00  0.00     0.167 HD
ATOM     65  C   UNL     1      -3.380  10.305 -11.429  1.00  0.00     0.074 A 
ATOM     66  C   UNL     1      -4.593   9.617 -11.822  1.00  0.00     0.031 C 
ATOM     67  C   UNL     1      -2.979  11.495 -11.943  1.00  0.00     0.034 A 
BRANCH  54  68
ATOM     68  C   UNL     1       2.109  13.799  -9.303  1.00  0.00     0.023 A 
ATOM     69  C   UNL     1       3.429  13.622  -9.764  1.00  0.00     0.012 A 
ATOM     70  C   UNL     1       1.709  15.059  -8.817  1.00  0.00     0.148 A 
ATOM     71  C   UNL     1       4.344  14.673  -9.716  1.00  0.00     0.002 A 
ATOM     72  C   UNL     1       2.614  16.114  -8.814  1.00  0.00     0.091 A 
ATOM     73  F   UNL     1       0.456  15.201  -8.362  1.00  0.00    -0.205 F 
ATOM     74  C   UNL     1       3.934  15.920  -9.252  1.00  0.00     0.022 A 
BRANCH  72  75
ATOM     75  S   UNL     1       2.162  17.777  -8.308  1.00  0.00     0.127 S 
ATOM     76  O   UNL     1       2.907  17.917  -7.057  1.00  0.00    -0.237 OA
ATOM     77  O   UNL     1       2.673  18.584  -9.416  1.00  0.00    -0.237 OA
ATOM     78  O   UNL     1       0.712  17.777  -8.172  1.00  0.00    -0.744 OA
ENDBRANCH  72  75
ENDBRANCH  54  68
BRANCH  55  79
ATOM     79  C   UNL     1      -4.383   6.197  -9.347  1.00  0.00     0.023 A 
ATOM     80  C   UNL     1      -4.550   5.371 -10.474  1.00  0.00     0.012 A 
ATOM     81  C   UNL     1      -5.164   5.959  -8.198  1.00  0.00     0.148 A 
ATOM     82  C   UNL     1      -5.497   4.347 -10.470  1.00  0.00     0.002 A 
ATOM     83  C   UNL     1      -6.064   4.901  -8.180  1.00  0.00     0.091 A 
ATOM     84  F   UNL     1      -5.002   6.768  -7.141  1.00  0.00    -0.205 F 
ATOM     85  C   UNL     1      -6.246   4.105  -9.321  1.00  0.00     0.022 A 
BRANCH  83  86
ATOM     86  S   UNL     1      -6.974   4.437  -6.702  1.00  0.00     0.127 S 
ATOM     87  O   UNL     1      -8.343   4.789  -7.070  1.00  0.00    -0.237 OA
ATOM     88  O   UNL     1      -6.705   3.001  -6.624  1.00  0.00    -0.237 OA
ATOM     89  O   UNL     1      -6.391   5.216  -5.618  1.00  0.00    -0.744 OA
ENDBRANCH  83  86
ENDBRANCH  55  79
BRANCH  67  90
ATOM     90  C   UNL     1      -3.839  12.125 -13.008  1.00  0.00     0.023 A 
ATOM     91  C   UNL     1      -5.077  12.700 -12.660  1.00  0.00     0.012 A 
ATOM     92  C   UNL     1      -3.380  12.225 -14.337  1.00  0.00     0.148 A 
ATOM     93  C   UNL     1      -5.858  13.340 -13.623  1.00  0.00     0.002 A 
ATOM     94  C   UNL     1      -4.139  12.908 -15.279  1.00  0.00     0.091 A 
ATOM     95  F   UNL     1      -2.205  11.660 -14.650  1.00  0.00    -0.205 F 
ATOM     96  C   UNL     1      -5.383  13.455 -14.927  1.00  0.00     0.022 A 
BRANCH  94  97
ATOM     97  S   UNL     1      -3.570  13.192 -16.960  1.00  0.00     0.127 S 
ATOM     98  O   UNL     1      -4.502  12.373 -17.732  1.00  0.00    -0.237 OA
ATOM     99  O   UNL     1      -3.757  14.636 -17.108  1.00  0.00    -0.237 OA
ATOM    100  O   UNL     1      -2.181  12.753 -16.996  1.00  0.00    -0.744 OA
ENDBRANCH  94  97
ENDBRANCH  67  90
ENDBRANCH  41  42
ENDBRANCH  34  36
ENDBRANCH  33  34
ENDBRANCH  32  33
ENDBRANCH  31  32
ENDBRANCH  30  31
ENDBRANCH   1  30
TORSDOF 24
