REMARK SMILES O=C(C[NH+]1CCN(c2nccc(N3CCCCC3)n2)CC1)OCCOCCOC(=O)c1ccc(-c2c3nc(c(-c4cccc(S(=O)(=O)[O-])c4F)c4ccc([nH]4)c(-c4cccc(S(=O)(=O)[O-])c4F)c4nc(c(-c5cccc(S(=O)(=O)[O-])c5F)c5ccc2[nH]5)C=C4)C=C3)cc1
REMARK SMILES IDX 25 1 24 2 23 3 22 4 2 5 1 6 3 7 4 8 5 9 21 10 6 12 20 13
REMARK SMILES IDX 7 14 8 15 9 16 19 17 10 18 12 19 11 20 13 21 14 22 18 23
REMARK SMILES IDX 15 24 17 25 16 26 26 27 27 28 28 29 29 30 30 31 31 32 32 33
REMARK SMILES IDX 93 34 33 35 92 36 34 37 35 38 36 39 86 40 37 41 91 42 85 43
REMARK SMILES IDX 87 44 38 45 90 46 84 47 83 48 39 50 71 51 51 52 70 53 52 54
REMARK SMILES IDX 55 55 69 56 88 57 53 58 54 59 68 61 89 62 56 63 40 64 41 65
REMARK SMILES IDX 49 66 42 67 44 68 50 69 43 70 45 71 46 72 47 73 48 74 72 75
REMARK SMILES IDX 73 76 81 77 74 78 76 79 82 80 75 81 77 82 78 83 79 84 80 85
REMARK SMILES IDX 57 86 58 87 66 88 59 89 61 90 67 91 60 92 62 93 63 94 64 95
REMARK SMILES IDX 65 96
REMARK H PARENT 4 11 87 49 55 60
REMARK Flexibility Score: inf
ROOT
ATOM      1  O   UNL     1       3.922  -2.188   1.112  1.00  0.00    -0.374 OA
ENDROOT
BRANCH   1   2
ATOM      2  C   UNL     1       4.432  -0.925   1.506  1.00  0.00     0.202 C 
BRANCH   2   3
ATOM      3  C   UNL     1       3.873   0.314   0.842  1.00  0.00     0.261 C 
BRANCH   3   4
ATOM      4  O   UNL     1       2.481   0.322   0.533  1.00  0.00    -0.459 OA
BRANCH   4   5
ATOM      5  C   UNL     1       2.097   0.300  -0.774  1.00  0.00     0.361 C 
ATOM      6  O   UNL     1       1.019   0.783  -1.113  1.00  0.00    -0.245 OA
BRANCH   5   7
ATOM      7  C   UNL     1       2.997  -0.453  -1.754  1.00  0.00     0.386 C 
BRANCH   7   8
ATOM      8  N   UNL     1       3.944   0.323  -2.573  1.00  0.00    -0.323 N 
ATOM      9  C   UNL     1       4.072   1.775  -2.403  1.00  0.00     0.284 C 
ATOM     10  C   UNL     1       5.266  -0.304  -2.721  1.00  0.00     0.284 C 
ATOM     11  H   UNL     1       3.421   0.268  -3.447  1.00  0.00     0.348 HD
ATOM     12  C   UNL     1       5.112   2.314  -1.389  1.00  0.00     0.181 C 
ATOM     13  C   UNL     1       6.340   0.067  -1.677  1.00  0.00     0.181 C 
ATOM     14  N   UNL     1       6.281   1.458  -1.248  1.00  0.00    -0.329 N 
BRANCH  14  15
ATOM     15  C   UNL     1       7.241   1.829  -0.332  1.00  0.00     0.227 A 
ATOM     16  N   UNL     1       6.889   2.260   0.887  1.00  0.00    -0.221 NA
ATOM     17  N   UNL     1       8.504   1.769  -0.754  1.00  0.00    -0.196 NA
ATOM     18  C   UNL     1       7.893   2.651   1.698  1.00  0.00     0.119 A 
ATOM     19  C   UNL     1       9.476   2.242   0.038  1.00  0.00     0.134 A 
ATOM     20  C   UNL     1       9.216   2.655   1.324  1.00  0.00     0.067 A 
BRANCH  19  21
ATOM     21  N   UNL     1      10.717   2.467  -0.536  1.00  0.00    -0.356 N 
ATOM     22  C   UNL     1      10.682   2.963  -1.911  1.00  0.00     0.118 C 
ATOM     23  C   UNL     1      11.852   1.648  -0.135  1.00  0.00     0.118 C 
ATOM     24  C   UNL     1      10.864   1.823  -2.909  1.00  0.00     0.022 C 
ATOM     25  C   UNL     1      12.097   0.524  -1.149  1.00  0.00     0.022 C 
ATOM     26  C   UNL     1      12.137   1.047  -2.587  1.00  0.00     0.004 C 
ENDBRANCH  19  21
ENDBRANCH  14  15
ENDBRANCH   7   8
ENDBRANCH   5   7
ENDBRANCH   4   5
ENDBRANCH   3   4
ENDBRANCH   2   3
ENDBRANCH   1   2
BRANCH   1  27
ATOM     27  C   UNL     1       2.627  -2.521   1.615  1.00  0.00     0.202 C 
BRANCH  27  28
ATOM     28  C   UNL     1       2.485  -2.785   3.128  1.00  0.00     0.261 C 
BRANCH  28  29
ATOM     29  O   UNL     1       2.883  -1.680   3.962  1.00  0.00    -0.460 OA
BRANCH  29  30
ATOM     30  C   UNL     1       4.100  -1.826   4.560  1.00  0.00     0.338 C 
ATOM     31  O   UNL     1       4.799  -2.821   4.549  1.00  0.00    -0.246 OA
BRANCH  30  32
ATOM     32  C   UNL     1       4.604  -0.504   5.016  1.00  0.00     0.060 A 
ATOM     33  C   UNL     1       5.902  -0.134   4.625  1.00  0.00     0.016 A 
ATOM     34  C   UNL     1       3.852   0.332   5.841  1.00  0.00     0.016 A 
ATOM     35  C   UNL     1       6.491   1.020   5.137  1.00  0.00     0.010 A 
ATOM     36  C   UNL     1       4.451   1.480   6.373  1.00  0.00     0.010 A 
ATOM     37  C   UNL     1       5.794   1.786   6.077  1.00  0.00    -0.014 A 
BRANCH  37  38
ATOM     38  C   UNL     1       6.571   2.666   6.986  1.00  0.00     0.031 A 
ATOM     39  C   UNL     1       7.021   2.071   8.299  1.00  0.00     0.074 A 
ATOM     40  C   UNL     1       6.903   3.928   6.664  1.00  0.00     0.049 A 
ATOM     41  N   UNL     1       7.695   2.619   9.274  1.00  0.00    -0.248 NA
ATOM     42  C   UNL     1       6.654   0.664   8.540  1.00  0.00     0.031 C 
ATOM     43  C   UNL     1       6.556   4.607   5.419  1.00  0.00     0.029 A 
ATOM     44  N   UNL     1       7.598   4.869   7.383  1.00  0.00    -0.354 N 
ATOM     45  C   UNL     1       7.796   1.640  10.257  1.00  0.00     0.074 A 
ATOM     46  C   UNL     1       7.112   0.467   9.765  1.00  0.00     0.031 C 
ATOM     47  C   UNL     1       7.019   5.870   5.471  1.00  0.00     0.029 A 
ATOM     48  C   UNL     1       7.670   6.094   6.762  1.00  0.00     0.049 A 
ATOM     49  H   UNL     1       8.006   4.685   8.259  1.00  0.00     0.167 HD
ATOM     50  C   UNL     1       8.410   1.703  11.461  1.00  0.00     0.034 A 
ATOM     51  C   UNL     1       8.182   7.261   7.201  1.00  0.00     0.034 A 
ATOM     52  C   UNL     1       9.098   2.865  11.948  1.00  0.00     0.049 A 
ATOM     53  C   UNL     1       8.834   7.316   8.562  1.00  0.00     0.074 A 
ATOM     54  C   UNL     1       9.782   3.023  13.140  1.00  0.00     0.029 A 
ATOM     55  N   UNL     1       9.174   4.075  11.277  1.00  0.00    -0.354 N 
ATOM     56  N   UNL     1       9.009   6.356   9.438  1.00  0.00    -0.248 NA
ATOM     57  C   UNL     1       9.392   8.612   8.979  1.00  0.00     0.031 C 
ATOM     58  C   UNL     1      10.238   4.343  13.207  1.00  0.00     0.029 A 
ATOM     59  C   UNL     1       9.884   4.989  12.033  1.00  0.00     0.049 A 
ATOM     60  H   UNL     1       8.780   4.256  10.394  1.00  0.00     0.167 HD
ATOM     61  C   UNL     1       9.742   6.916  10.481  1.00  0.00     0.074 A 
ATOM     62  C   UNL     1       9.987   8.297  10.122  1.00  0.00     0.031 C 
ATOM     63  C   UNL     1      10.171   6.343  11.634  1.00  0.00     0.034 A 
BRANCH  50  64
ATOM     64  C   UNL     1       8.351   0.479  12.337  1.00  0.00     0.023 A 
ATOM     65  C   UNL     1       9.083  -0.675  11.991  1.00  0.00     0.012 A 
ATOM     66  C   UNL     1       7.588   0.486  13.520  1.00  0.00     0.148 A 
ATOM     67  C   UNL     1       9.025  -1.817  12.789  1.00  0.00     0.002 A 
ATOM     68  C   UNL     1       7.577  -0.637  14.337  1.00  0.00     0.091 A 
ATOM     69  F   UNL     1       6.878   1.583  13.816  1.00  0.00    -0.205 F 
ATOM     70  C   UNL     1       8.282  -1.794  13.967  1.00  0.00     0.022 A 
BRANCH  68  71
ATOM     71  S   UNL     1       6.718  -0.677  15.913  1.00  0.00     0.127 S 
ATOM     72  O   UNL     1       5.635  -1.620  15.635  1.00  0.00    -0.237 OA
ATOM     73  O   UNL     1       7.753  -1.186  16.812  1.00  0.00    -0.237 OA
ATOM     74  O   UNL     1       6.300   0.692  16.180  1.00  0.00    -0.744 OA
ENDBRANCH  68  71
ENDBRANCH  50  64
BRANCH  51  75
ATOM     75  C   UNL     1       8.134   8.479   6.340  1.00  0.00     0.023 A 
ATOM     76  C   UNL     1       9.331   9.022   5.833  1.00  0.00     0.012 A 
ATOM     77  C   UNL     1       6.913   9.111   6.038  1.00  0.00     0.148 A 
ATOM     78  C   UNL     1       9.317  10.194   5.075  1.00  0.00     0.002 A 
ATOM     79  C   UNL     1       6.900  10.246   5.236  1.00  0.00     0.091 A 
ATOM     80  F   UNL     1       5.786   8.589   6.543  1.00  0.00    -0.205 F 
ATOM     81  C   UNL     1       8.102  10.801   4.769  1.00  0.00     0.022 A 
BRANCH  79  82
ATOM     82  S   UNL     1       5.378  11.031   4.694  1.00  0.00     0.127 S 
ATOM     83  O   UNL     1       5.442  12.316   5.385  1.00  0.00    -0.237 OA
ATOM     84  O   UNL     1       5.577  11.098   3.246  1.00  0.00    -0.237 OA
ATOM     85  O   UNL     1       4.304  10.142   5.115  1.00  0.00    -0.744 OA
ENDBRANCH  79  82
ENDBRANCH  51  75
BRANCH  63  86
ATOM     86  C   UNL     1      11.022   7.175  12.561  1.00  0.00     0.023 A 
ATOM     87  C   UNL     1      10.458   8.245  13.283  1.00  0.00     0.012 A 
ATOM     88  C   UNL     1      12.377   6.844  12.763  1.00  0.00     0.148 A 
ATOM     89  C   UNL     1      11.242   9.001  14.155  1.00  0.00     0.002 A 
ATOM     90  C   UNL     1      13.136   7.565  13.676  1.00  0.00     0.091 A 
ATOM     91  F   UNL     1      12.902   5.832  12.056  1.00  0.00    -0.205 F 
ATOM     92  C   UNL     1      12.576   8.654  14.360  1.00  0.00     0.022 A 
BRANCH  90  93
ATOM     93  S   UNL     1      14.829   7.118  14.080  1.00  0.00     0.127 S 
ATOM     94  O   UNL     1      15.585   8.166  13.396  1.00  0.00    -0.237 OA
ATOM     95  O   UNL     1      14.837   7.215  15.540  1.00  0.00    -0.237 OA
ATOM     96  O   UNL     1      15.021   5.769  13.565  1.00  0.00    -0.744 OA
ENDBRANCH  90  93
ENDBRANCH  63  86
ENDBRANCH  37  38
ENDBRANCH  30  32
ENDBRANCH  29  30
ENDBRANCH  28  29
ENDBRANCH  27  28
ENDBRANCH   1  27
TORSDOF 20
