REMARK SMILES Cc1cc(NS(=O)(=O)CC(=O)OCCOCCOC(=O)c2ccc(-c3c4nc(c(-c5cccc(S(=O)(=O)[O-])c5F)c5ccc([nH]5)c(-c5cccc(S(=O)(=O)[O-])c5F)c5nc(c(-c6cccc(S(=O)(=O)[O-])c6F)c6ccc3[nH]6)C=C5)C=C4)cc2)ccn1
REMARK SMILES IDX 15 1 14 2 13 3 12 4 10 5 11 6 9 7 6 8 7 9 8 10 5 11 4 13
REMARK SMILES IDX 1 14 2 15 3 16 86 17 85 18 84 19 16 20 17 21 18 22 19 23
REMARK SMILES IDX 20 24 21 25 22 26 83 27 23 28 82 29 24 30 25 31 26 32 76 33
REMARK SMILES IDX 27 34 81 35 75 36 77 37 28 38 80 39 74 40 73 41 29 43 61 44
REMARK SMILES IDX 41 45 60 46 42 47 45 48 59 49 78 50 43 51 44 52 58 54 79 55
REMARK SMILES IDX 46 56 30 57 31 58 39 59 32 60 34 61 40 62 33 63 35 64 36 65
REMARK SMILES IDX 37 66 38 67 62 68 63 69 71 70 64 71 66 72 72 73 65 74 67 75
REMARK SMILES IDX 68 76 69 77 70 78 47 79 48 80 56 81 49 82 51 83 57 84 50 85
REMARK SMILES IDX 52 86 53 87 54 88 55 89
REMARK H PARENT 5 12 77 42 45 53
REMARK Flexibility Score: inf
ROOT
ATOM      1  O   UNL     1      -1.760   1.060   3.443  1.00  0.00    -0.374 OA
ENDROOT
BRANCH   1   2
ATOM      2  C   UNL     1      -3.025   0.608   3.936  1.00  0.00     0.202 C 
BRANCH   2   3
ATOM      3  C   UNL     1      -4.242   0.870   3.041  1.00  0.00     0.261 C 
BRANCH   3   4
ATOM      4  O   UNL     1      -4.390  -0.127   2.000  1.00  0.00    -0.462 OA
BRANCH   4   5
ATOM      5  C   UNL     1      -4.377   0.299   0.712  1.00  0.00     0.323 C 
ATOM      6  O   UNL     1      -4.193   1.462   0.365  1.00  0.00    -0.251 OA
BRANCH   5   7
ATOM      7  C   UNL     1      -4.741  -0.761  -0.266  1.00  0.00     0.282 C 
BRANCH   7   8
ATOM      8  S   UNL     1      -3.631  -2.143  -0.291  1.00  0.00     0.243 S 
ATOM      9  O   UNL     1      -4.374  -3.247  -0.874  1.00  0.00    -0.206 OA
ATOM     10  O   UNL     1      -2.965  -2.328   0.971  1.00  0.00    -0.206 OA
BRANCH   8  11
ATOM     11  N   UNL     1      -2.459  -1.817  -1.468  1.00  0.00    -0.283 N 
ATOM     12  H   UNL     1      -2.470  -2.330  -2.309  1.00  0.00     0.180 HD
BRANCH  11  13
ATOM     13  C   UNL     1      -1.451  -0.819  -1.275  1.00  0.00     0.052 A 
ATOM     14  C   UNL     1       2.203  -0.427  -0.325  1.00  0.00     0.067 C 
ATOM     15  C   UNL     1       0.799  -0.147  -0.776  1.00  0.00     0.039 A 
ATOM     16  C   UNL     1      -0.140  -1.166  -0.945  1.00  0.00     0.050 A 
ATOM     17  N   UNL     1       0.485   1.157  -0.945  1.00  0.00    -0.261 NA
ATOM     18  C   UNL     1      -0.783   1.460  -1.288  1.00  0.00     0.113 A 
ATOM     19  C   UNL     1      -1.775   0.515  -1.465  1.00  0.00     0.047 A 
ENDBRANCH  11  13
ENDBRANCH   8  11
ENDBRANCH   7   8
ENDBRANCH   5   7
ENDBRANCH   4   5
ENDBRANCH   3   4
ENDBRANCH   2   3
ENDBRANCH   1   2
BRANCH   1  20
ATOM     20  C   UNL     1      -1.265   0.440   2.262  1.00  0.00     0.202 C 
BRANCH  20  21
ATOM     21  C   UNL     1      -0.624  -0.943   2.407  1.00  0.00     0.261 C 
BRANCH  21  22
ATOM     22  O   UNL     1      -1.269  -1.770   3.361  1.00  0.00    -0.460 OA
BRANCH  22  23
ATOM     23  C   UNL     1      -0.608  -1.863   4.525  1.00  0.00     0.338 C 
ATOM     24  O   UNL     1       0.506  -1.429   4.796  1.00  0.00    -0.246 OA
BRANCH  23  25
ATOM     25  C   UNL     1      -1.515  -2.442   5.511  1.00  0.00     0.060 A 
ATOM     26  C   UNL     1      -1.665  -1.736   6.705  1.00  0.00     0.016 A 
ATOM     27  C   UNL     1      -2.164  -3.662   5.288  1.00  0.00     0.016 A 
ATOM     28  C   UNL     1      -2.384  -2.308   7.737  1.00  0.00     0.010 A 
ATOM     29  C   UNL     1      -2.894  -4.232   6.327  1.00  0.00     0.010 A 
ATOM     30  C   UNL     1      -2.941  -3.584   7.570  1.00  0.00    -0.014 A 
BRANCH  30  31
ATOM     31  C   UNL     1      -3.378  -4.293   8.785  1.00  0.00     0.031 A 
ATOM     32  C   UNL     1      -2.434  -5.279   9.412  1.00  0.00     0.074 A 
ATOM     33  C   UNL     1      -4.543  -3.963   9.365  1.00  0.00     0.049 A 
ATOM     34  N   UNL     1      -2.525  -5.892  10.561  1.00  0.00    -0.248 NA
ATOM     35  C   UNL     1      -1.219  -5.615   8.647  1.00  0.00     0.031 C 
ATOM     36  C   UNL     1      -5.516  -3.017   8.820  1.00  0.00     0.029 A 
ATOM     37  N   UNL     1      -5.094  -4.378  10.545  1.00  0.00    -0.354 N 
ATOM     38  C   UNL     1      -1.394  -6.693  10.650  1.00  0.00     0.074 A 
ATOM     39  C   UNL     1      -0.641  -6.512   9.431  1.00  0.00     0.031 C 
ATOM     40  C   UNL     1      -6.552  -2.923   9.670  1.00  0.00     0.029 A 
ATOM     41  C   UNL     1      -6.314  -3.806  10.808  1.00  0.00     0.049 A 
ATOM     42  H   UNL     1      -4.659  -5.024  11.147  1.00  0.00     0.167 HD
ATOM     43  C   UNL     1      -1.007  -7.491  11.673  1.00  0.00     0.034 A 
ATOM     44  C   UNL     1      -7.137  -3.980  11.859  1.00  0.00     0.034 A 
ATOM     45  C   UNL     1      -1.764  -7.643  12.884  1.00  0.00     0.049 A 
ATOM     46  C   UNL     1      -6.678  -4.866  12.986  1.00  0.00     0.074 A 
ATOM     47  C   UNL     1      -1.462  -8.397  14.002  1.00  0.00     0.029 A 
ATOM     48  N   UNL     1      -2.985  -7.030  13.129  1.00  0.00    -0.354 N 
ATOM     49  N   UNL     1      -5.552  -5.527  13.111  1.00  0.00    -0.248 NA
ATOM     50  C   UNL     1      -7.581  -4.992  14.136  1.00  0.00     0.031 C 
ATOM     51  C   UNL     1      -2.515  -8.262  14.913  1.00  0.00     0.029 A 
ATOM     52  C   UNL     1      -3.457  -7.396  14.376  1.00  0.00     0.049 A 
ATOM     53  H   UNL     1      -3.448  -6.425  12.506  1.00  0.00     0.167 HD
ATOM     54  C   UNL     1      -5.595  -6.123  14.366  1.00  0.00     0.074 A 
ATOM     55  C   UNL     1      -6.849  -5.718  14.970  1.00  0.00     0.031 C 
ATOM     56  C   UNL     1      -4.693  -6.942  14.963  1.00  0.00     0.034 A 
BRANCH  43  57
ATOM     57  C   UNL     1       0.291  -8.239  11.522  1.00  0.00     0.023 A 
ATOM     58  C   UNL     1       1.515  -7.540  11.577  1.00  0.00     0.012 A 
ATOM     59  C   UNL     1       0.303  -9.637  11.355  1.00  0.00     0.148 A 
ATOM     60  C   UNL     1       2.727  -8.216  11.434  1.00  0.00     0.002 A 
ATOM     61  C   UNL     1       1.516 -10.309  11.258  1.00  0.00     0.091 A 
ATOM     62  F   UNL     1      -0.871 -10.280  11.276  1.00  0.00    -0.205 F 
ATOM     63  C   UNL     1       2.728  -9.600  11.286  1.00  0.00     0.022 A 
BRANCH  61  64
ATOM     64  S   UNL     1       1.624 -12.098  11.137  1.00  0.00     0.127 S 
ATOM     65  O   UNL     1       2.100 -12.273   9.765  1.00  0.00    -0.237 OA
ATOM     66  O   UNL     1       2.612 -12.416  12.169  1.00  0.00    -0.237 OA
ATOM     67  O   UNL     1       0.284 -12.602  11.401  1.00  0.00    -0.744 OA
ENDBRANCH  61  64
ENDBRANCH  43  57
BRANCH  44  68
ATOM     68  C   UNL     1      -8.438  -3.259  11.909  1.00  0.00     0.023 A 
ATOM     69  C   UNL     1      -8.640  -2.236  12.855  1.00  0.00     0.012 A 
ATOM     70  C   UNL     1      -9.466  -3.559  10.993  1.00  0.00     0.148 A 
ATOM     71  C   UNL     1      -9.854  -1.548  12.909  1.00  0.00     0.002 A 
ATOM     72  C   UNL     1     -10.649  -2.831  11.014  1.00  0.00     0.091 A 
ATOM     73  F   UNL     1      -9.259  -4.545  10.108  1.00  0.00    -0.205 F 
ATOM     74  C   UNL     1     -10.853  -1.837  11.983  1.00  0.00     0.022 A 
BRANCH  72  75
ATOM     75  S   UNL     1     -11.930  -3.046   9.773  1.00  0.00     0.127 S 
ATOM     76  O   UNL     1     -12.980  -3.711  10.539  1.00  0.00    -0.237 OA
ATOM     77  O   UNL     1     -12.222  -1.662   9.397  1.00  0.00    -0.237 OA
ATOM     78  O   UNL     1     -11.320  -3.837   8.713  1.00  0.00    -0.744 OA
ENDBRANCH  72  75
ENDBRANCH  44  68
BRANCH  56  79
ATOM     79  C   UNL     1      -5.021  -7.428  16.349  1.00  0.00     0.023 A 
ATOM     80  C   UNL     1      -6.047  -8.376  16.536  1.00  0.00     0.012 A 
ATOM     81  C   UNL     1      -4.276  -6.985  17.459  1.00  0.00     0.148 A 
ATOM     82  C   UNL     1      -6.358  -8.839  17.813  1.00  0.00     0.002 A 
ATOM     83  C   UNL     1      -4.556  -7.492  18.721  1.00  0.00     0.091 A 
ATOM     84  F   UNL     1      -3.316  -6.069  17.264  1.00  0.00    -0.205 F 
ATOM     85  C   UNL     1      -5.607  -8.405  18.903  1.00  0.00     0.022 A 
BRANCH  83  86
ATOM     86  S   UNL     1      -3.571  -7.065  20.161  1.00  0.00     0.127 S 
ATOM     87  O   UNL     1      -4.440  -6.109  20.845  1.00  0.00    -0.237 OA
ATOM     88  O   UNL     1      -3.431  -8.355  20.837  1.00  0.00    -0.237 OA
ATOM     89  O   UNL     1      -2.323  -6.522  19.641  1.00  0.00    -0.744 OA
ENDBRANCH  83  86
ENDBRANCH  56  79
ENDBRANCH  30  31
ENDBRANCH  23  25
ENDBRANCH  22  23
ENDBRANCH  21  22
ENDBRANCH  20  21
ENDBRANCH   1  20
TORSDOF 20
