REMARK SMILES O=C(Cc1ccc(-c2ccc(Cl)cc2)cc1)OCCOCCOC(=O)c1ccc(-c2c3nc(c(-c4cccc(S(=O)(=O)[O-])c4F)c4ccc([nH]4)c(-c4cccc(S(=O)(=O)[O-])c4F)c4nc(c(-c5cccc(S(=O)(=O)[O-])c5F)c5ccc2[nH]5)C=C4)C=C3)cc1
REMARK SMILES IDX 21 1 20 2 19 3 18 4 17 5 2 6 1 7 3 8 4 9 5 10 16 11 6 12
REMARK SMILES IDX 15 13 7 14 8 15 9 16 14 17 10 18 13 19 11 20 12 21 22 22
REMARK SMILES IDX 23 23 24 24 25 25 26 26 27 27 88 28 28 29 87 30 29 31 30 32
REMARK SMILES IDX 31 33 81 34 32 35 86 36 80 37 82 38 33 39 85 40 79 41 78 42
REMARK SMILES IDX 34 44 66 45 46 46 65 47 47 48 50 49 64 50 83 51 48 52 49 53
REMARK SMILES IDX 63 55 84 56 51 57 35 58 36 59 44 60 37 61 39 62 45 63 38 64
REMARK SMILES IDX 40 65 41 66 42 67 43 68 67 69 68 70 76 71 69 72 71 73 77 74
REMARK SMILES IDX 70 75 72 76 73 77 74 78 75 79 52 80 53 81 61 82 54 83 56 84
REMARK SMILES IDX 62 85 55 86 57 87 58 88 59 89 60 90
REMARK H PARENT 82 43 50 54
REMARK Flexibility Score: inf
ROOT
ATOM      1  C   UNL     1       2.881   2.415  -0.028  1.00  0.00     0.202 C 
ENDROOT
BRANCH   1   2
ATOM      2  O   UNL     1       4.091   1.748   0.355  1.00  0.00    -0.374 OA
BRANCH   2   3
ATOM      3  C   UNL     1       4.605   0.795  -0.571  1.00  0.00     0.202 C 
BRANCH   3   4
ATOM      4  C   UNL     1       4.027  -0.616  -0.530  1.00  0.00     0.261 C 
BRANCH   4   5
ATOM      5  O   UNL     1       2.590  -0.665  -0.541  1.00  0.00    -0.463 OA
BRANCH   5   6
ATOM      6  C   UNL     1       1.778  -0.601   0.540  1.00  0.00     0.310 C 
ATOM      7  O   UNL     1       0.556  -0.609   0.381  1.00  0.00    -0.252 OA
BRANCH   6   8
ATOM      8  C   UNL     1       2.354  -0.429   1.928  1.00  0.00     0.158 C 
BRANCH   8   9
ATOM      9  C   UNL     1       3.359  -1.463   2.348  1.00  0.00    -0.037 A 
ATOM     10  C   UNL     1       3.104  -2.814   2.102  1.00  0.00     0.005 A 
ATOM     11  C   UNL     1       4.580  -1.080   2.924  1.00  0.00     0.005 A 
ATOM     12  C   UNL     1       4.074  -3.765   2.388  1.00  0.00     0.009 A 
ATOM     13  C   UNL     1       5.547  -2.042   3.222  1.00  0.00     0.009 A 
ATOM     14  C   UNL     1       5.303  -3.397   2.958  1.00  0.00    -0.018 A 
BRANCH  14  15
ATOM     15  C   UNL     1       6.247  -4.452   3.329  1.00  0.00    -0.018 A 
ATOM     16  C   UNL     1       6.736  -5.354   2.370  1.00  0.00     0.010 A 
ATOM     17  C   UNL     1       6.553  -4.671   4.681  1.00  0.00     0.010 A 
ATOM     18  C   UNL     1       7.458  -6.484   2.759  1.00  0.00     0.021 A 
ATOM     19  C   UNL     1       7.272  -5.800   5.072  1.00  0.00     0.021 A 
ATOM     20  C   UNL     1       7.705  -6.711   4.111  1.00  0.00     0.041 A 
ATOM     21  Cl  UNL     1       8.517  -8.145   4.604  1.00  0.00    -0.084 Cl
ENDBRANCH  14  15
ENDBRANCH   8   9
ENDBRANCH   6   8
ENDBRANCH   5   6
ENDBRANCH   4   5
ENDBRANCH   3   4
ENDBRANCH   2   3
ENDBRANCH   1   2
BRANCH   1  22
ATOM     22  C   UNL     1       2.995   3.558  -1.042  1.00  0.00     0.261 C 
BRANCH  22  23
ATOM     23  O   UNL     1       3.358   3.087  -2.348  1.00  0.00    -0.460 OA
BRANCH  23  24
ATOM     24  C   UNL     1       4.657   3.265  -2.684  1.00  0.00     0.338 C 
ATOM     25  O   UNL     1       5.513   3.847  -2.035  1.00  0.00    -0.246 OA
BRANCH  24  26
ATOM     26  C   UNL     1       4.962   2.435  -3.866  1.00  0.00     0.060 A 
ATOM     27  C   UNL     1       6.106   1.624  -3.821  1.00  0.00     0.016 A 
ATOM     28  C   UNL     1       4.141   2.448  -4.995  1.00  0.00     0.016 A 
ATOM     29  C   UNL     1       6.463   0.861  -4.929  1.00  0.00     0.010 A 
ATOM     30  C   UNL     1       4.506   1.691  -6.107  1.00  0.00     0.010 A 
ATOM     31  C   UNL     1       5.687   0.926  -6.091  1.00  0.00    -0.014 A 
BRANCH  31  32
ATOM     32  C   UNL     1       6.176   0.326  -7.350  1.00  0.00     0.031 A 
ATOM     33  C   UNL     1       6.764   1.235  -8.392  1.00  0.00     0.074 A 
ATOM     34  C   UNL     1       6.047  -0.993  -7.578  1.00  0.00     0.049 A 
ATOM     35  N   UNL     1       7.139   0.961  -9.612  1.00  0.00    -0.248 NA
ATOM     36  C   UNL     1       6.939   2.648  -8.010  1.00  0.00     0.031 C 
ATOM     37  C   UNL     1       5.494  -1.962  -6.634  1.00  0.00     0.029 A 
ATOM     38  N   UNL     1       6.330  -1.733  -8.698  1.00  0.00    -0.354 N 
ATOM     39  C   UNL     1       7.545   2.171 -10.161  1.00  0.00     0.074 A 
ATOM     40  C   UNL     1       7.378   3.182  -9.140  1.00  0.00     0.031 C 
ATOM     41  C   UNL     1       5.431  -3.164  -7.231  1.00  0.00     0.029 A 
ATOM     42  C   UNL     1       5.904  -3.038  -8.608  1.00  0.00     0.049 A 
ATOM     43  H   UNL     1       6.792  -1.367  -9.486  1.00  0.00     0.167 HD
ATOM     44  C   UNL     1       8.015   2.415 -11.405  1.00  0.00     0.034 A 
ATOM     45  C   UNL     1       5.856  -4.002  -9.549  1.00  0.00     0.034 A 
ATOM     46  C   UNL     1       8.195   1.397 -12.403  1.00  0.00     0.049 A 
ATOM     47  C   UNL     1       6.366  -3.697 -10.934  1.00  0.00     0.074 A 
ATOM     48  C   UNL     1       8.740   1.522 -13.668  1.00  0.00     0.029 A 
ATOM     49  N   UNL     1       7.810   0.073 -12.259  1.00  0.00    -0.354 N 
ATOM     50  N   UNL     1       6.878  -2.583 -11.399  1.00  0.00    -0.248 NA
ATOM     51  C   UNL     1       6.316  -4.789 -11.918  1.00  0.00     0.031 C 
ATOM     52  C   UNL     1       8.639   0.284 -14.308  1.00  0.00     0.029 A 
ATOM     53  C   UNL     1       8.076  -0.624 -13.424  1.00  0.00     0.049 A 
ATOM     54  H   UNL     1       7.407  -0.313 -11.449  1.00  0.00     0.167 HD
ATOM     55  C   UNL     1       7.239  -2.848 -12.716  1.00  0.00     0.074 A 
ATOM     56  C   UNL     1       6.908  -4.235 -12.967  1.00  0.00     0.031 C 
ATOM     57  C   UNL     1       7.784  -2.017 -13.639  1.00  0.00     0.034 A 
BRANCH  44  58
ATOM     58  C   UNL     1       8.367   3.833 -11.765  1.00  0.00     0.023 A 
ATOM     59  C   UNL     1       9.514   4.439 -11.215  1.00  0.00     0.012 A 
ATOM     60  C   UNL     1       7.595   4.539 -12.709  1.00  0.00     0.148 A 
ATOM     61  C   UNL     1       9.874   5.736 -11.580  1.00  0.00     0.002 A 
ATOM     62  C   UNL     1       7.986   5.812 -13.103  1.00  0.00     0.091 A 
ATOM     63  F   UNL     1       6.495   3.953 -13.201  1.00  0.00    -0.205 F 
ATOM     64  C   UNL     1       9.118   6.416 -12.532  1.00  0.00     0.022 A 
BRANCH  62  65
ATOM     65  S   UNL     1       7.128   6.737 -14.381  1.00  0.00     0.127 S 
ATOM     66  O   UNL     1       6.562   7.845 -13.612  1.00  0.00    -0.237 OA
ATOM     67  O   UNL     1       8.225   7.113 -15.274  1.00  0.00    -0.237 OA
ATOM     68  O   UNL     1       6.156   5.822 -14.960  1.00  0.00    -0.744 OA
ENDBRANCH  62  65
ENDBRANCH  44  58
BRANCH  45  69
ATOM     69  C   UNL     1       5.301  -5.345  -9.217  1.00  0.00     0.023 A 
ATOM     70  C   UNL     1       6.151  -6.466  -9.197  1.00  0.00     0.012 A 
ATOM     71  C   UNL     1       3.935  -5.513  -8.917  1.00  0.00     0.148 A 
ATOM     72  C   UNL     1       5.645  -7.737  -8.921  1.00  0.00     0.002 A 
ATOM     73  C   UNL     1       3.448  -6.772  -8.585  1.00  0.00     0.091 A 
ATOM     74  F   UNL     1       3.138  -4.436  -8.956  1.00  0.00    -0.205 F 
ATOM     75  C   UNL     1       4.297  -7.889  -8.606  1.00  0.00     0.022 A 
BRANCH  73  76
ATOM     76  S   UNL     1       1.758  -7.039  -8.039  1.00  0.00     0.127 S 
ATOM     77  O   UNL     1       1.196  -7.784  -9.163  1.00  0.00    -0.237 OA
ATOM     78  O   UNL     1       1.958  -7.822  -6.819  1.00  0.00    -0.237 OA
ATOM     79  O   UNL     1       1.202  -5.712  -7.817  1.00  0.00    -0.744 OA
ENDBRANCH  73  76
ENDBRANCH  45  69
BRANCH  57  80
ATOM     80  C   UNL     1       8.099  -2.585 -14.998  1.00  0.00     0.023 A 
ATOM     81  C   UNL     1       7.056  -2.881 -15.897  1.00  0.00     0.012 A 
ATOM     82  C   UNL     1       9.437  -2.731 -15.415  1.00  0.00     0.148 A 
ATOM     83  C   UNL     1       7.340  -3.339 -17.183  1.00  0.00     0.002 A 
ATOM     84  C   UNL     1       9.713  -3.136 -16.715  1.00  0.00     0.091 A 
ATOM     85  F   UNL     1      10.413  -2.455 -14.538  1.00  0.00    -0.205 F 
ATOM     86  C   UNL     1       8.666  -3.453 -17.595  1.00  0.00     0.022 A 
BRANCH  84  87
ATOM     87  S   UNL     1      11.384  -3.216 -17.368  1.00  0.00     0.127 S 
ATOM     88  O   UNL     1      11.555  -4.653 -17.574  1.00  0.00    -0.237 OA
ATOM     89  O   UNL     1      11.271  -2.432 -18.598  1.00  0.00    -0.237 OA
ATOM     90  O   UNL     1      12.246  -2.629 -16.351  1.00  0.00    -0.744 OA
ENDBRANCH  84  87
ENDBRANCH  57  80
ENDBRANCH  31  32
ENDBRANCH  24  26
ENDBRANCH  23  24
ENDBRANCH  22  23
ENDBRANCH   1  22
TORSDOF 19
