REMARK SMILES Cc1cc(F)c([C@H](O)[C@H]2CCCC[C@@H]2C(=O)OCCOCCOC(=O)c2ccc(-c3c4nc(c(-c5cccc(S(=O)(=O)[O-])c5F)c5ccc([nH]5)c(-c5cccc(S(=O)(=O)[O-])c5F)c5nc(c(-c6cccc(S(=O)(=O)[O-])c6F)c6ccc3[nH]6)C=C5)C=C4)cc2)cc1F
REMARK SMILES IDX 21 1 20 2 19 3 18 4 17 5 15 6 16 7 14 8 9 9 10 10 11 11
REMARK SMILES IDX 13 12 12 13 7 14 6 15 1 16 2 17 3 18 90 19 4 20 89 21 91 22
REMARK SMILES IDX 5 23 8 24 22 26 23 27 24 28 25 29 26 30 27 31 88 32 28 33
REMARK SMILES IDX 87 34 29 35 30 36 31 37 81 38 32 39 86 40 80 41 82 42 33 43
REMARK SMILES IDX 85 44 79 45 78 46 34 48 66 49 46 50 65 51 47 52 50 53 64 54
REMARK SMILES IDX 83 55 48 56 49 57 63 59 84 60 51 61 35 62 36 63 44 64 37 65
REMARK SMILES IDX 39 66 45 67 38 68 40 69 41 70 42 71 43 72 67 73 68 74 76 75
REMARK SMILES IDX 69 76 71 77 77 78 70 79 72 80 73 81 74 82 75 83 52 84 53 85
REMARK SMILES IDX 61 86 54 87 56 88 62 89 55 90 57 91 58 92 59 93 60 94
REMARK H PARENT 8 25 82 47 50 58
REMARK Flexibility Score: inf
ROOT
ATOM      1  C   UNL     1       4.307  -4.528   0.869  1.00  0.00     0.202 C 
ENDROOT
BRANCH   1   2
ATOM      2  O   UNL     1       3.955  -3.338   0.170  1.00  0.00    -0.374 OA
BRANCH   2   3
ATOM      3  C   UNL     1       3.348  -2.298   0.941  1.00  0.00     0.202 C 
BRANCH   3   4
ATOM      4  C   UNL     1       1.877  -2.496   1.326  1.00  0.00     0.261 C 
BRANCH   4   5
ATOM      5  O   UNL     1       1.732  -3.524   2.329  1.00  0.00    -0.463 OA
BRANCH   5   6
ATOM      6  C   UNL     1       1.077  -4.647   1.944  1.00  0.00     0.309 C 
ATOM      7  O   UNL     1       0.543  -4.804   0.851  1.00  0.00    -0.252 OA
BRANCH   6   8
ATOM      8  C   UNL     1       1.079  -5.744   3.004  1.00  0.00     0.105 C 
ATOM      9  C   UNL     1       0.073  -5.465   4.141  1.00  0.00     0.037 C 
ATOM     10  C   UNL     1       0.702  -4.523   5.198  1.00  0.00     0.007 C 
ATOM     11  C   UNL     1       2.059  -5.002   5.715  1.00  0.00     0.000 C 
ATOM     12  C   UNL     1       2.449  -6.191   3.534  1.00  0.00     0.016 C 
ATOM     13  C   UNL     1       3.042  -5.258   4.580  1.00  0.00     0.001 C 
BRANCH   9  14
ATOM     14  C   UNL     1      -0.443  -6.789   4.784  1.00  0.00     0.151 C 
BRANCH  14  15
ATOM     15  C   UNL     1      -1.094  -7.740   3.802  1.00  0.00     0.019 A 
ATOM     16  C   UNL     1      -2.834 -10.485   0.943  1.00  0.00     0.047 C 
ATOM     17  C   UNL     1      -2.235  -9.521   1.918  1.00  0.00    -0.012 A 
ATOM     18  C   UNL     1      -0.907  -9.676   2.323  1.00  0.00     0.046 A 
ATOM     19  C   UNL     1      -2.979  -8.469   2.460  1.00  0.00     0.126 A 
ATOM     20  C   UNL     1      -0.360  -8.806   3.263  1.00  0.00     0.129 A 
ATOM     21  C   UNL     1      -2.420  -7.579   3.378  1.00  0.00     0.049 A 
ATOM     22  F   UNL     1      -4.260  -8.305   2.102  1.00  0.00    -0.207 F 
ATOM     23  F   UNL     1       0.916  -8.993   3.627  1.00  0.00    -0.207 F 
ENDBRANCH  14  15
BRANCH  14  24
ATOM     24  O   UNL     1      -1.419  -6.488   5.783  1.00  0.00    -0.388 OA
ATOM     25  H   UNL     1      -2.184  -6.058   5.370  1.00  0.00     0.211 HD
ENDBRANCH  14  24
ENDBRANCH   9  14
ENDBRANCH   6   8
ENDBRANCH   5   6
ENDBRANCH   4   5
ENDBRANCH   3   4
ENDBRANCH   2   3
ENDBRANCH   1   2
BRANCH   1  26
ATOM     26  C   UNL     1       5.635  -4.522   1.636  1.00  0.00     0.261 C 
BRANCH  26  27
ATOM     27  O   UNL     1       5.600  -3.629   2.762  1.00  0.00    -0.460 OA
BRANCH  27  28
ATOM     28  C   UNL     1       6.230  -2.444   2.570  1.00  0.00     0.338 C 
ATOM     29  O   UNL     1       6.881  -2.117   1.590  1.00  0.00    -0.246 OA
BRANCH  28  30
ATOM     30  C   UNL     1       5.847  -1.496   3.641  1.00  0.00     0.060 A 
ATOM     31  C   UNL     1       5.752  -1.883   4.979  1.00  0.00     0.016 A 
ATOM     32  C   UNL     1       5.589  -0.169   3.271  1.00  0.00     0.016 A 
ATOM     33  C   UNL     1       5.445  -0.924   5.950  1.00  0.00     0.010 A 
ATOM     34  C   UNL     1       5.294   0.788   4.243  1.00  0.00     0.010 A 
ATOM     35  C   UNL     1       5.247   0.425   5.595  1.00  0.00    -0.014 A 
BRANCH  35  36
ATOM     36  C   UNL     1       5.153   1.467   6.650  1.00  0.00     0.031 A 
ATOM     37  C   UNL     1       3.883   2.219   6.921  1.00  0.00     0.074 A 
ATOM     38  C   UNL     1       6.265   1.758   7.355  1.00  0.00     0.049 A 
ATOM     39  N   UNL     1       3.633   3.076   7.877  1.00  0.00    -0.248 NA
ATOM     40  C   UNL     1       2.752   1.994   6.007  1.00  0.00     0.031 C 
ATOM     41  C   UNL     1       7.584   1.163   7.123  1.00  0.00     0.029 A 
ATOM     42  N   UNL     1       6.470   2.619   8.403  1.00  0.00    -0.354 N 
ATOM     43  C   UNL     1       2.325   3.498   7.683  1.00  0.00     0.074 A 
ATOM     44  C   UNL     1       1.837   2.821   6.501  1.00  0.00     0.031 C 
ATOM     45  C   UNL     1       8.450   1.649   8.024  1.00  0.00     0.029 A 
ATOM     46  C   UNL     1       7.759   2.604   8.884  1.00  0.00     0.049 A 
ATOM     47  H   UNL     1       5.762   3.193   8.776  1.00  0.00     0.167 HD
ATOM     48  C   UNL     1       1.593   4.350   8.439  1.00  0.00     0.034 A 
ATOM     49  C   UNL     1       8.324   3.269   9.910  1.00  0.00     0.034 A 
ATOM     50  C   UNL     1       2.078   5.009   9.622  1.00  0.00     0.049 A 
ATOM     51  C   UNL     1       7.482   4.187  10.749  1.00  0.00     0.074 A 
ATOM     52  C   UNL     1       1.377   5.829  10.491  1.00  0.00     0.029 A 
ATOM     53  N   UNL     1       3.377   4.942  10.095  1.00  0.00    -0.354 N 
ATOM     54  N   UNL     1       6.204   4.451  10.640  1.00  0.00    -0.248 NA
ATOM     55  C   UNL     1       8.147   4.877  11.865  1.00  0.00     0.031 C 
ATOM     56  C   UNL     1       2.259   6.274  11.478  1.00  0.00     0.029 A 
ATOM     57  C   UNL     1       3.502   5.712  11.238  1.00  0.00     0.049 A 
ATOM     58  H   UNL     1       4.104   4.423   9.681  1.00  0.00     0.167 HD
ATOM     59  C   UNL     1       5.904   5.314  11.686  1.00  0.00     0.074 A 
ATOM     60  C   UNL     1       7.132   5.527  12.423  1.00  0.00     0.031 C 
ATOM     61  C   UNL     1       4.714   5.882  11.995  1.00  0.00     0.034 A 
BRANCH  48  62
ATOM     62  C   UNL     1       0.155   4.581   8.065  1.00  0.00     0.023 A 
ATOM     63  C   UNL     1      -0.800   3.599   8.395  1.00  0.00     0.012 A 
ATOM     64  C   UNL     1      -0.269   5.810   7.524  1.00  0.00     0.148 A 
ATOM     65  C   UNL     1      -2.158   3.834   8.186  1.00  0.00     0.002 A 
ATOM     66  C   UNL     1      -1.627   6.047   7.343  1.00  0.00     0.091 A 
ATOM     67  F   UNL     1       0.660   6.726   7.218  1.00  0.00    -0.205 F 
ATOM     68  C   UNL     1      -2.571   5.060   7.671  1.00  0.00     0.022 A 
BRANCH  66  69
ATOM     69  S   UNL     1      -2.272   7.609   6.734  1.00  0.00     0.127 S 
ATOM     70  O   UNL     1      -2.882   7.200   5.469  1.00  0.00    -0.237 OA
ATOM     71  O   UNL     1      -3.226   7.975   7.781  1.00  0.00    -0.237 OA
ATOM     72  O   UNL     1      -1.127   8.499   6.608  1.00  0.00    -0.744 OA
ENDBRANCH  66  69
ENDBRANCH  48  62
BRANCH  49  73
ATOM     73  C   UNL     1       9.751   3.013  10.241  1.00  0.00     0.023 A 
ATOM     74  C   UNL     1      10.067   2.204  11.349  1.00  0.00     0.012 A 
ATOM     75  C   UNL     1      10.786   3.496   9.418  1.00  0.00     0.148 A 
ATOM     76  C   UNL     1      11.394   1.887  11.638  1.00  0.00     0.002 A 
ATOM     77  C   UNL     1      12.102   3.146   9.690  1.00  0.00     0.091 A 
ATOM     78  F   UNL     1      10.454   4.258   8.367  1.00  0.00    -0.205 F 
ATOM     79  C   UNL     1      12.409   2.349  10.804  1.00  0.00     0.022 A 
BRANCH  77  80
ATOM     80  S   UNL     1      13.471   3.615   8.626  1.00  0.00     0.127 S 
ATOM     81  O   UNL     1      14.278   4.437   9.525  1.00  0.00    -0.237 OA
ATOM     82  O   UNL     1      14.050   2.312   8.296  1.00  0.00    -0.237 OA
ATOM     83  O   UNL     1      12.876   4.321   7.500  1.00  0.00    -0.744 OA
ENDBRANCH  77  80
ENDBRANCH  49  73
BRANCH  61  84
ATOM     84  C   UNL     1       4.636   6.783  13.197  1.00  0.00     0.023 A 
ATOM     85  C   UNL     1       5.069   8.117  13.091  1.00  0.00     0.012 A 
ATOM     86  C   UNL     1       3.970   6.355  14.363  1.00  0.00     0.148 A 
ATOM     87  C   UNL     1       4.832   9.019  14.127  1.00  0.00     0.002 A 
ATOM     88  C   UNL     1       3.707   7.267  15.377  1.00  0.00     0.091 A 
ATOM     89  F   UNL     1       3.571   5.077  14.435  1.00  0.00    -0.205 F 
ATOM     90  C   UNL     1       4.139   8.599  15.261  1.00  0.00     0.022 A 
BRANCH  88  91
ATOM     91  S   UNL     1       2.756   6.843  16.840  1.00  0.00     0.127 S 
ATOM     92  O   UNL     1       3.735   7.061  17.905  1.00  0.00    -0.237 OA
ATOM     93  O   UNL     1       1.672   7.825  16.797  1.00  0.00    -0.237 OA
ATOM     94  O   UNL     1       2.337   5.459  16.666  1.00  0.00    -0.744 OA
ENDBRANCH  88  91
ENDBRANCH  61  84
ENDBRANCH  35  36
ENDBRANCH  28  30
ENDBRANCH  27  28
ENDBRANCH  26  27
ENDBRANCH   1  26
TORSDOF 20
