REMARK SMILES Cc1cccc(OCC(=O)Nc2cc(C(=O)OCCOCCOC(=O)c3ccc(-c4c5nc(c(-c6cccc(S(=O)(=O)[O-])c6F)c6ccc([nH]6)c(-c6cccc(S(=O)(=O)[O-])c6F)c6nc(c(-c7cccc(S(=O)(=O)[O-])c7F)c7ccc4[nH]7)C=C6)C=C5)cc3)c(Cl)cc2Cl)c1
REMARK SMILES IDX 19 1 18 2 17 3 15 4 16 5 14 6 12 7 13 8 92 9 91 10 93 11
REMARK SMILES IDX 89 12 90 13 11 14 9 15 10 16 8 18 7 19 6 20 1 21 2 22 3 23
REMARK SMILES IDX 94 24 4 25 5 26 20 27 21 28 22 29 23 30 24 31 25 32 26 33
REMARK SMILES IDX 27 34 88 35 28 36 87 37 29 38 30 39 31 40 81 41 32 42 86 43
REMARK SMILES IDX 80 44 82 45 33 46 85 47 79 48 78 49 34 51 66 52 46 53 65 54
REMARK SMILES IDX 47 55 50 56 64 57 83 58 48 59 49 60 63 62 84 63 51 64 35 65
REMARK SMILES IDX 36 66 44 67 37 68 39 69 45 70 38 71 40 72 41 73 42 74 43 75
REMARK SMILES IDX 67 76 68 77 76 78 69 79 71 80 77 81 70 82 72 83 73 84 74 85
REMARK SMILES IDX 75 86 52 87 53 88 61 89 54 90 56 91 62 92 55 93 57 94 58 95
REMARK SMILES IDX 59 96 60 97
REMARK H PARENT 11 17 82 50 50 61
REMARK Flexibility Score: inf
ROOT
ATOM      1  C   UNL     1      -4.639  -0.659   2.169  1.00  0.00     0.202 C 
ENDROOT
BRANCH   1   2
ATOM      2  C   UNL     1      -4.782   0.335   1.092  1.00  0.00     0.261 C 
BRANCH   2   3
ATOM      3  O   UNL     1      -4.245   1.581   1.534  1.00  0.00    -0.460 OA
BRANCH   3   4
ATOM      4  C   UNL     1      -5.121   2.510   2.029  1.00  0.00     0.339 C 
ATOM      5  O   UNL     1      -6.319   2.495   1.978  1.00  0.00    -0.246 OA
BRANCH   4   6
ATOM      6  C   UNL     1      -4.263   3.522   2.687  1.00  0.00     0.080 A 
ATOM      7  C   UNL     1      -1.970   4.273   3.054  1.00  0.00     0.061 A 
ATOM      8  C   UNL     1      -2.897   3.572   2.312  1.00  0.00     0.045 A 
ATOM      9  C   UNL     1      -2.452   4.981   4.176  1.00  0.00     0.066 A 
ATOM     10  C   UNL     1      -3.817   5.017   4.500  1.00  0.00     0.044 A 
ATOM     11  Cl  UNL     1      -1.363   5.809   5.236  1.00  0.00    -0.082 Cl
ATOM     12  C   UNL     1      -4.734   4.281   3.756  1.00  0.00     0.057 A 
ATOM     13  Cl  UNL     1      -6.374   4.305   4.294  1.00  0.00    -0.083 Cl
BRANCH   7  14
ATOM     14  N   UNL     1      -0.581   4.170   2.833  1.00  0.00    -0.322 N 
ATOM     15  C   UNL     1       0.252   3.725   1.836  1.00  0.00     0.262 C 
ATOM     16  O   UNL     1       1.439   3.620   2.173  1.00  0.00    -0.271 OA
ATOM     17  H   UNL     1      -0.069   4.511   3.602  1.00  0.00     0.170 HD
BRANCH  15  18
ATOM     18  C   UNL     1      -0.171   3.555   0.342  1.00  0.00     0.329 C 
BRANCH  18  19
ATOM     19  O   UNL     1       0.493   2.806  -0.679  1.00  0.00    -0.484 OA
BRANCH  19  20
ATOM     20  C   UNL     1       0.912   1.536  -0.410  1.00  0.00     0.120 A 
ATOM     21  C   UNL     1       3.964  -0.222   0.870  1.00  0.00     0.044 C 
ATOM     22  C   UNL     1       2.533  -0.017   0.485  1.00  0.00    -0.047 A 
ATOM     23  C   UNL     1       1.825  -1.105  -0.025  1.00  0.00     0.003 A 
ATOM     24  C   UNL     1       2.015   1.287   0.381  1.00  0.00     0.049 A 
ATOM     25  C   UNL     1       0.811  -0.849  -0.923  1.00  0.00     0.004 A 
ATOM     26  C   UNL     1       0.462   0.479  -1.196  1.00  0.00     0.046 A 
ENDBRANCH  19  20
ENDBRANCH  18  19
ENDBRANCH  15  18
ENDBRANCH   7  14
ENDBRANCH   4   6
ENDBRANCH   3   4
ENDBRANCH   2   3
ENDBRANCH   1   2
BRANCH   1  27
ATOM     27  O   UNL     1      -5.732  -0.307   2.994  1.00  0.00    -0.374 OA
BRANCH  27  28
ATOM     28  C   UNL     1      -5.844  -1.014   4.194  1.00  0.00     0.202 C 
BRANCH  28  29
ATOM     29  C   UNL     1      -5.885  -2.524   3.965  1.00  0.00     0.261 C 
BRANCH  29  30
ATOM     30  O   UNL     1      -6.984  -2.834   3.076  1.00  0.00    -0.460 OA
BRANCH  30  31
ATOM     31  C   UNL     1      -6.643  -3.278   1.827  1.00  0.00     0.338 C 
ATOM     32  O   UNL     1      -5.781  -4.115   1.612  1.00  0.00    -0.246 OA
BRANCH  31  33
ATOM     33  C   UNL     1      -7.222  -2.369   0.783  1.00  0.00     0.060 A 
ATOM     34  C   UNL     1      -6.689  -2.374  -0.523  1.00  0.00     0.016 A 
ATOM     35  C   UNL     1      -8.027  -1.304   1.191  1.00  0.00     0.016 A 
ATOM     36  C   UNL     1      -6.800  -1.240  -1.343  1.00  0.00     0.010 A 
ATOM     37  C   UNL     1      -8.088  -0.168   0.403  1.00  0.00     0.010 A 
ATOM     38  C   UNL     1      -7.414  -0.103  -0.835  1.00  0.00    -0.014 A 
BRANCH  38  39
ATOM     39  C   UNL     1      -7.422   1.225  -1.459  1.00  0.00     0.031 A 
ATOM     40  C   UNL     1      -8.700   1.666  -2.017  1.00  0.00     0.074 A 
ATOM     41  C   UNL     1      -6.422   2.126  -1.289  1.00  0.00     0.049 A 
ATOM     42  N   UNL     1      -8.840   2.732  -2.716  1.00  0.00    -0.248 NA
ATOM     43  C   UNL     1      -9.936   0.897  -1.879  1.00  0.00     0.031 C 
ATOM     44  C   UNL     1      -6.436   3.591  -1.268  1.00  0.00     0.029 A 
ATOM     45  N   UNL     1      -5.072   1.873  -1.122  1.00  0.00    -0.354 N 
ATOM     46  C   UNL     1     -10.182   3.008  -2.689  1.00  0.00     0.074 A 
ATOM     47  C   UNL     1     -10.812   1.747  -2.416  1.00  0.00     0.031 C 
ATOM     48  C   UNL     1      -5.181   4.065  -1.427  1.00  0.00     0.029 A 
ATOM     49  C   UNL     1      -4.343   2.910  -1.696  1.00  0.00     0.049 A 
ATOM     50  H   UNL     1      -4.689   1.087  -0.669  1.00  0.00     0.167 HD
ATOM     51  C   UNL     1     -10.549   4.316  -2.631  1.00  0.00     0.034 A 
ATOM     52  C   UNL     1      -3.491   2.641  -2.721  1.00  0.00     0.034 A 
ATOM     53  C   UNL     1      -9.377   5.195  -2.866  1.00  0.00     0.049 A 
ATOM     54  C   UNL     1      -3.935   3.496  -3.860  1.00  0.00     0.074 A 
ATOM     55  C   UNL     1      -8.683   6.113  -2.093  1.00  0.00     0.029 A 
ATOM     56  N   UNL     1      -8.578   4.968  -3.993  1.00  0.00    -0.354 N 
ATOM     57  N   UNL     1      -5.187   3.833  -4.005  1.00  0.00    -0.248 NA
ATOM     58  C   UNL     1      -3.038   4.222  -4.749  1.00  0.00     0.031 C 
ATOM     59  C   UNL     1      -7.437   6.386  -2.742  1.00  0.00     0.029 A 
ATOM     60  C   UNL     1      -7.374   5.644  -3.914  1.00  0.00     0.049 A 
ATOM     61  H   UNL     1      -8.841   4.396  -4.749  1.00  0.00     0.167 HD
ATOM     62  C   UNL     1      -5.266   4.897  -4.844  1.00  0.00     0.074 A 
ATOM     63  C   UNL     1      -3.906   5.064  -5.342  1.00  0.00     0.031 C 
ATOM     64  C   UNL     1      -6.423   5.596  -5.024  1.00  0.00     0.034 A 
BRANCH  51  65
ATOM     65  C   UNL     1     -11.900   4.825  -2.138  1.00  0.00     0.023 A 
ATOM     66  C   UNL     1     -12.056   6.226  -2.062  1.00  0.00     0.012 A 
ATOM     67  C   UNL     1     -13.016   4.065  -1.697  1.00  0.00     0.148 A 
ATOM     68  C   UNL     1     -13.224   6.834  -1.585  1.00  0.00     0.002 A 
ATOM     69  C   UNL     1     -14.205   4.668  -1.275  1.00  0.00     0.091 A 
ATOM     70  F   UNL     1     -12.951   2.739  -1.618  1.00  0.00    -0.205 F 
ATOM     71  C   UNL     1     -14.307   6.056  -1.207  1.00  0.00     0.022 A 
BRANCH  69  72
ATOM     72  S   UNL     1     -15.669   3.719  -0.805  1.00  0.00     0.127 S 
ATOM     73  O   UNL     1     -15.910   4.181   0.562  1.00  0.00    -0.237 OA
ATOM     74  O   UNL     1     -16.657   4.174  -1.782  1.00  0.00    -0.237 OA
ATOM     75  O   UNL     1     -15.310   2.310  -0.912  1.00  0.00    -0.744 OA
ENDBRANCH  69  72
ENDBRANCH  51  65
BRANCH  52  76
ATOM     76  C   UNL     1      -3.034   1.209  -2.683  1.00  0.00     0.023 A 
ATOM     77  C   UNL     1      -2.473   0.780  -1.448  1.00  0.00     0.012 A 
ATOM     78  C   UNL     1      -3.445   0.209  -3.570  1.00  0.00     0.148 A 
ATOM     79  C   UNL     1      -2.404  -0.564  -1.065  1.00  0.00     0.002 A 
ATOM     80  C   UNL     1      -3.397  -1.139  -3.169  1.00  0.00     0.091 A 
ATOM     81  F   UNL     1      -3.911   0.567  -4.772  1.00  0.00    -0.205 F 
ATOM     82  C   UNL     1      -2.901  -1.526  -1.914  1.00  0.00     0.022 A 
BRANCH  80  83
ATOM     83  S   UNL     1      -4.121  -2.436  -4.177  1.00  0.00     0.127 S 
ATOM     84  O   UNL     1      -3.002  -2.791  -5.044  1.00  0.00    -0.237 OA
ATOM     85  O   UNL     1      -4.474  -3.458  -3.187  1.00  0.00    -0.237 OA
ATOM     86  O   UNL     1      -5.269  -1.804  -4.808  1.00  0.00    -0.744 OA
ENDBRANCH  80  83
ENDBRANCH  52  76
BRANCH  64  87
ATOM     87  C   UNL     1      -6.775   6.250  -6.336  1.00  0.00     0.023 A 
ATOM     88  C   UNL     1      -5.996   6.062  -7.493  1.00  0.00     0.012 A 
ATOM     89  C   UNL     1      -8.036   6.872  -6.505  1.00  0.00     0.148 A 
ATOM     90  C   UNL     1      -6.421   6.499  -8.747  1.00  0.00     0.002 A 
ATOM     91  C   UNL     1      -8.511   7.178  -7.770  1.00  0.00     0.091 A 
ATOM     92  F   UNL     1      -8.790   7.176  -5.441  1.00  0.00    -0.205 F 
ATOM     93  C   UNL     1      -7.694   7.025  -8.891  1.00  0.00     0.022 A 
BRANCH  91  94
ATOM     94  S   UNL     1     -10.232   7.611  -8.036  1.00  0.00     0.127 S 
ATOM     95  O   UNL     1     -10.145   9.058  -8.218  1.00  0.00    -0.237 OA
ATOM     96  O   UNL     1     -10.551   6.858  -9.250  1.00  0.00    -0.237 OA
ATOM     97  O   UNL     1     -10.942   7.159  -6.848  1.00  0.00    -0.744 OA
ENDBRANCH  91  94
ENDBRANCH  64  87
ENDBRANCH  38  39
ENDBRANCH  31  33
ENDBRANCH  30  31
ENDBRANCH  29  30
ENDBRANCH  28  29
ENDBRANCH  27  28
ENDBRANCH   1  27
TORSDOF 21
