REMARK SMILES CC(/C=C1\SC(=S)N(CC(=O)NCC(=O)OCCOCCOC(=O)c2ccc(-c3c4nc(c(-c5cccc(S(=O)(=O)[O-])c5F)c5ccc([nH]5)c(-c5cccc(S(=O)(=O)[O-])c5F)c5nc(c(-c6cccc(S(=O)(=O)[O-])c6F)c6ccc3[nH]6)C=C5)C=C4)cc2)C1=O)=C\c1ccccc1
REMARK SMILES IDX 18 1 17 2 16 3 14 4 15 5 13 6 12 7 10 8 11 9 9 11 8 12 3 13
REMARK SMILES IDX 4 14 5 15 88 16 6 17 89 18 7 19 2 20 1 21 90 22 91 23 92 24
REMARK SMILES IDX 96 25 93 26 95 27 94 28 19 29 20 30 21 31 22 32 23 33 24 34
REMARK SMILES IDX 25 35 26 36 87 37 27 38 86 39 28 40 29 41 30 42 80 43 31 44
REMARK SMILES IDX 85 45 79 46 81 47 32 48 84 49 78 50 77 51 33 53 65 54 45 55
REMARK SMILES IDX 64 56 46 57 49 58 63 59 82 60 47 61 48 62 62 64 83 65 50 66
REMARK SMILES IDX 34 67 35 68 43 69 36 70 38 71 44 72 37 73 39 74 40 75 41 76
REMARK SMILES IDX 42 77 66 78 67 79 75 80 68 81 70 82 76 83 69 84 71 85 72 86
REMARK SMILES IDX 73 87 74 88 51 89 52 90 60 91 53 92 55 93 61 94 54 95 56 96
REMARK SMILES IDX 57 97 58 98 59 99
REMARK H PARENT 12 10 81 52 49 63
REMARK Flexibility Score: inf
ROOT
ATOM      1  C   UNL     1      -4.434   2.413   2.341  1.00  0.00     0.202 C 
ENDROOT
BRANCH   1   2
ATOM      2  C   UNL     1      -3.996   1.215   1.493  1.00  0.00     0.261 C 
BRANCH   2   3
ATOM      3  O   UNL     1      -4.503   1.326   0.151  1.00  0.00    -0.462 OA
BRANCH   3   4
ATOM      4  C   UNL     1      -5.220   0.263  -0.300  1.00  0.00     0.325 C 
ATOM      5  O   UNL     1      -5.289  -0.829   0.251  1.00  0.00    -0.250 OA
BRANCH   4   6
ATOM      6  C   UNL     1      -6.042   0.599  -1.544  1.00  0.00     0.238 C 
BRANCH   6   7
ATOM      7  N   UNL     1      -5.874   1.905  -2.163  1.00  0.00    -0.344 N 
ATOM      8  C   UNL     1      -5.206   2.247  -3.300  1.00  0.00     0.240 C 
ATOM      9  O   UNL     1      -5.561   3.288  -3.859  1.00  0.00    -0.273 OA
ATOM     10  H   UNL     1      -6.307   2.652  -1.691  1.00  0.00     0.164 HD
BRANCH   8  11
ATOM     11  C   UNL     1      -4.207   1.296  -3.966  1.00  0.00     0.227 C 
BRANCH  11  12
ATOM     12  N   UNL     1      -3.231   0.742  -3.031  1.00  0.00    -0.283 N 
ATOM     13  C   UNL     1      -0.470   1.578  -0.849  1.00  0.00     0.024 C 
ATOM     14  C   UNL     1      -1.398   0.914  -1.552  1.00  0.00     0.080 C 
ATOM     15  S   UNL     1      -1.763  -0.764  -1.559  1.00  0.00    -0.054 SA
ATOM     16  C   UNL     1      -2.348   1.637  -2.441  1.00  0.00     0.266 C 
ATOM     17  C   UNL     1      -3.006  -0.592  -2.785  1.00  0.00     0.148 C 
ATOM     18  O   UNL     1      -2.350   2.844  -2.608  1.00  0.00    -0.268 OA
ATOM     19  S   UNL     1      -3.750  -1.914  -3.482  1.00  0.00    -0.052 S 
BRANCH  13  20
ATOM     20  C   UNL     1       0.534   1.063   0.083  1.00  0.00    -0.049 C 
ATOM     21  C   UNL     1       1.220  -0.238  -0.251  1.00  0.00     0.044 C 
ATOM     22  C   UNL     1       0.814   1.805   1.176  1.00  0.00     0.011 C 
BRANCH  22  23
ATOM     23  C   UNL     1       1.758   1.508   2.264  1.00  0.00    -0.025 A 
ATOM     24  C   UNL     1       1.323   1.679   3.587  1.00  0.00     0.008 A 
ATOM     25  C   UNL     1       3.087   1.134   2.041  1.00  0.00     0.008 A 
ATOM     26  C   UNL     1       2.180   1.420   4.660  1.00  0.00     0.001 A 
ATOM     27  C   UNL     1       3.938   0.852   3.113  1.00  0.00     0.001 A 
ATOM     28  C   UNL     1       3.483   0.988   4.422  1.00  0.00     0.000 A 
ENDBRANCH  22  23
ENDBRANCH  13  20
ENDBRANCH  11  12
ENDBRANCH   8  11
ENDBRANCH   6   7
ENDBRANCH   4   6
ENDBRANCH   3   4
ENDBRANCH   2   3
ENDBRANCH   1   2
BRANCH   1  29
ATOM     29  O   UNL     1      -5.842   2.554   2.552  1.00  0.00    -0.374 OA
BRANCH  29  30
ATOM     30  C   UNL     1      -6.640   2.997   1.456  1.00  0.00     0.202 C 
BRANCH  30  31
ATOM     31  C   UNL     1      -6.556   4.478   1.067  1.00  0.00     0.261 C 
BRANCH  31  32
ATOM     32  O   UNL     1      -5.234   4.890   0.688  1.00  0.00    -0.460 OA
BRANCH  32  33
ATOM     33  C   UNL     1      -4.647   5.732   1.576  1.00  0.00     0.338 C 
ATOM     34  O   UNL     1      -5.151   6.180   2.595  1.00  0.00    -0.246 OA
BRANCH  33  35
ATOM     35  C   UNL     1      -3.221   5.944   1.261  1.00  0.00     0.060 A 
ATOM     36  C   UNL     1      -2.320   5.830   2.327  1.00  0.00     0.016 A 
ATOM     37  C   UNL     1      -2.785   6.378   0.007  1.00  0.00     0.016 A 
ATOM     38  C   UNL     1      -1.000   6.244   2.171  1.00  0.00     0.010 A 
ATOM     39  C   UNL     1      -1.456   6.797  -0.146  1.00  0.00     0.010 A 
ATOM     40  C   UNL     1      -0.577   6.789   0.952  1.00  0.00    -0.014 A 
BRANCH  40  41
ATOM     41  C   UNL     1       0.722   7.506   0.913  1.00  0.00     0.031 A 
ATOM     42  C   UNL     1       0.735   9.005   1.044  1.00  0.00     0.074 A 
ATOM     43  C   UNL     1       1.881   6.828   0.841  1.00  0.00     0.049 A 
ATOM     44  N   UNL     1       1.756   9.817   1.137  1.00  0.00    -0.248 NA
ATOM     45  C   UNL     1      -0.574   9.678   1.075  1.00  0.00     0.031 C 
ATOM     46  C   UNL     1       1.994   5.381   0.701  1.00  0.00     0.029 A 
ATOM     47  N   UNL     1       3.181   7.266   0.875  1.00  0.00    -0.354 N 
ATOM     48  C   UNL     1       1.217  11.095   1.212  1.00  0.00     0.074 A 
ATOM     49  C   UNL     1      -0.221  10.954   1.141  1.00  0.00     0.031 C 
ATOM     50  C   UNL     1       3.293   5.043   0.669  1.00  0.00     0.029 A 
ATOM     51  C   UNL     1       4.105   6.254   0.762  1.00  0.00     0.049 A 
ATOM     52  H   UNL     1       3.428   8.214   0.972  1.00  0.00     0.167 HD
ATOM     53  C   UNL     1       1.859  12.280   1.349  1.00  0.00     0.034 A 
ATOM     54  C   UNL     1       5.452   6.301   0.735  1.00  0.00     0.034 A 
ATOM     55  C   UNL     1       3.287  12.417   1.446  1.00  0.00     0.049 A 
ATOM     56  C   UNL     1       6.141   7.630   0.905  1.00  0.00     0.074 A 
ATOM     57  C   UNL     1       4.030  13.571   1.620  1.00  0.00     0.029 A 
ATOM     58  N   UNL     1       4.189  11.367   1.373  1.00  0.00    -0.354 N 
ATOM     59  N   UNL     1       5.614   8.815   1.098  1.00  0.00    -0.248 NA
ATOM     60  C   UNL     1       7.611   7.625   0.892  1.00  0.00     0.031 C 
ATOM     61  C   UNL     1       5.384  13.219   1.639  1.00  0.00     0.029 A 
ATOM     62  C   UNL     1       5.482  11.844   1.497  1.00  0.00     0.049 A 
ATOM     63  H   UNL     1       3.945  10.421   1.251  1.00  0.00     0.167 HD
ATOM     64  C   UNL     1       6.683   9.688   1.267  1.00  0.00     0.074 A 
ATOM     65  C   UNL     1       7.889   8.891   1.173  1.00  0.00     0.031 C 
ATOM     66  C   UNL     1       6.670  11.030   1.465  1.00  0.00     0.034 A 
BRANCH  53  67
ATOM     67  C   UNL     1       1.014  13.522   1.435  1.00  0.00     0.023 A 
ATOM     68  C   UNL     1       0.298  13.795   2.618  1.00  0.00     0.012 A 
ATOM     69  C   UNL     1       0.962  14.440   0.368  1.00  0.00     0.148 A 
ATOM     70  C   UNL     1      -0.478  14.947   2.729  1.00  0.00     0.002 A 
ATOM     71  C   UNL     1       0.217  15.606   0.500  1.00  0.00     0.091 A 
ATOM     72  F   UNL     1       1.628  14.149  -0.759  1.00  0.00    -0.205 F 
ATOM     73  C   UNL     1      -0.511  15.857   1.675  1.00  0.00     0.022 A 
BRANCH  71  74
ATOM     74  S   UNL     1       0.172  16.872  -0.774  1.00  0.00     0.127 S 
ATOM     75  O   UNL     1      -1.168  16.686  -1.328  1.00  0.00    -0.237 OA
ATOM     76  O   UNL     1       0.346  18.100   0.002  1.00  0.00    -0.237 OA
ATOM     77  O   UNL     1       1.273  16.568  -1.678  1.00  0.00    -0.744 OA
ENDBRANCH  71  74
ENDBRANCH  53  67
BRANCH  54  78
ATOM     78  C   UNL     1       6.236   5.041   0.598  1.00  0.00     0.023 A 
ATOM     79  C   UNL     1       6.999   4.574   1.686  1.00  0.00     0.012 A 
ATOM     80  C   UNL     1       6.204   4.287  -0.591  1.00  0.00     0.148 A 
ATOM     81  C   UNL     1       7.742   3.397   1.581  1.00  0.00     0.002 A 
ATOM     82  C   UNL     1       6.896   3.085  -0.668  1.00  0.00     0.091 A 
ATOM     83  F   UNL     1       5.489   4.757  -1.623  1.00  0.00    -0.205 F 
ATOM     84  C   UNL     1       7.681   2.647   0.409  1.00  0.00     0.022 A 
BRANCH  82  85
ATOM     85  S   UNL     1       6.752   1.983  -2.079  1.00  0.00     0.127 S 
ATOM     86  O   UNL     1       8.058   2.135  -2.713  1.00  0.00    -0.237 OA
ATOM     87  O   UNL     1       6.527   0.691  -1.429  1.00  0.00    -0.237 OA
ATOM     88  O   UNL     1       5.612   2.471  -2.843  1.00  0.00    -0.744 OA
ENDBRANCH  82  85
ENDBRANCH  54  78
BRANCH  66  89
ATOM     89  C   UNL     1       7.995  11.725   1.634  1.00  0.00     0.023 A 
ATOM     90  C   UNL     1       8.832  11.917   0.517  1.00  0.00     0.012 A 
ATOM     91  C   UNL     1       8.378  12.252   2.883  1.00  0.00     0.148 A 
ATOM     92  C   UNL     1      10.044  12.595   0.648  1.00  0.00     0.002 A 
ATOM     93  C   UNL     1       9.566  12.966   2.996  1.00  0.00     0.091 A 
ATOM     94  F   UNL     1       7.580  12.042   3.941  1.00  0.00    -0.205 F 
ATOM     95  C   UNL     1      10.405  13.129   1.883  1.00  0.00     0.022 A 
BRANCH  93  96
ATOM     96  S   UNL     1      10.054  13.763   4.530  1.00  0.00     0.127 S 
ATOM     97  O   UNL     1      11.031  12.816   5.062  1.00  0.00    -0.237 OA
ATOM     98  O   UNL     1      10.624  15.027   4.062  1.00  0.00    -0.237 OA
ATOM     99  O   UNL     1       8.829  13.910   5.305  1.00  0.00    -0.744 OA
ENDBRANCH  93  96
ENDBRANCH  66  89
ENDBRANCH  40  41
ENDBRANCH  33  35
ENDBRANCH  32  33
ENDBRANCH  31  32
ENDBRANCH  30  31
ENDBRANCH  29  30
ENDBRANCH   1  29
TORSDOF 22
