REMARK SMILES C[C@@H]1OCC[C@@H]1C#CC(=O)OCCOCCOC(=O)c1ccc(-c2c3nc(c(-c4cccc(S(=O)(=O)[O-])c4F)c4ccc([nH]4)c(-c4cccc(S(=O)(=O)[O-])c4F)c4nc(c(-c5cccc(S(=O)(=O)[O-])c5F)c5ccc2[nH]5)C=C4)C=C3)cc1
REMARK SMILES IDX 15 1 14 2 13 3 12 4 11 5 9 6 10 7 8 8 7 9 6 10 1 11 2 12
REMARK SMILES IDX 3 13 4 14 5 15 16 16 17 17 18 18 19 19 20 20 21 21 82 22
REMARK SMILES IDX 22 23 81 24 23 25 24 26 25 27 75 28 26 29 80 30 74 31 76 32
REMARK SMILES IDX 27 33 79 34 73 35 72 36 28 38 60 39 40 40 59 41 41 42 44 43
REMARK SMILES IDX 58 44 77 45 42 46 43 47 57 49 78 50 45 51 29 52 30 53 38 54
REMARK SMILES IDX 31 55 33 56 39 57 32 58 34 59 35 60 36 61 37 62 61 63 62 64
REMARK SMILES IDX 70 65 63 66 65 67 71 68 64 69 66 70 67 71 68 72 69 73 46 74
REMARK SMILES IDX 47 75 55 76 48 77 50 78 56 79 49 80 51 81 52 82 53 83 54 84
REMARK H PARENT 76 37 44 48
REMARK Flexibility Score: inf
ROOT
ATOM      1  C   UNL     1      -0.957  -2.772   4.483  1.00  0.00     0.202 C 
ENDROOT
BRANCH   1   2
ATOM      2  O   UNL     1      -0.410  -3.365   5.660  1.00  0.00    -0.374 OA
BRANCH   2   3
ATOM      3  C   UNL     1       0.777  -2.797   6.209  1.00  0.00     0.202 C 
BRANCH   3   4
ATOM      4  C   UNL     1       2.100  -3.074   5.489  1.00  0.00     0.262 C 
BRANCH   4   5
ATOM      5  O   UNL     1       2.068  -2.632   4.126  1.00  0.00    -0.454 OA
BRANCH   5   6
ATOM      6  C   UNL     1       2.075  -3.621   3.197  1.00  0.00     0.384 C 
ATOM      7  O   UNL     1       2.215  -4.819   3.396  1.00  0.00    -0.236 OA
BRANCH   6   8
ATOM      8  C   UNL     1       1.770  -3.134   1.874  1.00  0.00     0.017 C 
ATOM      9  C   UNL     1       1.472  -2.797   0.753  1.00  0.00    -0.085 C 
BRANCH   9  10
ATOM     10  C   UNL     1       1.167  -2.482  -0.651  1.00  0.00     0.096 C 
ATOM     11  C   UNL     1       0.905   0.021   0.001  1.00  0.00     0.040 C 
ATOM     12  C   UNL     1       0.494  -1.132  -0.898  1.00  0.00     0.130 C 
ATOM     13  O   UNL     1      -0.926  -1.339  -0.801  1.00  0.00    -0.377 OA
ATOM     14  C   UNL     1      -1.192  -2.737  -0.952  1.00  0.00     0.162 C 
ATOM     15  C   UNL     1       0.129  -3.438  -1.210  1.00  0.00     0.048 C 
ENDBRANCH   9  10
ENDBRANCH   6   8
ENDBRANCH   5   6
ENDBRANCH   4   5
ENDBRANCH   3   4
ENDBRANCH   2   3
ENDBRANCH   1   2
BRANCH   1  16
ATOM     16  C   UNL     1      -1.633  -1.396   4.593  1.00  0.00     0.261 C 
BRANCH  16  17
ATOM     17  O   UNL     1      -0.763  -0.358   5.069  1.00  0.00    -0.460 OA
BRANCH  17  18
ATOM     18  C   UNL     1      -1.006   0.039   6.344  1.00  0.00     0.338 C 
ATOM     19  O   UNL     1      -1.878  -0.374   7.090  1.00  0.00    -0.246 OA
BRANCH  18  20
ATOM     20  C   UNL     1       0.070   0.936   6.803  1.00  0.00     0.060 A 
ATOM     21  C   UNL     1       0.787   0.562   7.947  1.00  0.00     0.016 A 
ATOM     22  C   UNL     1       0.322   2.154   6.172  1.00  0.00     0.016 A 
ATOM     23  C   UNL     1       1.734   1.428   8.490  1.00  0.00     0.010 A 
ATOM     24  C   UNL     1       1.270   3.023   6.723  1.00  0.00     0.010 A 
ATOM     25  C   UNL     1       1.956   2.679   7.902  1.00  0.00    -0.014 A 
BRANCH  25  26
ATOM     26  C   UNL     1       2.828   3.671   8.580  1.00  0.00     0.031 A 
ATOM     27  C   UNL     1       2.204   4.850   9.276  1.00  0.00     0.074 A 
ATOM     28  C   UNL     1       4.166   3.526   8.566  1.00  0.00     0.049 A 
ATOM     29  N   UNL     1       2.782   5.854   9.880  1.00  0.00    -0.248 NA
ATOM     30  C   UNL     1       0.732   4.909   9.287  1.00  0.00     0.031 C 
ATOM     31  C   UNL     1       4.889   2.427   7.929  1.00  0.00     0.029 A 
ATOM     32  N   UNL     1       5.155   4.329   9.079  1.00  0.00    -0.354 N 
ATOM     33  C   UNL     1       1.753   6.687  10.303  1.00  0.00     0.074 A 
ATOM     34  C   UNL     1       0.512   6.070   9.887  1.00  0.00     0.031 C 
ATOM     35  C   UNL     1       6.209   2.641   8.059  1.00  0.00     0.029 A 
ATOM     36  C   UNL     1       6.424   3.907   8.755  1.00  0.00     0.049 A 
ATOM     37  H   UNL     1       4.975   5.128   9.625  1.00  0.00     0.167 HD
ATOM     38  C   UNL     1       1.834   7.857  10.980  1.00  0.00     0.034 A 
ATOM     39  C   UNL     1       7.619   4.495   8.961  1.00  0.00     0.034 A 
ATOM     40  C   UNL     1       3.069   8.458  11.408  1.00  0.00     0.049 A 
ATOM     41  C   UNL     1       7.679   5.808   9.698  1.00  0.00     0.074 A 
ATOM     42  C   UNL     1       3.248   9.605  12.162  1.00  0.00     0.029 A 
ATOM     43  N   UNL     1       4.333   7.982  11.099  1.00  0.00    -0.354 N 
ATOM     44  N   UNL     1       6.699   6.518  10.203  1.00  0.00    -0.248 NA
ATOM     45  C   UNL     1       9.012   6.387   9.920  1.00  0.00     0.031 C 
ATOM     46  C   UNL     1       4.621   9.853  12.260  1.00  0.00     0.029 A 
ATOM     47  C   UNL     1       5.297   8.827  11.621  1.00  0.00     0.049 A 
ATOM     48  H   UNL     1       4.518   7.163  10.584  1.00  0.00     0.167 HD
ATOM     49  C   UNL     1       7.299   7.602  10.835  1.00  0.00     0.074 A 
ATOM     50  C   UNL     1       8.728   7.444  10.667  1.00  0.00     0.031 C 
ATOM     51  C   UNL     1       6.719   8.639  11.488  1.00  0.00     0.034 A 
BRANCH  38  52
ATOM     52  C   UNL     1       0.552   8.580  11.301  1.00  0.00     0.023 A 
ATOM     53  C   UNL     1      -0.327   8.068  12.275  1.00  0.00     0.012 A 
ATOM     54  C   UNL     1       0.260   9.814  10.686  1.00  0.00     0.148 A 
ATOM     55  C   UNL     1      -1.492   8.757  12.611  1.00  0.00     0.002 A 
ATOM     56  C   UNL     1      -0.876  10.519  11.062  1.00  0.00     0.091 A 
ATOM     57  F   UNL     1       1.099  10.274   9.748  1.00  0.00    -0.205 F 
ATOM     58  C   UNL     1      -1.760   9.987  12.015  1.00  0.00     0.022 A 
BRANCH  56  59
ATOM     59  S   UNL     1      -1.263  12.150  10.415  1.00  0.00     0.127 S 
ATOM     60  O   UNL     1      -2.471  11.879   9.637  1.00  0.00    -0.237 OA
ATOM     61  O   UNL     1      -1.486  12.918  11.640  1.00  0.00    -0.237 OA
ATOM     62  O   UNL     1      -0.103  12.562   9.638  1.00  0.00    -0.744 OA
ENDBRANCH  56  59
ENDBRANCH  38  52
BRANCH  39  63
ATOM     63  C   UNL     1       8.867   3.850   8.461  1.00  0.00     0.023 A 
ATOM     64  C   UNL     1       9.821   3.363   9.376  1.00  0.00     0.012 A 
ATOM     65  C   UNL     1       9.114   3.727   7.080  1.00  0.00     0.148 A 
ATOM     66  C   UNL     1      11.018   2.805   8.924  1.00  0.00     0.002 A 
ATOM     67  C   UNL     1      10.279   3.114   6.637  1.00  0.00     0.091 A 
ATOM     68  F   UNL     1       8.200   4.208   6.226  1.00  0.00    -0.205 F 
ATOM     69  C   UNL     1      11.242   2.672   7.556  1.00  0.00     0.022 A 
BRANCH  67  70
ATOM     70  S   UNL     1      10.592   2.784   4.900  1.00  0.00     0.127 S 
ATOM     71  O   UNL     1      11.707   3.685   4.620  1.00  0.00    -0.237 OA
ATOM     72  O   UNL     1      10.938   1.362   4.923  1.00  0.00    -0.237 OA
ATOM     73  O   UNL     1       9.346   3.087   4.209  1.00  0.00    -0.744 OA
ENDBRANCH  67  70
ENDBRANCH  39  63
BRANCH  51  74
ATOM     74  C   UNL     1       7.623   9.665  12.125  1.00  0.00     0.023 A 
ATOM     75  C   UNL     1       8.368  10.553  11.323  1.00  0.00     0.012 A 
ATOM     76  C   UNL     1       7.680   9.789  13.528  1.00  0.00     0.148 A 
ATOM     77  C   UNL     1       9.185  11.521  11.908  1.00  0.00     0.002 A 
ATOM     78  C   UNL     1       8.451  10.792  14.102  1.00  0.00     0.091 A 
ATOM     79  F   UNL     1       6.976   8.926  14.275  1.00  0.00    -0.205 F 
ATOM     80  C   UNL     1       9.217  11.648  13.295  1.00  0.00     0.022 A 
BRANCH  78  81
ATOM     81  S   UNL     1       8.477  11.096  15.872  1.00  0.00     0.127 S 
ATOM     82  O   UNL     1       9.839  10.695  16.223  1.00  0.00    -0.237 OA
ATOM     83  O   UNL     1       8.229  12.536  15.941  1.00  0.00    -0.237 OA
ATOM     84  O   UNL     1       7.421  10.270  16.440  1.00  0.00    -0.744 OA
ENDBRANCH  78  81
ENDBRANCH  51  74
ENDBRANCH  25  26
ENDBRANCH  18  20
ENDBRANCH  17  18
ENDBRANCH  16  17
ENDBRANCH   1  16
TORSDOF 18
