REMARK SMILES CC(C)[C@@H](ON1C(=O)c2ccccc2C1=O)C(=O)OCCOCCOC(=O)c1ccc(-c2c3nc(c(-c4cccc(S(=O)(=O)[O-])c4F)c4ccc([nH]4)c(-c4cccc(S(=O)(=O)[O-])c4F)c4nc(c(-c5cccc(S(=O)(=O)[O-])c5F)c5ccc2[nH]5)C=C4)C=C3)cc1
REMARK SMILES IDX 23 1 22 2 21 3 20 4 19 5 17 6 18 7 4 8 2 9 1 10 3 11 5 12
REMARK SMILES IDX 6 13 7 14 15 15 8 16 9 17 14 18 16 19 10 20 13 21 11 22
REMARK SMILES IDX 12 23 24 24 25 25 26 26 27 27 28 28 29 29 90 30 30 31 89 32
REMARK SMILES IDX 31 33 32 34 33 35 83 36 34 37 88 38 82 39 84 40 35 41 87 42
REMARK SMILES IDX 81 43 80 44 36 46 68 47 48 48 67 49 49 50 52 51 66 52 85 53
REMARK SMILES IDX 50 54 51 55 65 57 86 58 53 59 37 60 38 61 46 62 39 63 41 64
REMARK SMILES IDX 47 65 40 66 42 67 43 68 44 69 45 70 69 71 70 72 78 73 71 74
REMARK SMILES IDX 73 75 79 76 72 77 74 78 75 79 76 80 77 81 54 82 55 83 63 84
REMARK SMILES IDX 56 85 58 86 64 87 57 88 59 89 60 90 61 91 62 92
REMARK H PARENT 84 45 52 56
REMARK Flexibility Score: inf
ROOT
ATOM      1  C   UNL     1      -1.026  -0.614   4.928  1.00  0.00     0.202 C 
ENDROOT
BRANCH   1   2
ATOM      2  O   UNL     1      -2.096  -1.506   5.230  1.00  0.00    -0.374 OA
BRANCH   2   3
ATOM      3  C   UNL     1      -1.989  -2.848   4.762  1.00  0.00     0.202 C 
BRANCH   3   4
ATOM      4  C   UNL     1      -2.240  -3.110   3.272  1.00  0.00     0.261 C 
BRANCH   4   5
ATOM      5  O   UNL     1      -1.352  -2.403   2.388  1.00  0.00    -0.461 OA
BRANCH   5   6
ATOM      6  C   UNL     1      -1.910  -1.333   1.759  1.00  0.00     0.338 C 
ATOM      7  O   UNL     1      -3.039  -0.908   1.996  1.00  0.00    -0.249 OA
BRANCH   6   8
ATOM      8  C   UNL     1      -1.024  -0.709   0.680  1.00  0.00     0.261 C 
BRANCH   8   9
ATOM      9  C   UNL     1       0.510  -0.945   0.762  1.00  0.00     0.026 C 
ATOM     10  C   UNL     1       1.280  -0.262  -0.378  1.00  0.00     0.011 C 
ATOM     11  C   UNL     1       1.099  -0.405   2.069  1.00  0.00     0.011 C 
ENDBRANCH   8   9
BRANCH   8  12
ATOM     12  O   UNL     1      -1.641  -1.258  -0.500  1.00  0.00    -0.247 OA
BRANCH  12  13
ATOM     13  N   UNL     1      -1.451  -0.474  -1.633  1.00  0.00    -0.144 N 
ATOM     14  C   UNL     1      -1.022  -1.068  -2.784  1.00  0.00     0.285 C 
ATOM     15  C   UNL     1      -1.641   0.864  -1.744  1.00  0.00     0.285 C 
ATOM     16  O   UNL     1      -0.775  -2.229  -3.041  1.00  0.00    -0.266 OA
ATOM     17  C   UNL     1      -0.821   0.029  -3.726  1.00  0.00     0.055 A 
ATOM     18  C   UNL     1      -1.188   1.204  -3.091  1.00  0.00     0.055 A 
ATOM     19  O   UNL     1      -2.035   1.698  -0.950  1.00  0.00    -0.266 OA
ATOM     20  C   UNL     1      -0.280   0.021  -4.995  1.00  0.00     0.015 A 
ATOM     21  C   UNL     1      -1.026   2.439  -3.684  1.00  0.00     0.015 A 
ATOM     22  C   UNL     1      -0.107   1.260  -5.618  1.00  0.00     0.001 A 
ATOM     23  C   UNL     1      -0.474   2.458  -4.968  1.00  0.00     0.001 A 
ENDBRANCH  12  13
ENDBRANCH   8  12
ENDBRANCH   6   8
ENDBRANCH   5   6
ENDBRANCH   4   5
ENDBRANCH   3   4
ENDBRANCH   2   3
ENDBRANCH   1   2
BRANCH   1  24
ATOM     24  C   UNL     1       0.317  -0.880   5.625  1.00  0.00     0.261 C 
BRANCH  24  25
ATOM     25  O   UNL     1       0.931  -2.102   5.170  1.00  0.00    -0.460 OA
BRANCH  25  26
ATOM     26  C   UNL     1       1.232  -2.987   6.151  1.00  0.00     0.338 C 
ATOM     27  O   UNL     1       1.154  -2.800   7.354  1.00  0.00    -0.246 OA
BRANCH  26  28
ATOM     28  C   UNL     1       1.492  -4.323   5.579  1.00  0.00     0.060 A 
ATOM     29  C   UNL     1       0.681  -5.373   6.027  1.00  0.00     0.016 A 
ATOM     30  C   UNL     1       2.564  -4.574   4.721  1.00  0.00     0.016 A 
ATOM     31  C   UNL     1       0.984  -6.688   5.682  1.00  0.00     0.010 A 
ATOM     32  C   UNL     1       2.869  -5.899   4.377  1.00  0.00     0.010 A 
ATOM     33  C   UNL     1       2.112  -6.965   4.898  1.00  0.00    -0.014 A 
BRANCH  33  34
ATOM     34  C   UNL     1       2.573  -8.373   4.775  1.00  0.00     0.031 A 
ATOM     35  C   UNL     1       3.737  -8.841   5.609  1.00  0.00     0.074 A 
ATOM     36  C   UNL     1       1.933  -9.243   3.973  1.00  0.00     0.049 A 
ATOM     37  N   UNL     1       4.277 -10.030   5.684  1.00  0.00    -0.248 NA
ATOM     38  C   UNL     1       4.377  -7.837   6.475  1.00  0.00     0.031 C 
ATOM     39  C   UNL     1       0.787  -8.923   3.124  1.00  0.00     0.029 A 
ATOM     40  N   UNL     1       2.168 -10.575   3.735  1.00  0.00    -0.354 N 
ATOM     41  C   UNL     1       5.334  -9.913   6.580  1.00  0.00     0.074 A 
ATOM     42  C   UNL     1       5.369  -8.533   7.012  1.00  0.00     0.031 C 
ATOM     43  C   UNL     1       0.431 -10.025   2.441  1.00  0.00     0.029 A 
ATOM     44  C   UNL     1       1.335 -11.120   2.787  1.00  0.00     0.049 A 
ATOM     45  H   UNL     1       2.868 -11.090   4.198  1.00  0.00     0.167 HD
ATOM     46  C   UNL     1       6.188 -10.868   7.020  1.00  0.00     0.034 A 
ATOM     47  C   UNL     1       1.314 -12.355   2.247  1.00  0.00     0.034 A 
ATOM     48  C   UNL     1       6.140 -12.247   6.613  1.00  0.00     0.049 A 
ATOM     49  C   UNL     1       2.291 -13.395   2.734  1.00  0.00     0.074 A 
ATOM     50  C   UNL     1       6.930 -13.298   7.044  1.00  0.00     0.029 A 
ATOM     51  N   UNL     1       5.265 -12.766   5.672  1.00  0.00    -0.354 N 
ATOM     52  N   UNL     1       3.205 -13.297   3.669  1.00  0.00    -0.248 NA
ATOM     53  C   UNL     1       2.209 -14.727   2.116  1.00  0.00     0.031 C 
ATOM     54  C   UNL     1       6.554 -14.447   6.339  1.00  0.00     0.029 A 
ATOM     55  C   UNL     1       5.506 -14.118   5.495  1.00  0.00     0.049 A 
ATOM     56  H   UNL     1       4.573 -12.249   5.198  1.00  0.00     0.167 HD
ATOM     57  C   UNL     1       3.780 -14.559   3.776  1.00  0.00     0.074 A 
ATOM     58  C   UNL     1       3.098 -15.411   2.824  1.00  0.00     0.031 C 
ATOM     59  C   UNL     1       4.788 -14.972   4.584  1.00  0.00     0.034 A 
BRANCH  46  60
ATOM     60  C   UNL     1       7.243 -10.460   8.014  1.00  0.00     0.023 A 
ATOM     61  C   UNL     1       6.878 -10.172   9.345  1.00  0.00     0.012 A 
ATOM     62  C   UNL     1       8.602 -10.418   7.646  1.00  0.00     0.148 A 
ATOM     63  C   UNL     1       7.845  -9.817  10.286  1.00  0.00     0.002 A 
ATOM     64  C   UNL     1       9.565 -10.107   8.600  1.00  0.00     0.091 A 
ATOM     65  F   UNL     1       8.928 -10.673   6.371  1.00  0.00    -0.205 F 
ATOM     66  C   UNL     1       9.187  -9.795   9.916  1.00  0.00     0.022 A 
BRANCH  64  67
ATOM     67  S   UNL     1      11.324 -10.130   8.240  1.00  0.00     0.127 S 
ATOM     68  O   UNL     1      11.646  -8.703   8.249  1.00  0.00    -0.237 OA
ATOM     69  O   UNL     1      11.861 -10.882   9.375  1.00  0.00    -0.237 OA
ATOM     70  O   UNL     1      11.462 -10.794   6.952  1.00  0.00    -0.744 OA
ENDBRANCH  64  67
ENDBRANCH  46  60
BRANCH  47  71
ATOM     71  C   UNL     1       0.310 -12.688   1.197  1.00  0.00     0.023 A 
ATOM     72  C   UNL     1      -0.731 -13.591   1.486  1.00  0.00     0.012 A 
ATOM     73  C   UNL     1       0.375 -12.100  -0.081  1.00  0.00     0.148 A 
ATOM     74  C   UNL     1      -1.674 -13.924   0.512  1.00  0.00     0.002 A 
ATOM     75  C   UNL     1      -0.598 -12.393  -1.028  1.00  0.00     0.091 A 
ATOM     76  F   UNL     1       1.385 -11.258  -0.341  1.00  0.00    -0.205 F 
ATOM     77  C   UNL     1      -1.614 -13.317  -0.739  1.00  0.00     0.022 A 
BRANCH  75  78
ATOM     78  S   UNL     1      -0.672 -11.567  -2.621  1.00  0.00     0.127 S 
ATOM     79  O   UNL     1      -0.333 -12.654  -3.537  1.00  0.00    -0.237 OA
ATOM     80  O   UNL     1      -2.069 -11.134  -2.669  1.00  0.00    -0.237 OA
ATOM     81  O   UNL     1       0.294 -10.480  -2.546  1.00  0.00    -0.744 OA
ENDBRANCH  75  78
ENDBRANCH  47  71
BRANCH  59  82
ATOM     82  C   UNL     1       5.200 -16.421   4.513  1.00  0.00     0.023 A 
ATOM     83  C   UNL     1       5.908 -16.898   3.392  1.00  0.00     0.012 A 
ATOM     84  C   UNL     1       4.956 -17.290   5.596  1.00  0.00     0.148 A 
ATOM     85  C   UNL     1       6.337 -18.224   3.336  1.00  0.00     0.002 A 
ATOM     86  C   UNL     1       5.429 -18.596   5.554  1.00  0.00     0.091 A 
ATOM     87  F   UNL     1       4.267 -16.823   6.648  1.00  0.00    -0.205 F 
ATOM     88  C   UNL     1       6.109 -19.069   4.420  1.00  0.00     0.022 A 
BRANCH  86  89
ATOM     89  S   UNL     1       5.268 -19.726   6.942  1.00  0.00     0.127 S 
ATOM     90  O   UNL     1       4.259 -20.662   6.449  1.00  0.00    -0.237 OA
ATOM     91  O   UNL     1       6.617 -20.283   7.047  1.00  0.00    -0.237 OA
ATOM     92  O   UNL     1       4.862 -18.910   8.079  1.00  0.00    -0.744 OA
ENDBRANCH  86  89
ENDBRANCH  59  82
ENDBRANCH  33  34
ENDBRANCH  26  28
ENDBRANCH  25  26
ENDBRANCH  24  25
ENDBRANCH   1  24
TORSDOF 20
