REMARK SMILES CC[C@@H](C)N1C(=O)/C(=C/Nc2cccc(C(=O)OCCOCCOC(=O)c3ccc(-c4c5nc(c(-c6cccc(S(=O)(=O)[O-])c6F)c6ccc([nH]6)c(-c6cccc(S(=O)(=O)[O-])c6F)c6nc(c(-c7cccc(S(=O)(=O)[O-])c7F)c7ccc4[nH]7)C=C6)C=C5)cc3)c2)C(=O)NC1=S
REMARK SMILES IDX 20 1 19 2 18 3 16 4 17 5 15 6 11 7 12 8 90 9 13 10 14 11
REMARK SMILES IDX 10 12 9 14 5 15 6 16 94 17 7 18 8 19 93 20 95 21 91 22 92 24
REMARK SMILES IDX 3 25 4 26 2 27 1 28 21 29 22 30 23 31 24 32 25 33 26 34
REMARK SMILES IDX 27 35 28 36 89 37 29 38 88 39 30 40 31 41 32 42 82 43 33 44
REMARK SMILES IDX 87 45 81 46 83 47 34 48 86 49 80 50 79 51 35 53 67 54 47 55
REMARK SMILES IDX 66 56 48 57 51 58 65 59 84 60 49 61 50 62 64 64 85 65 52 66
REMARK SMILES IDX 36 67 37 68 45 69 38 70 40 71 46 72 39 73 41 74 42 75 43 76
REMARK SMILES IDX 44 77 68 78 69 79 77 80 70 81 72 82 78 83 71 84 73 85 74 86
REMARK SMILES IDX 75 87 76 88 53 89 54 90 62 91 55 92 57 93 63 94 56 95 58 96
REMARK SMILES IDX 59 97 60 98 61 99
REMARK H PARENT 10 13 93 23 83 52 51 63
REMARK Flexibility Score: inf
ROOT
ATOM      1  C   UNL     1       8.422   3.151  -4.051  1.00  0.00     0.202 C 
ENDROOT
BRANCH   1   2
ATOM      2  C   UNL     1       7.113   3.945  -3.982  1.00  0.00     0.261 C 
BRANCH   2   3
ATOM      3  O   UNL     1       6.117   3.401  -4.863  1.00  0.00    -0.460 OA
BRANCH   3   4
ATOM      4  C   UNL     1       5.832   4.155  -5.953  1.00  0.00     0.338 C 
ATOM      5  O   UNL     1       6.236   5.284  -6.190  1.00  0.00    -0.246 OA
BRANCH   4   6
ATOM      6  C   UNL     1       5.110   3.335  -6.953  1.00  0.00     0.062 A 
ATOM      7  C   UNL     1       3.551   1.575  -7.573  1.00  0.00     0.039 A 
ATOM      8  C   UNL     1       3.901   1.782  -8.916  1.00  0.00     0.026 A 
ATOM      9  C   UNL     1       4.167   2.365  -6.592  1.00  0.00     0.041 A 
ATOM     10  C   UNL     1       4.841   2.747  -9.281  1.00  0.00     0.003 A 
ATOM     11  C   UNL     1       5.442   3.528  -8.299  1.00  0.00     0.016 A 
BRANCH   7  12
ATOM     12  N   UNL     1       2.551   0.635  -7.284  1.00  0.00    -0.361 N 
ATOM     13  H   UNL     1       2.383  -0.043  -7.978  1.00  0.00     0.166 HD
BRANCH  12  14
ATOM     14  C   UNL     1       1.776   0.541  -6.154  1.00  0.00     0.102 C 
ATOM     15  N   UNL     1       0.282  -1.549  -3.734  1.00  0.00    -0.282 N 
ATOM     16  C   UNL     1       0.282  -0.375  -4.486  1.00  0.00     0.267 C 
ATOM     17  C   UNL     1       0.067  -2.745  -4.421  1.00  0.00     0.183 C 
ATOM     18  O   UNL     1      -0.309   0.665  -4.214  1.00  0.00    -0.268 OA
ATOM     19  C   UNL     1       1.001  -0.483  -5.765  1.00  0.00     0.121 C 
ATOM     20  N   UNL     1       0.317  -2.731  -5.780  1.00  0.00    -0.298 N 
ATOM     21  S   UNL     1      -0.484  -4.226  -3.871  1.00  0.00    -0.040 S 
ATOM     22  C   UNL     1       0.886  -1.730  -6.515  1.00  0.00     0.264 C 
ATOM     23  H   UNL     1       0.053  -3.538  -6.278  1.00  0.00     0.172 HD
ATOM     24  O   UNL     1       1.277  -1.881  -7.667  1.00  0.00    -0.269 OA
BRANCH  15  25
ATOM     25  C   UNL     1       0.762  -1.418  -2.296  1.00  0.00     0.090 C 
ATOM     26  C   UNL     1       0.329  -2.516  -1.316  1.00  0.00     0.031 C 
BRANCH  25  27
ATOM     27  C   UNL     1       0.537  -0.021  -1.647  1.00  0.00     0.022 C 
ATOM     28  C   UNL     1       1.367   0.232  -0.396  1.00  0.00     0.006 C 
ENDBRANCH  25  27
ENDBRANCH  15  25
ENDBRANCH  12  14
ENDBRANCH   7  12
ENDBRANCH   4   6
ENDBRANCH   3   4
ENDBRANCH   2   3
ENDBRANCH   1   2
BRANCH   1  29
ATOM     29  O   UNL     1       9.099   3.137  -5.308  1.00  0.00    -0.374 OA
BRANCH  29  30
ATOM     30  C   UNL     1       8.621   2.219  -6.293  1.00  0.00     0.202 C 
BRANCH  30  31
ATOM     31  C   UNL     1       9.036   0.750  -6.139  1.00  0.00     0.261 C 
BRANCH  31  32
ATOM     32  O   UNL     1       8.453   0.135  -4.978  1.00  0.00    -0.460 OA
BRANCH  32  33
ATOM     33  C   UNL     1       9.310  -0.073  -3.951  1.00  0.00     0.338 C 
ATOM     34  O   UNL     1      10.513   0.152  -3.936  1.00  0.00    -0.246 OA
BRANCH  33  35
ATOM     35  C   UNL     1       8.555  -0.451  -2.743  1.00  0.00     0.060 A 
ATOM     36  C   UNL     1       8.778   0.288  -1.573  1.00  0.00     0.016 A 
ATOM     37  C   UNL     1       7.694  -1.549  -2.736  1.00  0.00     0.016 A 
ATOM     38  C   UNL     1       8.178  -0.099  -0.376  1.00  0.00     0.010 A 
ATOM     39  C   UNL     1       7.099  -1.940  -1.533  1.00  0.00     0.010 A 
ATOM     40  C   UNL     1       7.368  -1.240  -0.342  1.00  0.00    -0.014 A 
BRANCH  40  41
ATOM     41  C   UNL     1       6.934  -1.808   0.958  1.00  0.00     0.031 A 
ATOM     42  C   UNL     1       7.654  -3.020   1.490  1.00  0.00     0.074 A 
ATOM     43  C   UNL     1       5.907  -1.273   1.643  1.00  0.00     0.049 A 
ATOM     44  N   UNL     1       7.393  -3.742   2.547  1.00  0.00    -0.248 NA
ATOM     45  C   UNL     1       8.820  -3.485   0.718  1.00  0.00     0.031 C 
ATOM     46  C   UNL     1       5.143  -0.091   1.244  1.00  0.00     0.029 A 
ATOM     47  N   UNL     1       5.311  -1.678   2.812  1.00  0.00    -0.354 N 
ATOM     48  C   UNL     1       8.328  -4.771   2.544  1.00  0.00     0.074 A 
ATOM     49  C   UNL     1       9.163  -4.582   1.378  1.00  0.00     0.031 C 
ATOM     50  C   UNL     1       4.163   0.120   2.142  1.00  0.00     0.029 A 
ATOM     51  C   UNL     1       4.213  -0.927   3.160  1.00  0.00     0.049 A 
ATOM     52  H   UNL     1       5.640  -2.434   3.350  1.00  0.00     0.167 HD
ATOM     53  C   UNL     1       8.483  -5.779   3.435  1.00  0.00     0.034 A 
ATOM     54  C   UNL     1       3.336  -1.086   4.170  1.00  0.00     0.034 A 
ATOM     55  C   UNL     1       7.667  -5.946   4.607  1.00  0.00     0.049 A 
ATOM     56  C   UNL     1       3.513  -2.230   5.129  1.00  0.00     0.074 A 
ATOM     57  C   UNL     1       7.775  -6.902   5.600  1.00  0.00     0.029 A 
ATOM     58  N   UNL     1       6.584  -5.146   4.937  1.00  0.00    -0.354 N 
ATOM     59  N   UNL     1       4.451  -3.145   5.158  1.00  0.00    -0.248 NA
ATOM     60  C   UNL     1       2.523  -2.346   6.210  1.00  0.00     0.031 C 
ATOM     61  C   UNL     1       6.734  -6.704   6.512  1.00  0.00     0.029 A 
ATOM     62  C   UNL     1       6.006  -5.595   6.110  1.00  0.00     0.049 A 
ATOM     63  H   UNL     1       6.273  -4.372   4.413  1.00  0.00     0.167 HD
ATOM     64  C   UNL     1       4.189  -3.920   6.282  1.00  0.00     0.074 A 
ATOM     65  C   UNL     1       3.009  -3.362   6.910  1.00  0.00     0.031 C 
ATOM     66  C   UNL     1       4.862  -4.999   6.750  1.00  0.00     0.034 A 
BRANCH  53  67
ATOM     67  C   UNL     1       9.583  -6.779   3.187  1.00  0.00     0.023 A 
ATOM     68  C   UNL     1      10.930  -6.403   3.362  1.00  0.00     0.012 A 
ATOM     69  C   UNL     1       9.276  -8.110   2.843  1.00  0.00     0.148 A 
ATOM     70  C   UNL     1      11.956  -7.328   3.167  1.00  0.00     0.002 A 
ATOM     71  C   UNL     1      10.300  -9.038   2.696  1.00  0.00     0.091 A 
ATOM     72  F   UNL     1       7.990  -8.443   2.659  1.00  0.00    -0.205 F 
ATOM     73  C   UNL     1      11.641  -8.646   2.846  1.00  0.00     0.022 A 
BRANCH  71  74
ATOM     74  S   UNL     1       9.993 -10.776   2.365  1.00  0.00     0.127 S 
ATOM     75  O   UNL     1      10.484 -10.905   0.993  1.00  0.00    -0.237 OA
ATOM     76  O   UNL     1      10.824 -11.433   3.374  1.00  0.00    -0.237 OA
ATOM     77  O   UNL     1       8.560 -10.972   2.535  1.00  0.00    -0.744 OA
ENDBRANCH  71  74
ENDBRANCH  53  67
BRANCH  54  78
ATOM     78  C   UNL     1       2.205  -0.135   4.347  1.00  0.00     0.023 A 
ATOM     79  C   UNL     1       2.235   0.799   5.399  1.00  0.00     0.012 A 
ATOM     80  C   UNL     1       1.094  -0.170   3.487  1.00  0.00     0.148 A 
ATOM     81  C   UNL     1       1.166   1.675   5.597  1.00  0.00     0.002 A 
ATOM     82  C   UNL     1       0.064   0.748   3.648  1.00  0.00     0.091 A 
ATOM     83  F   UNL     1       1.074  -1.105   2.529  1.00  0.00    -0.205 F 
ATOM     84  C   UNL     1       0.087   1.658   4.716  1.00  0.00     0.022 A 
BRANCH  82  85
ATOM     85  S   UNL     1      -1.310   0.859   2.497  1.00  0.00     0.127 S 
ATOM     86  O   UNL     1      -2.455   1.008   3.394  1.00  0.00    -0.237 OA
ATOM     87  O   UNL     1      -0.957   2.060   1.744  1.00  0.00    -0.237 OA
ATOM     88  O   UNL     1      -1.289  -0.385   1.739  1.00  0.00    -0.744 OA
ENDBRANCH  82  85
ENDBRANCH  54  78
BRANCH  66  89
ATOM     89  C   UNL     1       4.385  -5.620   8.035  1.00  0.00     0.023 A 
ATOM     90  C   UNL     1       3.196  -6.375   8.060  1.00  0.00     0.012 A 
ATOM     91  C   UNL     1       5.168  -5.519   9.202  1.00  0.00     0.148 A 
ATOM     92  C   UNL     1       2.781  -6.998   9.236  1.00  0.00     0.002 A 
ATOM     93  C   UNL     1       4.776  -6.187  10.354  1.00  0.00     0.091 A 
ATOM     94  F   UNL     1       6.285  -4.779   9.160  1.00  0.00    -0.205 F 
ATOM     95  C   UNL     1       3.576  -6.916  10.377  1.00  0.00     0.022 A 
BRANCH  93  96
ATOM     96  S   UNL     1       5.786  -6.221  11.839  1.00  0.00     0.127 S 
ATOM     97  O   UNL     1       4.992  -5.408  12.758  1.00  0.00    -0.237 OA
ATOM     98  O   UNL     1       5.817  -7.649  12.158  1.00  0.00    -0.237 OA
ATOM     99  O   UNL     1       7.075  -5.656  11.463  1.00  0.00    -0.744 OA
ENDBRANCH  93  96
ENDBRANCH  66  89
ENDBRANCH  40  41
ENDBRANCH  33  35
ENDBRANCH  32  33
ENDBRANCH  31  32
ENDBRANCH  30  31
ENDBRANCH  29  30
ENDBRANCH   1  29
TORSDOF 21
