REMARK SMILES CC(C)Cc1ccc([C@H](CC(=O)OCCOCCOC(=O)c2ccc(-c3c4nc(c(-c5cccc(S(=O)(=O)[O-])c5F)c5ccc([nH]5)c(-c5cccc(S(=O)(=O)[O-])c5F)c5nc(c(-c6cccc(S(=O)(=O)[O-])c6F)c6ccc3[nH]6)C=C5)C=C4)cc2)C(F)(F)F)cc1
REMARK SMILES IDX 15 1 14 2 13 3 11 4 12 5 10 6 9 7 8 8 5 9 6 10 90 11 7 12
REMARK SMILES IDX 89 13 4 14 2 15 1 16 3 17 85 18 86 19 87 20 88 21 16 22
REMARK SMILES IDX 17 23 18 24 19 25 20 26 21 27 22 28 23 29 84 30 24 31 83 32
REMARK SMILES IDX 25 33 26 34 27 35 77 36 28 37 82 38 76 39 78 40 29 41 81 42
REMARK SMILES IDX 75 43 74 44 30 46 62 47 42 48 61 49 43 50 46 51 60 52 79 53
REMARK SMILES IDX 44 54 45 55 59 57 80 58 47 59 31 60 32 61 40 62 33 63 35 64
REMARK SMILES IDX 41 65 34 66 36 67 37 68 38 69 39 70 63 71 64 72 72 73 65 74
REMARK SMILES IDX 67 75 73 76 66 77 68 78 69 79 70 80 71 81 48 82 49 83 57 84
REMARK SMILES IDX 50 85 52 86 58 87 51 88 53 89 54 90 55 91 56 92
REMARK H PARENT 78 45 46 56
REMARK Flexibility Score: inf
ROOT
ATOM      1  C   UNL     1       2.246  -2.614   2.926  1.00  0.00     0.202 C 
ENDROOT
BRANCH   1   2
ATOM      2  C   UNL     1       1.534  -1.264   3.050  1.00  0.00     0.261 C 
BRANCH   2   3
ATOM      3  O   UNL     1       0.186  -1.410   3.539  1.00  0.00    -0.463 OA
BRANCH   3   4
ATOM      4  C   UNL     1      -0.825  -1.381   2.640  1.00  0.00     0.306 C 
ATOM      5  O   UNL     1      -0.689  -1.268   1.429  1.00  0.00    -0.252 OA
BRANCH   4   6
ATOM      6  C   UNL     1      -2.174  -1.494   3.315  1.00  0.00     0.140 C 
BRANCH   6   7
ATOM      7  C   UNL     1      -2.477  -2.888   3.892  1.00  0.00     0.136 C 
BRANCH   7   8
ATOM      8  C   UNL     1      -1.827  -3.123   5.249  1.00  0.00    -0.035 A 
ATOM      9  C   UNL     1      -0.507  -3.699   7.690  1.00  0.00    -0.048 A 
ATOM     10  C   UNL     1      -1.785  -3.138   7.688  1.00  0.00     0.004 A 
ATOM     11  C   UNL     1       0.123  -3.911   6.470  1.00  0.00     0.004 A 
ATOM     12  C   UNL     1      -2.432  -2.832   6.479  1.00  0.00     0.004 A 
ATOM     13  C   UNL     1      -0.544  -3.673   5.279  1.00  0.00     0.004 A 
BRANCH   9  14
ATOM     14  C   UNL     1       0.174  -4.169   8.949  1.00  0.00     0.038 C 
BRANCH  14  15
ATOM     15  C   UNL     1      -0.320  -5.543   9.456  1.00  0.00    -0.013 C 
ATOM     16  C   UNL     1      -0.397  -6.646   8.390  1.00  0.00     0.008 C 
ATOM     17  C   UNL     1       0.572  -6.013  10.610  1.00  0.00     0.008 C 
ENDBRANCH  14  15
ENDBRANCH   9  14
ENDBRANCH   7   8
BRANCH   7  18
ATOM     18  C   UNL     1      -3.985  -3.133   3.872  1.00  0.00     0.396 C 
ATOM     19  F   UNL     1      -4.435  -3.158   2.591  1.00  0.00    -0.170 F 
ATOM     20  F   UNL     1      -4.319  -4.321   4.420  1.00  0.00    -0.170 F 
ATOM     21  F   UNL     1      -4.674  -2.164   4.512  1.00  0.00    -0.170 F 
ENDBRANCH   7  18
ENDBRANCH   6   7
ENDBRANCH   4   6
ENDBRANCH   3   4
ENDBRANCH   2   3
ENDBRANCH   1   2
BRANCH   1  22
ATOM     22  O   UNL     1       1.968  -3.307   1.707  1.00  0.00    -0.374 OA
BRANCH  22  23
ATOM     23  C   UNL     1       0.923  -4.274   1.762  1.00  0.00     0.202 C 
BRANCH  23  24
ATOM     24  C   UNL     1       1.342  -5.659   2.282  1.00  0.00     0.261 C 
BRANCH  24  25
ATOM     25  O   UNL     1       1.828  -5.641   3.637  1.00  0.00    -0.460 OA
BRANCH  25  26
ATOM     26  C   UNL     1       3.177  -5.585   3.796  1.00  0.00     0.338 C 
ATOM     27  O   UNL     1       4.021  -5.546   2.917  1.00  0.00    -0.246 OA
BRANCH  26  28
ATOM     28  C   UNL     1       3.484  -5.445   5.239  1.00  0.00     0.060 A 
ATOM     29  C   UNL     1       4.391  -4.469   5.679  1.00  0.00     0.016 A 
ATOM     30  C   UNL     1       2.859  -6.269   6.168  1.00  0.00     0.016 A 
ATOM     31  C   UNL     1       4.666  -4.309   7.053  1.00  0.00     0.010 A 
ATOM     32  C   UNL     1       3.122  -6.085   7.527  1.00  0.00     0.010 A 
ATOM     33  C   UNL     1       4.034  -5.122   8.002  1.00  0.00    -0.014 A 
BRANCH  33  34
ATOM     34  C   UNL     1       4.306  -5.093   9.481  1.00  0.00     0.031 A 
ATOM     35  C   UNL     1       4.669  -6.394  10.172  1.00  0.00     0.074 A 
ATOM     36  C   UNL     1       4.029  -4.020  10.256  1.00  0.00     0.049 A 
ATOM     37  N   UNL     1       4.643  -6.702  11.444  1.00  0.00    -0.248 NA
ATOM     38  C   UNL     1       5.016  -7.526   9.294  1.00  0.00     0.031 C 
ATOM     39  C   UNL     1       3.558  -2.716   9.790  1.00  0.00     0.029 A 
ATOM     40  N   UNL     1       4.029  -3.895  11.631  1.00  0.00    -0.354 N 
ATOM     41  C   UNL     1       4.872  -8.073  11.505  1.00  0.00     0.074 A 
ATOM     42  C   UNL     1       4.965  -8.542  10.140  1.00  0.00     0.031 C 
ATOM     43  C   UNL     1       3.276  -1.942  10.855  1.00  0.00     0.029 A 
ATOM     44  C   UNL     1       3.533  -2.691  12.084  1.00  0.00     0.049 A 
ATOM     45  H   UNL     1       4.353  -4.602  12.234  1.00  0.00     0.167 HD
ATOM     46  C   UNL     1       5.045  -8.874  12.585  1.00  0.00     0.034 A 
ATOM     47  C   UNL     1       3.300  -2.242  13.337  1.00  0.00     0.034 A 
ATOM     48  C   UNL     1       5.096  -8.402  13.940  1.00  0.00     0.049 A 
ATOM     49  C   UNL     1       3.624  -3.108  14.533  1.00  0.00     0.074 A 
ATOM     50  C   UNL     1       5.465  -9.099  15.078  1.00  0.00     0.029 A 
ATOM     51  N   UNL     1       4.787  -7.115  14.342  1.00  0.00    -0.354 N 
ATOM     52  N   UNL     1       4.044  -4.348  14.566  1.00  0.00    -0.248 NA
ATOM     53  C   UNL     1       3.491  -2.494  15.867  1.00  0.00     0.031 C 
ATOM     54  C   UNL     1       5.368  -8.236  16.172  1.00  0.00     0.029 A 
ATOM     55  C   UNL     1       4.968  -6.994  15.708  1.00  0.00     0.049 A 
ATOM     56  H   UNL     1       4.484  -6.394  13.745  1.00  0.00     0.167 HD
ATOM     57  C   UNL     1       4.293  -4.634  15.907  1.00  0.00     0.074 A 
ATOM     58  C   UNL     1       3.968  -3.445  16.661  1.00  0.00     0.031 C 
ATOM     59  C   UNL     1       4.751  -5.785  16.456  1.00  0.00     0.034 A 
BRANCH  46  60
ATOM     60  C   UNL     1       5.310 -10.341  12.344  1.00  0.00     0.023 A 
ATOM     61  C   UNL     1       6.504 -10.734  11.705  1.00  0.00     0.012 A 
ATOM     62  C   UNL     1       4.423 -11.330  12.815  1.00  0.00     0.148 A 
ATOM     63  C   UNL     1       6.783 -12.079  11.479  1.00  0.00     0.002 A 
ATOM     64  C   UNL     1       4.741 -12.673  12.645  1.00  0.00     0.091 A 
ATOM     65  F   UNL     1       3.289 -10.943  13.416  1.00  0.00    -0.205 F 
ATOM     66  C   UNL     1       5.908 -13.048  11.959  1.00  0.00     0.022 A 
BRANCH  64  67
ATOM     67  S   UNL     1       3.745 -14.002  13.329  1.00  0.00     0.127 S 
ATOM     68  O   UNL     1       3.161 -14.585  12.122  1.00  0.00    -0.237 OA
ATOM     69  O   UNL     1       4.755 -14.836  13.981  1.00  0.00    -0.237 OA
ATOM     70  O   UNL     1       2.801 -13.369  14.239  1.00  0.00    -0.744 OA
ENDBRANCH  64  67
ENDBRANCH  46  60
BRANCH  47  71
ATOM     71  C   UNL     1       2.817  -0.847  13.559  1.00  0.00     0.023 A 
ATOM     72  C   UNL     1       3.721   0.111  14.063  1.00  0.00     0.012 A 
ATOM     73  C   UNL     1       1.484  -0.469  13.312  1.00  0.00     0.148 A 
ATOM     74  C   UNL     1       3.297   1.405  14.364  1.00  0.00     0.002 A 
ATOM     75  C   UNL     1       1.079   0.837  13.571  1.00  0.00     0.091 A 
ATOM     76  F   UNL     1       0.640  -1.394  12.834  1.00  0.00    -0.205 F 
ATOM     77  C   UNL     1       1.978   1.769  14.114  1.00  0.00     0.022 A 
BRANCH  75  78
ATOM     78  S   UNL     1      -0.572   1.440  13.197  1.00  0.00     0.127 S 
ATOM     79  O   UNL     1      -1.087   1.749  14.529  1.00  0.00    -0.237 OA
ATOM     80  O   UNL     1      -0.281   2.606  12.363  1.00  0.00    -0.237 OA
ATOM     81  O   UNL     1      -1.243   0.350  12.502  1.00  0.00    -0.744 OA
ENDBRANCH  75  78
ENDBRANCH  47  71
BRANCH  59  82
ATOM     82  C   UNL     1       5.056  -5.826  17.932  1.00  0.00     0.023 A 
ATOM     83  C   UNL     1       4.015  -5.889  18.877  1.00  0.00     0.012 A 
ATOM     84  C   UNL     1       6.393  -5.947  18.368  1.00  0.00     0.148 A 
ATOM     85  C   UNL     1       4.300  -6.059  20.233  1.00  0.00     0.002 A 
ATOM     86  C   UNL     1       6.667  -6.164  19.713  1.00  0.00     0.091 A 
ATOM     87  F   UNL     1       7.371  -5.870  17.453  1.00  0.00    -0.205 F 
ATOM     88  C   UNL     1       5.621  -6.212  20.649  1.00  0.00     0.022 A 
BRANCH  86  89
ATOM     89  S   UNL     1       8.328  -6.475  20.326  1.00  0.00     0.127 S 
ATOM     90  O   UNL     1       8.579  -5.278  21.127  1.00  0.00    -0.237 OA
ATOM     91  O   UNL     1       8.146  -7.702  21.103  1.00  0.00    -0.237 OA
ATOM     92  O   UNL     1       9.173  -6.622  19.149  1.00  0.00    -0.744 OA
ENDBRANCH  86  89
ENDBRANCH  59  82
ENDBRANCH  33  34
ENDBRANCH  26  28
ENDBRANCH  25  26
ENDBRANCH  24  25
ENDBRANCH  23  24
ENDBRANCH  22  23
ENDBRANCH   1  22
TORSDOF 22
