REMARK SMILES O=C(COc1ccccc1/C=C1/SC(=O)N(c2ccc(F)cc2)C1=O)OCCOCCOC(=O)c1ccc(-c2c3nc(c(-c4cccc(S(=O)(=O)[O-])c4F)c4ccc([nH]4)c(-c4cccc(S(=O)(=O)[O-])c4F)c4nc(c(-c5cccc(S(=O)(=O)[O-])c5F)c5ccc2[nH]5)C=C4)C=C3)cc1
REMARK SMILES IDX 28 1 27 2 26 3 2 4 1 5 3 6 4 7 5 8 6 9 10 10 7 11 9 12 8 13
REMARK SMILES IDX 11 14 12 15 13 16 24 17 14 18 16 19 25 20 15 21 17 22 18 23
REMARK SMILES IDX 23 24 19 25 22 26 20 27 21 28 29 29 30 30 31 31 32 32 33 33
REMARK SMILES IDX 34 34 35 35 36 36 97 37 37 38 96 39 38 40 39 41 40 42 90 43
REMARK SMILES IDX 41 44 95 45 89 46 91 47 42 48 94 49 88 50 87 51 43 53 75 54
REMARK SMILES IDX 55 55 74 56 56 57 59 58 73 59 92 60 57 61 58 62 72 64 93 65
REMARK SMILES IDX 60 66 44 67 45 68 53 69 46 70 48 71 54 72 47 73 49 74 50 75
REMARK SMILES IDX 51 76 52 77 76 78 77 79 85 80 78 81 80 82 86 83 79 84 81 85
REMARK SMILES IDX 82 86 83 87 84 88 61 89 62 90 70 91 63 92 65 93 71 94 64 95
REMARK SMILES IDX 66 96 67 97 68 98 69 99
REMARK H PARENT 91 52 59 63
REMARK Flexibility Score: inf
ROOT
ATOM      1  C   UNL     1       5.162  -1.980  -0.390  1.00  0.00     0.202 C 
ENDROOT
BRANCH   1   2
ATOM      2  C   UNL     1       4.578  -0.574  -0.254  1.00  0.00     0.261 C 
BRANCH   2   3
ATOM      3  O   UNL     1       3.184  -0.594   0.107  1.00  0.00    -0.461 OA
BRANCH   3   4
ATOM      4  C   UNL     1       2.211  -0.042  -0.666  1.00  0.00     0.344 C 
ATOM      5  O   UNL     1       1.031  -0.347  -0.500  1.00  0.00    -0.248 OA
BRANCH   4   6
ATOM      6  C   UNL     1       2.624   0.942  -1.740  1.00  0.00     0.351 C 
BRANCH   6   7
ATOM      7  O   UNL     1       3.527   1.921  -1.233  1.00  0.00    -0.481 OA
BRANCH   7   8
ATOM      8  C   UNL     1       2.961   3.163  -1.157  1.00  0.00     0.127 A 
ATOM      9  C   UNL     1       3.340   4.074  -2.144  1.00  0.00     0.047 A 
ATOM     10  C   UNL     1       2.118   3.549  -0.100  1.00  0.00     0.018 A 
ATOM     11  C   UNL     1       2.848   5.375  -2.108  1.00  0.00     0.004 A 
ATOM     12  C   UNL     1       1.623   4.856  -0.084  1.00  0.00     0.012 A 
ATOM     13  C   UNL     1       1.987   5.764  -1.082  1.00  0.00     0.001 A 
BRANCH  10  14
ATOM     14  C   UNL     1       1.729   2.645   0.987  1.00  0.00     0.033 C 
ATOM     15  C   UNL     1       2.530   2.214   1.973  1.00  0.00     0.084 C 
ATOM     16  S   UNL     1       2.061   0.951   3.048  1.00  0.00    -0.022 SA
ATOM     17  C   UNL     1       3.955   2.583   2.222  1.00  0.00     0.272 C 
ATOM     18  C   UNL     1       3.731   0.601   3.450  1.00  0.00     0.298 C 
ATOM     19  N   UNL     1       4.543   1.627   3.037  1.00  0.00    -0.236 N 
ATOM     20  O   UNL     1       4.504   3.541   1.696  1.00  0.00    -0.268 OA
ATOM     21  O   UNL     1       4.047  -0.455   3.993  1.00  0.00    -0.260 OA
BRANCH  19  22
ATOM     22  C   UNL     1       5.941   1.647   3.292  1.00  0.00     0.053 A 
ATOM     23  C   UNL     1       6.571   2.830   3.705  1.00  0.00     0.030 A 
ATOM     24  C   UNL     1       6.721   0.498   3.096  1.00  0.00     0.030 A 
ATOM     25  C   UNL     1       7.952   2.861   3.917  1.00  0.00     0.041 A 
ATOM     26  C   UNL     1       8.106   0.540   3.267  1.00  0.00     0.041 A 
ATOM     27  C   UNL     1       8.709   1.721   3.679  1.00  0.00     0.123 A 
ATOM     28  F   UNL     1      10.039   1.764   3.832  1.00  0.00    -0.207 F 
ENDBRANCH  19  22
ENDBRANCH  10  14
ENDBRANCH   7   8
ENDBRANCH   6   7
ENDBRANCH   4   6
ENDBRANCH   3   4
ENDBRANCH   2   3
ENDBRANCH   1   2
BRANCH   1  29
ATOM     29  O   UNL     1       4.553  -2.826  -1.361  1.00  0.00    -0.374 OA
BRANCH  29  30
ATOM     30  C   UNL     1       3.221  -3.277  -1.121  1.00  0.00     0.202 C 
BRANCH  30  31
ATOM     31  C   UNL     1       2.940  -4.190   0.082  1.00  0.00     0.261 C 
BRANCH  31  32
ATOM     32  O   UNL     1       3.353  -3.679   1.360  1.00  0.00    -0.460 OA
BRANCH  32  33
ATOM     33  C   UNL     1       4.402  -4.337   1.916  1.00  0.00     0.338 C 
ATOM     34  O   UNL     1       5.058  -5.231   1.404  1.00  0.00    -0.246 OA
BRANCH  33  35
ATOM     35  C   UNL     1       4.774  -3.746   3.214  1.00  0.00     0.060 A 
ATOM     36  C   UNL     1       6.072  -3.238   3.358  1.00  0.00     0.016 A 
ATOM     37  C   UNL     1       3.919  -3.831   4.313  1.00  0.00     0.016 A 
ATOM     38  C   UNL     1       6.528  -2.833   4.614  1.00  0.00     0.010 A 
ATOM     39  C   UNL     1       4.384  -3.441   5.574  1.00  0.00     0.010 A 
ATOM     40  C   UNL     1       5.699  -2.966   5.735  1.00  0.00    -0.014 A 
BRANCH  40  41
ATOM     41  C   UNL     1       6.268  -2.790   7.093  1.00  0.00     0.031 A 
ATOM     42  C   UNL     1       6.805  -4.001   7.806  1.00  0.00     0.074 A 
ATOM     43  C   UNL     1       6.304  -1.586   7.691  1.00  0.00     0.049 A 
ATOM     44  N   UNL     1       7.325  -4.096   9.001  1.00  0.00    -0.248 NA
ATOM     45  C   UNL     1       6.751  -5.274   7.067  1.00  0.00     0.031 C 
ATOM     46  C   UNL     1       5.830  -0.337   7.102  1.00  0.00     0.029 A 
ATOM     47  N   UNL     1       6.739  -1.224   8.943  1.00  0.00    -0.354 N 
ATOM     48  C   UNL     1       7.638  -5.439   9.169  1.00  0.00     0.074 A 
ATOM     49  C   UNL     1       7.249  -6.122   7.954  1.00  0.00     0.031 C 
ATOM     50  C   UNL     1       5.963   0.651   8.004  1.00  0.00     0.029 A 
ATOM     51  C   UNL     1       6.515   0.100   9.241  1.00  0.00     0.049 A 
ATOM     52  H   UNL     1       7.169  -1.852   9.567  1.00  0.00     0.167 HD
ATOM     53  C   UNL     1       8.210  -6.049  10.232  1.00  0.00     0.034 A 
ATOM     54  C   UNL     1       6.713   0.780  10.389  1.00  0.00     0.034 A 
ATOM     55  C   UNL     1       8.602  -5.374  11.438  1.00  0.00     0.049 A 
ATOM     56  C   UNL     1       7.319   0.069  11.573  1.00  0.00     0.074 A 
ATOM     57  C   UNL     1       9.219  -5.902  12.558  1.00  0.00     0.029 A 
ATOM     58  N   UNL     1       8.400  -4.026  11.688  1.00  0.00    -0.354 N 
ATOM     59  N   UNL     1       7.730  -1.172  11.671  1.00  0.00    -0.248 NA
ATOM     60  C   UNL     1       7.518   0.861  12.797  1.00  0.00     0.031 C 
ATOM     61  C   UNL     1       9.372  -4.875  13.495  1.00  0.00     0.029 A 
ATOM     62  C   UNL     1       8.868  -3.704  12.950  1.00  0.00     0.049 A 
ATOM     63  H   UNL     1       7.985  -3.390  11.061  1.00  0.00     0.167 HD
ATOM     64  C   UNL     1       8.267  -1.300  12.948  1.00  0.00     0.074 A 
ATOM     65  C   UNL     1       8.146  -0.004  13.583  1.00  0.00     0.031 C 
ATOM     66  C   UNL     1       8.797  -2.395  13.547  1.00  0.00     0.034 A 
BRANCH  53  67
ATOM     67  C   UNL     1       8.464  -7.527  10.125  1.00  0.00     0.023 A 
ATOM     68  C   UNL     1       9.530  -7.992   9.329  1.00  0.00     0.012 A 
ATOM     69  C   UNL     1       7.672  -8.451  10.833  1.00  0.00     0.148 A 
ATOM     70  C   UNL     1       9.787  -9.357   9.217  1.00  0.00     0.002 A 
ATOM     71  C   UNL     1       7.957  -9.808  10.745  1.00  0.00     0.091 A 
ATOM     72  F   UNL     1       6.646  -7.989  11.562  1.00  0.00    -0.205 F 
ATOM     73  C   UNL     1       9.008 -10.264   9.931  1.00  0.00     0.022 A 
BRANCH  71  74
ATOM     74  S   UNL     1       7.050 -11.047  11.676  1.00  0.00     0.127 S 
ATOM     75  O   UNL     1       6.254 -11.681  10.626  1.00  0.00    -0.237 OA
ATOM     76  O   UNL     1       8.126 -11.882  12.212  1.00  0.00    -0.237 OA
ATOM     77  O   UNL     1       6.292 -10.317  12.682  1.00  0.00    -0.744 OA
ENDBRANCH  71  74
ENDBRANCH  53  67
BRANCH  54  78
ATOM     78  C   UNL     1       6.368   2.229  10.467  1.00  0.00     0.023 A 
ATOM     79  C   UNL     1       7.399   3.182  10.578  1.00  0.00     0.012 A 
ATOM     80  C   UNL     1       5.030   2.668  10.426  1.00  0.00     0.148 A 
ATOM     81  C   UNL     1       7.104   4.543  10.677  1.00  0.00     0.002 A 
ATOM     82  C   UNL     1       4.745   4.028  10.469  1.00  0.00     0.091 A 
ATOM     83  F   UNL     1       4.061   1.746  10.341  1.00  0.00    -0.205 F 
ATOM     84  C   UNL     1       5.779   4.966  10.613  1.00  0.00     0.022 A 
BRANCH  82  85
ATOM     85  S   UNL     1       3.081   4.672  10.264  1.00  0.00     0.127 S 
ATOM     86  O   UNL     1       2.776   5.152  11.609  1.00  0.00    -0.237 OA
ATOM     87  O   UNL     1       3.285   5.723   9.265  1.00  0.00    -0.237 OA
ATOM     88  O   UNL     1       2.280   3.550   9.793  1.00  0.00    -0.744 OA
ENDBRANCH  82  85
ENDBRANCH  54  78
BRANCH  66  89
ATOM     89  C   UNL     1       9.321  -2.247  14.952  1.00  0.00     0.023 A 
ATOM     90  C   UNL     1       8.416  -2.142  16.026  1.00  0.00     0.012 A 
ATOM     91  C   UNL     1      10.704  -2.312  15.217  1.00  0.00     0.148 A 
ATOM     92  C   UNL     1       8.879  -2.079  17.340  1.00  0.00     0.002 A 
ATOM     93  C   UNL     1      11.156  -2.295  16.532  1.00  0.00     0.091 A 
ATOM     94  F   UNL     1      11.551  -2.392  14.181  1.00  0.00    -0.205 F 
ATOM     95  C   UNL     1      10.246  -2.169  17.593  1.00  0.00     0.022 A 
BRANCH  93  96
ATOM     96  S   UNL     1      12.891  -2.503  16.952  1.00  0.00     0.127 S 
ATOM     97  O   UNL     1      13.280  -1.139  17.303  1.00  0.00    -0.237 OA
ATOM     98  O   UNL     1      12.830  -3.430  18.083  1.00  0.00    -0.237 OA
ATOM     99  O   UNL     1      13.526  -3.051  15.761  1.00  0.00    -0.744 OA
ENDBRANCH  93  96
ENDBRANCH  66  89
ENDBRANCH  40  41
ENDBRANCH  33  35
ENDBRANCH  32  33
ENDBRANCH  31  32
ENDBRANCH  30  31
ENDBRANCH  29  30
ENDBRANCH   1  29
TORSDOF 21
