REMARK SMILES C[C@H]1CC=C(C2=NN=C(C(=O)OCCOCCOC(=O)c3ccc(-c4c5nc(c(-c6cccc(S(=O)(=O)[O-])c6F)c6ccc([nH]6)c(-c6cccc(S(=O)(=O)[O-])c6F)c6nc(c(-c7cccc(S(=O)(=O)[O-])c7F)c7ccc4[nH]7)C=C6)C=C5)cc3)C2)O1
REMARK SMILES IDX 16 1 15 2 14 3 13 4 12 5 10 6 11 7 9 8 6 9 7 10 84 11 8 12
REMARK SMILES IDX 5 13 1 14 2 15 3 16 85 17 4 18 17 19 18 20 19 21 20 22 21 23
REMARK SMILES IDX 22 24 83 25 23 26 82 27 24 28 25 29 26 30 76 31 27 32 81 33
REMARK SMILES IDX 75 34 77 35 28 36 80 37 74 38 73 39 29 41 61 42 41 43 60 44
REMARK SMILES IDX 42 45 45 46 59 47 78 48 43 49 44 50 58 52 79 53 46 54 30 55
REMARK SMILES IDX 31 56 39 57 32 58 34 59 40 60 33 61 35 62 36 63 37 64 38 65
REMARK SMILES IDX 62 66 63 67 71 68 64 69 66 70 72 71 65 72 67 73 68 74 69 75
REMARK SMILES IDX 70 76 47 77 48 78 56 79 49 80 51 81 57 82 50 83 52 84 53 85
REMARK SMILES IDX 54 86 55 87
REMARK H PARENT 77 40 45 51
REMARK Flexibility Score: inf
ROOT
ATOM      1  C   UNL     1      -5.250   0.238  -4.019  1.00  0.00     0.202 C 
ENDROOT
BRANCH   1   2
ATOM      2  O   UNL     1      -5.622   0.227  -5.394  1.00  0.00    -0.374 OA
BRANCH   2   3
ATOM      3  C   UNL     1      -6.255  -0.933  -5.936  1.00  0.00     0.202 C 
BRANCH   3   4
ATOM      4  C   UNL     1      -5.393  -2.185  -6.100  1.00  0.00     0.261 C 
BRANCH   4   5
ATOM      5  O   UNL     1      -4.920  -2.683  -4.840  1.00  0.00    -0.459 OA
BRANCH   5   6
ATOM      6  C   UNL     1      -3.587  -2.657  -4.691  1.00  0.00     0.355 C 
ATOM      7  O   UNL     1      -2.740  -2.277  -5.489  1.00  0.00    -0.245 OA
BRANCH   6   8
ATOM      8  C   UNL     1      -3.177  -3.007  -3.300  1.00  0.00     0.154 C 
ATOM      9  C   UNL     1      -2.019  -2.980  -1.408  1.00  0.00     0.111 C 
ATOM     10  N   UNL     1      -2.586  -4.144  -1.521  1.00  0.00    -0.151 NA
ATOM     11  C   UNL     1      -2.414  -2.030  -2.486  1.00  0.00     0.128 C 
ATOM     12  N   UNL     1      -3.341  -4.164  -2.739  1.00  0.00    -0.147 NA
BRANCH   9  13
ATOM     13  C   UNL     1      -0.986  -2.600  -0.434  1.00  0.00     0.139 C 
ATOM     14  C   UNL     1       0.392  -0.692   2.086  1.00  0.00     0.053 C 
ATOM     15  C   UNL     1       0.423  -1.285   0.685  1.00  0.00     0.174 C 
ATOM     16  C   UNL     1       1.004  -2.705   0.676  1.00  0.00     0.076 C 
ATOM     17  O   UNL     1      -0.909  -1.327   0.116  1.00  0.00    -0.489 OA
ATOM     18  C   UNL     1       0.044  -3.406  -0.195  1.00  0.00     0.025 C 
ENDBRANCH   9  13
ENDBRANCH   6   8
ENDBRANCH   5   6
ENDBRANCH   4   5
ENDBRANCH   3   4
ENDBRANCH   2   3
ENDBRANCH   1   2
BRANCH   1  19
ATOM     19  C   UNL     1      -6.351   0.295  -2.971  1.00  0.00     0.261 C 
BRANCH  19  20
ATOM     20  O   UNL     1      -7.218  -0.824  -3.038  1.00  0.00    -0.460 OA
BRANCH  20  21
ATOM     21  C   UNL     1      -8.424  -0.550  -3.576  1.00  0.00     0.338 C 
ATOM     22  O   UNL     1      -8.706   0.398  -4.306  1.00  0.00    -0.246 OA
BRANCH  21  23
ATOM     23  C   UNL     1      -9.409  -1.477  -3.028  1.00  0.00     0.060 A 
ATOM     24  C   UNL     1     -10.740  -1.267  -3.401  1.00  0.00     0.016 A 
ATOM     25  C   UNL     1      -9.054  -2.336  -1.977  1.00  0.00     0.016 A 
ATOM     26  C   UNL     1     -11.733  -1.779  -2.600  1.00  0.00     0.010 A 
ATOM     27  C   UNL     1     -10.045  -2.827  -1.166  1.00  0.00     0.010 A 
ATOM     28  C   UNL     1     -11.365  -2.482  -1.451  1.00  0.00    -0.014 A 
BRANCH  28  29
ATOM     29  C   UNL     1     -12.417  -2.948  -0.576  1.00  0.00     0.031 A 
ATOM     30  C   UNL     1     -13.099  -4.147  -1.103  1.00  0.00     0.074 A 
ATOM     31  C   UNL     1     -12.611  -2.400   0.637  1.00  0.00     0.049 A 
ATOM     32  N   UNL     1     -14.317  -4.250  -1.519  1.00  0.00    -0.248 NA
ATOM     33  C   UNL     1     -12.261  -5.323  -1.394  1.00  0.00     0.031 C 
ATOM     34  C   UNL     1     -11.739  -1.420   1.296  1.00  0.00     0.029 A 
ATOM     35  N   UNL     1     -13.517  -2.718   1.603  1.00  0.00    -0.354 N 
ATOM     36  C   UNL     1     -14.457  -5.596  -1.851  1.00  0.00     0.074 A 
ATOM     37  C   UNL     1     -13.130  -6.108  -2.029  1.00  0.00     0.031 C 
ATOM     38  C   UNL     1     -11.999  -1.426   2.621  1.00  0.00     0.029 A 
ATOM     39  C   UNL     1     -13.124  -2.308   2.873  1.00  0.00     0.049 A 
ATOM     40  H   UNL     1     -14.362  -3.190   1.421  1.00  0.00     0.167 HD
ATOM     41  C   UNL     1     -15.610  -6.254  -1.553  1.00  0.00     0.034 A 
ATOM     42  C   UNL     1     -13.627  -2.741   4.052  1.00  0.00     0.034 A 
ATOM     43  C   UNL     1     -16.678  -5.320  -1.293  1.00  0.00     0.049 A 
ATOM     44  C   UNL     1     -14.952  -3.345   3.786  1.00  0.00     0.074 A 
ATOM     45  C   UNL     1     -17.410  -4.402  -2.012  1.00  0.00     0.029 A 
ATOM     46  N   UNL     1     -16.854  -5.036   0.038  1.00  0.00    -0.354 N 
ATOM     47  N   UNL     1     -15.993  -2.662   3.397  1.00  0.00    -0.248 NA
ATOM     48  C   UNL     1     -15.064  -4.792   3.639  1.00  0.00     0.031 C 
ATOM     49  C   UNL     1     -17.878  -3.445  -1.065  1.00  0.00     0.029 A 
ATOM     50  C   UNL     1     -17.432  -3.812   0.206  1.00  0.00     0.049 A 
ATOM     51  H   UNL     1     -16.596  -5.637   0.774  1.00  0.00     0.167 HD
ATOM     52  C   UNL     1     -16.674  -3.532   2.562  1.00  0.00     0.074 A 
ATOM     53  C   UNL     1     -16.178  -4.857   2.905  1.00  0.00     0.031 C 
ATOM     54  C   UNL     1     -17.312  -3.072   1.447  1.00  0.00     0.034 A 
BRANCH  41  55
ATOM     55  C   UNL     1     -15.676  -7.657  -0.953  1.00  0.00     0.023 A 
ATOM     56  C   UNL     1     -16.974  -8.148  -0.672  1.00  0.00     0.012 A 
ATOM     57  C   UNL     1     -14.599  -8.347  -0.346  1.00  0.00     0.148 A 
ATOM     58  C   UNL     1     -17.191  -9.181   0.246  1.00  0.00     0.002 A 
ATOM     59  C   UNL     1     -14.816  -9.403   0.531  1.00  0.00     0.091 A 
ATOM     60  F   UNL     1     -13.344  -7.936  -0.515  1.00  0.00    -0.205 F 
ATOM     61  C   UNL     1     -16.112  -9.801   0.859  1.00  0.00     0.022 A 
BRANCH  59  62
ATOM     62  S   UNL     1     -13.452 -10.241   1.355  1.00  0.00     0.127 S 
ATOM     63  O   UNL     1     -13.613  -9.768   2.727  1.00  0.00    -0.237 OA
ATOM     64  O   UNL     1     -13.793 -11.646   1.135  1.00  0.00    -0.237 OA
ATOM     65  O   UNL     1     -12.242  -9.803   0.669  1.00  0.00    -0.744 OA
ENDBRANCH  59  62
ENDBRANCH  41  55
BRANCH  42  66
ATOM     66  C   UNL     1     -12.972  -2.840   5.375  1.00  0.00     0.023 A 
ATOM     67  C   UNL     1     -13.765  -2.872   6.539  1.00  0.00     0.012 A 
ATOM     68  C   UNL     1     -11.598  -3.148   5.495  1.00  0.00     0.148 A 
ATOM     69  C   UNL     1     -13.216  -3.231   7.775  1.00  0.00     0.002 A 
ATOM     70  C   UNL     1     -11.053  -3.488   6.729  1.00  0.00     0.091 A 
ATOM     71  F   UNL     1     -10.845  -3.190   4.387  1.00  0.00    -0.205 F 
ATOM     72  C   UNL     1     -11.863  -3.545   7.869  1.00  0.00     0.022 A 
BRANCH  70  73
ATOM     73  S   UNL     1      -9.315  -3.905   6.932  1.00  0.00     0.127 S 
ATOM     74  O   UNL     1      -8.934  -3.062   8.067  1.00  0.00    -0.237 OA
ATOM     75  O   UNL     1      -9.378  -5.334   7.227  1.00  0.00    -0.237 OA
ATOM     76  O   UNL     1      -8.669  -3.544   5.677  1.00  0.00    -0.744 OA
ENDBRANCH  70  73
ENDBRANCH  42  66
BRANCH  54  77
ATOM     77  C   UNL     1     -17.725  -1.629   1.424  1.00  0.00     0.023 A 
ATOM     78  C   UNL     1     -16.797  -0.571   1.412  1.00  0.00     0.012 A 
ATOM     79  C   UNL     1     -19.094  -1.343   1.280  1.00  0.00     0.148 A 
ATOM     80  C   UNL     1     -17.230   0.751   1.283  1.00  0.00     0.002 A 
ATOM     81  C   UNL     1     -19.516  -0.033   1.099  1.00  0.00     0.091 A 
ATOM     82  F   UNL     1     -19.963  -2.365   1.301  1.00  0.00    -0.205 F 
ATOM     83  C   UNL     1     -18.587   1.019   1.111  1.00  0.00     0.022 A 
BRANCH  81  84
ATOM     84  S   UNL     1     -21.231   0.351   0.742  1.00  0.00     0.127 S 
ATOM     85  O   UNL     1     -21.711   0.842   2.032  1.00  0.00    -0.237 OA
ATOM     86  O   UNL     1     -21.115   1.375  -0.298  1.00  0.00    -0.237 OA
ATOM     87  O   UNL     1     -21.829  -0.896   0.280  1.00  0.00    -0.744 OA
ENDBRANCH  81  84
ENDBRANCH  54  77
ENDBRANCH  28  29
ENDBRANCH  21  23
ENDBRANCH  20  21
ENDBRANCH  19  20
ENDBRANCH   1  19
TORSDOF 18
