REMARK SMILES O=C(OCCOCCOC(=O)[C@H]1CSCN1C(=O)c1occc1-c1ccccc1)c1ccc(-c2c3nc(c(-c4cccc(S(=O)(=O)[O-])c4F)c4ccc([nH]4)c(-c4cccc(S(=O)(=O)[O-])c4F)c4nc(c(-c5cccc(S(=O)(=O)[O-])c5F)c5ccc2[nH]5)C=C4)C=C3)cc1
REMARK SMILES IDX 6 1 5 2 4 3 3 4 2 5 1 6 30 7 31 8 92 9 32 10 91 11 33 12
REMARK SMILES IDX 34 13 35 14 85 15 36 16 90 17 84 18 86 19 37 20 89 21 83 22
REMARK SMILES IDX 82 23 38 25 70 26 50 27 69 28 51 29 54 30 68 31 87 32 52 33
REMARK SMILES IDX 53 34 67 36 88 37 55 38 39 39 40 40 48 41 41 42 43 43 49 44
REMARK SMILES IDX 42 45 44 46 45 47 46 48 47 49 71 50 72 51 80 52 73 53 75 54
REMARK SMILES IDX 81 55 74 56 76 57 77 58 78 59 79 60 56 61 57 62 65 63 58 64
REMARK SMILES IDX 60 65 66 66 59 67 61 68 62 69 63 70 64 71 7 72 8 73 9 74
REMARK SMILES IDX 10 75 11 76 12 77 13 78 16 79 14 80 15 81 17 82 18 83 19 84
REMARK SMILES IDX 20 85 23 86 21 87 22 88 24 89 25 90 29 91 26 92 28 93 27 94
REMARK H PARENT 86 24 54 35
REMARK Flexibility Score: inf
ROOT
ATOM      1  O   UNL     1       3.803   1.691   0.011  1.00  0.00    -0.374 OA
ENDROOT
BRANCH   1   2
ATOM      2  C   UNL     1       4.184   0.846  -1.071  1.00  0.00     0.202 C 
BRANCH   2   3
ATOM      3  C   UNL     1       3.811  -0.630  -0.920  1.00  0.00     0.261 C 
BRANCH   3   4
ATOM      4  O   UNL     1       2.422  -0.767  -0.585  1.00  0.00    -0.460 OA
BRANCH   4   5
ATOM      5  C   UNL     1       1.909  -0.977   0.653  1.00  0.00     0.338 C 
ATOM      6  O   UNL     1       0.694  -1.114   0.776  1.00  0.00    -0.246 OA
BRANCH   5   7
ATOM      7  C   UNL     1       2.763  -1.080   1.873  1.00  0.00     0.060 A 
ATOM      8  C   UNL     1       3.953  -0.377   2.053  1.00  0.00     0.016 A 
ATOM      9  C   UNL     1       2.304  -1.870   2.937  1.00  0.00     0.016 A 
ATOM     10  C   UNL     1       4.702  -0.473   3.201  1.00  0.00     0.010 A 
ATOM     11  C   UNL     1       3.027  -1.935   4.133  1.00  0.00     0.010 A 
ATOM     12  C   UNL     1       4.229  -1.229   4.258  1.00  0.00    -0.014 A 
BRANCH  12  13
ATOM     13  C   UNL     1       5.101  -1.300   5.434  1.00  0.00     0.031 A 
ATOM     14  C   UNL     1       5.868  -2.557   5.662  1.00  0.00     0.074 A 
ATOM     15  C   UNL     1       5.308  -0.181   6.153  1.00  0.00     0.049 A 
ATOM     16  N   UNL     1       6.657  -2.868   6.649  1.00  0.00    -0.248 NA
ATOM     17  C   UNL     1       5.743  -3.603   4.630  1.00  0.00     0.031 C 
ATOM     18  C   UNL     1       4.695   1.126   5.880  1.00  0.00     0.029 A 
ATOM     19  N   UNL     1       6.106   0.050   7.237  1.00  0.00    -0.354 N 
ATOM     20  C   UNL     1       7.073  -4.166   6.394  1.00  0.00     0.074 A 
ATOM     21  C   UNL     1       6.469  -4.581   5.149  1.00  0.00     0.031 C 
ATOM     22  C   UNL     1       5.142   2.019   6.775  1.00  0.00     0.029 A 
ATOM     23  C   UNL     1       5.999   1.330   7.729  1.00  0.00     0.049 A 
ATOM     24  H   UNL     1       6.698  -0.632   7.628  1.00  0.00     0.167 HD
ATOM     25  C   UNL     1       7.884  -4.936   7.151  1.00  0.00     0.034 A 
ATOM     26  C   UNL     1       6.499   1.857   8.861  1.00  0.00     0.034 A 
ATOM     27  C   UNL     1       8.466  -4.471   8.378  1.00  0.00     0.049 A 
ATOM     28  C   UNL     1       7.330   0.950   9.726  1.00  0.00     0.074 A 
ATOM     29  C   UNL     1       9.248  -5.161   9.282  1.00  0.00     0.029 A 
ATOM     30  N   UNL     1       8.320  -3.179   8.870  1.00  0.00    -0.354 N 
ATOM     31  N   UNL     1       7.697  -0.292   9.503  1.00  0.00    -0.248 NA
ATOM     32  C   UNL     1       7.824   1.508  10.988  1.00  0.00     0.031 C 
ATOM     33  C   UNL     1       9.553  -4.292  10.335  1.00  0.00     0.029 A 
ATOM     34  C   UNL     1       8.996  -3.049  10.067  1.00  0.00     0.049 A 
ATOM     35  H   UNL     1       7.810  -2.462   8.429  1.00  0.00     0.167 HD
ATOM     36  C   UNL     1       8.488  -0.656  10.582  1.00  0.00     0.074 A 
ATOM     37  C   UNL     1       8.567   0.510  11.444  1.00  0.00     0.031 C 
ATOM     38  C   UNL     1       9.082  -1.844  10.856  1.00  0.00     0.034 A 
BRANCH  25  39
ATOM     39  C   UNL     1       8.121  -6.345   6.687  1.00  0.00     0.023 A 
ATOM     40  C   UNL     1       8.928  -6.595   5.558  1.00  0.00     0.012 A 
ATOM     41  C   UNL     1       7.509  -7.424   7.352  1.00  0.00     0.148 A 
ATOM     42  C   UNL     1       9.088  -7.894   5.075  1.00  0.00     0.002 A 
ATOM     43  C   UNL     1       7.708  -8.720   6.891  1.00  0.00     0.091 A 
ATOM     44  F   UNL     1       6.720  -7.161   8.403  1.00  0.00    -0.205 F 
ATOM     45  C   UNL     1       8.485  -8.955   5.745  1.00  0.00     0.022 A 
BRANCH  43  46
ATOM     46  S   UNL     1       7.021 -10.159   7.716  1.00  0.00     0.127 S 
ATOM     47  O   UNL     1       6.082 -10.656   6.711  1.00  0.00    -0.237 OA
ATOM     48  O   UNL     1       8.208 -10.993   7.908  1.00  0.00    -0.237 OA
ATOM     49  O   UNL     1       6.413  -9.670   8.945  1.00  0.00    -0.744 OA
ENDBRANCH  43  46
ENDBRANCH  25  39
BRANCH  26  50
ATOM     50  C   UNL     1       6.199   3.265   9.249  1.00  0.00     0.023 A 
ATOM     51  C   UNL     1       7.243   4.204   9.349  1.00  0.00     0.012 A 
ATOM     52  C   UNL     1       4.880   3.682   9.523  1.00  0.00     0.148 A 
ATOM     53  C   UNL     1       6.986   5.516   9.752  1.00  0.00     0.002 A 
ATOM     54  C   UNL     1       4.622   5.005   9.866  1.00  0.00     0.091 A 
ATOM     55  F   UNL     1       3.895   2.776   9.442  1.00  0.00    -0.205 F 
ATOM     56  C   UNL     1       5.677   5.919  10.002  1.00  0.00     0.022 A 
BRANCH  54  57
ATOM     57  S   UNL     1       2.953   5.634  10.083  1.00  0.00     0.127 S 
ATOM     58  O   UNL     1       2.881   5.794  11.533  1.00  0.00    -0.237 OA
ATOM     59  O   UNL     1       2.999   6.886   9.326  1.00  0.00    -0.237 OA
ATOM     60  O   UNL     1       2.076   4.622   9.511  1.00  0.00    -0.744 OA
ENDBRANCH  54  57
ENDBRANCH  26  50
BRANCH  38  61
ATOM     61  C   UNL     1       9.906  -1.916  12.109  1.00  0.00     0.023 A 
ATOM     62  C   UNL     1       9.275  -1.954  13.367  1.00  0.00     0.012 A 
ATOM     63  C   UNL     1      11.307  -2.029  12.024  1.00  0.00     0.148 A 
ATOM     64  C   UNL     1      10.033  -2.072  14.529  1.00  0.00     0.002 A 
ATOM     65  C   UNL     1      12.049  -2.206  13.181  1.00  0.00     0.091 A 
ATOM     66  F   UNL     1      11.882  -1.968  10.814  1.00  0.00    -0.205 F 
ATOM     67  C   UNL     1      11.416  -2.213  14.435  1.00  0.00     0.022 A 
BRANCH  65  68
ATOM     68  S   UNL     1      13.817  -2.509  13.145  1.00  0.00     0.127 S 
ATOM     69  O   UNL     1      14.346  -1.246  13.658  1.00  0.00    -0.237 OA
ATOM     70  O   UNL     1      13.954  -3.645  14.056  1.00  0.00    -0.237 OA
ATOM     71  O   UNL     1      14.146  -2.805  11.757  1.00  0.00    -0.744 OA
ENDBRANCH  65  68
ENDBRANCH  38  61
ENDBRANCH  12  13
ENDBRANCH   5   7
ENDBRANCH   4   5
ENDBRANCH   3   4
ENDBRANCH   2   3
ENDBRANCH   1   2
BRANCH   1  72
ATOM     72  C   UNL     1       2.523   2.304  -0.069  1.00  0.00     0.202 C 
BRANCH  72  73
ATOM     73  C   UNL     1       2.731   3.811  -0.205  1.00  0.00     0.261 C 
BRANCH  73  74
ATOM     74  O   UNL     1       3.405   4.055  -1.456  1.00  0.00    -0.462 OA
BRANCH  74  75
ATOM     75  C   UNL     1       4.778   4.024  -1.421  1.00  0.00     0.329 C 
ATOM     76  O   UNL     1       5.465   4.138  -0.415  1.00  0.00    -0.250 OA
BRANCH  75  77
ATOM     77  C   UNL     1       5.292   3.801  -2.849  1.00  0.00     0.206 C 
ATOM     78  C   UNL     1       5.054   5.075  -3.650  1.00  0.00     0.108 C 
ATOM     79  N   UNL     1       6.705   3.379  -2.952  1.00  0.00    -0.312 N 
ATOM     80  S   UNL     1       6.678   5.831  -3.859  1.00  0.00    -0.138 SA
ATOM     81  C   UNL     1       7.526   4.254  -3.745  1.00  0.00     0.191 C 
BRANCH  79  82
ATOM     82  C   UNL     1       7.062   2.036  -2.843  1.00  0.00     0.291 C 
ATOM     83  O   UNL     1       6.216   1.171  -3.083  1.00  0.00    -0.265 OA
BRANCH  82  84
ATOM     84  C   UNL     1       8.444   1.688  -2.536  1.00  0.00     0.199 A 
ATOM     85  O   UNL     1       8.915   0.528  -3.111  1.00  0.00    -0.459 OA
ATOM     86  C   UNL     1       9.454   2.224  -1.742  1.00  0.00     0.033 A 
ATOM     87  C   UNL     1      10.199   0.353  -2.715  1.00  0.00     0.196 A 
ATOM     88  C   UNL     1      10.588   1.376  -1.889  1.00  0.00     0.051 A 
BRANCH  86  89
ATOM     89  C   UNL     1       9.347   3.393  -0.895  1.00  0.00    -0.014 A 
ATOM     90  C   UNL     1      10.063   4.553  -1.218  1.00  0.00     0.009 A 
ATOM     91  C   UNL     1       8.572   3.363   0.267  1.00  0.00     0.009 A 
ATOM     92  C   UNL     1       9.954   5.693  -0.421  1.00  0.00     0.001 A 
ATOM     93  C   UNL     1       8.485   4.497   1.077  1.00  0.00     0.001 A 
ATOM     94  C   UNL     1       9.164   5.664   0.726  1.00  0.00     0.000 A 
ENDBRANCH  86  89
ENDBRANCH  82  84
ENDBRANCH  79  82
ENDBRANCH  75  77
ENDBRANCH  74  75
ENDBRANCH  73  74
ENDBRANCH  72  73
ENDBRANCH   1  72
TORSDOF 20
