REMARK SMILES C[C@@H]1CCCN(C(=O)c2ccc(=O)n([C@H](C)C(=O)OCCOCCOC(=O)c3ccc(-c4c5nc(c(-c6cccc(S(=O)(=O)[O-])c6F)c6ccc([nH]6)c(-c6cccc(S(=O)(=O)[O-])c6F)c6nc(c(-c7cccc(S(=O)(=O)[O-])c7F)c7ccc4[nH]7)C=C6)C=C5)cc3)n2)C1
REMARK SMILES IDX 22 1 21 2 20 3 19 4 17 5 18 6 15 7 16 8 14 9 9 10 10 11
REMARK SMILES IDX 91 12 11 13 12 14 13 15 7 16 8 17 6 18 1 19 2 20 3 21 92 22
REMARK SMILES IDX 4 23 5 24 23 25 24 26 25 27 26 28 27 29 28 30 29 31 90 32
REMARK SMILES IDX 30 33 89 34 31 35 32 36 33 37 83 38 34 39 88 40 82 41 84 42
REMARK SMILES IDX 35 43 87 44 81 45 80 46 36 48 68 49 48 50 67 51 49 52 52 53
REMARK SMILES IDX 66 54 85 55 50 56 51 57 65 59 86 60 53 61 37 62 38 63 46 64
REMARK SMILES IDX 39 65 41 66 47 67 40 68 42 69 43 70 44 71 45 72 69 73 70 74
REMARK SMILES IDX 78 75 71 76 73 77 79 78 72 79 74 80 75 81 76 82 77 83 54 84
REMARK SMILES IDX 55 85 63 86 56 87 58 88 64 89 57 90 59 91 60 92 61 93 62 94
REMARK H PARENT 84 47 52 58
REMARK Flexibility Score: inf
ROOT
ATOM      1  O   UNL     1       6.713  -3.116  -1.114  1.00  0.00    -0.374 OA
ENDROOT
BRANCH   1   2
ATOM      2  C   UNL     1       8.012  -2.543  -1.229  1.00  0.00     0.202 C 
BRANCH   2   3
ATOM      3  C   UNL     1       8.349  -1.770  -2.507  1.00  0.00     0.261 C 
BRANCH   3   4
ATOM      4  O   UNL     1       7.413  -0.713  -2.760  1.00  0.00    -0.462 OA
BRANCH   4   5
ATOM      5  C   UNL     1       6.558  -0.933  -3.800  1.00  0.00     0.330 C 
ATOM      6  O   UNL     1       6.639  -1.894  -4.558  1.00  0.00    -0.250 OA
BRANCH   5   7
ATOM      7  C   UNL     1       5.515   0.182  -3.961  1.00  0.00     0.218 C 
ATOM      8  C   UNL     1       5.176   0.968  -2.689  1.00  0.00     0.046 C 
BRANCH   7   9
ATOM      9  N   UNL     1       5.982   1.009  -5.072  1.00  0.00    -0.215 N 
ATOM     10  C   UNL     1       7.063   2.910  -5.729  1.00  0.00     0.149 A 
ATOM     11  C   UNL     1       7.048   2.514  -7.147  1.00  0.00     0.042 A 
ATOM     12  N   UNL     1       6.588   2.206  -4.750  1.00  0.00    -0.164 NA
ATOM     13  C   UNL     1       6.429   1.369  -7.437  1.00  0.00     0.076 A 
ATOM     14  C   UNL     1       5.791   0.561  -6.377  1.00  0.00     0.267 A 
ATOM     15  O   UNL     1       5.148  -0.433  -6.698  1.00  0.00    -0.268 OA
BRANCH  10  16
ATOM     16  C   UNL     1       7.658   4.269  -5.431  1.00  0.00     0.274 C 
ATOM     17  O   UNL     1       7.090   5.233  -5.936  1.00  0.00    -0.267 OA
BRANCH  16  18
ATOM     18  N   UNL     1       8.799   4.331  -4.643  1.00  0.00    -0.337 N 
ATOM     19  C   UNL     1      10.241   7.151  -2.528  1.00  0.00     0.009 C 
ATOM     20  C   UNL     1       9.562   5.818  -2.826  1.00  0.00     0.005 C 
ATOM     21  C   UNL     1      10.361   4.645  -2.237  1.00  0.00     0.007 C 
ATOM     22  C   UNL     1       9.378   5.636  -4.339  1.00  0.00     0.123 C 
ATOM     23  C   UNL     1       9.705   3.310  -2.597  1.00  0.00     0.022 C 
ATOM     24  C   UNL     1       9.524   3.180  -4.106  1.00  0.00     0.120 C 
ENDBRANCH  16  18
ENDBRANCH  10  16
ENDBRANCH   7   9
ENDBRANCH   5   7
ENDBRANCH   4   5
ENDBRANCH   3   4
ENDBRANCH   2   3
ENDBRANCH   1   2
BRANCH   1  25
ATOM     25  C   UNL     1       5.601  -2.253  -0.887  1.00  0.00     0.202 C 
BRANCH  25  26
ATOM     26  C   UNL     1       5.496  -1.515   0.455  1.00  0.00     0.261 C 
BRANCH  26  27
ATOM     27  O   UNL     1       6.555  -0.565   0.663  1.00  0.00    -0.460 OA
BRANCH  27  28
ATOM     28  C   UNL     1       7.434  -0.901   1.642  1.00  0.00     0.338 C 
ATOM     29  O   UNL     1       7.387  -1.887   2.363  1.00  0.00    -0.246 OA
BRANCH  28  30
ATOM     30  C   UNL     1       8.606  -0.007   1.580  1.00  0.00     0.060 A 
ATOM     31  C   UNL     1       8.471   1.378   1.667  1.00  0.00     0.016 A 
ATOM     32  C   UNL     1       9.876  -0.593   1.480  1.00  0.00     0.016 A 
ATOM     33  C   UNL     1       9.619   2.176   1.684  1.00  0.00     0.010 A 
ATOM     34  C   UNL     1      11.018   0.205   1.495  1.00  0.00     0.010 A 
ATOM     35  C   UNL     1      10.900   1.596   1.619  1.00  0.00    -0.014 A 
BRANCH  35  36
ATOM     36  C   UNL     1      12.110   2.429   1.831  1.00  0.00     0.031 A 
ATOM     37  C   UNL     1      13.057   2.750   0.714  1.00  0.00     0.074 A 
ATOM     38  C   UNL     1      12.372   2.868   3.078  1.00  0.00     0.049 A 
ATOM     39  N   UNL     1      14.092   3.548   0.726  1.00  0.00    -0.248 NA
ATOM     40  C   UNL     1      12.818   2.098  -0.582  1.00  0.00     0.031 C 
ATOM     41  C   UNL     1      11.570   2.555   4.263  1.00  0.00     0.029 A 
ATOM     42  N   UNL     1      13.383   3.661   3.559  1.00  0.00    -0.354 N 
ATOM     43  C   UNL     1      14.627   3.502  -0.553  1.00  0.00     0.074 A 
ATOM     44  C   UNL     1      13.812   2.583  -1.318  1.00  0.00     0.031 C 
ATOM     45  C   UNL     1      12.108   3.165   5.330  1.00  0.00     0.029 A 
ATOM     46  C   UNL     1      13.300   3.896   4.910  1.00  0.00     0.049 A 
ATOM     47  H   UNL     1      14.098   4.026   2.990  1.00  0.00     0.167 HD
ATOM     48  C   UNL     1      15.690   4.180  -1.047  1.00  0.00     0.034 A 
ATOM     49  C   UNL     1      14.090   4.622   5.726  1.00  0.00     0.034 A 
ATOM     50  C   UNL     1      16.511   5.078  -0.280  1.00  0.00     0.049 A 
ATOM     51  C   UNL     1      15.265   5.359   5.153  1.00  0.00     0.074 A 
ATOM     52  C   UNL     1      17.574   5.849  -0.719  1.00  0.00     0.029 A 
ATOM     53  N   UNL     1      16.386   5.306   1.080  1.00  0.00    -0.354 N 
ATOM     54  N   UNL     1      15.661   5.427   3.906  1.00  0.00    -0.248 NA
ATOM     55  C   UNL     1      16.087   6.140   6.089  1.00  0.00     0.031 C 
ATOM     56  C   UNL     1      18.108   6.524   0.382  1.00  0.00     0.029 A 
ATOM     57  C   UNL     1      17.360   6.194   1.501  1.00  0.00     0.049 A 
ATOM     58  H   UNL     1      15.705   4.897   1.662  1.00  0.00     0.167 HD
ATOM     59  C   UNL     1      16.763   6.272   3.902  1.00  0.00     0.074 A 
ATOM     60  C   UNL     1      16.967   6.703   5.270  1.00  0.00     0.031 C 
ATOM     61  C   UNL     1      17.538   6.647   2.856  1.00  0.00     0.034 A 
BRANCH  48  62
ATOM     62  C   UNL     1      16.011   4.029  -2.507  1.00  0.00     0.023 A 
ATOM     63  C   UNL     1      15.241   4.739  -3.450  1.00  0.00     0.012 A 
ATOM     64  C   UNL     1      17.140   3.304  -2.934  1.00  0.00     0.148 A 
ATOM     65  C   UNL     1      15.588   4.726  -4.800  1.00  0.00     0.002 A 
ATOM     66  C   UNL     1      17.494   3.317  -4.277  1.00  0.00     0.091 A 
ATOM     67  F   UNL     1      17.850   2.633  -2.016  1.00  0.00    -0.205 F 
ATOM     68  C   UNL     1      16.719   4.026  -5.211  1.00  0.00     0.022 A 
BRANCH  66  69
ATOM     69  S   UNL     1      18.956   2.486  -4.909  1.00  0.00     0.127 S 
ATOM     70  O   UNL     1      18.361   1.480  -5.789  1.00  0.00    -0.237 OA
ATOM     71  O   UNL     1      19.649   3.571  -5.602  1.00  0.00    -0.237 OA
ATOM     72  O   UNL     1      19.652   1.954  -3.746  1.00  0.00    -0.744 OA
ENDBRANCH  66  69
ENDBRANCH  48  62
BRANCH  49  73
ATOM     73  C   UNL     1      13.735   4.732   7.165  1.00  0.00     0.023 A 
ATOM     74  C   UNL     1      13.144   5.917   7.640  1.00  0.00     0.012 A 
ATOM     75  C   UNL     1      13.906   3.642   8.040  1.00  0.00     0.148 A 
ATOM     76  C   UNL     1      12.731   6.018   8.969  1.00  0.00     0.002 A 
ATOM     77  C   UNL     1      13.460   3.736   9.352  1.00  0.00     0.091 A 
ATOM     78  F   UNL     1      14.468   2.526   7.556  1.00  0.00    -0.205 F 
ATOM     79  C   UNL     1      12.879   4.926   9.820  1.00  0.00     0.022 A 
BRANCH  77  80
ATOM     80  S   UNL     1      13.523   2.357  10.499  1.00  0.00     0.127 S 
ATOM     81  O   UNL     1      14.400   2.880  11.545  1.00  0.00    -0.237 OA
ATOM     82  O   UNL     1      12.117   2.224  10.882  1.00  0.00    -0.237 OA
ATOM     83  O   UNL     1      14.057   1.234   9.742  1.00  0.00    -0.744 OA
ENDBRANCH  77  80
ENDBRANCH  49  73
BRANCH  61  84
ATOM     84  C   UNL     1      18.686   7.582   3.119  1.00  0.00     0.023 A 
ATOM     85  C   UNL     1      19.875   7.081   3.682  1.00  0.00     0.012 A 
ATOM     86  C   UNL     1      18.634   8.920   2.679  1.00  0.00     0.148 A 
ATOM     87  C   UNL     1      20.997   7.899   3.806  1.00  0.00     0.002 A 
ATOM     88  C   UNL     1      19.766   9.720   2.774  1.00  0.00     0.091 A 
ATOM     89  F   UNL     1      17.487   9.372   2.151  1.00  0.00    -0.205 F 
ATOM     90  C   UNL     1      20.947   9.212   3.341  1.00  0.00     0.022 A 
BRANCH  88  91
ATOM     91  S   UNL     1      19.823  11.399   2.140  1.00  0.00     0.127 S 
ATOM     92  O   UNL     1      20.018  12.173   3.366  1.00  0.00    -0.237 OA
ATOM     93  O   UNL     1      20.986  11.354   1.255  1.00  0.00    -0.237 OA
ATOM     94  O   UNL     1      18.551  11.623   1.467  1.00  0.00    -0.744 OA
ENDBRANCH  88  91
ENDBRANCH  61  84
ENDBRANCH  35  36
ENDBRANCH  28  30
ENDBRANCH  27  28
ENDBRANCH  26  27
ENDBRANCH  25  26
ENDBRANCH   1  25
TORSDOF 20
