REMARK SMILES C[C@@](CC(=O)Nc1ccc(NC(=O)c2ccco2)cc1)(C(=O)OCCOCCOC(=O)c1ccc(-c2c3nc(c(-c4cccc(S(=O)(=O)[O-])c4F)c4ccc([nH]4)c(-c4cccc(S(=O)(=O)[O-])c4F)c4nc(c(-c5cccc(S(=O)(=O)[O-])c5F)c5ccc2[nH]5)C=C4)C=C3)cc1)c1ccccc1
REMARK SMILES IDX 25 1 24 2 23 3 21 4 22 5 2 6 1 7 3 8 4 9 5 10 6 11 7 13 8 14
REMARK SMILES IDX 20 15 9 16 19 17 10 18 11 19 12 20 13 22 14 23 15 24 18 25
REMARK SMILES IDX 16 26 17 27 95 28 96 29 100 30 97 31 99 32 98 33 26 34 27 35
REMARK SMILES IDX 28 36 29 37 30 38 31 39 32 40 33 41 94 42 34 43 93 44 35 45
REMARK SMILES IDX 36 46 37 47 87 48 38 49 92 50 86 51 88 52 39 53 91 54 85 55
REMARK SMILES IDX 84 56 40 58 72 59 52 60 71 61 53 62 56 63 70 64 89 65 54 66
REMARK SMILES IDX 55 67 69 69 90 70 57 71 41 72 42 73 50 74 43 75 45 76 51 77
REMARK SMILES IDX 44 78 46 79 47 80 48 81 49 82 73 83 74 84 82 85 75 86 77 87
REMARK SMILES IDX 83 88 76 89 78 90 79 91 80 92 81 93 58 94 59 95 67 96 60 97
REMARK SMILES IDX 62 98 68 99 61 100 63 101 64 102 65 103 66 104
REMARK H PARENT 6 12 11 21 88 57 56 68
REMARK Flexibility Score: inf
ROOT
ATOM      1  C   UNL     1      -3.956  -0.658   0.637  1.00  0.00     0.202 C 
ENDROOT
BRANCH   1   2
ATOM      2  C   UNL     1      -3.046  -0.920   1.841  1.00  0.00     0.261 C 
BRANCH   2   3
ATOM      3  O   UNL     1      -1.667  -0.801   1.454  1.00  0.00    -0.463 OA
BRANCH   3   4
ATOM      4  C   UNL     1      -0.797  -1.615   2.116  1.00  0.00     0.316 C 
ATOM      5  O   UNL     1      -1.096  -2.291   3.093  1.00  0.00    -0.251 OA
BRANCH   4   6
ATOM      6  C   UNL     1       0.605  -1.591   1.463  1.00  0.00     0.099 C 
ATOM      7  C   UNL     1       0.553  -1.309  -0.060  1.00  0.00     0.029 C 
BRANCH   6   8
ATOM      8  C   UNL     1       1.440  -0.492   2.179  1.00  0.00     0.123 C 
BRANCH   8   9
ATOM      9  C   UNL     1       0.704   0.760   2.699  1.00  0.00     0.225 C 
ATOM     10  O   UNL     1      -0.060   0.677   3.662  1.00  0.00    -0.275 OA
ATOM     11  N   UNL     1       1.033   2.006   2.216  1.00  0.00    -0.326 N 
ATOM     12  H   UNL     1       0.841   2.767   2.810  1.00  0.00     0.169 HD
BRANCH  11  13
ATOM     13  C   UNL     1       1.607   2.316   0.982  1.00  0.00     0.041 A 
ATOM     14  C   UNL     1       2.665   3.203   0.893  1.00  0.00     0.028 A 
ATOM     15  C   UNL     1       1.101   1.772  -0.186  1.00  0.00     0.028 A 
ATOM     16  C   UNL     1       3.371   3.308  -0.316  1.00  0.00     0.028 A 
ATOM     17  C   UNL     1       1.825   1.831  -1.374  1.00  0.00     0.028 A 
ATOM     18  C   UNL     1       3.035   2.520  -1.419  1.00  0.00     0.041 A 
BRANCH  18  19
ATOM     19  N   UNL     1       3.827   2.300  -2.561  1.00  0.00    -0.319 N 
ATOM     20  C   UNL     1       5.123   2.633  -2.898  1.00  0.00     0.291 C 
ATOM     21  H   UNL     1       3.357   1.804  -3.269  1.00  0.00     0.170 HD
ATOM     22  O   UNL     1       5.576   2.145  -3.937  1.00  0.00    -0.265 OA
BRANCH  20  23
ATOM     23  C   UNL     1       5.895   3.499  -2.052  1.00  0.00     0.191 A 
ATOM     24  C   UNL     1       6.612   3.279  -0.889  1.00  0.00     0.056 A 
ATOM     25  O   UNL     1       5.956   4.823  -2.385  1.00  0.00    -0.459 OA
ATOM     26  C   UNL     1       7.073   4.549  -0.458  1.00  0.00     0.043 A 
ATOM     27  C   UNL     1       6.661   5.450  -1.411  1.00  0.00     0.196 A 
ENDBRANCH  20  23
ENDBRANCH  18  19
ENDBRANCH  11  13
ENDBRANCH   8   9
ENDBRANCH   6   8
BRANCH   6  28
ATOM     28  C   UNL     1       1.270  -3.002   1.438  1.00  0.00    -0.030 A 
ATOM     29  C   UNL     1       0.469  -4.162   1.353  1.00  0.00     0.005 A 
ATOM     30  C   UNL     1       2.648  -3.145   1.187  1.00  0.00     0.005 A 
ATOM     31  C   UNL     1       1.009  -5.397   0.989  1.00  0.00     0.000 A 
ATOM     32  C   UNL     1       3.183  -4.382   0.811  1.00  0.00     0.000 A 
ATOM     33  C   UNL     1       2.363  -5.502   0.699  1.00  0.00     0.000 A 
ENDBRANCH   6  28
ENDBRANCH   4   6
ENDBRANCH   3   4
ENDBRANCH   2   3
ENDBRANCH   1   2
BRANCH   1  34
ATOM     34  O   UNL     1      -3.940  -1.632  -0.415  1.00  0.00    -0.374 OA
BRANCH  34  35
ATOM     35  C   UNL     1      -2.733  -1.779  -1.154  1.00  0.00     0.202 C 
BRANCH  35  36
ATOM     36  C   UNL     1      -2.401  -0.696  -2.196  1.00  0.00     0.261 C 
BRANCH  36  37
ATOM     37  O   UNL     1      -2.533   0.648  -1.706  1.00  0.00    -0.460 OA
BRANCH  37  38
ATOM     38  C   UNL     1      -3.594   1.320  -2.226  1.00  0.00     0.338 C 
ATOM     39  O   UNL     1      -4.334   0.945  -3.119  1.00  0.00    -0.246 OA
BRANCH  38  40
ATOM     40  C   UNL     1      -3.869   2.547  -1.454  1.00  0.00     0.060 A 
ATOM     41  C   UNL     1      -5.114   2.631  -0.819  1.00  0.00     0.016 A 
ATOM     42  C   UNL     1      -2.995   3.635  -1.451  1.00  0.00     0.016 A 
ATOM     43  C   UNL     1      -5.510   3.822  -0.215  1.00  0.00     0.010 A 
ATOM     44  C   UNL     1      -3.400   4.836  -0.849  1.00  0.00     0.010 A 
ATOM     45  C   UNL     1      -4.674   4.946  -0.261  1.00  0.00    -0.014 A 
BRANCH  45  46
ATOM     46  C   UNL     1      -5.202   6.254   0.204  1.00  0.00     0.031 A 
ATOM     47  C   UNL     1      -5.726   7.243  -0.803  1.00  0.00     0.074 A 
ATOM     48  C   UNL     1      -5.259   6.540   1.518  1.00  0.00     0.049 A 
ATOM     49  N   UNL     1      -6.282   8.411  -0.603  1.00  0.00    -0.248 NA
ATOM     50  C   UNL     1      -5.614   6.867  -2.222  1.00  0.00     0.031 C 
ATOM     51  C   UNL     1      -4.784   5.670   2.592  1.00  0.00     0.029 A 
ATOM     52  N   UNL     1      -5.734   7.652   2.169  1.00  0.00    -0.354 N 
ATOM     53  C   UNL     1      -6.575   8.915  -1.865  1.00  0.00     0.074 A 
ATOM     54  C   UNL     1      -6.118   7.935  -2.827  1.00  0.00     0.031 C 
ATOM     55  C   UNL     1      -4.971   6.291   3.770  1.00  0.00     0.029 A 
ATOM     56  C   UNL     1      -5.569   7.603   3.533  1.00  0.00     0.049 A 
ATOM     57  H   UNL     1      -6.153   8.411   1.703  1.00  0.00     0.167 HD
ATOM     58  C   UNL     1      -7.190  10.076  -2.195  1.00  0.00     0.034 A 
ATOM     59  C   UNL     1      -5.859   8.517   4.481  1.00  0.00     0.034 A 
ATOM     60  C   UNL     1      -7.665  11.043  -1.241  1.00  0.00     0.049 A 
ATOM     61  C   UNL     1      -6.529   9.807   4.085  1.00  0.00     0.074 A 
ATOM     62  C   UNL     1      -8.336  12.229  -1.482  1.00  0.00     0.029 A 
ATOM     63  N   UNL     1      -7.514  10.942   0.132  1.00  0.00    -0.354 N 
ATOM     64  N   UNL     1      -6.917  10.207   2.897  1.00  0.00    -0.248 NA
ATOM     65  C   UNL     1      -6.835  10.758   5.165  1.00  0.00     0.031 C 
ATOM     66  C   UNL     1      -8.575  12.855  -0.253  1.00  0.00     0.029 A 
ATOM     67  C   UNL     1      -8.069  12.049   0.753  1.00  0.00     0.049 A 
ATOM     68  H   UNL     1      -7.076  10.193   0.599  1.00  0.00     0.167 HD
ATOM     69  C   UNL     1      -7.538  11.436   3.092  1.00  0.00     0.074 A 
ATOM     70  C   UNL     1      -7.499  11.703   4.515  1.00  0.00     0.031 C 
ATOM     71  C   UNL     1      -8.073  12.279   2.174  1.00  0.00     0.034 A 
BRANCH  58  72
ATOM     72  C   UNL     1      -7.430  10.351  -3.655  1.00  0.00     0.023 A 
ATOM     73  C   UNL     1      -8.458   9.661  -4.329  1.00  0.00     0.012 A 
ATOM     74  C   UNL     1      -6.697  11.341  -4.339  1.00  0.00     0.148 A 
ATOM     75  C   UNL     1      -8.739   9.935  -5.666  1.00  0.00     0.002 A 
ATOM     76  C   UNL     1      -7.008  11.635  -5.662  1.00  0.00     0.091 A 
ATOM     77  F   UNL     1      -5.710  11.970  -3.686  1.00  0.00    -0.205 F 
ATOM     78  C   UNL     1      -8.023  10.929  -6.328  1.00  0.00     0.022 A 
BRANCH  76  79
ATOM     79  S   UNL     1      -6.191  12.944  -6.582  1.00  0.00     0.127 S 
ATOM     80  O   UNL     1      -5.403  12.179  -7.546  1.00  0.00    -0.237 OA
ATOM     81  O   UNL     1      -7.324  13.668  -7.159  1.00  0.00    -0.237 OA
ATOM     82  O   UNL     1      -5.420  13.701  -5.606  1.00  0.00    -0.744 OA
ENDBRANCH  76  79
ENDBRANCH  58  72
BRANCH  59  83
ATOM     83  C   UNL     1      -5.552   8.231   5.911  1.00  0.00     0.023 A 
ATOM     84  C   UNL     1      -6.603   8.030   6.826  1.00  0.00     0.012 A 
ATOM     85  C   UNL     1      -4.222   8.155   6.367  1.00  0.00     0.148 A 
ATOM     86  C   UNL     1      -6.336   7.790   8.175  1.00  0.00     0.002 A 
ATOM     87  C   UNL     1      -3.961   7.862   7.700  1.00  0.00     0.091 A 
ATOM     88  F   UNL     1      -3.233   8.376   5.488  1.00  0.00    -0.205 F 
ATOM     89  C   UNL     1      -5.016   7.695   8.610  1.00  0.00     0.022 A 
BRANCH  87  90
ATOM     90  S   UNL     1      -2.290   7.600   8.305  1.00  0.00     0.127 S 
ATOM     91  O   UNL     1      -2.011   8.866   8.976  1.00  0.00    -0.237 OA
ATOM     92  O   UNL     1      -2.462   6.454   9.199  1.00  0.00    -0.237 OA
ATOM     93  O   UNL     1      -1.492   7.315   7.119  1.00  0.00    -0.744 OA
ENDBRANCH  87  90
ENDBRANCH  59  83
BRANCH  71  94
ATOM     94  C   UNL     1      -8.680  13.564   2.676  1.00  0.00     0.023 A 
ATOM     95  C   UNL     1      -7.840  14.599   3.134  1.00  0.00     0.012 A 
ATOM     96  C   UNL     1     -10.073  13.773   2.635  1.00  0.00     0.148 A 
ATOM     97  C   UNL     1      -8.378  15.806   3.577  1.00  0.00     0.002 A 
ATOM     98  C   UNL     1     -10.599  14.996   3.036  1.00  0.00     0.091 A 
ATOM     99  F   UNL     1     -10.860  12.771   2.215  1.00  0.00    -0.205 F 
ATOM    100  C   UNL     1      -9.755  16.009   3.518  1.00  0.00     0.022 A 
BRANCH  98 101
ATOM    101  S   UNL     1     -12.351  15.374   2.907  1.00  0.00     0.127 S 
ATOM    102  O   UNL     1     -12.789  15.235   4.295  1.00  0.00    -0.237 OA
ATOM    103  O   UNL     1     -12.340  16.750   2.406  1.00  0.00    -0.237 OA
ATOM    104  O   UNL     1     -12.899  14.400   1.973  1.00  0.00    -0.744 OA
ENDBRANCH  98 101
ENDBRANCH  71  94
ENDBRANCH  45  46
ENDBRANCH  38  40
ENDBRANCH  37  38
ENDBRANCH  36  37
ENDBRANCH  35  36
ENDBRANCH  34  35
ENDBRANCH   1  34
TORSDOF 23
