REMARK SMILES O=C(OCCOCCOC(=O)c1ccc(-c2c3nc(c(-c4cccc(S(=O)(=O)[O-])c4F)c4ccc([nH]4)c(-c4cccc(S(=O)(=O)[O-])c4F)c4nc(c(-c5cccc(S(=O)(=O)[O-])c5F)c5ccc2[nH]5)C=C4)C=C3)cc1)c1ccc(NC(=O)[C@@H]2CC=CC[C@H]2C(=O)Nc2cccc([N+](=O)[O-])c2)cc1
REMARK SMILES IDX 5 1 4 2 3 3 2 4 1 5 75 6 76 7 101 8 77 9 100 10 78 11 79 12
REMARK SMILES IDX 80 13 81 15 82 16 83 17 87 18 84 19 86 20 85 21 88 22 89 23
REMARK SMILES IDX 90 24 91 26 92 27 99 28 93 29 95 30 94 31 96 32 97 33 98 34
REMARK SMILES IDX 6 35 7 36 8 37 9 38 10 39 11 40 12 41 13 42 74 43 14 44
REMARK SMILES IDX 73 45 15 46 16 47 17 48 67 49 18 50 72 51 66 52 68 53 19 54
REMARK SMILES IDX 71 55 65 56 64 57 20 59 52 60 32 61 51 62 33 63 36 64 50 65
REMARK SMILES IDX 69 66 34 67 35 68 49 70 70 71 37 72 21 73 22 74 30 75 23 76
REMARK SMILES IDX 25 77 31 78 24 79 26 80 27 81 28 82 29 83 53 84 54 85 62 86
REMARK SMILES IDX 55 87 57 88 63 89 56 90 58 91 59 92 60 93 61 94 38 95 39 96
REMARK SMILES IDX 47 97 40 98 42 99 48 100 41 101 43 102 44 103 45 104 46 105
REMARK H PARENT 79 14 90 25 68 58 36 69
REMARK Flexibility Score: inf
ROOT
ATOM      1  C   UNL     1       4.515   9.983   2.736  1.00  0.00     0.202 C 
ENDROOT
BRANCH   1   2
ATOM      2  C   UNL     1       5.824  10.025   3.538  1.00  0.00     0.261 C 
BRANCH   2   3
ATOM      3  O   UNL     1       6.819  10.815   2.834  1.00  0.00    -0.460 OA
BRANCH   3   4
ATOM      4  C   UNL     1       8.064  10.488   2.400  1.00  0.00     0.338 C 
ATOM      5  O   UNL     1       8.854  11.383   2.104  1.00  0.00    -0.246 OA
BRANCH   4   6
ATOM      6  C   UNL     1       8.517   9.081   2.193  1.00  0.00     0.060 A 
ATOM      7  C   UNL     1       7.633   8.038   2.054  1.00  0.00     0.018 A 
ATOM      8  C   UNL     1       9.876   8.772   2.013  1.00  0.00     0.018 A 
ATOM      9  C   UNL     1       8.070   6.745   1.793  1.00  0.00     0.027 A 
ATOM     10  C   UNL     1      10.284   7.479   1.590  1.00  0.00     0.027 A 
ATOM     11  C   UNL     1       9.341   6.467   1.391  1.00  0.00     0.041 A 
BRANCH  11  12
ATOM     12  N   UNL     1       9.658   5.282   0.698  1.00  0.00    -0.326 N 
ATOM     13  C   UNL     1       8.932   4.248   0.142  1.00  0.00     0.228 C 
ATOM     14  H   UNL     1      10.628   5.163   0.584  1.00  0.00     0.169 HD
ATOM     15  O   UNL     1       9.600   3.499  -0.589  1.00  0.00    -0.274 OA
BRANCH  13  16
ATOM     16  C   UNL     1       7.444   3.884   0.461  1.00  0.00     0.095 C 
ATOM     17  C   UNL     1       7.305   2.342   0.283  1.00  0.00     0.041 C 
ATOM     18  C   UNL     1       6.273   4.639  -0.247  1.00  0.00     0.095 C 
ATOM     19  C   UNL     1       5.918   1.790   0.382  1.00  0.00    -0.030 C 
ATOM     20  C   UNL     1       4.981   3.845  -0.604  1.00  0.00     0.041 C 
ATOM     21  C   UNL     1       4.856   2.479  -0.036  1.00  0.00    -0.030 C 
BRANCH  18  22
ATOM     22  C   UNL     1       5.681   5.946   0.305  1.00  0.00     0.228 C 
ATOM     23  O   UNL     1       5.729   6.934  -0.447  1.00  0.00    -0.274 OA
ATOM     24  N   UNL     1       4.998   6.131   1.480  1.00  0.00    -0.326 N 
ATOM     25  H   UNL     1       4.483   6.969   1.445  1.00  0.00     0.169 HD
BRANCH  24  26
ATOM     26  C   UNL     1       4.802   5.490   2.730  1.00  0.00     0.048 A 
ATOM     27  C   UNL     1       3.854   6.058   3.588  1.00  0.00     0.026 A 
ATOM     28  C   UNL     1       5.503   4.413   3.248  1.00  0.00     0.111 A 
ATOM     29  C   UNL     1       3.518   5.489   4.829  1.00  0.00     0.009 A 
ATOM     30  C   UNL     1       5.195   3.834   4.493  1.00  0.00     0.271 A 
ATOM     31  C   UNL     1       4.172   4.347   5.278  1.00  0.00     0.086 A 
BRANCH  30  32
ATOM     32  N   UNL     1       5.984   2.682   4.954  1.00  0.00     0.062 N 
ATOM     33  O   UNL     1       5.551   2.032   5.915  1.00  0.00    -0.258 OA
ATOM     34  O   UNL     1       7.039   2.426   4.353  1.00  0.00    -0.258 OA
ENDBRANCH  30  32
ENDBRANCH  24  26
ENDBRANCH  18  22
ENDBRANCH  13  16
ENDBRANCH  11  12
ENDBRANCH   4   6
ENDBRANCH   3   4
ENDBRANCH   2   3
ENDBRANCH   1   2
BRANCH   1  35
ATOM     35  O   UNL     1       4.664   9.289   1.492  1.00  0.00    -0.374 OA
BRANCH  35  36
ATOM     36  C   UNL     1       4.713  10.148   0.340  1.00  0.00     0.202 C 
BRANCH  36  37
ATOM     37  C   UNL     1       3.571   9.821  -0.633  1.00  0.00     0.261 C 
BRANCH  37  38
ATOM     38  O   UNL     1       2.313   9.876   0.060  1.00  0.00    -0.460 OA
BRANCH  38  39
ATOM     39  C   UNL     1       1.927   8.696   0.621  1.00  0.00     0.338 C 
ATOM     40  O   UNL     1       2.400   7.602   0.419  1.00  0.00    -0.246 OA
BRANCH  39  41
ATOM     41  C   UNL     1       0.959   8.969   1.716  1.00  0.00     0.060 A 
ATOM     42  C   UNL     1       0.858   8.008   2.730  1.00  0.00     0.016 A 
ATOM     43  C   UNL     1       0.224  10.152   1.805  1.00  0.00     0.016 A 
ATOM     44  C   UNL     1       0.099   8.254   3.871  1.00  0.00     0.010 A 
ATOM     45  C   UNL     1      -0.574  10.383   2.928  1.00  0.00     0.010 A 
ATOM     46  C   UNL     1      -0.628   9.441   3.969  1.00  0.00    -0.014 A 
BRANCH  46  47
ATOM     47  C   UNL     1      -1.550   9.652   5.103  1.00  0.00     0.031 A 
ATOM     48  C   UNL     1      -3.002   9.332   4.910  1.00  0.00     0.074 A 
ATOM     49  C   UNL     1      -1.102  10.164   6.263  1.00  0.00     0.049 A 
ATOM     50  N   UNL     1      -4.005   9.542   5.717  1.00  0.00    -0.248 NA
ATOM     51  C   UNL     1      -3.372   8.695   3.634  1.00  0.00     0.031 C 
ATOM     52  C   UNL     1       0.291  10.498   6.559  1.00  0.00     0.029 A 
ATOM     53  N   UNL     1      -1.785  10.532   7.394  1.00  0.00    -0.354 N 
ATOM     54  C   UNL     1      -5.131   9.104   5.035  1.00  0.00     0.074 A 
ATOM     55  C   UNL     1      -4.689   8.605   3.751  1.00  0.00     0.031 C 
ATOM     56  C   UNL     1       0.352  11.073   7.773  1.00  0.00     0.029 A 
ATOM     57  C   UNL     1      -0.998  11.176   8.322  1.00  0.00     0.049 A 
ATOM     58  H   UNL     1      -2.744  10.354   7.529  1.00  0.00     0.167 HD
ATOM     59  C   UNL     1      -6.420   9.119   5.445  1.00  0.00     0.034 A 
ATOM     60  C   UNL     1      -1.342  11.815   9.458  1.00  0.00     0.034 A 
ATOM     61  C   UNL     1      -6.849   9.606   6.726  1.00  0.00     0.049 A 
ATOM     62  C   UNL     1      -2.793  11.847   9.869  1.00  0.00     0.074 A 
ATOM     63  C   UNL     1      -8.125   9.603   7.260  1.00  0.00     0.029 A 
ATOM     64  N   UNL     1      -6.022  10.206   7.661  1.00  0.00    -0.354 N 
ATOM     65  N   UNL     1      -3.831  11.305   9.280  1.00  0.00    -0.248 NA
ATOM     66  C   UNL     1      -3.116  12.560  11.114  1.00  0.00     0.031 C 
ATOM     67  C   UNL     1      -8.076  10.237   8.504  1.00  0.00     0.029 A 
ATOM     68  C   UNL     1      -6.764  10.602   8.760  1.00  0.00     0.049 A 
ATOM     69  H   UNL     1      -5.051  10.331   7.560  1.00  0.00     0.167 HD
ATOM     70  C   UNL     1      -4.923  11.587  10.094  1.00  0.00     0.074 A 
ATOM     71  C   UNL     1      -4.415  12.320  11.235  1.00  0.00     0.031 C 
ATOM     72  C   UNL     1      -6.232  11.287   9.909  1.00  0.00     0.034 A 
BRANCH  59  73
ATOM     73  C   UNL     1      -7.464   8.588   4.504  1.00  0.00     0.023 A 
ATOM     74  C   UNL     1      -7.586   7.199   4.304  1.00  0.00     0.012 A 
ATOM     75  C   UNL     1      -8.378   9.463   3.887  1.00  0.00     0.148 A 
ATOM     76  C   UNL     1      -8.597   6.689   3.491  1.00  0.00     0.002 A 
ATOM     77  C   UNL     1      -9.408   8.945   3.114  1.00  0.00     0.091 A 
ATOM     78  F   UNL     1      -8.223  10.782   4.074  1.00  0.00    -0.205 F 
ATOM     79  C   UNL     1      -9.514   7.559   2.908  1.00  0.00     0.022 A 
BRANCH  77  80
ATOM     80  S   UNL     1     -10.685   9.975   2.384  1.00  0.00     0.127 S 
ATOM     81  O   UNL     1     -10.427   9.794   0.955  1.00  0.00    -0.237 OA
ATOM     82  O   UNL     1     -11.907   9.334   2.870  1.00  0.00    -0.237 OA
ATOM     83  O   UNL     1     -10.456  11.321   2.888  1.00  0.00    -0.744 OA
ENDBRANCH  77  80
ENDBRANCH  59  73
BRANCH  60  84
ATOM     84  C   UNL     1      -0.305  12.493  10.289  1.00  0.00     0.023 A 
ATOM     85  C   UNL     1      -0.022  12.012  11.582  1.00  0.00     0.012 A 
ATOM     86  C   UNL     1       0.383  13.626   9.814  1.00  0.00     0.148 A 
ATOM     87  C   UNL     1       0.895  12.672  12.402  1.00  0.00     0.002 A 
ATOM     88  C   UNL     1       1.339  14.242  10.612  1.00  0.00     0.091 A 
ATOM     89  F   UNL     1       0.086  14.084   8.589  1.00  0.00    -0.205 F 
ATOM     90  C   UNL     1       1.582  13.780  11.915  1.00  0.00     0.022 A 
BRANCH  88  91
ATOM     91  S   UNL     1       2.364  15.589  10.012  1.00  0.00     0.127 S 
ATOM     92  O   UNL     1       1.801  16.733  10.723  1.00  0.00    -0.237 OA
ATOM     93  O   UNL     1       3.695  15.177  10.458  1.00  0.00    -0.237 OA
ATOM     94  O   UNL     1       2.193  15.591   8.565  1.00  0.00    -0.744 OA
ENDBRANCH  88  91
ENDBRANCH  60  84
BRANCH  72  95
ATOM     95  C   UNL     1      -7.209  11.720  10.972  1.00  0.00     0.023 A 
ATOM     96  C   UNL     1      -7.540  13.083  11.104  1.00  0.00     0.012 A 
ATOM     97  C   UNL     1      -7.858  10.768  11.782  1.00  0.00     0.148 A 
ATOM     98  C   UNL     1      -8.477  13.495  12.050  1.00  0.00     0.002 A 
ATOM     99  C   UNL     1      -8.829  11.180  12.685  1.00  0.00     0.091 A 
ATOM    100  F   UNL     1      -7.519   9.477  11.649  1.00  0.00    -0.205 F 
ATOM    101  C   UNL     1      -9.131  12.544  12.830  1.00  0.00     0.022 A 
BRANCH  99 102
ATOM    102  S   UNL     1      -9.793  10.022  13.663  1.00  0.00     0.127 S 
ATOM    103  O   UNL     1      -9.283  10.274  15.010  1.00  0.00    -0.237 OA
ATOM    104  O   UNL     1     -11.161  10.485  13.432  1.00  0.00    -0.237 OA
ATOM    105  O   UNL     1      -9.501   8.700  13.125  1.00  0.00    -0.744 OA
ENDBRANCH  99 102
ENDBRANCH  72  95
ENDBRANCH  46  47
ENDBRANCH  39  41
ENDBRANCH  38  39
ENDBRANCH  37  38
ENDBRANCH  36  37
ENDBRANCH  35  36
ENDBRANCH   1  35
TORSDOF 22
