REMARK SMILES C[NH2+][C@]1(C(=O)OCCOCCOC(=O)c2ccc(-c3c4nc(c(-c5cccc(S(=O)(=O)[O-])c5F)c5ccc([nH]5)c(-c5cccc(S(=O)(=O)[O-])c5F)c5nc(c(-c6cccc(S(=O)(=O)[O-])c6F)c6ccc3[nH]6)C=C5)C=C4)cc2)CCC[C@@H](Sc2nccn2C)C1
REMARK SMILES IDX 10 1 9 2 8 3 7 4 6 5 4 6 5 7 3 8 78 9 89 10 79 11 81 12
REMARK SMILES IDX 80 13 2 14 1 15 82 18 83 19 84 20 87 21 85 22 86 23 88 24
REMARK SMILES IDX 11 25 12 26 13 27 14 28 15 29 16 30 77 31 17 32 76 33 18 34
REMARK SMILES IDX 19 35 20 36 70 37 21 38 75 39 69 40 71 41 22 42 74 43 68 44
REMARK SMILES IDX 67 45 23 47 55 48 35 49 54 50 36 51 39 52 53 53 72 54 37 55
REMARK SMILES IDX 38 56 52 58 73 59 40 60 24 61 25 62 33 63 26 64 28 65 34 66
REMARK SMILES IDX 27 67 29 68 30 69 31 70 32 71 56 72 57 73 65 74 58 75 60 76
REMARK SMILES IDX 66 77 59 78 61 79 62 80 63 81 64 82 41 83 42 84 50 85 43 86
REMARK SMILES IDX 45 87 51 88 44 89 46 90 47 91 48 92 49 93
REMARK H PARENT 2 16 2 17 71 46 39 57
REMARK Flexibility Score: inf
ROOT
ATOM      1  C   UNL     1       1.655  -0.189  -1.627  1.00  0.00     0.202 C 
ENDROOT
BRANCH   1   2
ATOM      2  O   UNL     1       2.876   0.529  -1.439  1.00  0.00    -0.374 OA
BRANCH   2   3
ATOM      3  C   UNL     1       3.303   0.770  -0.099  1.00  0.00     0.202 C 
BRANCH   3   4
ATOM      4  C   UNL     1       2.570   1.858   0.689  1.00  0.00     0.261 C 
BRANCH   4   5
ATOM      5  O   UNL     1       1.161   1.607   0.760  1.00  0.00    -0.459 OA
BRANCH   5   6
ATOM      6  C   UNL     1       0.379   2.461   0.040  1.00  0.00     0.368 C 
ATOM      7  O   UNL     1       0.809   3.454  -0.541  1.00  0.00    -0.245 OA
BRANCH   6   8
ATOM      8  C   UNL     1      -1.133   2.054   0.061  1.00  0.00     0.195 C 
ATOM      9  C   UNL     1      -1.382   0.694   0.779  1.00  0.00     0.081 C 
ATOM     10  C   UNL     1      -1.822   3.162   0.880  1.00  0.00     0.096 C 
ATOM     11  C   UNL     1      -2.864   0.399   1.039  1.00  0.00     0.008 C 
ATOM     12  C   UNL     1      -3.296   2.892   1.180  1.00  0.00     0.061 C 
ATOM     13  C   UNL     1      -3.527   1.523   1.830  1.00  0.00     0.015 C 
BRANCH   8  14
ATOM     14  N   UNL     1      -1.638   1.887  -1.340  1.00  0.00    -0.335 N 
ATOM     15  C   UNL     1      -1.690   3.098  -2.148  1.00  0.00     0.331 C 
ATOM     16  H   UNL     1      -1.028   1.221  -1.815  1.00  0.00     0.347 HD
ATOM     17  H   UNL     1      -2.605   1.575  -1.249  1.00  0.00     0.347 HD
ENDBRANCH   8  14
BRANCH  12  18
ATOM     18  S   UNL     1      -4.060   4.238   2.169  1.00  0.00    -0.084 SA
BRANCH  18  19
ATOM     19  C   UNL     1      -3.189   4.140   3.666  1.00  0.00     0.167 A 
ATOM     20  N   UNL     1      -1.884   4.221   3.779  1.00  0.00    -0.231 NA
ATOM     21  N   UNL     1      -3.784   3.948   4.883  1.00  0.00    -0.329 N 
ATOM     22  C   UNL     1      -1.615   4.019   5.107  1.00  0.00     0.132 A 
ATOM     23  C   UNL     1      -2.781   3.843   5.812  1.00  0.00     0.108 A 
ATOM     24  C   UNL     1      -5.185   3.850   5.203  1.00  0.00     0.152 C 
ENDBRANCH  18  19
ENDBRANCH  12  18
ENDBRANCH   6   8
ENDBRANCH   5   6
ENDBRANCH   4   5
ENDBRANCH   3   4
ENDBRANCH   2   3
ENDBRANCH   1   2
BRANCH   1  25
ATOM     25  C   UNL     1       1.670  -1.692  -1.325  1.00  0.00     0.261 C 
BRANCH  25  26
ATOM     26  O   UNL     1       1.879  -1.976   0.071  1.00  0.00    -0.460 OA
BRANCH  26  27
ATOM     27  C   UNL     1       3.039  -2.614   0.353  1.00  0.00     0.338 C 
ATOM     28  O   UNL     1       3.865  -3.032  -0.452  1.00  0.00    -0.246 OA
BRANCH  27  29
ATOM     29  C   UNL     1       3.301  -2.594   1.802  1.00  0.00     0.060 A 
ATOM     30  C   UNL     1       4.523  -2.056   2.229  1.00  0.00     0.016 A 
ATOM     31  C   UNL     1       2.422  -3.172   2.719  1.00  0.00     0.016 A 
ATOM     32  C   UNL     1       4.897  -2.146   3.568  1.00  0.00     0.010 A 
ATOM     33  C   UNL     1       2.804  -3.271   4.062  1.00  0.00     0.010 A 
ATOM     34  C   UNL     1       4.060  -2.796   4.483  1.00  0.00    -0.014 A 
BRANCH  34  35
ATOM     35  C   UNL     1       4.571  -3.111   5.839  1.00  0.00     0.031 A 
ATOM     36  C   UNL     1       5.093  -4.494   6.120  1.00  0.00     0.074 A 
ATOM     37  C   UNL     1       4.588  -2.173   6.803  1.00  0.00     0.049 A 
ATOM     38  N   UNL     1       5.581  -4.985   7.229  1.00  0.00    -0.248 NA
ATOM     39  C   UNL     1       5.060  -5.451   5.002  1.00  0.00     0.031 C 
ATOM     40  C   UNL     1       4.114  -0.799   6.652  1.00  0.00     0.029 A 
ATOM     41  N   UNL     1       5.002  -2.247   8.110  1.00  0.00    -0.354 N 
ATOM     42  C   UNL     1       5.890  -6.311   6.952  1.00  0.00     0.074 A 
ATOM     43  C   UNL     1       5.522  -6.553   5.574  1.00  0.00     0.031 C 
ATOM     44  C   UNL     1       4.236  -0.165   7.831  1.00  0.00     0.029 A 
ATOM     45  C   UNL     1       4.778  -1.093   8.822  1.00  0.00     0.049 A 
ATOM     46  H   UNL     1       5.418  -3.049   8.500  1.00  0.00     0.167 HD
ATOM     47  C   UNL     1       6.449  -7.240   7.764  1.00  0.00     0.034 A 
ATOM     48  C   UNL     1       4.972  -0.823  10.129  1.00  0.00     0.034 A 
ATOM     49  C   UNL     1       6.836  -6.993   9.127  1.00  0.00     0.049 A 
ATOM     50  C   UNL     1       5.579  -1.878  11.017  1.00  0.00     0.074 A 
ATOM     51  C   UNL     1       7.450  -7.856  10.017  1.00  0.00     0.029 A 
ATOM     52  N   UNL     1       6.637  -5.798   9.801  1.00  0.00    -0.354 N 
ATOM     53  N   UNL     1       5.980  -3.088  10.707  1.00  0.00    -0.248 NA
ATOM     54  C   UNL     1       5.792  -1.520  12.427  1.00  0.00     0.031 C 
ATOM     55  C   UNL     1       7.604  -7.188  11.237  1.00  0.00     0.029 A 
ATOM     56  C   UNL     1       7.106  -5.903  11.099  1.00  0.00     0.049 A 
ATOM     57  H   UNL     1       6.223  -4.993   9.413  1.00  0.00     0.167 HD
ATOM     58  C   UNL     1       6.522  -3.622  11.872  1.00  0.00     0.074 A 
ATOM     59  C   UNL     1       6.417  -2.595  12.889  1.00  0.00     0.031 C 
ATOM     60  C   UNL     1       7.046  -4.854  12.085  1.00  0.00     0.034 A 
BRANCH  47  61
ATOM     61  C   UNL     1       6.707  -8.607   7.188  1.00  0.00     0.023 A 
ATOM     62  C   UNL     1       7.768  -8.787   6.277  1.00  0.00     0.012 A 
ATOM     63  C   UNL     1       5.939  -9.718   7.585  1.00  0.00     0.148 A 
ATOM     64  C   UNL     1       8.043 -10.048   5.749  1.00  0.00     0.002 A 
ATOM     65  C   UNL     1       6.245 -10.979   7.086  1.00  0.00     0.091 A 
ATOM     66  F   UNL     1       4.919  -9.521   8.432  1.00  0.00    -0.205 F 
ATOM     67  C   UNL     1       7.289 -11.144   6.161  1.00  0.00     0.022 A 
BRANCH  65  68
ATOM     68  S   UNL     1       5.378 -12.462   7.611  1.00  0.00     0.127 S 
ATOM     69  O   UNL     1       4.575 -12.769   6.428  1.00  0.00    -0.237 OA
ATOM     70  O   UNL     1       6.479 -13.393   7.858  1.00  0.00    -0.237 OA
ATOM     71  O   UNL     1       4.624 -12.086   8.799  1.00  0.00    -0.744 OA
ENDBRANCH  65  68
ENDBRANCH  47  61
BRANCH  48  72
ATOM     72  C   UNL     1       4.621   0.521  10.668  1.00  0.00     0.023 A 
ATOM     73  C   UNL     1       5.645   1.399  11.073  1.00  0.00     0.012 A 
ATOM     74  C   UNL     1       3.280   0.942  10.759  1.00  0.00     0.148 A 
ATOM     75  C   UNL     1       5.338   2.661  11.584  1.00  0.00     0.002 A 
ATOM     76  C   UNL     1       2.984   2.221  11.218  1.00  0.00     0.091 A 
ATOM     77  F   UNL     1       2.318   0.085  10.389  1.00  0.00    -0.205 F 
ATOM     78  C   UNL     1       4.011   3.076  11.646  1.00  0.00     0.022 A 
BRANCH  76  79
ATOM     79  S   UNL     1       1.312   2.880  11.208  1.00  0.00     0.127 S 
ATOM     80  O   UNL     1       0.978   2.874  12.629  1.00  0.00    -0.237 OA
ATOM     81  O   UNL     1       1.513   4.209  10.627  1.00  0.00    -0.237 OA
ATOM     82  O   UNL     1       0.538   1.975  10.369  1.00  0.00    -0.744 OA
ENDBRANCH  76  79
ENDBRANCH  48  72
BRANCH  60  83
ATOM     83  C   UNL     1       7.576  -5.164  13.462  1.00  0.00     0.023 A 
ATOM     84  C   UNL     1       6.676  -5.383  14.523  1.00  0.00     0.012 A 
ATOM     85  C   UNL     1       8.959  -5.319  13.684  1.00  0.00     0.148 A 
ATOM     86  C   UNL     1       7.146  -5.723  15.792  1.00  0.00     0.002 A 
ATOM     87  C   UNL     1       9.417  -5.702  14.939  1.00  0.00     0.091 A 
ATOM     88  F   UNL     1       9.801  -5.088  12.666  1.00  0.00    -0.205 F 
ATOM     89  C   UNL     1       8.513  -5.894  15.997  1.00  0.00     0.022 A 
BRANCH  87  90
ATOM     90  S   UNL     1      11.151  -6.037  15.269  1.00  0.00     0.127 S 
ATOM     91  O   UNL     1      11.541  -4.858  16.040  1.00  0.00    -0.237 OA
ATOM     92  O   UNL     1      11.088  -7.278  16.043  1.00  0.00    -0.237 OA
ATOM     93  O   UNL     1      11.787  -6.172  13.965  1.00  0.00    -0.744 OA
ENDBRANCH  87  90
ENDBRANCH  60  83
ENDBRANCH  34  35
ENDBRANCH  27  29
ENDBRANCH  26  27
ENDBRANCH  25  26
ENDBRANCH   1  25
TORSDOF 20
