REMARK SMILES Cc1c(C(=O)OCCOCCOC(=O)c2ccc(-c3c4nc(c(-c5cccc(S(=O)(=O)[O-])c5F)c5ccc([nH]5)c(-c5cccc(S(=O)(=O)[O-])c5F)c5nc(c(-c6cccc(S(=O)(=O)[O-])c6F)c6ccc3[nH]6)C=C5)C=C4)cc2)oc2c1/C(=N/NC(=O)C(c1ccccc1)c1ccccc1)CCC2
REMARK SMILES IDX 9 1 8 2 7 3 6 4 4 5 5 6 3 7 1 8 2 9 80 10 78 11 79 12 81 13
REMARK SMILES IDX 101 14 82 15 99 16 100 17 83 18 84 19 85 21 86 22 87 23
REMARK SMILES IDX 88 24 92 25 89 26 91 27 90 28 93 29 94 30 98 31 95 32 97 33
REMARK SMILES IDX 96 34 10 35 11 36 12 37 13 38 14 39 15 40 16 41 77 42 17 43
REMARK SMILES IDX 76 44 18 45 19 46 20 47 70 48 21 49 75 50 69 51 71 52 22 53
REMARK SMILES IDX 74 54 68 55 67 56 23 58 55 59 35 60 54 61 36 62 39 63 53 64
REMARK SMILES IDX 72 65 37 66 38 67 52 69 73 70 40 71 24 72 25 73 33 74 26 75
REMARK SMILES IDX 28 76 34 77 27 78 29 79 30 80 31 81 32 82 56 83 57 84 65 85
REMARK SMILES IDX 58 86 60 87 66 88 59 89 61 90 62 91 63 92 64 93 41 94 42 95
REMARK SMILES IDX 50 96 43 97 45 98 51 99 44 100 46 101 47 102 48 103 49 104
REMARK H PARENT 83 20 71 57 39 68
REMARK Flexibility Score: inf
ROOT
ATOM      1  O   UNL     1       3.847  -3.248   2.686  1.00  0.00    -0.374 OA
ENDROOT
BRANCH   1   2
ATOM      2  C   UNL     1       3.316  -4.575   2.769  1.00  0.00     0.202 C 
BRANCH   2   3
ATOM      3  C   UNL     1       1.833  -4.655   3.140  1.00  0.00     0.261 C 
BRANCH   3   4
ATOM      4  O   UNL     1       1.020  -4.177   2.069  1.00  0.00    -0.457 OA
BRANCH   4   5
ATOM      5  C   UNL     1       0.745  -2.832   2.039  1.00  0.00     0.374 C 
ATOM      6  O   UNL     1       0.834  -2.072   2.968  1.00  0.00    -0.242 OA
BRANCH   5   7
ATOM      7  C   UNL     1       0.466  -2.497   0.653  1.00  0.00     0.215 A 
ATOM      8  C   UNL     1       0.839   0.043   0.412  1.00  0.00     0.049 C 
ATOM      9  C   UNL     1       0.463  -1.305  -0.080  1.00  0.00     0.012 A 
ATOM     10  C   UNL     1       0.027  -1.676  -1.389  1.00  0.00     0.043 A 
ATOM     11  O   UNL     1       0.265  -3.557  -0.176  1.00  0.00    -0.453 OA
ATOM     12  C   UNL     1       0.047  -3.063  -1.391  1.00  0.00     0.114 A 
ATOM     13  C   UNL     1      -0.480  -1.002  -2.587  1.00  0.00     0.072 C 
ATOM     14  C   UNL     1      -0.274  -4.041  -2.453  1.00  0.00     0.076 C 
ATOM     15  N   UNL     1      -0.444   0.290  -2.709  1.00  0.00    -0.177 NA
ATOM     16  C   UNL     1      -1.159  -1.989  -3.467  1.00  0.00     0.059 C 
ATOM     17  C   UNL     1      -0.417  -3.278  -3.752  1.00  0.00     0.014 C 
BRANCH  15  18
ATOM     18  N   UNL     1      -0.977   1.140  -3.669  1.00  0.00    -0.246 N 
ATOM     19  C   UNL     1      -1.807   1.207  -4.773  1.00  0.00     0.252 C 
ATOM     20  H   UNL     1      -0.630   2.045  -3.497  1.00  0.00     0.193 HD
ATOM     21  O   UNL     1      -1.998   2.364  -5.201  1.00  0.00    -0.272 OA
BRANCH  19  22
ATOM     22  C   UNL     1      -2.537   0.040  -5.536  1.00  0.00     0.140 C 
BRANCH  22  23
ATOM     23  C   UNL     1      -1.449  -0.765  -6.343  1.00  0.00    -0.031 A 
ATOM     24  C   UNL     1      -1.627  -2.060  -6.858  1.00  0.00     0.005 A 
ATOM     25  C   UNL     1      -0.134  -0.235  -6.441  1.00  0.00     0.005 A 
ATOM     26  C   UNL     1      -0.517  -2.849  -7.220  1.00  0.00     0.000 A 
ATOM     27  C   UNL     1       0.967  -1.021  -6.790  1.00  0.00     0.000 A 
ATOM     28  C   UNL     1       0.779  -2.346  -7.143  1.00  0.00     0.000 A 
ENDBRANCH  22  23
BRANCH  22  29
ATOM     29  C   UNL     1      -3.577  -0.584  -4.532  1.00  0.00    -0.031 A 
ATOM     30  C   UNL     1      -4.043   0.238  -3.474  1.00  0.00     0.005 A 
ATOM     31  C   UNL     1      -4.000  -1.922  -4.496  1.00  0.00     0.005 A 
ATOM     32  C   UNL     1      -4.613  -0.292  -2.314  1.00  0.00     0.000 A 
ATOM     33  C   UNL     1      -4.599  -2.457  -3.335  1.00  0.00     0.000 A 
ATOM     34  C   UNL     1      -4.844  -1.655  -2.223  1.00  0.00     0.000 A 
ENDBRANCH  22  29
ENDBRANCH  19  22
ENDBRANCH  15  18
ENDBRANCH   5   7
ENDBRANCH   4   5
ENDBRANCH   3   4
ENDBRANCH   2   3
ENDBRANCH   1   2
BRANCH   1  35
ATOM     35  C   UNL     1       3.782  -2.600   1.415  1.00  0.00     0.202 C 
BRANCH  35  36
ATOM     36  C   UNL     1       4.896  -2.899   0.432  1.00  0.00     0.261 C 
BRANCH  36  37
ATOM     37  O   UNL     1       4.728  -4.208  -0.089  1.00  0.00    -0.460 OA
BRANCH  37  38
ATOM     38  C   UNL     1       5.448  -5.167   0.527  1.00  0.00     0.338 C 
ATOM     39  O   UNL     1       6.062  -5.079   1.575  1.00  0.00    -0.246 OA
BRANCH  38  40
ATOM     40  C   UNL     1       5.532  -6.296  -0.401  1.00  0.00     0.060 A 
ATOM     41  C   UNL     1       6.582  -7.178  -0.155  1.00  0.00     0.016 A 
ATOM     42  C   UNL     1       4.846  -6.256  -1.628  1.00  0.00     0.016 A 
ATOM     43  C   UNL     1       7.124  -7.830  -1.231  1.00  0.00     0.010 A 
ATOM     44  C   UNL     1       5.398  -6.899  -2.705  1.00  0.00     0.010 A 
ATOM     45  C   UNL     1       6.582  -7.595  -2.501  1.00  0.00    -0.014 A 
BRANCH  45  46
ATOM     46  C   UNL     1       7.262  -8.201  -3.614  1.00  0.00     0.031 A 
ATOM     47  C   UNL     1       7.045  -9.657  -3.663  1.00  0.00     0.074 A 
ATOM     48  C   UNL     1       7.980  -7.495  -4.502  1.00  0.00     0.049 A 
ATOM     49  N   UNL     1       7.892 -10.576  -3.346  1.00  0.00    -0.248 NA
ATOM     50  C   UNL     1       5.670 -10.134  -3.865  1.00  0.00     0.031 C 
ATOM     51  C   UNL     1       8.019  -6.045  -4.699  1.00  0.00     0.029 A 
ATOM     52  N   UNL     1       8.732  -7.970  -5.526  1.00  0.00    -0.354 N 
ATOM     53  C   UNL     1       7.216 -11.769  -3.558  1.00  0.00     0.074 A 
ATOM     54  C   UNL     1       5.817 -11.438  -3.636  1.00  0.00     0.031 C 
ATOM     55  C   UNL     1       8.531  -5.789  -5.926  1.00  0.00     0.029 A 
ATOM     56  C   UNL     1       8.960  -7.040  -6.529  1.00  0.00     0.049 A 
ATOM     57  H   UNL     1       9.083  -8.889  -5.554  1.00  0.00     0.167 HD
ATOM     58  C   UNL     1       7.883 -12.885  -3.951  1.00  0.00     0.034 A 
ATOM     59  C   UNL     1       9.355  -7.329  -7.794  1.00  0.00     0.034 A 
ATOM     60  C   UNL     1       9.300 -12.771  -3.708  1.00  0.00     0.049 A 
ATOM     61  C   UNL     1       9.971  -8.682  -7.769  1.00  0.00     0.074 A 
ATOM     62  C   UNL     1      10.072 -12.515  -2.591  1.00  0.00     0.029 A 
ATOM     63  N   UNL     1      10.105 -12.511  -4.792  1.00  0.00    -0.354 N 
ATOM     64  N   UNL     1      11.087  -8.949  -7.149  1.00  0.00    -0.248 NA
ATOM     65  C   UNL     1       9.112  -9.829  -8.028  1.00  0.00     0.031 C 
ATOM     66  C   UNL     1      11.113 -11.659  -3.054  1.00  0.00     0.029 A 
ATOM     67  C   UNL     1      10.958 -11.501  -4.433  1.00  0.00     0.049 A 
ATOM     68  H   UNL     1      10.074 -12.966  -5.664  1.00  0.00     0.167 HD
ATOM     69  C   UNL     1      10.860 -10.177  -6.538  1.00  0.00     0.074 A 
ATOM     70  C   UNL     1       9.673 -10.717  -7.201  1.00  0.00     0.031 C 
ATOM     71  C   UNL     1      11.461 -10.506  -5.356  1.00  0.00     0.034 A 
BRANCH  58  72
ATOM     72  C   UNL     1       7.313 -13.902  -4.903  1.00  0.00     0.023 A 
ATOM     73  C   UNL     1       8.038 -15.098  -5.082  1.00  0.00     0.012 A 
ATOM     74  C   UNL     1       6.267 -13.641  -5.819  1.00  0.00     0.148 A 
ATOM     75  C   UNL     1       7.762 -15.965  -6.143  1.00  0.00     0.002 A 
ATOM     76  C   UNL     1       5.936 -14.550  -6.814  1.00  0.00     0.091 A 
ATOM     77  F   UNL     1       5.670 -12.446  -5.841  1.00  0.00    -0.205 F 
ATOM     78  C   UNL     1       6.702 -15.699  -7.003  1.00  0.00     0.022 A 
BRANCH  76  79
ATOM     79  S   UNL     1       4.536 -14.268  -7.904  1.00  0.00     0.127 S 
ATOM     80  O   UNL     1       5.202 -13.871  -9.140  1.00  0.00    -0.237 OA
ATOM     81  O   UNL     1       3.908 -15.589  -7.931  1.00  0.00    -0.237 OA
ATOM     82  O   UNL     1       3.732 -13.243  -7.248  1.00  0.00    -0.744 OA
ENDBRANCH  76  79
ENDBRANCH  58  72
BRANCH  59  83
ATOM     83  C   UNL     1       8.954  -6.662  -9.055  1.00  0.00     0.023 A 
ATOM     84  C   UNL     1       9.708  -6.869 -10.226  1.00  0.00     0.012 A 
ATOM     85  C   UNL     1       7.691  -6.038  -9.181  1.00  0.00     0.148 A 
ATOM     86  C   UNL     1       9.213  -6.485 -11.480  1.00  0.00     0.002 A 
ATOM     87  C   UNL     1       7.210  -5.644 -10.425  1.00  0.00     0.091 A 
ATOM     88  F   UNL     1       6.916  -5.916  -8.095  1.00  0.00    -0.205 F 
ATOM     89  C   UNL     1       7.964  -5.877 -11.580  1.00  0.00     0.022 A 
BRANCH  87  90
ATOM     90  S   UNL     1       5.599  -4.867 -10.619  1.00  0.00     0.127 S 
ATOM     91  O   UNL     1       5.910  -3.739 -11.498  1.00  0.00    -0.237 OA
ATOM     92  O   UNL     1       4.821  -5.934 -11.241  1.00  0.00    -0.237 OA
ATOM     93  O   UNL     1       5.178  -4.478  -9.278  1.00  0.00    -0.744 OA
ENDBRANCH  87  90
ENDBRANCH  59  83
BRANCH  71  94
ATOM     94  C   UNL     1      12.557  -9.610  -4.832  1.00  0.00     0.023 A 
ATOM     95  C   UNL     1      12.334  -8.256  -4.503  1.00  0.00     0.012 A 
ATOM     96  C   UNL     1      13.786 -10.195  -4.482  1.00  0.00     0.148 A 
ATOM     97  C   UNL     1      13.319  -7.500  -3.862  1.00  0.00     0.002 A 
ATOM     98  C   UNL     1      14.745  -9.455  -3.801  1.00  0.00     0.091 A 
ATOM     99  F   UNL     1      13.986 -11.485  -4.796  1.00  0.00    -0.205 F 
ATOM    100  C   UNL     1      14.520  -8.104  -3.497  1.00  0.00     0.022 A 
BRANCH  98 101
ATOM    101  S   UNL     1      16.250 -10.215  -3.189  1.00  0.00     0.127 S 
ATOM    102  O   UNL     1      17.244  -9.739  -4.148  1.00  0.00    -0.237 OA
ATOM    103  O   UNL     1      16.372  -9.641  -1.847  1.00  0.00    -0.237 OA
ATOM    104  O   UNL     1      16.004 -11.652  -3.198  1.00  0.00    -0.744 OA
ENDBRANCH  98 101
ENDBRANCH  71  94
ENDBRANCH  45  46
ENDBRANCH  38  40
ENDBRANCH  37  38
ENDBRANCH  36  37
ENDBRANCH  35  36
ENDBRANCH   1  35
TORSDOF 21
