REMARK SMILES CC(C)N1C[C@@H](C(=O)N2CCC(C(=O)OCCOCCOC(=O)c3ccc(-c4c5nc(c(-c6cccc(S(=O)(=O)[O-])c6F)c6ccc([nH]6)c(-c6cccc(S(=O)(=O)[O-])c6F)c6nc(c(-c7cccc(S(=O)(=O)[O-])c7F)c7ccc4[nH]7)C=C6)C=C5)cc3)CC2)CC1=O
REMARK SMILES IDX 19 1 18 2 17 3 16 4 15 5 13 6 14 7 12 8 7 9 8 10 9 11 10 12
REMARK SMILES IDX 88 13 11 14 87 15 6 16 4 17 5 18 90 19 89 20 91 21 2 22 1 23
REMARK SMILES IDX 3 24 20 25 21 26 22 27 23 28 24 29 25 30 86 31 26 32 85 33
REMARK SMILES IDX 27 34 28 35 29 36 79 37 30 38 84 39 78 40 80 41 31 42 83 43
REMARK SMILES IDX 77 44 76 45 32 47 64 48 44 49 63 50 45 51 48 52 62 53 81 54
REMARK SMILES IDX 46 55 47 56 61 58 82 59 49 60 33 61 34 62 42 63 35 64 37 65
REMARK SMILES IDX 43 66 36 67 38 68 39 69 40 70 41 71 65 72 66 73 74 74 67 75
REMARK SMILES IDX 69 76 75 77 68 78 70 79 71 80 72 81 73 82 50 83 51 84 59 85
REMARK SMILES IDX 52 86 54 87 60 88 53 89 55 90 56 91 57 92 58 93
REMARK H PARENT 80 46 48 57
REMARK Flexibility Score: inf
ROOT
ATOM      1  C   UNL     1      -7.905  -3.389   6.334  1.00  0.00     0.202 C 
ENDROOT
BRANCH   1   2
ATOM      2  O   UNL     1      -9.105  -2.816   6.848  1.00  0.00    -0.374 OA
BRANCH   2   3
ATOM      3  C   UNL     1      -9.937  -2.098   5.936  1.00  0.00     0.202 C 
BRANCH   3   4
ATOM      4  C   UNL     1      -9.479  -0.691   5.546  1.00  0.00     0.261 C 
BRANCH   4   5
ATOM      5  O   UNL     1      -8.244  -0.720   4.810  1.00  0.00    -0.463 OA
BRANCH   5   6
ATOM      6  C   UNL     1      -7.169  -0.184   5.439  1.00  0.00     0.309 C 
ATOM      7  O   UNL     1      -7.189   0.371   6.532  1.00  0.00    -0.252 OA
BRANCH   6   8
ATOM      8  C   UNL     1      -5.890  -0.329   4.643  1.00  0.00     0.103 C 
ATOM      9  C   UNL     1      -4.068  -0.179   0.936  1.00  0.00     0.227 C 
ATOM     10  O   UNL     1      -4.567  -1.083   0.253  1.00  0.00    -0.274 OA
ATOM     11  N   UNL     1      -4.187  -0.217   2.314  1.00  0.00    -0.342 N 
ATOM     12  C   UNL     1      -4.489  -1.508   2.938  1.00  0.00     0.120 C 
ATOM     13  C   UNL     1      -4.244   0.920   3.225  1.00  0.00     0.120 C 
ATOM     14  C   UNL     1      -5.838  -1.495   3.649  1.00  0.00     0.037 C 
ATOM     15  C   UNL     1      -5.602   0.984   3.922  1.00  0.00     0.037 C 
BRANCH   9  16
ATOM     16  C   UNL     1      -3.094   0.760   0.228  1.00  0.00     0.107 C 
ATOM     17  N   UNL     1      -0.833   1.435   0.351  1.00  0.00    -0.339 N 
ATOM     18  C   UNL     1      -1.686   0.289   0.554  1.00  0.00     0.133 C 
ATOM     19  C   UNL     1      -1.577   2.607   0.415  1.00  0.00     0.223 C 
ATOM     20  C   UNL     1      -3.050   2.269   0.377  1.00  0.00     0.115 C 
ATOM     21  O   UNL     1      -1.147   3.746   0.513  1.00  0.00    -0.275 OA
BRANCH  17  22
ATOM     22  C   UNL     1       0.630   1.351   0.502  1.00  0.00     0.078 C 
ATOM     23  C   UNL     1       1.190   0.003   0.024  1.00  0.00     0.031 C 
ATOM     24  C   UNL     1       1.381   2.468  -0.231  1.00  0.00     0.031 C 
ENDBRANCH  17  22
ENDBRANCH   9  16
ENDBRANCH   6   8
ENDBRANCH   5   6
ENDBRANCH   4   5
ENDBRANCH   3   4
ENDBRANCH   2   3
ENDBRANCH   1   2
BRANCH   1  25
ATOM     25  C   UNL     1      -8.041  -4.651   5.472  1.00  0.00     0.261 C 
BRANCH  25  26
ATOM     26  O   UNL     1      -8.738  -4.410   4.238  1.00  0.00    -0.460 OA
BRANCH  26  27
ATOM     27  C   UNL     1      -9.950  -5.009   4.150  1.00  0.00     0.338 C 
ATOM     28  O   UNL     1     -10.455  -5.768   4.970  1.00  0.00    -0.246 OA
BRANCH  27  29
ATOM     29  C   UNL     1     -10.707  -4.489   2.998  1.00  0.00     0.060 A 
ATOM     30  C   UNL     1     -11.987  -3.978   3.249  1.00  0.00     0.016 A 
ATOM     31  C   UNL     1     -10.224  -4.583   1.691  1.00  0.00     0.016 A 
ATOM     32  C   UNL     1     -12.814  -3.613   2.190  1.00  0.00     0.010 A 
ATOM     33  C   UNL     1     -11.061  -4.224   0.627  1.00  0.00     0.010 A 
ATOM     34  C   UNL     1     -12.373  -3.777   0.871  1.00  0.00    -0.014 A 
BRANCH  34  35
ATOM     35  C   UNL     1     -13.339  -3.619  -0.243  1.00  0.00     0.031 A 
ATOM     36  C   UNL     1     -13.960  -4.846  -0.855  1.00  0.00     0.074 A 
ATOM     37  C   UNL     1     -13.685  -2.396  -0.685  1.00  0.00     0.049 A 
ATOM     38  N   UNL     1     -14.825  -4.938  -1.830  1.00  0.00    -0.248 NA
ATOM     39  C   UNL     1     -13.552  -6.143  -0.289  1.00  0.00     0.031 C 
ATOM     40  C   UNL     1     -13.166  -1.133  -0.163  1.00  0.00     0.029 A 
ATOM     41  N   UNL     1     -14.546  -2.020  -1.685  1.00  0.00    -0.354 N 
ATOM     42  C   UNL     1     -15.051  -6.297  -2.010  1.00  0.00     0.074 A 
ATOM     43  C   UNL     1     -14.220  -6.995  -1.053  1.00  0.00     0.031 C 
ATOM     44  C   UNL     1     -13.705  -0.119  -0.862  1.00  0.00     0.029 A 
ATOM     45  C   UNL     1     -14.589  -0.662  -1.893  1.00  0.00     0.049 A 
ATOM     46  H   UNL     1     -15.082  -2.662  -2.205  1.00  0.00     0.167 HD
ATOM     47  C   UNL     1     -15.890  -6.910  -2.879  1.00  0.00     0.034 A 
ATOM     48  C   UNL     1     -15.253   0.058  -2.818  1.00  0.00     0.034 A 
ATOM     49  C   UNL     1     -16.729  -6.216  -3.818  1.00  0.00     0.049 A 
ATOM     50  C   UNL     1     -16.154  -0.650  -3.796  1.00  0.00     0.074 A 
ATOM     51  C   UNL     1     -17.632  -6.748  -4.721  1.00  0.00     0.029 A 
ATOM     52  N   UNL     1     -16.764  -4.840  -3.981  1.00  0.00    -0.354 N 
ATOM     53  N   UNL     1     -16.433  -1.928  -3.887  1.00  0.00    -0.248 NA
ATOM     54  C   UNL     1     -16.858   0.187  -4.780  1.00  0.00     0.031 C 
ATOM     55  C   UNL     1     -18.200  -5.694  -5.444  1.00  0.00     0.029 A 
ATOM     56  C   UNL     1     -17.668  -4.504  -4.974  1.00  0.00     0.049 A 
ATOM     57  H   UNL     1     -16.225  -4.197  -3.466  1.00  0.00     0.167 HD
ATOM     58  C   UNL     1     -17.368  -2.044  -4.910  1.00  0.00     0.074 A 
ATOM     59  C   UNL     1     -17.623  -0.704  -5.396  1.00  0.00     0.031 C 
ATOM     60  C   UNL     1     -17.953  -3.161  -5.411  1.00  0.00     0.034 A 
BRANCH  47  61
ATOM     61  C   UNL     1     -15.969  -8.414  -2.831  1.00  0.00     0.023 A 
ATOM     62  C   UNL     1     -16.643  -9.038  -1.761  1.00  0.00     0.012 A 
ATOM     63  C   UNL     1     -15.432  -9.204  -3.866  1.00  0.00     0.148 A 
ATOM     64  C   UNL     1     -16.758 -10.426  -1.708  1.00  0.00     0.002 A 
ATOM     65  C   UNL     1     -15.586 -10.585  -3.826  1.00  0.00     0.091 A 
ATOM     66  F   UNL     1     -14.776  -8.592  -4.862  1.00  0.00    -0.205 F 
ATOM     67  C   UNL     1     -16.240 -11.198  -2.745  1.00  0.00     0.022 A 
BRANCH  65  68
ATOM     68  S   UNL     1     -15.017 -11.661  -5.147  1.00  0.00     0.127 S 
ATOM     69  O   UNL     1     -13.889 -12.339  -4.510  1.00  0.00    -0.237 OA
ATOM     70  O   UNL     1     -16.187 -12.510  -5.378  1.00  0.00    -0.237 OA
ATOM     71  O   UNL     1     -14.674 -10.786  -6.259  1.00  0.00    -0.744 OA
ENDBRANCH  65  68
ENDBRANCH  47  61
BRANCH  48  72
ATOM     72  C   UNL     1     -15.127   1.543  -2.833  1.00  0.00     0.023 A 
ATOM     73  C   UNL     1     -16.229   2.336  -2.459  1.00  0.00     0.012 A 
ATOM     74  C   UNL     1     -13.918   2.171  -3.189  1.00  0.00     0.148 A 
ATOM     75  C   UNL     1     -16.137   3.729  -2.464  1.00  0.00     0.002 A 
ATOM     76  C   UNL     1     -13.816   3.556  -3.139  1.00  0.00     0.091 A 
ATOM     77  F   UNL     1     -12.886   1.398  -3.559  1.00  0.00    -0.205 F 
ATOM     78  C   UNL     1     -14.929   4.338  -2.793  1.00  0.00     0.022 A 
BRANCH  76  79
ATOM     79  S   UNL     1     -12.267   4.420  -3.422  1.00  0.00     0.127 S 
ATOM     80  O   UNL     1     -12.527   5.095  -4.691  1.00  0.00    -0.237 OA
ATOM     81  O   UNL     1     -12.198   5.303  -2.256  1.00  0.00    -0.237 OA
ATOM     82  O   UNL     1     -11.240   3.388  -3.453  1.00  0.00    -0.744 OA
ENDBRANCH  76  79
ENDBRANCH  48  72
BRANCH  60  83
ATOM     83  C   UNL     1     -18.956  -2.990  -6.523  1.00  0.00     0.023 A 
ATOM     84  C   UNL     1     -18.513  -2.664  -7.820  1.00  0.00     0.012 A 
ATOM     85  C   UNL     1     -20.326  -3.234  -6.301  1.00  0.00     0.148 A 
ATOM     86  C   UNL     1     -19.422  -2.554  -8.872  1.00  0.00     0.002 A 
ATOM     87  C   UNL     1     -21.219  -3.168  -7.364  1.00  0.00     0.091 A 
ATOM     88  F   UNL     1     -20.731  -3.526  -5.056  1.00  0.00    -0.205 F 
ATOM     89  C   UNL     1     -20.771  -2.818  -8.647  1.00  0.00     0.022 A 
BRANCH  87  90
ATOM     90  S   UNL     1     -22.959  -3.583  -7.186  1.00  0.00     0.127 S 
ATOM     91  O   UNL     1     -23.587  -2.265  -7.249  1.00  0.00    -0.237 OA
ATOM     92  O   UNL     1     -23.198  -4.429  -8.356  1.00  0.00    -0.237 OA
ATOM     93  O   UNL     1     -23.077  -4.274  -5.909  1.00  0.00    -0.744 OA
ENDBRANCH  87  90
ENDBRANCH  60  83
ENDBRANCH  34  35
ENDBRANCH  27  29
ENDBRANCH  26  27
ENDBRANCH  25  26
ENDBRANCH   1  25
TORSDOF 19
