REMARK SMILES C=CCN(CC(=O)OCCOCCOC(=O)c1ccc(-c2c3nc(c(-c4cccc(S(=O)(=O)[O-])c4F)c4ccc([nH]4)c(-c4cccc(S(=O)(=O)[O-])c4F)c4nc(c(-c5cccc(S(=O)(=O)[O-])c5F)c5ccc2[nH]5)C=C4)C=C3)cc1)C(=O)/C=C/c1ccc(OC)cc1
REMARK SMILES IDX 10 1 9 2 8 3 6 4 7 5 5 6 4 7 3 8 2 9 1 10 80 11 81 12 82 13
REMARK SMILES IDX 83 14 84 15 85 16 91 17 86 18 90 19 87 20 88 21 89 22 11 23
REMARK SMILES IDX 12 24 13 25 14 26 15 27 16 28 17 29 18 30 79 31 19 32 78 33
REMARK SMILES IDX 20 34 21 35 22 36 72 37 23 38 77 39 71 40 73 41 24 42 76 43
REMARK SMILES IDX 70 44 69 45 25 47 57 48 37 49 56 50 38 51 41 52 55 53 74 54
REMARK SMILES IDX 39 55 40 56 54 58 75 59 42 60 26 61 27 62 35 63 28 64 30 65
REMARK SMILES IDX 36 66 29 67 31 68 32 69 33 70 34 71 58 72 59 73 67 74 60 75
REMARK SMILES IDX 62 76 68 77 61 78 63 79 64 80 65 81 66 82 43 83 44 84 52 85
REMARK SMILES IDX 45 86 47 87 53 88 46 89 48 90 49 91 50 92 51 93
REMARK H PARENT 73 46 41 57
REMARK Flexibility Score: inf
ROOT
ATOM      1  C   UNL     1      -6.091   0.736  -2.676  1.00  0.00     0.202 C 
ENDROOT
BRANCH   1   2
ATOM      2  C   UNL     1      -5.865  -0.771  -2.488  1.00  0.00     0.261 C 
BRANCH   2   3
ATOM      3  O   UNL     1      -4.471  -1.055  -2.218  1.00  0.00    -0.462 OA
BRANCH   3   4
ATOM      4  C   UNL     1      -3.870  -1.966  -3.029  1.00  0.00     0.325 C 
ATOM      5  O   UNL     1      -4.455  -2.651  -3.862  1.00  0.00    -0.250 OA
BRANCH   4   6
ATOM      6  C   UNL     1      -2.381  -2.167  -2.716  1.00  0.00     0.242 C 
BRANCH   6   7
ATOM      7  N   UNL     1      -1.563  -1.010  -2.327  1.00  0.00    -0.324 N 
BRANCH   7   8
ATOM      8  C   UNL     1      -1.317  -0.841  -0.892  1.00  0.00     0.147 C 
BRANCH   8   9
ATOM      9  C   UNL     1       0.128  -1.133  -0.587  1.00  0.00    -0.014 C 
ATOM     10  C   UNL     1       0.911  -0.320   0.138  1.00  0.00     0.006 C 
ENDBRANCH   8   9
ENDBRANCH   7   8
BRANCH   7  11
ATOM     11  C   UNL     1      -0.998  -0.069  -3.173  1.00  0.00     0.247 C 
ATOM     12  O   UNL     1      -0.263   0.832  -2.754  1.00  0.00    -0.270 OA
BRANCH  11  13
ATOM     13  C   UNL     1      -1.350   0.062  -4.620  1.00  0.00     0.072 C 
ATOM     14  C   UNL     1      -1.941  -0.729  -5.527  1.00  0.00     0.014 C 
BRANCH  14  15
ATOM     15  C   UNL     1      -2.476  -0.167  -6.784  1.00  0.00    -0.025 A 
ATOM     16  C   UNL     1      -3.811  -0.457  -7.099  1.00  0.00     0.012 A 
ATOM     17  C   UNL     1      -1.767   0.712  -7.611  1.00  0.00     0.012 A 
ATOM     18  C   UNL     1      -4.429   0.141  -8.199  1.00  0.00     0.047 A 
ATOM     19  C   UNL     1      -2.387   1.298  -8.727  1.00  0.00     0.047 A 
ATOM     20  C   UNL     1      -3.719   1.008  -9.027  1.00  0.00     0.118 A 
BRANCH  20  21
ATOM     21  O   UNL     1      -4.441   1.514 -10.072  1.00  0.00    -0.497 OA
ATOM     22  C   UNL     1      -3.707   2.157 -11.103  1.00  0.00     0.278 C 
ENDBRANCH  20  21
ENDBRANCH  14  15
ENDBRANCH  11  13
ENDBRANCH   7  11
ENDBRANCH   6   7
ENDBRANCH   4   6
ENDBRANCH   3   4
ENDBRANCH   2   3
ENDBRANCH   1   2
BRANCH   1  23
ATOM     23  O   UNL     1      -5.586   1.286  -3.897  1.00  0.00    -0.374 OA
BRANCH  23  24
ATOM     24  C   UNL     1      -4.171   1.417  -3.978  1.00  0.00     0.202 C 
BRANCH  24  25
ATOM     25  C   UNL     1      -3.560   2.767  -3.611  1.00  0.00     0.261 C 
BRANCH  25  26
ATOM     26  O   UNL     1      -3.956   3.147  -2.301  1.00  0.00    -0.460 OA
BRANCH  26  27
ATOM     27  C   UNL     1      -5.048   3.938  -2.299  1.00  0.00     0.338 C 
ATOM     28  O   UNL     1      -5.568   4.499  -3.253  1.00  0.00    -0.246 OA
BRANCH  27  29
ATOM     29  C   UNL     1      -5.659   3.869  -0.970  1.00  0.00     0.060 A 
ATOM     30  C   UNL     1      -7.053   3.783  -0.929  1.00  0.00     0.016 A 
ATOM     31  C   UNL     1      -4.891   3.876   0.201  1.00  0.00     0.016 A 
ATOM     32  C   UNL     1      -7.697   3.806   0.293  1.00  0.00     0.010 A 
ATOM     33  C   UNL     1      -5.540   3.887   1.429  1.00  0.00     0.010 A 
ATOM     34  C   UNL     1      -6.942   3.916   1.468  1.00  0.00    -0.014 A 
BRANCH  34  35
ATOM     35  C   UNL     1      -7.652   4.257   2.711  1.00  0.00     0.031 A 
ATOM     36  C   UNL     1      -7.634   5.685   3.171  1.00  0.00     0.074 A 
ATOM     37  C   UNL     1      -8.355   3.312   3.353  1.00  0.00     0.049 A 
ATOM     38  N   UNL     1      -8.257   6.233   4.177  1.00  0.00    -0.248 NA
ATOM     39  C   UNL     1      -6.807   6.625   2.392  1.00  0.00     0.031 C 
ATOM     40  C   UNL     1      -8.424   1.903   2.963  1.00  0.00     0.029 A 
ATOM     41  N   UNL     1      -9.145   3.397   4.465  1.00  0.00    -0.354 N 
ATOM     42  C   UNL     1      -7.880   7.570   4.169  1.00  0.00     0.074 A 
ATOM     43  C   UNL     1      -6.958   7.750   3.072  1.00  0.00     0.031 C 
ATOM     44  C   UNL     1      -9.212   1.251   3.833  1.00  0.00     0.029 A 
ATOM     45  C   UNL     1      -9.679   2.192   4.847  1.00  0.00     0.049 A 
ATOM     46  H   UNL     1      -9.314   4.240   4.945  1.00  0.00     0.167 HD
ATOM     47  C   UNL     1      -8.284   8.560   4.997  1.00  0.00     0.034 A 
ATOM     48  C   UNL     1     -10.448   1.891   5.910  1.00  0.00     0.034 A 
ATOM     49  C   UNL     1      -9.212   8.355   6.075  1.00  0.00     0.049 A 
ATOM     50  C   UNL     1     -10.872   3.010   6.821  1.00  0.00     0.074 A 
ATOM     51  C   UNL     1      -9.727   9.286   6.957  1.00  0.00     0.029 A 
ATOM     52  N   UNL     1      -9.750   7.125   6.426  1.00  0.00    -0.354 N 
ATOM     53  N   UNL     1     -10.597   4.291   6.741  1.00  0.00    -0.248 NA
ATOM     54  C   UNL     1     -11.743   2.651   7.946  1.00  0.00     0.031 C 
ATOM     55  C   UNL     1     -10.544   8.611   7.869  1.00  0.00     0.029 A 
ATOM     56  C   UNL     1     -10.578   7.268   7.524  1.00  0.00     0.049 A 
ATOM     57  H   UNL     1      -9.569   6.276   5.962  1.00  0.00     0.167 HD
ATOM     58  C   UNL     1     -11.286   4.896   7.783  1.00  0.00     0.074 A 
ATOM     59  C   UNL     1     -12.012   3.841   8.464  1.00  0.00     0.031 C 
ATOM     60  C   UNL     1     -11.312   6.200   8.156  1.00  0.00     0.034 A 
BRANCH  47  61
ATOM     61  C   UNL     1      -7.725   9.938   4.766  1.00  0.00     0.023 A 
ATOM     62  C   UNL     1      -8.115  10.681   3.633  1.00  0.00     0.012 A 
ATOM     63  C   UNL     1      -6.836  10.514   5.695  1.00  0.00     0.148 A 
ATOM     64  C   UNL     1      -7.604  11.960   3.410  1.00  0.00     0.002 A 
ATOM     65  C   UNL     1      -6.370  11.807   5.493  1.00  0.00     0.091 A 
ATOM     66  F   UNL     1      -6.454   9.782   6.751  1.00  0.00    -0.205 F 
ATOM     67  C   UNL     1      -6.742  12.527   4.345  1.00  0.00     0.022 A 
BRANCH  65  68
ATOM     68  S   UNL     1      -5.318  12.654   6.677  1.00  0.00     0.127 S 
ATOM     69  O   UNL     1      -4.064  12.764   5.933  1.00  0.00    -0.237 OA
ATOM     70  O   UNL     1      -6.029  13.919   6.865  1.00  0.00    -0.237 OA
ATOM     71  O   UNL     1      -5.269  11.801   7.856  1.00  0.00    -0.744 OA
ENDBRANCH  65  68
ENDBRANCH  47  61
BRANCH  48  72
ATOM     72  C   UNL     1     -10.881   0.486   6.139  1.00  0.00     0.023 A 
ATOM     73  C   UNL     1     -12.237   0.136   6.003  1.00  0.00     0.012 A 
ATOM     74  C   UNL     1      -9.941  -0.513   6.462  1.00  0.00     0.148 A 
ATOM     75  C   UNL     1     -12.655  -1.178   6.218  1.00  0.00     0.002 A 
ATOM     76  C   UNL     1     -10.355  -1.829   6.616  1.00  0.00     0.091 A 
ATOM     77  F   UNL     1      -8.656  -0.156   6.596  1.00  0.00    -0.205 F 
ATOM     78  C   UNL     1     -11.715  -2.162   6.514  1.00  0.00     0.022 A 
BRANCH  76  79
ATOM     79  S   UNL     1      -9.196  -3.179   6.862  1.00  0.00     0.127 S 
ATOM     80  O   UNL     1      -9.479  -3.568   8.241  1.00  0.00    -0.237 OA
ATOM     81  O   UNL     1      -9.632  -4.138   5.847  1.00  0.00    -0.237 OA
ATOM     82  O   UNL     1      -7.875  -2.613   6.622  1.00  0.00    -0.744 OA
ENDBRANCH  76  79
ENDBRANCH  48  72
BRANCH  60  83
ATOM     83  C   UNL     1     -12.182   6.561   9.332  1.00  0.00     0.023 A 
ATOM     84  C   UNL     1     -11.816   6.157  10.631  1.00  0.00     0.012 A 
ATOM     85  C   UNL     1     -13.337   7.346   9.148  1.00  0.00     0.148 A 
ATOM     86  C   UNL     1     -12.614   6.489  11.725  1.00  0.00     0.002 A 
ATOM     87  C   UNL     1     -14.094   7.723  10.249  1.00  0.00     0.091 A 
ATOM     88  F   UNL     1     -13.675   7.707   7.902  1.00  0.00    -0.205 F 
ATOM     89  C   UNL     1     -13.744   7.281  11.536  1.00  0.00     0.022 A 
BRANCH  87  90
ATOM     90  S   UNL     1     -15.504   8.826  10.113  1.00  0.00     0.127 S 
ATOM     91  O   UNL     1     -16.620   7.911  10.346  1.00  0.00    -0.237 OA
ATOM     92  O   UNL     1     -15.258   9.777  11.197  1.00  0.00    -0.237 OA
ATOM     93  O   UNL     1     -15.436   9.402   8.777  1.00  0.00    -0.744 OA
ENDBRANCH  87  90
ENDBRANCH  60  83
ENDBRANCH  34  35
ENDBRANCH  27  29
ENDBRANCH  26  27
ENDBRANCH  25  26
ENDBRANCH  24  25
ENDBRANCH  23  24
ENDBRANCH   1  23
TORSDOF 24
