REMARK SMILES C#CCN(CC(=O)OCCOCCOC(=O)c1ccc(-c2c3nc(c(-c4cccc(S(=O)(=O)[O-])c4F)c4ccc([nH]4)c(-c4cccc(S(=O)(=O)[O-])c4F)c4nc(c(-c5cccc(S(=O)(=O)[O-])c5F)c5ccc2[nH]5)C=C4)C=C3)cc1)C(=O)c1cc([N+](=O)[O-])c(F)cc1F
REMARK SMILES IDX 10 1 9 2 8 3 6 4 7 5 5 6 4 7 3 8 2 9 1 10 80 11 81 12 82 13
REMARK SMILES IDX 83 14 91 15 84 16 90 17 92 18 88 19 89 20 85 21 86 22 87 23
REMARK SMILES IDX 11 24 12 25 13 26 14 27 15 28 16 29 17 30 18 31 79 32 19 33
REMARK SMILES IDX 78 34 20 35 21 36 22 37 72 38 23 39 77 40 71 41 73 42 24 43
REMARK SMILES IDX 76 44 70 45 69 46 25 48 57 49 37 50 56 51 38 52 41 53 55 54
REMARK SMILES IDX 74 55 39 56 40 57 54 59 75 60 42 61 26 62 27 63 35 64 28 65
REMARK SMILES IDX 30 66 36 67 29 68 31 69 32 70 33 71 34 72 58 73 59 74 67 75
REMARK SMILES IDX 60 76 62 77 68 78 61 79 63 80 64 81 65 82 66 83 43 84 44 85
REMARK SMILES IDX 52 86 45 87 47 88 53 89 46 90 48 91 49 92 50 93 51 94
REMARK H PARENT 73 47 41 58
REMARK Flexibility Score: inf
ROOT
ATOM      1  C   UNL     1      -6.865   2.239  -0.475  1.00  0.00     0.202 C 
ENDROOT
BRANCH   1   2
ATOM      2  C   UNL     1      -6.373   1.047  -1.311  1.00  0.00     0.261 C 
BRANCH   2   3
ATOM      3  O   UNL     1      -4.929   0.928  -1.253  1.00  0.00    -0.462 OA
BRANCH   3   4
ATOM      4  C   UNL     1      -4.367   0.236  -2.284  1.00  0.00     0.325 C 
ATOM      5  O   UNL     1      -5.006  -0.307  -3.180  1.00  0.00    -0.250 OA
BRANCH   4   6
ATOM      6  C   UNL     1      -2.826   0.219  -2.260  1.00  0.00     0.243 C 
BRANCH   6   7
ATOM      7  N   UNL     1      -2.151   0.886  -1.143  1.00  0.00    -0.316 N 
BRANCH   7   8
ATOM      8  C   UNL     1      -1.727   0.006  -0.025  1.00  0.00     0.210 C 
BRANCH   8   9
ATOM      9  C   UNL     1      -0.207   0.006  -0.025  1.00  0.00    -0.085 C 
ATOM     10  C   UNL     1       1.097   0.006  -0.025  1.00  0.00     0.006 C 
ENDBRANCH   8   9
ENDBRANCH   7   8
BRANCH   7  11
ATOM     11  C   UNL     1      -1.800   2.239  -1.023  1.00  0.00     0.258 C 
ATOM     12  O   UNL     1      -1.405   2.670   0.068  1.00  0.00    -0.269 OA
BRANCH  11  13
ATOM     13  C   UNL     1      -1.794   3.284  -2.106  1.00  0.00     0.082 A 
ATOM     14  C   UNL     1      -0.941   4.395  -1.867  1.00  0.00     0.105 A 
ATOM     15  C   UNL     1      -2.663   3.385  -3.193  1.00  0.00     0.139 A 
ATOM     16  C   UNL     1      -1.039   5.571  -2.632  1.00  0.00     0.305 A 
ATOM     17  C   UNL     1      -2.755   4.556  -3.958  1.00  0.00     0.086 A 
ATOM     18  F   UNL     1      -3.537   2.428  -3.505  1.00  0.00    -0.206 F 
ATOM     19  C   UNL     1      -1.959   5.654  -3.665  1.00  0.00     0.203 A 
ATOM     20  F   UNL     1      -2.114   6.761  -4.403  1.00  0.00    -0.199 F 
BRANCH  16  21
ATOM     21  N   UNL     1      -0.196   6.716  -2.313  1.00  0.00     0.065 N 
ATOM     22  O   UNL     1       0.911   6.476  -1.811  1.00  0.00    -0.258 OA
ATOM     23  O   UNL     1      -0.628   7.848  -2.558  1.00  0.00    -0.258 OA
ENDBRANCH  16  21
ENDBRANCH  11  13
ENDBRANCH   7  11
ENDBRANCH   6   7
ENDBRANCH   4   6
ENDBRANCH   3   4
ENDBRANCH   2   3
ENDBRANCH   1   2
BRANCH   1  24
ATOM     24  O   UNL     1      -6.775   3.525  -1.111  1.00  0.00    -0.374 OA
BRANCH  24  25
ATOM     25  C   UNL     1      -5.466   3.957  -1.460  1.00  0.00     0.202 C 
BRANCH  25  26
ATOM     26  C   UNL     1      -4.660   4.666  -0.367  1.00  0.00     0.261 C 
BRANCH  26  27
ATOM     27  O   UNL     1      -4.846   4.066   0.908  1.00  0.00    -0.460 OA
BRANCH  27  28
ATOM     28  C   UNL     1      -5.673   4.779   1.702  1.00  0.00     0.338 C 
ATOM     29  O   UNL     1      -6.063   5.927   1.531  1.00  0.00    -0.246 OA
BRANCH  28  30
ATOM     30  C   UNL     1      -6.229   3.894   2.726  1.00  0.00     0.060 A 
ATOM     31  C   UNL     1      -7.623   3.881   2.839  1.00  0.00     0.016 A 
ATOM     32  C   UNL     1      -5.421   3.124   3.568  1.00  0.00     0.016 A 
ATOM     33  C   UNL     1      -8.216   3.165   3.864  1.00  0.00     0.010 A 
ATOM     34  C   UNL     1      -6.022   2.400   4.597  1.00  0.00     0.010 A 
ATOM     35  C   UNL     1      -7.413   2.470   4.777  1.00  0.00    -0.014 A 
BRANCH  35  36
ATOM     36  C   UNL     1      -8.049   1.987   6.018  1.00  0.00     0.031 A 
ATOM     37  C   UNL     1      -7.944   2.834   7.253  1.00  0.00     0.074 A 
ATOM     38  C   UNL     1      -8.771   0.855   6.009  1.00  0.00     0.049 A 
ATOM     39  N   UNL     1      -8.533   2.684   8.408  1.00  0.00    -0.248 NA
ATOM     40  C   UNL     1      -7.058   4.009   7.175  1.00  0.00     0.031 C 
ATOM     41  C   UNL     1      -8.913  -0.042   4.863  1.00  0.00     0.029 A 
ATOM     42  N   UNL     1      -9.511   0.267   6.998  1.00  0.00    -0.354 N 
ATOM     43  C   UNL     1      -8.077   3.730   9.200  1.00  0.00     0.074 A 
ATOM     44  C   UNL     1      -7.146   4.496   8.403  1.00  0.00     0.031 C 
ATOM     45  C   UNL     1      -9.680  -1.084   5.223  1.00  0.00     0.029 A 
ATOM     46  C   UNL     1     -10.076  -0.925   6.621  1.00  0.00     0.049 A 
ATOM     47  H   UNL     1      -9.628   0.661   7.892  1.00  0.00     0.167 HD
ATOM     48  C   UNL     1      -8.421   4.035  10.473  1.00  0.00     0.034 A 
ATOM     49  C   UNL     1     -10.824  -1.791   7.331  1.00  0.00     0.034 A 
ATOM     50  C   UNL     1      -9.360   3.270  11.245  1.00  0.00     0.049 A 
ATOM     51  C   UNL     1     -11.215  -1.421   8.736  1.00  0.00     0.074 A 
ATOM     52  C   UNL     1      -9.833   3.517  12.520  1.00  0.00     0.029 A 
ATOM     53  N   UNL     1      -9.956   2.092  10.816  1.00  0.00    -0.354 N 
ATOM     54  N   UNL     1     -10.901  -0.348   9.423  1.00  0.00    -0.248 NA
ATOM     55  C   UNL     1     -12.100  -2.353   9.448  1.00  0.00     0.031 C 
ATOM     56  C   UNL     1     -10.693   2.471  12.874  1.00  0.00     0.029 A 
ATOM     57  C   UNL     1     -10.778   1.588  11.807  1.00  0.00     0.049 A 
ATOM     58  H   UNL     1      -9.814   1.677   9.935  1.00  0.00     0.167 HD
ATOM     59  C   UNL     1     -11.566  -0.462  10.638  1.00  0.00     0.074 A 
ATOM     60  C   UNL     1     -12.322  -1.698  10.581  1.00  0.00     0.031 C 
ATOM     61  C   UNL     1     -11.546   0.371  11.710  1.00  0.00     0.034 A 
BRANCH  48  62
ATOM     62  C   UNL     1      -7.783   5.251  11.089  1.00  0.00     0.023 A 
ATOM     63  C   UNL     1      -8.156   6.539  10.652  1.00  0.00     0.012 A 
ATOM     64  C   UNL     1      -6.818   5.121  12.106  1.00  0.00     0.148 A 
ATOM     65  C   UNL     1      -7.550   7.675  11.188  1.00  0.00     0.002 A 
ATOM     66  C   UNL     1      -6.250   6.259  12.666  1.00  0.00     0.091 A 
ATOM     67  F   UNL     1      -6.451   3.889  12.487  1.00  0.00    -0.205 F 
ATOM     68  C   UNL     1      -6.604   7.536  12.200  1.00  0.00     0.022 A 
BRANCH  66  69
ATOM     69  S   UNL     1      -5.076   6.179  14.023  1.00  0.00     0.127 S 
ATOM     70  O   UNL     1      -3.814   6.462  13.341  1.00  0.00    -0.237 OA
ATOM     71  O   UNL     1      -5.546   7.249  14.903  1.00  0.00    -0.237 OA
ATOM     72  O   UNL     1      -5.205   4.840  14.581  1.00  0.00    -0.744 OA
ENDBRANCH  66  69
ENDBRANCH  48  62
BRANCH  49  73
ATOM     73  C   UNL     1     -11.276  -3.057   6.691  1.00  0.00     0.023 A 
ATOM     74  C   UNL     1     -12.629  -3.229   6.346  1.00  0.00     0.012 A 
ATOM     75  C   UNL     1     -10.345  -4.059   6.352  1.00  0.00     0.148 A 
ATOM     76  C   UNL     1     -13.050  -4.386   5.687  1.00  0.00     0.002 A 
ATOM     77  C   UNL     1     -10.760  -5.180   5.644  1.00  0.00     0.091 A 
ATOM     78  F   UNL     1      -9.064  -3.880   6.704  1.00  0.00    -0.205 F 
ATOM     79  C   UNL     1     -12.115  -5.353   5.324  1.00  0.00     0.022 A 
BRANCH  77  80
ATOM     80  S   UNL     1      -9.602  -6.398   5.008  1.00  0.00     0.127 S 
ATOM     81  O   UNL     1      -9.898  -7.558   5.845  1.00  0.00    -0.237 OA
ATOM     82  O   UNL     1     -10.028  -6.518   3.613  1.00  0.00    -0.237 OA
ATOM     83  O   UNL     1      -8.280  -5.812   5.181  1.00  0.00    -0.744 OA
ENDBRANCH  77  80
ENDBRANCH  49  73
BRANCH  61  84
ATOM     84  C   UNL     1     -12.372  -0.020  12.906  1.00  0.00     0.023 A 
ATOM     85  C   UNL     1     -11.949  -1.082  13.729  1.00  0.00     0.012 A 
ATOM     86  C   UNL     1     -13.521   0.715  13.258  1.00  0.00     0.148 A 
ATOM     87  C   UNL     1     -12.675  -1.428  14.868  1.00  0.00     0.002 A 
ATOM     88  C   UNL     1     -14.212   0.395  14.421  1.00  0.00     0.091 A 
ATOM     89  F   UNL     1     -13.919   1.709  12.451  1.00  0.00    -0.205 F 
ATOM     90  C   UNL     1     -13.798  -0.683  15.220  1.00  0.00     0.022 A 
BRANCH  88  91
ATOM     91  S   UNL     1     -15.609   1.365  14.999  1.00  0.00     0.127 S 
ATOM     92  O   UNL     1     -16.736   0.502  14.649  1.00  0.00    -0.237 OA
ATOM     93  O   UNL     1     -15.344   1.470  16.434  1.00  0.00    -0.237 OA
ATOM     94  O   UNL     1     -15.540   2.631  14.281  1.00  0.00    -0.744 OA
ENDBRANCH  88  91
ENDBRANCH  61  84
ENDBRANCH  35  36
ENDBRANCH  28  30
ENDBRANCH  27  28
ENDBRANCH  26  27
ENDBRANCH  25  26
ENDBRANCH  24  25
ENDBRANCH   1  24
TORSDOF 23
