REMARK SMILES CC(C)c1ccc2c(c1)c(SC(C)(C)C)c(CC(C)(C)C(=O)OCCOCCOC(=O)c1ccc(-c3c4nc(c(-c5cccc(S(=O)(=O)[O-])c5F)c5ccc([nH]5)c(-c5cccc(S(=O)(=O)[O-])c5F)c5nc(c(-c6cccc(S(=O)(=O)[O-])c6F)c6ccc3[nH]6)C=C5)C=C4)cc1)n2Cc1ccc(Cl)cc1
REMARK SMILES IDX 25 1 24 2 23 3 21 4 22 5 18 6 19 7 20 8 17 9 16 10 4 11 5 12
REMARK SMILES IDX 9 13 6 14 8 15 7 16 10 17 95 18 2 19 1 20 3 21 11 22 12 23
REMARK SMILES IDX 13 24 14 25 15 26 96 27 97 28 98 29 103 30 99 31 102 32
REMARK SMILES IDX 100 33 101 34 26 35 27 36 28 37 29 38 30 39 31 40 32 41
REMARK SMILES IDX 33 42 94 43 34 44 93 45 35 46 36 47 37 48 87 49 38 50 92 51
REMARK SMILES IDX 86 52 88 53 39 54 91 55 85 56 84 57 40 59 72 60 52 61 71 62
REMARK SMILES IDX 53 63 56 64 70 65 89 66 54 67 55 68 69 70 90 71 57 72 41 73
REMARK SMILES IDX 42 74 50 75 43 76 45 77 51 78 44 79 46 80 47 81 48 82 49 83
REMARK SMILES IDX 73 84 74 85 82 86 75 87 77 88 83 89 76 90 78 91 79 92 80 93
REMARK SMILES IDX 81 94 58 95 59 96 67 97 60 98 62 99 68 100 61 101 63 102
REMARK SMILES IDX 64 103 65 104 66 105
REMARK H PARENT 88 58 56 69
REMARK Flexibility Score: inf
ROOT
ATOM      1  C   UNL     1      -6.933  -0.285   6.424  1.00  0.00     0.202 C 
ENDROOT
BRANCH   1   2
ATOM      2  C   UNL     1      -5.567   0.320   6.077  1.00  0.00     0.261 C 
BRANCH   2   3
ATOM      3  O   UNL     1      -5.708   1.473   5.256  1.00  0.00    -0.463 OA
BRANCH   3   4
ATOM      4  C   UNL     1      -5.774   1.119   3.951  1.00  0.00     0.311 C 
ATOM      5  O   UNL     1      -5.619  -0.029   3.570  1.00  0.00    -0.252 OA
BRANCH   4   6
ATOM      6  C   UNL     1      -6.019   2.311   3.042  1.00  0.00     0.068 C 
ATOM      7  C   UNL     1      -4.730   3.127   3.255  1.00  0.00     0.024 C 
ATOM      8  C   UNL     1      -7.207   3.195   3.476  1.00  0.00     0.024 C 
BRANCH   6   9
ATOM      9  C   UNL     1      -6.383   1.716   1.634  1.00  0.00     0.073 C 
BRANCH   9  10
ATOM     10  C   UNL     1      -5.249   1.056   0.939  1.00  0.00     0.034 A 
ATOM     11  C   UNL     1      -0.966  -0.659   0.935  1.00  0.00    -0.045 A 
ATOM     12  C   UNL     1      -1.693  -1.832   1.159  1.00  0.00     0.006 A 
ATOM     13  C   UNL     1      -1.667   0.532   0.648  1.00  0.00     0.015 A 
ATOM     14  C   UNL     1      -3.089  -1.844   1.123  1.00  0.00     0.027 A 
ATOM     15  C   UNL     1      -3.087   0.564   0.627  1.00  0.00     0.014 A 
ATOM     16  C   UNL     1      -3.762  -0.633   0.891  1.00  0.00     0.050 A 
ATOM     17  C   UNL     1      -4.073   1.615   0.472  1.00  0.00     0.037 A 
ATOM     18  N   UNL     1      -5.114  -0.335   0.892  1.00  0.00    -0.339 N 
BRANCH  11  19
ATOM     19  C   UNL     1       0.548  -0.697   1.080  1.00  0.00     0.013 C 
ATOM     20  C   UNL     1       1.273   0.058  -0.035  1.00  0.00     0.012 C 
ATOM     21  C   UNL     1       0.983  -0.186   2.456  1.00  0.00     0.012 C 
ENDBRANCH  11  19
BRANCH  17  22
ATOM     22  S   UNL     1      -3.591   3.291   0.204  1.00  0.00    -0.118 SA
BRANCH  22  23
ATOM     23  C   UNL     1      -4.891   4.520  -0.279  1.00  0.00     0.012 C 
ATOM     24  C   UNL     1      -5.494   4.152  -1.636  1.00  0.00     0.023 C 
ATOM     25  C   UNL     1      -6.040   4.950   0.654  1.00  0.00     0.023 C 
ATOM     26  C   UNL     1      -4.056   5.822  -0.405  1.00  0.00     0.023 C 
ENDBRANCH  22  23
ENDBRANCH  17  22
BRANCH  18  27
ATOM     27  C   UNL     1      -6.168  -1.350   0.677  1.00  0.00     0.158 C 
BRANCH  27  28
ATOM     28  C   UNL     1      -7.035  -1.837   1.827  1.00  0.00    -0.028 A 
ATOM     29  C   UNL     1      -8.411  -1.534   1.838  1.00  0.00     0.007 A 
ATOM     30  C   UNL     1      -6.547  -2.681   2.841  1.00  0.00     0.007 A 
ATOM     31  C   UNL     1      -9.261  -2.037   2.831  1.00  0.00     0.021 A 
ATOM     32  C   UNL     1      -7.397  -3.184   3.841  1.00  0.00     0.021 A 
ATOM     33  C   UNL     1      -8.751  -2.860   3.830  1.00  0.00     0.041 A 
ATOM     34  Cl  UNL     1      -9.795  -3.438   5.072  1.00  0.00    -0.084 Cl
ENDBRANCH  27  28
ENDBRANCH  18  27
ENDBRANCH   9  10
ENDBRANCH   6   9
ENDBRANCH   4   6
ENDBRANCH   3   4
ENDBRANCH   2   3
ENDBRANCH   1   2
BRANCH   1  35
ATOM     35  O   UNL     1      -7.921  -0.483   5.415  1.00  0.00    -0.374 OA
BRANCH  35  36
ATOM     36  C   UNL     1      -8.567   0.697   4.945  1.00  0.00     0.202 C 
BRANCH  36  37
ATOM     37  C   UNL     1     -10.016   0.895   5.385  1.00  0.00     0.261 C 
BRANCH  37  38
ATOM     38  O   UNL     1     -10.031   1.914   6.406  1.00  0.00    -0.460 OA
BRANCH  38  39
ATOM     39  C   UNL     1     -10.369   1.447   7.630  1.00  0.00     0.338 C 
ATOM     40  O   UNL     1     -11.411   0.878   7.908  1.00  0.00    -0.246 OA
BRANCH  39  41
ATOM     41  C   UNL     1      -9.148   1.468   8.464  1.00  0.00     0.060 A 
ATOM     42  C   UNL     1      -8.203   2.498   8.338  1.00  0.00     0.016 A 
ATOM     43  C   UNL     1      -8.842   0.288   9.162  1.00  0.00     0.016 A 
ATOM     44  C   UNL     1      -6.923   2.299   8.844  1.00  0.00     0.010 A 
ATOM     45  C   UNL     1      -7.553   0.086   9.654  1.00  0.00     0.010 A 
ATOM     46  C   UNL     1      -6.584   1.078   9.466  1.00  0.00    -0.014 A 
BRANCH  46  47
ATOM     47  C   UNL     1      -5.288   1.016  10.144  1.00  0.00     0.031 A 
ATOM     48  C   UNL     1      -5.298   1.909  11.325  1.00  0.00     0.074 A 
ATOM     49  C   UNL     1      -4.235   0.202   9.928  1.00  0.00     0.049 A 
ATOM     50  N   UNL     1      -4.643   3.009  11.499  1.00  0.00    -0.248 NA
ATOM     51  C   UNL     1      -6.319   1.624  12.346  1.00  0.00     0.031 C 
ATOM     52  C   UNL     1      -4.172  -0.977   9.066  1.00  0.00     0.029 A 
ATOM     53  N   UNL     1      -3.008   0.201  10.547  1.00  0.00    -0.354 N 
ATOM     54  C   UNL     1      -5.023   3.434  12.765  1.00  0.00     0.074 A 
ATOM     55  C   UNL     1      -6.191   2.680  13.143  1.00  0.00     0.031 C 
ATOM     56  C   UNL     1      -3.064  -1.690   9.366  1.00  0.00     0.029 A 
ATOM     57  C   UNL     1      -2.300  -0.987  10.380  1.00  0.00     0.049 A 
ATOM     58  H   UNL     1      -2.662   0.967  11.060  1.00  0.00     0.167 HD
ATOM     59  C   UNL     1      -4.190   4.144  13.566  1.00  0.00     0.034 A 
ATOM     60  C   UNL     1      -1.229  -1.401  11.101  1.00  0.00     0.034 A 
ATOM     61  C   UNL     1      -3.039   4.650  12.886  1.00  0.00     0.049 A 
ATOM     62  C   UNL     1      -0.584  -0.211  11.701  1.00  0.00     0.074 A 
ATOM     63  C   UNL     1      -2.735   5.701  12.053  1.00  0.00     0.029 A 
ATOM     64  N   UNL     1      -2.008   3.755  12.818  1.00  0.00    -0.354 N 
ATOM     65  N   UNL     1       0.029   0.713  11.016  1.00  0.00    -0.248 NA
ATOM     66  C   UNL     1      -0.789   0.089  13.116  1.00  0.00     0.031 C 
ATOM     67  C   UNL     1      -1.534   5.340  11.374  1.00  0.00     0.029 A 
ATOM     68  C   UNL     1      -1.146   4.073  11.803  1.00  0.00     0.049 A 
ATOM     69  H   UNL     1      -1.899   2.984  13.420  1.00  0.00     0.167 HD
ATOM     70  C   UNL     1      -0.088   1.844  11.799  1.00  0.00     0.074 A 
ATOM     71  C   UNL     1      -0.412   1.368  13.133  1.00  0.00     0.031 C 
ATOM     72  C   UNL     1      -0.273   3.069  11.235  1.00  0.00     0.034 A 
BRANCH  59  73
ATOM     73  C   UNL     1      -4.204   3.970  15.055  1.00  0.00     0.023 A 
ATOM     74  C   UNL     1      -3.733   5.012  15.868  1.00  0.00     0.012 A 
ATOM     75  C   UNL     1      -4.462   2.721  15.668  1.00  0.00     0.148 A 
ATOM     76  C   UNL     1      -3.574   4.830  17.246  1.00  0.00     0.002 A 
ATOM     77  C   UNL     1      -4.403   2.576  17.044  1.00  0.00     0.091 A 
ATOM     78  F   UNL     1      -4.646   1.635  14.903  1.00  0.00    -0.205 F 
ATOM     79  C   UNL     1      -3.941   3.624  17.840  1.00  0.00     0.022 A 
BRANCH  77  80
ATOM     80  S   UNL     1      -4.970   1.068  17.833  1.00  0.00     0.127 S 
ATOM     81  O   UNL     1      -3.712   0.372  18.079  1.00  0.00    -0.237 OA
ATOM     82  O   UNL     1      -5.641   1.583  19.027  1.00  0.00    -0.237 OA
ATOM     83  O   UNL     1      -5.874   0.460  16.863  1.00  0.00    -0.744 OA
ENDBRANCH  77  80
ENDBRANCH  59  73
BRANCH  60  84
ATOM     84  C   UNL     1      -0.804  -2.772  11.500  1.00  0.00     0.023 A 
ATOM     85  C   UNL     1       0.469  -2.943  12.090  1.00  0.00     0.012 A 
ATOM     86  C   UNL     1      -1.716  -3.845  11.591  1.00  0.00     0.148 A 
ATOM     87  C   UNL     1       0.788  -4.096  12.815  1.00  0.00     0.002 A 
ATOM     88  C   UNL     1      -1.384  -5.002  12.292  1.00  0.00     0.091 A 
ATOM     89  F   UNL     1      -2.948  -3.706  11.087  1.00  0.00    -0.205 F 
ATOM     90  C   UNL     1      -0.143  -5.122  12.927  1.00  0.00     0.022 A 
BRANCH  88  91
ATOM     91  S   UNL     1      -2.548  -6.363  12.448  1.00  0.00     0.127 S 
ATOM     92  O   UNL     1      -1.669  -7.534  12.418  1.00  0.00    -0.237 OA
ATOM     93  O   UNL     1      -3.163  -6.091  13.742  1.00  0.00    -0.237 OA
ATOM     94  O   UNL     1      -3.422  -6.252  11.285  1.00  0.00    -0.744 OA
ENDBRANCH  88  91
ENDBRANCH  60  84
BRANCH  72  95
ATOM     95  C   UNL     1       0.255   3.288   9.852  1.00  0.00     0.023 A 
ATOM     96  C   UNL     1      -0.297   2.658   8.721  1.00  0.00     0.012 A 
ATOM     97  C   UNL     1       1.284   4.230   9.684  1.00  0.00     0.148 A 
ATOM     98  C   UNL     1       0.182   2.954   7.443  1.00  0.00     0.002 A 
ATOM     99  C   UNL     1       1.730   4.551   8.410  1.00  0.00     0.091 A 
ATOM    100  F   UNL     1       1.796   4.810  10.780  1.00  0.00    -0.205 F 
ATOM    101  C   UNL     1       1.187   3.909   7.286  1.00  0.00     0.022 A 
BRANCH  99 102
ATOM    102  S   UNL     1       2.948   5.838   8.130  1.00  0.00     0.127 S 
ATOM    103  O   UNL     1       4.109   5.072   7.684  1.00  0.00    -0.237 OA
ATOM    104  O   UNL     1       2.310   6.647   7.090  1.00  0.00    -0.237 OA
ATOM    105  O   UNL     1       3.109   6.526   9.406  1.00  0.00    -0.744 OA
ENDBRANCH  99 102
ENDBRANCH  72  95
ENDBRANCH  46  47
ENDBRANCH  39  41
ENDBRANCH  38  39
ENDBRANCH  37  38
ENDBRANCH  36  37
ENDBRANCH  35  36
ENDBRANCH   1  35
TORSDOF 24
