REMARK SMILES O=C(OCCOCCOC(=O)[C@@H](CCO)NC(=O)c1c(F)ccc([N+](=O)[O-])c1F)c1ccc(-c2c3nc(c(-c4cccc(S(=O)(=O)[O-])c4F)c4ccc([nH]4)c(-c4cccc(S(=O)(=O)[O-])c4F)c4nc(c(-c5cccc(S(=O)(=O)[O-])c5F)c5ccc2[nH]5)C=C4)C=C3)cc1
REMARK SMILES IDX 6 1 5 2 4 3 3 4 2 5 1 6 30 7 31 8 92 9 32 10 91 11 33 12
REMARK SMILES IDX 34 13 35 14 85 15 36 16 90 17 84 18 86 19 37 20 89 21 83 22
REMARK SMILES IDX 82 23 38 25 70 26 50 27 69 28 51 29 54 30 68 31 87 32 52 33
REMARK SMILES IDX 53 34 67 36 88 37 55 38 39 39 40 40 48 41 41 42 43 43 49 44
REMARK SMILES IDX 42 45 44 46 45 47 46 48 47 49 71 50 72 51 80 52 73 53 75 54
REMARK SMILES IDX 81 55 74 56 76 57 77 58 78 59 79 60 56 61 57 62 65 63 58 64
REMARK SMILES IDX 60 65 66 66 59 67 61 68 62 69 63 70 64 71 7 72 8 73 9 74
REMARK SMILES IDX 10 75 11 76 12 77 13 78 14 79 15 80 16 82 17 83 18 85 19 86
REMARK SMILES IDX 20 87 28 88 21 89 22 90 24 91 29 92 23 93 25 94 26 95 27 96
REMARK H PARENT 86 24 54 35 15 81 16 84
REMARK Flexibility Score: inf
ROOT
ATOM      1  O   UNL     1       4.115   0.340  -1.771  1.00  0.00    -0.374 OA
ENDROOT
BRANCH   1   2
ATOM      2  C   UNL     1       4.497  -0.883  -1.139  1.00  0.00     0.202 C 
BRANCH   2   3
ATOM      3  C   UNL     1       4.178  -1.058   0.354  1.00  0.00     0.261 C 
BRANCH   3   4
ATOM      4  O   UNL     1       2.768  -0.917   0.603  1.00  0.00    -0.460 OA
BRANCH   4   5
ATOM      5  C   UNL     1       2.105   0.166   1.080  1.00  0.00     0.338 C 
ATOM      6  O   UNL     1       0.892   0.082   1.259  1.00  0.00    -0.246 OA
BRANCH   5   7
ATOM      7  C   UNL     1       2.788   1.453   1.398  1.00  0.00     0.060 A 
ATOM      8  C   UNL     1       3.980   1.869   0.809  1.00  0.00     0.016 A 
ATOM      9  C   UNL     1       2.166   2.324   2.306  1.00  0.00     0.016 A 
ATOM     10  C   UNL     1       4.609   3.036   1.176  1.00  0.00     0.010 A 
ATOM     11  C   UNL     1       2.767   3.539   2.652  1.00  0.00     0.010 A 
ATOM     12  C   UNL     1       4.011   3.871   2.108  1.00  0.00    -0.014 A 
BRANCH  12  13
ATOM     13  C   UNL     1       4.837   4.990   2.573  1.00  0.00     0.031 A 
ATOM     14  C   UNL     1       5.535   4.841   3.886  1.00  0.00     0.074 A 
ATOM     15  C   UNL     1       5.117   5.988   1.716  1.00  0.00     0.049 A 
ATOM     16  N   UNL     1       6.374   5.649   4.468  1.00  0.00    -0.248 NA
ATOM     17  C   UNL     1       5.277   3.596   4.635  1.00  0.00     0.031 C 
ATOM     18  C   UNL     1       4.585   6.099   0.353  1.00  0.00     0.029 A 
ATOM     19  N   UNL     1       5.954   7.060   1.836  1.00  0.00    -0.354 N 
ATOM     20  C   UNL     1       6.689   5.048   5.678  1.00  0.00     0.074 A 
ATOM     21  C   UNL     1       5.986   3.788   5.735  1.00  0.00     0.031 C 
ATOM     22  C   UNL     1       5.132   7.168  -0.245  1.00  0.00     0.029 A 
ATOM     23  C   UNL     1       5.993   7.851   0.713  1.00  0.00     0.049 A 
ATOM     24  H   UNL     1       6.477   7.249   2.648  1.00  0.00     0.167 HD
ATOM     25  C   UNL     1       7.487   5.524   6.658  1.00  0.00     0.034 A 
ATOM     26  C   UNL     1       6.638   9.013   0.505  1.00  0.00     0.034 A 
ATOM     27  C   UNL     1       8.182   6.775   6.555  1.00  0.00     0.049 A 
ATOM     28  C   UNL     1       7.476   9.547   1.633  1.00  0.00     0.074 A 
ATOM     29  C   UNL     1       8.969   7.409   7.495  1.00  0.00     0.029 A 
ATOM     30  N   UNL     1       8.163   7.586   5.426  1.00  0.00    -0.354 N 
ATOM     31  N   UNL     1       7.749   8.989   2.790  1.00  0.00    -0.248 NA
ATOM     32  C   UNL     1       8.098  10.860   1.433  1.00  0.00     0.031 C 
ATOM     33  C   UNL     1       9.407   8.618   6.940  1.00  0.00     0.029 A 
ATOM     34  C   UNL     1       8.919   8.720   5.644  1.00  0.00     0.049 A 
ATOM     35  H   UNL     1       7.680   7.381   4.593  1.00  0.00     0.167 HD
ATOM     36  C   UNL     1       8.593   9.871   3.450  1.00  0.00     0.074 A 
ATOM     37  C   UNL     1       8.803  10.990   2.549  1.00  0.00     0.031 C 
ATOM     38  C   UNL     1       9.134   9.781   4.691  1.00  0.00     0.034 A 
BRANCH  25  39
ATOM     39  C   UNL     1       7.570   4.715   7.921  1.00  0.00     0.023 A 
ATOM     40  C   UNL     1       8.309   3.515   7.955  1.00  0.00     0.012 A 
ATOM     41  C   UNL     1       6.857   5.121   9.066  1.00  0.00     0.148 A 
ATOM     42  C   UNL     1       8.305   2.713   9.098  1.00  0.00     0.002 A 
ATOM     43  C   UNL     1       6.888   4.336  10.212  1.00  0.00     0.091 A 
ATOM     44  F   UNL     1       6.126   6.242   8.999  1.00  0.00    -0.205 F 
ATOM     45  C   UNL     1       7.600   3.126  10.226  1.00  0.00     0.022 A 
BRANCH  43  46
ATOM     46  S   UNL     1       6.046   4.812  11.725  1.00  0.00     0.127 S 
ATOM     47  O   UNL     1       4.908   3.895  11.730  1.00  0.00    -0.237 OA
ATOM     48  O   UNL     1       7.060   4.532  12.742  1.00  0.00    -0.237 OA
ATOM     49  O   UNL     1       5.718   6.223  11.571  1.00  0.00    -0.744 OA
ENDBRANCH  43  46
ENDBRANCH  25  39
BRANCH  26  50
ATOM     50  C   UNL     1       6.511   9.724  -0.799  1.00  0.00     0.023 A 
ATOM     51  C   UNL     1       7.636   9.872  -1.631  1.00  0.00     0.012 A 
ATOM     52  C   UNL     1       5.266  10.220  -1.240  1.00  0.00     0.148 A 
ATOM     53  C   UNL     1       7.528  10.514  -2.867  1.00  0.00     0.002 A 
ATOM     54  C   UNL     1       5.154  10.807  -2.496  1.00  0.00     0.091 A 
ATOM     55  F   UNL     1       4.208  10.095  -0.426  1.00  0.00    -0.205 F 
ATOM     56  C   UNL     1       6.287  10.969  -3.305  1.00  0.00     0.022 A 
BRANCH  54  57
ATOM     57  S   UNL     1       3.566  11.295  -3.183  1.00  0.00     0.127 S 
ATOM     58  O   UNL     1       3.651  12.755  -3.116  1.00  0.00    -0.237 OA
ATOM     59  O   UNL     1       3.640  10.740  -4.538  1.00  0.00    -0.237 OA
ATOM     60  O   UNL     1       2.564  10.678  -2.337  1.00  0.00    -0.744 OA
ENDBRANCH  54  57
ENDBRANCH  26  50
BRANCH  38  61
ATOM     61  C   UNL     1      10.032  10.903   5.124  1.00  0.00     0.023 A 
ATOM     62  C   UNL     1       9.476  12.139   5.503  1.00  0.00     0.012 A 
ATOM     63  C   UNL     1      11.418  10.692   5.243  1.00  0.00     0.148 A 
ATOM     64  C   UNL     1      10.296  13.164   5.972  1.00  0.00     0.002 A 
ATOM     65  C   UNL     1      12.221  11.699   5.760  1.00  0.00     0.091 A 
ATOM     66  F   UNL     1      11.924   9.513   4.852  1.00  0.00    -0.205 F 
ATOM     67  C   UNL     1      11.664  12.939   6.114  1.00  0.00     0.022 A 
BRANCH  65  68
ATOM     68  S   UNL     1      13.969  11.446   6.077  1.00  0.00     0.127 S 
ATOM     69  O   UNL     1      14.581  12.140   4.946  1.00  0.00    -0.237 OA
ATOM     70  O   UNL     1      14.152  12.106   7.371  1.00  0.00    -0.237 OA
ATOM     71  O   UNL     1      14.161  10.002   6.110  1.00  0.00    -0.744 OA
ENDBRANCH  65  68
ENDBRANCH  38  61
ENDBRANCH  12  13
ENDBRANCH   5   7
ENDBRANCH   4   5
ENDBRANCH   3   4
ENDBRANCH   2   3
ENDBRANCH   1   2
BRANCH   1  72
ATOM     72  C   UNL     1       2.726   0.504  -2.091  1.00  0.00     0.202 C 
BRANCH  72  73
ATOM     73  C   UNL     1       2.514   0.494  -3.603  1.00  0.00     0.261 C 
BRANCH  73  74
ATOM     74  O   UNL     1       2.828  -0.832  -4.063  1.00  0.00    -0.462 OA
BRANCH  74  75
ATOM     75  C   UNL     1       4.114  -1.011  -4.449  1.00  0.00     0.328 C 
ATOM     76  O   UNL     1       4.862  -0.119  -4.834  1.00  0.00    -0.250 OA
BRANCH  75  77
ATOM     77  C   UNL     1       4.556  -2.479  -4.404  1.00  0.00     0.194 C 
BRANCH  77  78
ATOM     78  C   UNL     1       3.896  -3.530  -3.492  1.00  0.00     0.065 C 
BRANCH  78  79
ATOM     79  C   UNL     1       2.416  -3.419  -3.158  1.00  0.00     0.159 C 
BRANCH  79  80
ATOM     80  O   UNL     1       1.643  -3.294  -4.337  1.00  0.00    -0.396 OA
ATOM     81  H   UNL     1       1.909  -2.492  -4.814  1.00  0.00     0.210 HD
ENDBRANCH  79  80
ENDBRANCH  78  79
ENDBRANCH  77  78
BRANCH  77  82
ATOM     82  N   UNL     1       4.673  -2.961  -5.779  1.00  0.00    -0.338 N 
ATOM     83  C   UNL     1       5.766  -2.958  -6.604  1.00  0.00     0.258 C 
ATOM     84  H   UNL     1       3.851  -3.342  -6.165  1.00  0.00     0.164 HD
ATOM     85  O   UNL     1       5.642  -3.279  -7.785  1.00  0.00    -0.269 OA
BRANCH  83  86
ATOM     86  C   UNL     1       7.104  -2.613  -6.099  1.00  0.00     0.118 A 
ATOM     87  C   UNL     1       7.660  -3.303  -5.020  1.00  0.00     0.139 A 
ATOM     88  C   UNL     1       7.873  -1.667  -6.784  1.00  0.00     0.216 A 
ATOM     89  F   UNL     1       6.967  -4.255  -4.379  1.00  0.00    -0.206 F 
ATOM     90  C   UNL     1       8.950  -3.022  -4.577  1.00  0.00     0.047 A 
ATOM     91  C   UNL     1       9.180  -1.404  -6.364  1.00  0.00     0.305 A 
ATOM     92  F   UNL     1       7.342  -1.034  -7.840  1.00  0.00    -0.198 F 
ATOM     93  C   UNL     1       9.718  -2.072  -5.249  1.00  0.00     0.092 A 
BRANCH  91  94
ATOM     94  N   UNL     1      10.030  -0.472  -7.106  1.00  0.00     0.065 N 
ATOM     95  O   UNL     1       9.524   0.228  -7.989  1.00  0.00    -0.258 OA
ATOM     96  O   UNL     1      11.235  -0.456  -6.811  1.00  0.00    -0.258 OA
ENDBRANCH  91  94
ENDBRANCH  83  86
ENDBRANCH  77  82
ENDBRANCH  75  77
ENDBRANCH  74  75
ENDBRANCH  73  74
ENDBRANCH  72  73
ENDBRANCH   1  72
TORSDOF 23
