REMARK SMILES CC1=C2C(=O)CC(C)(C)CC2=N[C@@H]1C(=O)OCCOCCOC(=O)c1ccc(-c2c3nc(c(-c4cccc(S(=O)(=O)[O-])c4F)c4ccc([nH]4)c(-c4cccc(S(=O)(=O)[O-])c4F)c4nc(c(-c5cccc(S(=O)(=O)[O-])c5F)c5ccc2[nH]5)C=C4)C=C3)cc1
REMARK SMILES IDX 20 1 19 2 18 3 17 4 16 5 14 6 15 7 13 8 1 9 2 10 3 11 4 12
REMARK SMILES IDX 11 13 12 14 5 15 6 16 10 17 7 18 8 19 9 20 21 21 22 22 23 23
REMARK SMILES IDX 24 24 25 25 26 26 87 27 27 28 86 29 28 30 29 31 30 32 80 33
REMARK SMILES IDX 31 34 85 35 79 36 81 37 32 38 84 39 78 40 77 41 33 43 65 44
REMARK SMILES IDX 45 45 64 46 46 47 49 48 63 49 82 50 47 51 48 52 62 54 83 55
REMARK SMILES IDX 50 56 34 57 35 58 43 59 36 60 38 61 44 62 37 63 39 64 40 65
REMARK SMILES IDX 41 66 42 67 66 68 67 69 75 70 68 71 70 72 76 73 69 74 71 75
REMARK SMILES IDX 72 76 73 77 74 78 51 79 52 80 60 81 53 82 55 83 61 84 54 85
REMARK SMILES IDX 56 86 57 87 58 88 59 89
REMARK H PARENT 81 42 49 53
REMARK Flexibility Score: inf
ROOT
ATOM      1  C   UNL     1       3.784   2.989   1.765  1.00  0.00     0.202 C 
ENDROOT
BRANCH   1   2
ATOM      2  O   UNL     1       5.019   2.708   1.116  1.00  0.00    -0.374 OA
BRANCH   2   3
ATOM      3  C   UNL     1       5.295   3.231  -0.183  1.00  0.00     0.202 C 
BRANCH   3   4
ATOM      4  C   UNL     1       4.475   2.708  -1.358  1.00  0.00     0.261 C 
BRANCH   4   5
ATOM      5  O   UNL     1       3.084   2.960  -1.169  1.00  0.00    -0.461 OA
BRANCH   5   6
ATOM      6  C   UNL     1       2.329   1.881  -0.807  1.00  0.00     0.335 C 
ATOM      7  O   UNL     1       2.752   0.741  -0.661  1.00  0.00    -0.249 OA
BRANCH   6   8
ATOM      8  C   UNL     1       0.852   2.328  -0.644  1.00  0.00     0.242 C 
ATOM      9  C   UNL     1       0.066   0.377   0.957  1.00  0.00     0.043 C 
ATOM     10  C   UNL     1      -0.096   1.201  -0.276  1.00  0.00    -0.025 C 
ATOM     11  C   UNL     1      -0.901   0.927  -1.308  1.00  0.00     0.040 C 
ATOM     12  C   UNL     1      -1.824  -0.166  -1.631  1.00  0.00     0.165 C 
ATOM     13  C   UNL     1      -0.148   1.591  -2.354  1.00  0.00     0.048 C 
ATOM     14  N   UNL     1       0.492   2.677  -2.052  1.00  0.00    -0.269 NA
ATOM     15  O   UNL     1      -2.875  -0.321  -1.018  1.00  0.00    -0.294 OA
ATOM     16  C   UNL     1      -1.431  -1.030  -2.825  1.00  0.00     0.088 C 
ATOM     17  C   UNL     1       0.142   0.821  -3.600  1.00  0.00     0.063 C 
ATOM     18  C   UNL     1      -0.002  -0.716  -3.349  1.00  0.00    -0.023 C 
ATOM     19  C   UNL     1       1.022  -1.322  -2.349  1.00  0.00     0.012 C 
ATOM     20  C   UNL     1       0.275  -1.405  -4.693  1.00  0.00     0.012 C 
ENDBRANCH   6   8
ENDBRANCH   5   6
ENDBRANCH   4   5
ENDBRANCH   3   4
ENDBRANCH   2   3
ENDBRANCH   1   2
BRANCH   1  21
ATOM     21  C   UNL     1       3.410   4.421   2.117  1.00  0.00     0.261 C 
BRANCH  21  22
ATOM     22  O   UNL     1       3.384   5.305   1.007  1.00  0.00    -0.460 OA
BRANCH  22  23
ATOM     23  C   UNL     1       4.448   6.146   1.001  1.00  0.00     0.338 C 
ATOM     24  O   UNL     1       5.540   5.935   1.492  1.00  0.00    -0.246 OA
BRANCH  23  25
ATOM     25  C   UNL     1       4.035   7.459   0.494  1.00  0.00     0.060 A 
ATOM     26  C   UNL     1       5.026   8.439   0.484  1.00  0.00     0.016 A 
ATOM     27  C   UNL     1       2.678   7.770   0.313  1.00  0.00     0.016 A 
ATOM     28  C   UNL     1       4.638   9.758   0.476  1.00  0.00     0.010 A 
ATOM     29  C   UNL     1       2.292   9.093   0.302  1.00  0.00     0.010 A 
ATOM     30  C   UNL     1       3.271  10.069   0.456  1.00  0.00    -0.014 A 
BRANCH  30  31
ATOM     31  C   UNL     1       2.922  11.474   0.400  1.00  0.00     0.031 A 
ATOM     32  C   UNL     1       3.381  12.086  -0.865  1.00  0.00     0.074 A 
ATOM     33  C   UNL     1       2.247  12.130   1.362  1.00  0.00     0.049 A 
ATOM     34  N   UNL     1       4.394  12.874  -1.006  1.00  0.00    -0.248 NA
ATOM     35  C   UNL     1       2.825  11.585  -2.131  1.00  0.00     0.031 C 
ATOM     36  C   UNL     1       1.568  11.566   2.529  1.00  0.00     0.029 A 
ATOM     37  N   UNL     1       1.919  13.451   1.426  1.00  0.00    -0.354 N 
ATOM     38  C   UNL     1       4.404  13.202  -2.354  1.00  0.00     0.074 A 
ATOM     39  C   UNL     1       3.604  12.208  -3.018  1.00  0.00     0.031 C 
ATOM     40  C   UNL     1       0.706  12.485   3.023  1.00  0.00     0.029 A 
ATOM     41  C   UNL     1       0.861  13.729   2.287  1.00  0.00     0.049 A 
ATOM     42  H   UNL     1       2.389  14.146   0.911  1.00  0.00     0.167 HD
ATOM     43  C   UNL     1       4.778  14.451  -2.739  1.00  0.00     0.034 A 
ATOM     44  C   UNL     1       0.118  14.867   2.320  1.00  0.00     0.034 A 
ATOM     45  C   UNL     1       5.538  15.113  -1.703  1.00  0.00     0.049 A 
ATOM     46  C   UNL     1       0.923  15.941   1.691  1.00  0.00     0.074 A 
ATOM     47  C   UNL     1       6.661  14.794  -0.963  1.00  0.00     0.029 A 
ATOM     48  N   UNL     1       4.904  16.117  -1.010  1.00  0.00    -0.354 N 
ATOM     49  N   UNL     1       2.004  16.427   2.231  1.00  0.00    -0.248 NA
ATOM     50  C   UNL     1       0.791  16.144   0.257  1.00  0.00     0.031 C 
ATOM     51  C   UNL     1       6.382  15.271   0.353  1.00  0.00     0.029 A 
ATOM     52  C   UNL     1       5.153  15.930   0.322  1.00  0.00     0.049 A 
ATOM     53  H   UNL     1       4.367  16.842  -1.403  1.00  0.00     0.167 HD
ATOM     54  C   UNL     1       2.893  16.516   1.169  1.00  0.00     0.074 A 
ATOM     55  C   UNL     1       2.061  16.438  -0.032  1.00  0.00     0.031 C 
ATOM     56  C   UNL     1       4.233  16.333   1.360  1.00  0.00     0.034 A 
BRANCH  43  57
ATOM     57  C   UNL     1       4.069  15.233  -3.823  1.00  0.00     0.023 A 
ATOM     58  C   UNL     1       4.628  16.480  -4.176  1.00  0.00     0.012 A 
ATOM     59  C   UNL     1       2.755  14.968  -4.276  1.00  0.00     0.148 A 
ATOM     60  C   UNL     1       3.887  17.442  -4.869  1.00  0.00     0.002 A 
ATOM     61  C   UNL     1       2.054  15.893  -5.037  1.00  0.00     0.091 A 
ATOM     62  F   UNL     1       2.102  13.880  -3.866  1.00  0.00    -0.205 F 
ATOM     63  C   UNL     1       2.600  17.148  -5.303  1.00  0.00     0.022 A 
BRANCH  61  64
ATOM     64  S   UNL     1       0.403  15.543  -5.658  1.00  0.00     0.127 S 
ATOM     65  O   UNL     1      -0.410  16.440  -4.842  1.00  0.00    -0.237 OA
ATOM     66  O   UNL     1       0.533  15.924  -7.064  1.00  0.00    -0.237 OA
ATOM     67  O   UNL     1       0.193  14.117  -5.443  1.00  0.00    -0.744 OA
ENDBRANCH  61  64
ENDBRANCH  43  57
BRANCH  44  68
ATOM     68  C   UNL     1      -1.330  15.051   2.595  1.00  0.00     0.023 A 
ATOM     69  C   UNL     1      -1.841  16.347   2.824  1.00  0.00     0.012 A 
ATOM     70  C   UNL     1      -2.254  14.014   2.341  1.00  0.00     0.148 A 
ATOM     71  C   UNL     1      -3.216  16.607   2.759  1.00  0.00     0.002 A 
ATOM     72  C   UNL     1      -3.620  14.275   2.285  1.00  0.00     0.091 A 
ATOM     73  F   UNL     1      -1.793  12.791   2.057  1.00  0.00    -0.205 F 
ATOM     74  C   UNL     1      -4.106  15.574   2.480  1.00  0.00     0.022 A 
BRANCH  72  75
ATOM     75  S   UNL     1      -4.818  12.990   1.902  1.00  0.00     0.127 S 
ATOM     76  O   UNL     1      -5.822  13.189   2.948  1.00  0.00    -0.237 OA
ATOM     77  O   UNL     1      -5.249  13.368   0.559  1.00  0.00    -0.237 OA
ATOM     78  O   UNL     1      -4.095  11.728   2.001  1.00  0.00    -0.744 OA
ENDBRANCH  72  75
ENDBRANCH  44  68
BRANCH  56  79
ATOM     79  C   UNL     1       4.761  16.331   2.773  1.00  0.00     0.023 A 
ATOM     80  C   UNL     1       4.326  15.421   3.760  1.00  0.00     0.012 A 
ATOM     81  C   UNL     1       5.823  17.200   3.076  1.00  0.00     0.148 A 
ATOM     82  C   UNL     1       4.911  15.409   5.030  1.00  0.00     0.002 A 
ATOM     83  C   UNL     1       6.432  17.153   4.322  1.00  0.00     0.091 A 
ATOM     84  F   UNL     1       6.230  18.059   2.128  1.00  0.00    -0.205 F 
ATOM     85  C   UNL     1       5.972  16.268   5.308  1.00  0.00     0.022 A 
BRANCH  83  86
ATOM     86  S   UNL     1       7.868  18.163   4.690  1.00  0.00     0.127 S 
ATOM     87  O   UNL     1       7.287  19.239   5.489  1.00  0.00    -0.237 OA
ATOM     88  O   UNL     1       8.722  17.238   5.438  1.00  0.00    -0.237 OA
ATOM     89  O   UNL     1       8.416  18.561   3.399  1.00  0.00    -0.744 OA
ENDBRANCH  83  86
ENDBRANCH  56  79
ENDBRANCH  30  31
ENDBRANCH  23  25
ENDBRANCH  22  23
ENDBRANCH  21  22
ENDBRANCH   1  21
TORSDOF 17
