REMARK SMILES COc1ccc(-c2nc3ccc(C)cc3[nH]2)c(C(=O)OCCOCCOC(=O)c2ccc(-c3c4nc(c(-c5cccc(S(=O)(=O)[O-])c5F)c5ccc([nH]5)c(-c5cccc(S(=O)(=O)[O-])c5F)c5nc(c(-c6cccc(S(=O)(=O)[O-])c6F)c6ccc3[nH]6)C=C5)C=C4)cc2)c1OC
REMARK SMILES IDX 24 1 23 2 22 3 21 4 20 5 18 6 19 7 17 8 3 9 4 10 92 11 5 12
REMARK SMILES IDX 6 13 2 14 1 15 93 16 94 17 7 18 8 19 16 20 9 21 15 22 10 24
REMARK SMILES IDX 14 25 11 26 12 27 13 28 25 29 26 30 27 31 28 32 29 33 30 34
REMARK SMILES IDX 91 35 31 36 90 37 32 38 33 39 34 40 84 41 35 42 89 43 83 44
REMARK SMILES IDX 85 45 36 46 88 47 82 48 81 49 37 51 69 52 49 53 68 54 50 55
REMARK SMILES IDX 53 56 67 57 86 58 51 59 52 60 66 62 87 63 54 64 38 65 39 66
REMARK SMILES IDX 47 67 40 68 42 69 48 70 41 71 43 72 44 73 45 74 46 75 70 76
REMARK SMILES IDX 71 77 79 78 72 79 74 80 80 81 73 82 75 83 76 84 77 85 78 86
REMARK SMILES IDX 55 87 56 88 64 89 57 90 59 91 65 92 58 93 60 94 61 95 62 96
REMARK SMILES IDX 63 97
REMARK H PARENT 16 23 85 50 53 61
REMARK Flexibility Score: inf
ROOT
ATOM      1  C   UNL     1       5.076  -3.556  -4.619  1.00  0.00     0.202 C 
ENDROOT
BRANCH   1   2
ATOM      2  O   UNL     1       6.280  -2.945  -5.089  1.00  0.00    -0.374 OA
BRANCH   2   3
ATOM      3  C   UNL     1       6.711  -1.764  -4.400  1.00  0.00     0.202 C 
BRANCH   3   4
ATOM      4  C   UNL     1       5.883  -0.497  -4.638  1.00  0.00     0.261 C 
BRANCH   4   5
ATOM      5  O   UNL     1       4.632  -0.629  -3.953  1.00  0.00    -0.460 OA
BRANCH   5   6
ATOM      6  C   UNL     1       3.578  -0.008  -4.529  1.00  0.00     0.342 C 
ATOM      7  O   UNL     1       3.597   0.838  -5.407  1.00  0.00    -0.246 OA
BRANCH   6   8
ATOM      8  C   UNL     1       2.338  -0.646  -4.032  1.00  0.00     0.116 A 
ATOM      9  C   UNL     1       0.828  -1.188  -2.240  1.00  0.00     0.161 A 
ATOM     10  C   UNL     1      -0.025  -1.802  -3.172  1.00  0.00     0.051 A 
ATOM     11  C   UNL     1       2.024  -0.595  -2.658  1.00  0.00     0.176 A 
ATOM     12  C   UNL     1       0.312  -1.872  -4.530  1.00  0.00     0.017 A 
ATOM     13  C   UNL     1       1.521  -1.330  -4.971  1.00  0.00     0.036 A 
BRANCH   9  14
ATOM     14  O   UNL     1       0.458  -1.318  -0.928  1.00  0.00    -0.493 OA
ATOM     15  C   UNL     1      -0.043  -0.107  -0.368  1.00  0.00     0.278 C 
ENDBRANCH   9  14
BRANCH  11  16
ATOM     16  O   UNL     1       2.910   0.086  -1.870  1.00  0.00    -0.492 OA
ATOM     17  C   UNL     1       3.134  -0.342  -0.532  1.00  0.00     0.278 C 
ENDBRANCH  11  16
BRANCH  13  18
ATOM     18  C   UNL     1       2.071  -1.685  -6.286  1.00  0.00     0.139 A 
ATOM     19  N   UNL     1       3.264  -2.222  -6.411  1.00  0.00    -0.228 NA
ATOM     20  N   UNL     1       1.505  -1.522  -7.533  1.00  0.00    -0.338 N 
ATOM     21  C   UNL     1       3.537  -2.294  -7.739  1.00  0.00     0.089 A 
ATOM     22  C   UNL     1       2.445  -1.877  -8.485  1.00  0.00     0.066 A 
ATOM     23  H   UNL     1       0.590  -1.208  -7.714  1.00  0.00     0.168 HD
ATOM     24  C   UNL     1       4.719  -2.701  -8.366  1.00  0.00     0.031 A 
ATOM     25  C   UNL     1       2.471  -1.852  -9.886  1.00  0.00     0.031 A 
ATOM     26  C   UNL     1       4.779  -2.661  -9.757  1.00  0.00     0.006 A 
ATOM     27  C   UNL     1       3.676  -2.240 -10.515  1.00  0.00    -0.049 A 
ATOM     28  C   UNL     1       3.821  -2.207 -12.010  1.00  0.00     0.044 C 
ENDBRANCH  13  18
ENDBRANCH   6   8
ENDBRANCH   5   6
ENDBRANCH   4   5
ENDBRANCH   3   4
ENDBRANCH   2   3
ENDBRANCH   1   2
BRANCH   1  29
ATOM     29  C   UNL     1       5.228  -4.617  -3.531  1.00  0.00     0.261 C 
BRANCH  29  30
ATOM     30  O   UNL     1       5.856  -4.095  -2.359  1.00  0.00    -0.460 OA
BRANCH  30  31
ATOM     31  C   UNL     1       7.192  -4.308  -2.323  1.00  0.00     0.338 C 
ATOM     32  O   UNL     1       7.865  -4.960  -3.100  1.00  0.00    -0.246 OA
BRANCH  31  33
ATOM     33  C   UNL     1       7.775  -3.491  -1.249  1.00  0.00     0.060 A 
ATOM     34  C   UNL     1       8.915  -2.742  -1.561  1.00  0.00     0.016 A 
ATOM     35  C   UNL     1       7.253  -3.508   0.046  1.00  0.00     0.016 A 
ATOM     36  C   UNL     1       9.588  -2.063  -0.554  1.00  0.00     0.010 A 
ATOM     37  C   UNL     1       7.932  -2.829   1.056  1.00  0.00     0.010 A 
ATOM     38  C   UNL     1       9.127  -2.150   0.765  1.00  0.00    -0.014 A 
BRANCH  38  39
ATOM     39  C   UNL     1      10.000  -1.681   1.861  1.00  0.00     0.031 A 
ATOM     40  C   UNL     1      10.796  -2.699   2.630  1.00  0.00     0.074 A 
ATOM     41  C   UNL     1      10.090  -0.372   2.146  1.00  0.00     0.049 A 
ATOM     42  N   UNL     1      11.620  -2.521   3.627  1.00  0.00    -0.248 NA
ATOM     43  C   UNL     1      10.638  -4.106   2.223  1.00  0.00     0.031 C 
ATOM     44  C   UNL     1       9.363   0.694   1.457  1.00  0.00     0.029 A 
ATOM     45  N   UNL     1      10.821   0.279   3.104  1.00  0.00    -0.354 N 
ATOM     46  C   UNL     1      12.057  -3.791   3.986  1.00  0.00     0.074 A 
ATOM     47  C   UNL     1      11.394  -4.733   3.113  1.00  0.00     0.031 C 
ATOM     48  C   UNL     1       9.668   1.869   2.033  1.00  0.00     0.029 A 
ATOM     49  C   UNL     1      10.592   1.633   3.140  1.00  0.00     0.049 A 
ATOM     50  H   UNL     1      11.448  -0.179   3.709  1.00  0.00     0.167 HD
ATOM     51  C   UNL     1      12.946  -4.138   4.946  1.00  0.00     0.034 A 
ATOM     52  C   UNL     1      11.066   2.568   3.986  1.00  0.00     0.034 A 
ATOM     53  C   UNL     1      13.614  -3.189   5.794  1.00  0.00     0.049 A 
ATOM     54  C   UNL     1      12.043   2.153   5.054  1.00  0.00     0.074 A 
ATOM     55  C   UNL     1      14.566  -3.427   6.769  1.00  0.00     0.029 A 
ATOM     56  N   UNL     1      13.392  -1.820   5.775  1.00  0.00    -0.354 N 
ATOM     57  N   UNL     1      12.534   0.964   5.309  1.00  0.00    -0.248 NA
ATOM     58  C   UNL     1      12.560   3.216   5.928  1.00  0.00     0.031 C 
ATOM     59  C   UNL     1      14.897  -2.203   7.360  1.00  0.00     0.029 A 
ATOM     60  C   UNL     1      14.179  -1.200   6.729  1.00  0.00     0.049 A 
ATOM     61  H   UNL     1      12.766  -1.358   5.172  1.00  0.00     0.167 HD
ATOM     62  C   UNL     1      13.447   1.141   6.343  1.00  0.00     0.074 A 
ATOM     63  C   UNL     1      13.452   2.557   6.654  1.00  0.00     0.031 C 
ATOM     64  C   UNL     1      14.206   0.218   6.986  1.00  0.00     0.034 A 
BRANCH  51  65
ATOM     65  C   UNL     1      13.258  -5.601   5.114  1.00  0.00     0.023 A 
ATOM     66  C   UNL     1      14.019  -6.272   4.135  1.00  0.00     0.012 A 
ATOM     67  C   UNL     1      12.835  -6.302   6.260  1.00  0.00     0.148 A 
ATOM     68  C   UNL     1      14.326  -7.625   4.277  1.00  0.00     0.002 A 
ATOM     69  C   UNL     1      13.185  -7.638   6.418  1.00  0.00     0.091 A 
ATOM     70  F   UNL     1      12.091  -5.654   7.167  1.00  0.00    -0.205 F 
ATOM     71  C   UNL     1      13.919  -8.304   5.423  1.00  0.00     0.022 A 
BRANCH  69  72
ATOM     72  S   UNL     1      12.775  -8.578   7.892  1.00  0.00     0.127 S 
ATOM     73  O   UNL     1      11.766  -9.505   7.382  1.00  0.00    -0.237 OA
ATOM     74  O   UNL     1      14.057  -9.198   8.227  1.00  0.00    -0.237 OA
ATOM     75  O   UNL     1      12.296  -7.609   8.867  1.00  0.00    -0.744 OA
ENDBRANCH  69  72
ENDBRANCH  51  65
BRANCH  52  76
ATOM     76  C   UNL     1      10.655   3.990   3.826  1.00  0.00     0.023 A 
ATOM     77  C   UNL     1      11.598   4.943   3.396  1.00  0.00     0.012 A 
ATOM     78  C   UNL     1       9.331   4.399   4.078  1.00  0.00     0.148 A 
ATOM     79  C   UNL     1      11.238   6.283   3.251  1.00  0.00     0.002 A 
ATOM     80  C   UNL     1       8.965   5.724   3.878  1.00  0.00     0.091 A 
ATOM     81  F   UNL     1       8.451   3.479   4.500  1.00  0.00    -0.205 F 
ATOM     82  C   UNL     1       9.921   6.672   3.482  1.00  0.00     0.022 A 
BRANCH  80  83
ATOM     83  S   UNL     1       7.266   6.288   4.030  1.00  0.00     0.127 S 
ATOM     84  O   UNL     1       7.328   7.100   5.243  1.00  0.00    -0.237 OA
ATOM     85  O   UNL     1       7.087   7.043   2.790  1.00  0.00    -0.237 OA
ATOM     86  O   UNL     1       6.457   5.080   4.119  1.00  0.00    -0.744 OA
ENDBRANCH  80  83
ENDBRANCH  52  76
BRANCH  64  87
ATOM     87  C   UNL     1      15.140   0.711   8.060  1.00  0.00     0.023 A 
ATOM     88  C   UNL     1      14.623   1.157   9.293  1.00  0.00     0.012 A 
ATOM     89  C   UNL     1      16.535   0.664   7.870  1.00  0.00     0.148 A 
ATOM     90  C   UNL     1      15.480   1.586  10.306  1.00  0.00     0.002 A 
ATOM     91  C   UNL     1      17.384   1.044   8.903  1.00  0.00     0.091 A 
ATOM     92  F   UNL     1      17.007   0.253   6.684  1.00  0.00    -0.205 F 
ATOM     93  C   UNL     1      16.859   1.519  10.115  1.00  0.00     0.022 A 
BRANCH  91  94
ATOM     94  S   UNL     1      19.170   0.894   8.783  1.00  0.00     0.127 S 
ATOM     95  O   UNL     1      19.577   2.291   8.638  1.00  0.00    -0.237 OA
ATOM     96  O   UNL     1      19.518   0.287  10.068  1.00  0.00    -0.237 OA
ATOM     97  O   UNL     1      19.424   0.045   7.627  1.00  0.00    -0.744 OA
ENDBRANCH  91  94
ENDBRANCH  64  87
ENDBRANCH  38  39
ENDBRANCH  31  33
ENDBRANCH  30  31
ENDBRANCH  29  30
ENDBRANCH   1  29
TORSDOF 20
