REMARK SMILES CNC(=O)NC(=O)CCSc1csc(C(=O)OCCOCCOC(=O)c2ccc(-c3c4nc(c(-c5cccc(S(=O)(=O)[O-])c5F)c5ccc([nH]5)c(-c5cccc(S(=O)(=O)[O-])c5F)c5nc(c(-c6cccc(S(=O)(=O)[O-])c6F)c6ccc3[nH]6)C=C5)C=C4)cc2)c1
REMARK SMILES IDX 19 1 18 2 17 3 15 4 16 5 14 6 11 7 12 8 89 9 13 10 10 11
REMARK SMILES IDX 9 12 8 13 6 14 1 15 2 16 3 17 4 19 5 20 7 22 20 23 21 24
REMARK SMILES IDX 22 25 23 26 24 27 25 28 26 29 27 30 88 31 28 32 87 33 29 34
REMARK SMILES IDX 30 35 31 36 81 37 32 38 86 39 80 40 82 41 33 42 85 43 79 44
REMARK SMILES IDX 78 45 34 47 66 48 46 49 65 50 47 51 50 52 64 53 83 54 48 55
REMARK SMILES IDX 49 56 63 58 84 59 51 60 35 61 36 62 44 63 37 64 39 65 45 66
REMARK SMILES IDX 38 67 40 68 41 69 42 70 43 71 67 72 68 73 76 74 69 75 71 76
REMARK SMILES IDX 77 77 70 78 72 79 73 80 74 81 75 82 52 83 53 84 61 85 54 86
REMARK SMILES IDX 56 87 62 88 55 89 57 90 58 91 59 92 60 93
REMARK H PARENT 2 18 5 21 82 46 50 57
REMARK Flexibility Score: inf
ROOT
ATOM      1  C   UNL     1      -3.732   1.253  -5.988  1.00  0.00     0.202 C 
ENDROOT
BRANCH   1   2
ATOM      2  C   UNL     1      -2.384   1.190  -6.713  1.00  0.00     0.261 C 
BRANCH   2   3
ATOM      3  O   UNL     1      -1.302   1.455  -5.809  1.00  0.00    -0.459 OA
BRANCH   3   4
ATOM      4  C   UNL     1      -0.829   2.733  -5.775  1.00  0.00     0.348 C 
ATOM      5  O   UNL     1      -1.142   3.620  -6.560  1.00  0.00    -0.245 OA
BRANCH   4   6
ATOM      6  C   UNL     1       0.030   2.878  -4.619  1.00  0.00     0.113 A 
ATOM      7  C   UNL     1       1.391   2.397  -2.784  1.00  0.00     0.019 A 
ATOM      8  C   UNL     1       1.108   3.728  -2.577  1.00  0.00     0.080 A 
ATOM      9  C   UNL     1       0.792   1.917  -3.980  1.00  0.00     0.042 A 
ATOM     10  S   UNL     1       0.141   4.389  -3.825  1.00  0.00    -0.136 S 
BRANCH   7  11
ATOM     11  S   UNL     1       2.378   1.464  -1.667  1.00  0.00    -0.125 SA
BRANCH  11  12
ATOM     12  C   UNL     1       2.113  -0.269  -2.148  1.00  0.00     0.085 C 
BRANCH  12  13
ATOM     13  C   UNL     1       0.892  -0.965  -1.560  1.00  0.00     0.112 C 
BRANCH  13  14
ATOM     14  C   UNL     1      -0.456  -0.383  -1.905  1.00  0.00     0.228 C 
ATOM     15  C   UNL     1       0.482   0.204   1.523  1.00  0.00     0.144 C 
ATOM     16  N   UNL     1      -0.054   1.329   0.798  1.00  0.00    -0.341 N 
ATOM     17  C   UNL     1      -0.894   1.373  -0.257  1.00  0.00     0.321 C 
ATOM     18  H   UNL     1       0.241   2.209   1.126  1.00  0.00     0.165 HD
ATOM     19  O   UNL     1      -1.432   2.443  -0.543  1.00  0.00    -0.248 OA
ATOM     20  N   UNL     1      -1.215   0.245  -0.944  1.00  0.00    -0.278 N 
ATOM     21  H   UNL     1      -2.084  -0.167  -0.732  1.00  0.00     0.174 HD
ATOM     22  O   UNL     1      -0.923  -0.502  -3.041  1.00  0.00    -0.275 OA
ENDBRANCH  13  14
ENDBRANCH  12  13
ENDBRANCH  11  12
ENDBRANCH   7  11
ENDBRANCH   4   6
ENDBRANCH   3   4
ENDBRANCH   2   3
ENDBRANCH   1   2
BRANCH   1  23
ATOM     23  O   UNL     1      -4.077   2.570  -5.554  1.00  0.00    -0.374 OA
BRANCH  23  24
ATOM     24  C   UNL     1      -3.743   2.862  -4.192  1.00  0.00     0.202 C 
BRANCH  24  25
ATOM     25  C   UNL     1      -4.864   2.522  -3.205  1.00  0.00     0.261 C 
BRANCH  25  26
ATOM     26  O   UNL     1      -4.973   1.096  -3.030  1.00  0.00    -0.460 OA
BRANCH  26  27
ATOM     27  C   UNL     1      -6.019   0.516  -3.666  1.00  0.00     0.338 C 
ATOM     28  O   UNL     1      -6.923   1.077  -4.263  1.00  0.00    -0.246 OA
BRANCH  27  29
ATOM     29  C   UNL     1      -5.844  -0.951  -3.674  1.00  0.00     0.060 A 
ATOM     30  C   UNL     1      -6.093  -1.624  -4.876  1.00  0.00     0.016 A 
ATOM     31  C   UNL     1      -5.488  -1.663  -2.525  1.00  0.00     0.016 A 
ATOM     32  C   UNL     1      -6.030  -3.015  -4.924  1.00  0.00     0.010 A 
ATOM     33  C   UNL     1      -5.427  -3.060  -2.575  1.00  0.00     0.010 A 
ATOM     34  C   UNL     1      -5.729  -3.744  -3.766  1.00  0.00    -0.014 A 
BRANCH  34  35
ATOM     35  C   UNL     1      -5.849  -5.222  -3.774  1.00  0.00     0.031 A 
ATOM     36  C   UNL     1      -7.073  -5.864  -3.180  1.00  0.00     0.074 A 
ATOM     37  C   UNL     1      -4.875  -5.986  -4.300  1.00  0.00     0.049 A 
ATOM     38  N   UNL     1      -7.372  -7.132  -3.072  1.00  0.00    -0.248 NA
ATOM     39  C   UNL     1      -8.094  -4.955  -2.632  1.00  0.00     0.031 C 
ATOM     40  C   UNL     1      -3.638  -5.484  -4.896  1.00  0.00     0.029 A 
ATOM     41  N   UNL     1      -4.766  -7.351  -4.395  1.00  0.00    -0.354 N 
ATOM     42  C   UNL     1      -8.601  -7.177  -2.424  1.00  0.00     0.074 A 
ATOM     43  C   UNL     1      -8.985  -5.810  -2.149  1.00  0.00     0.031 C 
ATOM     44  C   UNL     1      -2.881  -6.530  -5.272  1.00  0.00     0.029 A 
ATOM     45  C   UNL     1      -3.570  -7.772  -4.926  1.00  0.00     0.049 A 
ATOM     46  H   UNL     1      -5.476  -7.970  -4.109  1.00  0.00     0.167 HD
ATOM     47  C   UNL     1      -9.351  -8.258  -2.103  1.00  0.00     0.034 A 
ATOM     48  C   UNL     1      -3.080  -9.016  -5.098  1.00  0.00     0.034 A 
ATOM     49  C   UNL     1      -8.983  -9.615  -2.401  1.00  0.00     0.049 A 
ATOM     50  C   UNL     1      -3.929 -10.203  -4.720  1.00  0.00     0.074 A 
ATOM     51  C   UNL     1      -9.706 -10.772  -2.170  1.00  0.00     0.029 A 
ATOM     52  N   UNL     1      -7.786 -10.001  -2.983  1.00  0.00    -0.354 N 
ATOM     53  N   UNL     1      -5.147 -10.226  -4.234  1.00  0.00    -0.248 NA
ATOM     54  C   UNL     1      -3.350 -11.536  -4.945  1.00  0.00     0.031 C 
ATOM     55  C   UNL     1      -8.935 -11.861  -2.592  1.00  0.00     0.029 A 
ATOM     56  C   UNL     1      -7.741 -11.379  -3.105  1.00  0.00     0.049 A 
ATOM     57  H   UNL     1      -7.072  -9.385  -3.268  1.00  0.00     0.167 HD
ATOM     58  C   UNL     1      -5.491 -11.569  -4.124  1.00  0.00     0.074 A 
ATOM     59  C   UNL     1      -4.361 -12.330  -4.615  1.00  0.00     0.031 C 
ATOM     60  C   UNL     1      -6.632 -12.123  -3.645  1.00  0.00     0.034 A 
BRANCH  47  61
ATOM     61  C   UNL     1     -10.671  -8.013  -1.423  1.00  0.00     0.023 A 
ATOM     62  C   UNL     1     -11.754  -7.505  -2.170  1.00  0.00     0.012 A 
ATOM     63  C   UNL     1     -10.858  -8.337  -0.065  1.00  0.00     0.148 A 
ATOM     64  C   UNL     1     -12.994  -7.296  -1.569  1.00  0.00     0.002 A 
ATOM     65  C   UNL     1     -12.108  -8.163   0.517  1.00  0.00     0.091 A 
ATOM     66  F   UNL     1      -9.810  -8.795   0.633  1.00  0.00    -0.205 F 
ATOM     67  C   UNL     1     -13.174  -7.635  -0.230  1.00  0.00     0.022 A 
BRANCH  65  68
ATOM     68  S   UNL     1     -12.457  -8.636   2.215  1.00  0.00     0.127 S 
ATOM     69  O   UNL     1     -12.547  -7.333   2.871  1.00  0.00    -0.237 OA
ATOM     70  O   UNL     1     -13.732  -9.342   2.084  1.00  0.00    -0.237 OA
ATOM     71  O   UNL     1     -11.341  -9.473   2.633  1.00  0.00    -0.744 OA
ENDBRANCH  65  68
ENDBRANCH  47  61
BRANCH  48  72
ATOM     72  C   UNL     1      -1.728  -9.205  -5.694  1.00  0.00     0.023 A 
ATOM     73  C   UNL     1      -1.608  -9.751  -6.987  1.00  0.00     0.012 A 
ATOM     74  C   UNL     1      -0.563  -8.826  -4.998  1.00  0.00     0.148 A 
ATOM     75  C   UNL     1      -0.352  -9.940  -7.565  1.00  0.00     0.002 A 
ATOM     76  C   UNL     1       0.681  -8.966  -5.601  1.00  0.00     0.091 A 
ATOM     77  F   UNL     1      -0.696  -8.329  -3.760  1.00  0.00    -0.205 F 
ATOM     78  C   UNL     1       0.790  -9.538  -6.878  1.00  0.00     0.022 A 
BRANCH  76  79
ATOM     79  S   UNL     1       2.190  -8.355  -4.840  1.00  0.00     0.127 S 
ATOM     80  O   UNL     1       2.845  -9.595  -4.435  1.00  0.00    -0.237 OA
ATOM     81  O   UNL     1       2.830  -7.655  -5.954  1.00  0.00    -0.237 OA
ATOM     82  O   UNL     1       1.757  -7.482  -3.757  1.00  0.00    -0.744 OA
ENDBRANCH  76  79
ENDBRANCH  48  72
BRANCH  60  83
ATOM     83  C   UNL     1      -6.738 -13.627  -3.645  1.00  0.00     0.023 A 
ATOM     84  C   UNL     1      -6.008 -14.376  -2.701  1.00  0.00     0.012 A 
ATOM     85  C   UNL     1      -7.625 -14.289  -4.517  1.00  0.00     0.148 A 
ATOM     86  C   UNL     1      -6.139 -15.763  -2.643  1.00  0.00     0.002 A 
ATOM     87  C   UNL     1      -7.784 -15.667  -4.423  1.00  0.00     0.091 A 
ATOM     88  F   UNL     1      -8.298 -13.560  -5.420  1.00  0.00    -0.205 F 
ATOM     89  C   UNL     1      -7.035 -16.406  -3.494  1.00  0.00     0.022 A 
BRANCH  87  90
ATOM     90  S   UNL     1      -8.982 -16.568  -5.414  1.00  0.00     0.127 S 
ATOM     91  O   UNL     1      -8.119 -17.258  -6.370  1.00  0.00    -0.237 OA
ATOM     92  O   UNL     1      -9.614 -17.440  -4.422  1.00  0.00    -0.237 OA
ATOM     93  O   UNL     1      -9.869 -15.562  -5.983  1.00  0.00    -0.744 OA
ENDBRANCH  87  90
ENDBRANCH  60  83
ENDBRANCH  34  35
ENDBRANCH  27  29
ENDBRANCH  26  27
ENDBRANCH  25  26
ENDBRANCH  24  25
ENDBRANCH  23  24
ENDBRANCH   1  23
TORSDOF 21
