REMARK SMILES COc1ccc(-c2c(C(=O)OCCOCCOC(=O)c3ccc(-c4c5nc(c(-c6cccc(S(=O)(=O)[O-])c6F)c6ccc([nH]6)c(-c6cccc(S(=O)(=O)[O-])c6F)c6nc(c(-c7cccc(S(=O)(=O)[O-])c7F)c7ccc4[nH]7)C=C6)C=C5)cc3)sc3c2N=C(O)C[C@H]3c2ccc(OC)c(OC)c2)cc1
REMARK SMILES IDX 15 1 14 2 13 3 12 4 11 5 9 6 10 7 8 8 7 9 85 10 83 11 84 12
REMARK SMILES IDX 86 13 90 14 87 15 89 16 6 17 3 18 4 19 102 20 5 21 101 22
REMARK SMILES IDX 2 23 1 24 91 25 92 26 100 27 93 28 97 29 94 30 98 31 99 32
REMARK SMILES IDX 95 33 96 34 88 35 16 37 17 38 18 39 19 40 20 41 21 42 82 43
REMARK SMILES IDX 22 44 81 45 23 46 24 47 25 48 75 49 26 50 80 51 74 52 76 53
REMARK SMILES IDX 27 54 79 55 73 56 72 57 28 59 60 60 40 61 59 62 41 63 44 64
REMARK SMILES IDX 58 65 77 66 42 67 43 68 57 70 78 71 45 72 29 73 30 74 38 75
REMARK SMILES IDX 31 76 33 77 39 78 32 79 34 80 35 81 36 82 37 83 61 84 62 85
REMARK SMILES IDX 70 86 63 87 65 88 71 89 64 90 66 91 67 92 68 93 69 94 46 95
REMARK SMILES IDX 47 96 55 97 48 98 50 99 56 100 49 101 51 102 52 103 53 104
REMARK SMILES IDX 54 105
REMARK H PARENT 88 36 76 58 44 69
REMARK Flexibility Score: inf
ROOT
ATOM      1  C   UNL     1      -0.013  -8.332   1.559  1.00  0.00     0.202 C 
ENDROOT
BRANCH   1   2
ATOM      2  O   UNL     1      -1.332  -8.061   1.092  1.00  0.00    -0.374 OA
BRANCH   2   3
ATOM      3  C   UNL     1      -1.748  -6.715   0.855  1.00  0.00     0.202 C 
BRANCH   3   4
ATOM      4  C   UNL     1      -1.850  -5.770   2.049  1.00  0.00     0.261 C 
BRANCH   4   5
ATOM      5  O   UNL     1      -0.577  -5.531   2.661  1.00  0.00    -0.459 OA
BRANCH   5   6
ATOM      6  C   UNL     1      -0.431  -6.006   3.926  1.00  0.00     0.349 C 
ATOM      7  O   UNL     1      -1.307  -6.627   4.536  1.00  0.00    -0.245 OA
BRANCH   6   8
ATOM      8  C   UNL     1       0.905  -5.766   4.423  1.00  0.00     0.123 A 
ATOM      9  C   UNL     1       1.762  -4.673   4.311  1.00  0.00     0.033 A 
ATOM     10  C   UNL     1       2.916  -4.869   5.136  1.00  0.00     0.090 A 
ATOM     11  S   UNL     1       1.622  -7.048   5.324  1.00  0.00    -0.130 S 
ATOM     12  C   UNL     1       2.971  -6.101   5.728  1.00  0.00     0.040 A 
ATOM     13  N   UNL     1       3.853  -3.861   5.378  1.00  0.00    -0.216 NA
ATOM     14  C   UNL     1       4.045  -6.572   6.650  1.00  0.00     0.071 C 
ATOM     15  C   UNL     1       4.833  -4.182   6.154  1.00  0.00     0.186 C 
ATOM     16  C   UNL     1       5.145  -5.512   6.797  1.00  0.00     0.111 C 
BRANCH   9  17
ATOM     17  C   UNL     1       1.438  -3.482   3.526  1.00  0.00    -0.014 A 
ATOM     18  C   UNL     1       0.781  -1.286   1.889  1.00  0.00     0.118 A 
ATOM     19  C   UNL     1      -0.109  -1.736   2.865  1.00  0.00     0.047 A 
ATOM     20  C   UNL     1       2.021  -1.909   1.758  1.00  0.00     0.047 A 
ATOM     21  C   UNL     1       0.217  -2.818   3.686  1.00  0.00     0.012 A 
ATOM     22  C   UNL     1       2.347  -3.002   2.574  1.00  0.00     0.012 A 
BRANCH  18  23
ATOM     23  O   UNL     1       0.333  -0.221   1.157  1.00  0.00    -0.497 OA
ATOM     24  C   UNL     1       1.035   0.065  -0.048  1.00  0.00     0.278 C 
ENDBRANCH  18  23
ENDBRANCH   9  17
BRANCH  14  25
ATOM     25  C   UNL     1       3.504  -7.002   8.011  1.00  0.00    -0.035 A 
ATOM     26  C   UNL     1       2.758  -6.126   8.806  1.00  0.00     0.008 A 
ATOM     27  C   UNL     1       3.737  -8.307   8.481  1.00  0.00     0.054 A 
ATOM     28  C   UNL     1       2.263  -6.551  10.037  1.00  0.00     0.051 A 
ATOM     29  C   UNL     1       3.250  -8.745   9.725  1.00  0.00     0.161 A 
ATOM     30  C   UNL     1       2.497  -7.852  10.508  1.00  0.00     0.160 A 
BRANCH  29  31
ATOM     31  O   UNL     1       3.490 -10.001  10.216  1.00  0.00    -0.493 OA
ATOM     32  C   UNL     1       4.254 -10.901   9.425  1.00  0.00     0.278 C 
ENDBRANCH  29  31
BRANCH  30  33
ATOM     33  O   UNL     1       1.935  -8.057  11.742  1.00  0.00    -0.493 OA
ATOM     34  C   UNL     1       1.885  -9.378  12.256  1.00  0.00     0.278 C 
ENDBRANCH  30  33
ENDBRANCH  14  25
BRANCH  15  35
ATOM     35  O   UNL     1       5.738  -3.225   6.449  1.00  0.00    -0.496 OA
ATOM     36  H   UNL     1       5.637  -2.361   6.100  1.00  0.00     0.294 HD
ENDBRANCH  15  35
ENDBRANCH   6   8
ENDBRANCH   5   6
ENDBRANCH   4   5
ENDBRANCH   3   4
ENDBRANCH   2   3
ENDBRANCH   1   2
BRANCH   1  37
ATOM     37  C   UNL     1       1.161  -8.109   0.615  1.00  0.00     0.261 C 
BRANCH  37  38
ATOM     38  O   UNL     1       1.209  -6.780   0.130  1.00  0.00    -0.460 OA
BRANCH  38  39
ATOM     39  C   UNL     1       0.704  -6.637  -1.114  1.00  0.00     0.338 C 
ATOM     40  O   UNL     1       0.039  -7.450  -1.742  1.00  0.00    -0.246 OA
BRANCH  39  41
ATOM     41  C   UNL     1       1.181  -5.372  -1.671  1.00  0.00     0.060 A 
ATOM     42  C   UNL     1       0.783  -5.096  -2.981  1.00  0.00     0.016 A 
ATOM     43  C   UNL     1       2.262  -4.724  -1.056  1.00  0.00     0.016 A 
ATOM     44  C   UNL     1       1.654  -4.395  -3.775  1.00  0.00     0.010 A 
ATOM     45  C   UNL     1       3.134  -4.032  -1.851  1.00  0.00     0.010 A 
ATOM     46  C   UNL     1       2.869  -3.989  -3.216  1.00  0.00    -0.014 A 
BRANCH  46  47
ATOM     47  C   UNL     1       3.885  -3.486  -4.105  1.00  0.00     0.031 A 
ATOM     48  C   UNL     1       3.607  -2.099  -4.525  1.00  0.00     0.074 A 
ATOM     49  C   UNL     1       4.981  -4.217  -4.389  1.00  0.00     0.049 A 
ATOM     50  N   UNL     1       3.226  -1.690  -5.688  1.00  0.00    -0.248 NA
ATOM     51  C   UNL     1       3.511  -1.081  -3.465  1.00  0.00     0.031 C 
ATOM     52  C   UNL     1       5.433  -5.464  -3.760  1.00  0.00     0.029 A 
ATOM     53  N   UNL     1       6.014  -3.905  -5.209  1.00  0.00    -0.354 N 
ATOM     54  C   UNL     1       3.100  -0.312  -5.553  1.00  0.00     0.074 A 
ATOM     55  C   UNL     1       3.022  -0.044  -4.143  1.00  0.00     0.031 C 
ATOM     56  C   UNL     1       6.754  -5.627  -4.008  1.00  0.00     0.029 A 
ATOM     57  C   UNL     1       7.195  -4.575  -4.908  1.00  0.00     0.049 A 
ATOM     58  H   UNL     1       5.936  -3.262  -5.950  1.00  0.00     0.167 HD
ATOM     59  C   UNL     1       3.398   0.523  -6.584  1.00  0.00     0.034 A 
ATOM     60  C   UNL     1       8.444  -4.191  -5.280  1.00  0.00     0.034 A 
ATOM     61  C   UNL     1       3.466  -0.188  -7.833  1.00  0.00     0.049 A 
ATOM     62  C   UNL     1       8.289  -3.229  -6.401  1.00  0.00     0.074 A 
ATOM     63  C   UNL     1       2.581  -0.947  -8.571  1.00  0.00     0.029 A 
ATOM     64  N   UNL     1       4.723  -0.510  -8.288  1.00  0.00    -0.354 N 
ATOM     65  N   UNL     1       7.794  -3.559  -7.563  1.00  0.00    -0.248 NA
ATOM     66  C   UNL     1       8.214  -1.813  -6.067  1.00  0.00     0.031 C 
ATOM     67  C   UNL     1       3.365  -2.018  -9.089  1.00  0.00     0.029 A 
ATOM     68  C   UNL     1       4.692  -1.814  -8.703  1.00  0.00     0.049 A 
ATOM     69  H   UNL     1       5.503   0.089  -8.312  1.00  0.00     0.167 HD
ATOM     70  C   UNL     1       6.951  -2.503  -7.892  1.00  0.00     0.074 A 
ATOM     71  C   UNL     1       7.319  -1.420  -6.980  1.00  0.00     0.031 C 
ATOM     72  C   UNL     1       5.832  -2.702  -8.648  1.00  0.00     0.034 A 
BRANCH  59  73
ATOM     73  C   UNL     1       4.032   1.881  -6.417  1.00  0.00     0.023 A 
ATOM     74  C   UNL     1       4.106   2.699  -7.563  1.00  0.00     0.012 A 
ATOM     75  C   UNL     1       4.798   2.276  -5.295  1.00  0.00     0.148 A 
ATOM     76  C   UNL     1       4.938   3.822  -7.607  1.00  0.00     0.002 A 
ATOM     77  C   UNL     1       5.559   3.436  -5.314  1.00  0.00     0.091 A 
ATOM     78  F   UNL     1       4.920   1.465  -4.241  1.00  0.00    -0.205 F 
ATOM     79  C   UNL     1       5.659   4.196  -6.479  1.00  0.00     0.022 A 
BRANCH  77  80
ATOM     80  S   UNL     1       6.476   3.979  -3.867  1.00  0.00     0.127 S 
ATOM     81  O   UNL     1       7.848   3.673  -4.261  1.00  0.00    -0.237 OA
ATOM     82  O   UNL     1       6.143   5.403  -3.822  1.00  0.00    -0.237 OA
ATOM     83  O   UNL     1       5.940   3.207  -2.753  1.00  0.00    -0.744 OA
ENDBRANCH  77  80
ENDBRANCH  59  73
BRANCH  60  84
ATOM     84  C   UNL     1       9.705  -4.295  -4.502  1.00  0.00     0.023 A 
ATOM     85  C   UNL     1      10.951  -4.231  -5.157  1.00  0.00     0.012 A 
ATOM     86  C   UNL     1       9.692  -4.190  -3.092  1.00  0.00     0.148 A 
ATOM     87  C   UNL     1      12.139  -4.056  -4.433  1.00  0.00     0.002 A 
ATOM     88  C   UNL     1      10.875  -4.029  -2.376  1.00  0.00     0.091 A 
ATOM     89  F   UNL     1       8.512  -4.155  -2.460  1.00  0.00    -0.205 F 
ATOM     90  C   UNL     1      12.102  -3.951  -3.045  1.00  0.00     0.022 A 
BRANCH  88  91
ATOM     91  S   UNL     1      10.897  -3.870  -0.584  1.00  0.00     0.127 S 
ATOM     92  O   UNL     1      11.874  -4.891  -0.203  1.00  0.00    -0.237 OA
ATOM     93  O   UNL     1      11.350  -2.493  -0.406  1.00  0.00    -0.237 OA
ATOM     94  O   UNL     1       9.537  -4.149  -0.139  1.00  0.00    -0.744 OA
ENDBRANCH  88  91
ENDBRANCH  60  84
BRANCH  72  95
ATOM     95  C   UNL     1       5.644  -4.045  -9.305  1.00  0.00     0.023 A 
ATOM     96  C   UNL     1       5.386  -5.224  -8.572  1.00  0.00     0.012 A 
ATOM     97  C   UNL     1       5.504  -4.067 -10.700  1.00  0.00     0.148 A 
ATOM     98  C   UNL     1       5.003  -6.400  -9.224  1.00  0.00     0.002 A 
ATOM     99  C   UNL     1       5.075  -5.222 -11.339  1.00  0.00     0.091 A 
ATOM    100  F   UNL     1       5.748  -2.933 -11.375  1.00  0.00    -0.205 F 
ATOM    101  C   UNL     1       4.831  -6.394 -10.606  1.00  0.00     0.022 A 
BRANCH  99 102
ATOM    102  S   UNL     1       4.698  -5.232 -13.092  1.00  0.00     0.127 S 
ATOM    103  O   UNL     1       5.799  -6.025 -13.635  1.00  0.00    -0.237 OA
ATOM    104  O   UNL     1       3.392  -5.892 -13.126  1.00  0.00    -0.237 OA
ATOM    105  O   UNL     1       4.670  -3.835 -13.507  1.00  0.00    -0.744 OA
ENDBRANCH  99 102
ENDBRANCH  72  95
ENDBRANCH  46  47
ENDBRANCH  39  41
ENDBRANCH  38  39
ENDBRANCH  37  38
ENDBRANCH   1  37
TORSDOF 23
