REMARK SMILES CCn1c(N2CCC(C(=O)OCCOCCOC(=O)c3ccc(-c4c5nc(c(-c6cccc(S(=O)(=O)[O-])c6F)c6ccc([nH]6)c(-c6cccc(S(=O)(=O)[O-])c6F)c6nc(c(-c7cccc(S(=O)(=O)[O-])c7F)c7ccc4[nH]7)C=C6)C=C5)cc3)CC2)nc2cc(C)ccc21
REMARK SMILES IDX 15 1 14 2 13 3 12 4 11 5 9 6 10 7 8 8 5 9 6 10 84 11 7 12
REMARK SMILES IDX 83 13 4 14 3 15 92 16 85 17 86 18 91 19 87 20 90 21 88 22
REMARK SMILES IDX 89 23 2 24 1 25 16 26 17 27 18 28 19 29 20 30 21 31 82 32
REMARK SMILES IDX 22 33 81 34 23 35 24 36 25 37 75 38 26 39 80 40 74 41 76 42
REMARK SMILES IDX 27 43 79 44 73 45 72 46 28 48 60 49 40 50 59 51 41 52 44 53
REMARK SMILES IDX 58 54 77 55 42 56 43 57 57 59 78 60 45 61 29 62 30 63 38 64
REMARK SMILES IDX 31 65 33 66 39 67 32 68 34 69 35 70 36 71 37 72 61 73 62 74
REMARK SMILES IDX 70 75 63 76 65 77 71 78 64 79 66 80 67 81 68 82 69 83 46 84
REMARK SMILES IDX 47 85 55 86 48 87 50 88 56 89 49 90 51 91 52 92 53 93 54 94
REMARK H PARENT 76 47 44 58
REMARK Flexibility Score: inf
ROOT
ATOM      1  C   UNL     1       6.194   0.034   5.996  1.00  0.00     0.202 C 
ENDROOT
BRANCH   1   2
ATOM      2  O   UNL     1       5.767   0.594   7.239  1.00  0.00    -0.374 OA
BRANCH   2   3
ATOM      3  C   UNL     1       4.839  -0.138   8.033  1.00  0.00     0.202 C 
BRANCH   3   4
ATOM      4  C   UNL     1       3.382  -0.262   7.572  1.00  0.00     0.261 C 
BRANCH   4   5
ATOM      5  O   UNL     1       3.245  -0.640   6.199  1.00  0.00    -0.463 OA
BRANCH   5   6
ATOM      6  C   UNL     1       2.966   0.397   5.375  1.00  0.00     0.309 C 
ATOM      7  O   UNL     1       2.829   1.567   5.719  1.00  0.00    -0.252 OA
BRANCH   6   8
ATOM      8  C   UNL     1       2.796  -0.019   3.941  1.00  0.00     0.103 C 
ATOM      9  N   UNL     1       2.026  -1.334   1.543  1.00  0.00    -0.342 N 
ATOM     10  C   UNL     1       3.444  -1.317   1.905  1.00  0.00     0.120 C 
ATOM     11  C   UNL     1       1.108  -0.412   2.208  1.00  0.00     0.120 C 
ATOM     12  C   UNL     1       3.671  -1.152   3.409  1.00  0.00     0.037 C 
ATOM     13  C   UNL     1       1.337  -0.373   3.704  1.00  0.00     0.037 C 
BRANCH   9  14
ATOM     14  C   UNL     1       1.532  -2.426   0.913  1.00  0.00     0.206 A 
ATOM     15  N   UNL     1       0.721  -2.364  -0.202  1.00  0.00    -0.310 N 
ATOM     16  C   UNL     1       0.356  -3.664  -0.518  1.00  0.00     0.070 A 
ATOM     17  N   UNL     1       1.780  -3.675   1.244  1.00  0.00    -0.213 NA
ATOM     18  C   UNL     1       1.021  -4.451   0.410  1.00  0.00     0.091 A 
ATOM     19  C   UNL     1      -0.466  -4.200  -1.517  1.00  0.00     0.029 A 
ATOM     20  C   UNL     1       0.847  -5.845   0.378  1.00  0.00     0.034 A 
ATOM     21  C   UNL     1      -0.629  -5.588  -1.536  1.00  0.00     0.006 A 
ATOM     22  C   UNL     1       0.008  -6.413  -0.600  1.00  0.00    -0.049 A 
ATOM     23  C   UNL     1      -0.219  -7.896  -0.619  1.00  0.00     0.044 C 
BRANCH  15  24
ATOM     24  C   UNL     1       0.339  -1.266  -1.069  1.00  0.00     0.122 C 
ATOM     25  C   UNL     1       0.762   0.166  -0.799  1.00  0.00     0.028 C 
ENDBRANCH  15  24
ENDBRANCH   9  14
ENDBRANCH   6   8
ENDBRANCH   5   6
ENDBRANCH   4   5
ENDBRANCH   3   4
ENDBRANCH   2   3
ENDBRANCH   1   2
BRANCH   1  26
ATOM     26  C   UNL     1       6.863  -1.353   5.976  1.00  0.00     0.261 C 
BRANCH  26  27
ATOM     27  O   UNL     1       5.962  -2.385   6.393  1.00  0.00    -0.460 OA
BRANCH  27  28
ATOM     28  C   UNL     1       6.512  -3.321   7.214  1.00  0.00     0.338 C 
ATOM     29  O   UNL     1       7.689  -3.633   7.293  1.00  0.00    -0.246 OA
BRANCH  28  30
ATOM     30  C   UNL     1       5.495  -3.578   8.250  1.00  0.00     0.060 A 
ATOM     31  C   UNL     1       4.186  -3.908   7.894  1.00  0.00     0.016 A 
ATOM     32  C   UNL     1       5.815  -3.161   9.553  1.00  0.00     0.016 A 
ATOM     33  C   UNL     1       3.180  -3.754   8.841  1.00  0.00     0.010 A 
ATOM     34  C   UNL     1       4.799  -2.962  10.479  1.00  0.00     0.010 A 
ATOM     35  C   UNL     1       3.479  -3.236  10.116  1.00  0.00    -0.014 A 
BRANCH  35  36
ATOM     36  C   UNL     1       2.425  -3.263  11.131  1.00  0.00     0.031 A 
ATOM     37  C   UNL     1       2.072  -4.659  11.505  1.00  0.00     0.074 A 
ATOM     38  C   UNL     1       1.909  -2.209  11.800  1.00  0.00     0.049 A 
ATOM     39  N   UNL     1       0.966  -5.285  11.266  1.00  0.00    -0.248 NA
ATOM     40  C   UNL     1       3.144  -5.509  12.050  1.00  0.00     0.031 C 
ATOM     41  C   UNL     1       2.357  -0.815  11.766  1.00  0.00     0.029 A 
ATOM     42  N   UNL     1       0.933  -2.192  12.761  1.00  0.00    -0.354 N 
ATOM     43  C   UNL     1       1.133  -6.543  11.836  1.00  0.00     0.074 A 
ATOM     44  C   UNL     1       2.533  -6.690  12.135  1.00  0.00     0.031 C 
ATOM     45  C   UNL     1       1.830  -0.150  12.823  1.00  0.00     0.029 A 
ATOM     46  C   UNL     1       0.904  -1.024  13.524  1.00  0.00     0.049 A 
ATOM     47  H   UNL     1       0.306  -2.939  12.902  1.00  0.00     0.167 HD
ATOM     48  C   UNL     1       0.078  -7.272  12.285  1.00  0.00     0.034 A 
ATOM     49  C   UNL     1       0.208  -0.827  14.673  1.00  0.00     0.034 A 
ATOM     50  C   UNL     1      -1.178  -6.728  11.867  1.00  0.00     0.049 A 
ATOM     51  C   UNL     1      -0.906  -1.798  14.680  1.00  0.00     0.074 A 
ATOM     52  C   UNL     1      -1.924  -6.689  10.712  1.00  0.00     0.029 A 
ATOM     53  N   UNL     1      -1.647  -5.750  12.702  1.00  0.00    -0.354 N 
ATOM     54  N   UNL     1      -1.905  -1.752  13.847  1.00  0.00    -0.248 NA
ATOM     55  C   UNL     1      -0.804  -3.012  15.480  1.00  0.00     0.031 C 
ATOM     56  C   UNL     1      -2.726  -5.513  10.804  1.00  0.00     0.029 A 
ATOM     57  C   UNL     1      -2.463  -4.889  12.022  1.00  0.00     0.049 A 
ATOM     58  H   UNL     1      -1.428  -5.677  13.659  1.00  0.00     0.167 HD
ATOM     59  C   UNL     1      -2.269  -3.075  13.701  1.00  0.00     0.074 A 
ATOM     60  C   UNL     1      -1.709  -3.765  14.852  1.00  0.00     0.031 C 
ATOM     61  C   UNL     1      -2.693  -3.545  12.497  1.00  0.00     0.034 A 
BRANCH  48  62
ATOM     62  C   UNL     1       0.165  -8.187  13.475  1.00  0.00     0.023 A 
ATOM     63  C   UNL     1      -0.799  -9.201  13.626  1.00  0.00     0.012 A 
ATOM     64  C   UNL     1       1.003  -7.912  14.580  1.00  0.00     0.148 A 
ATOM     65  C   UNL     1      -0.897  -9.934  14.815  1.00  0.00     0.002 A 
ATOM     66  C   UNL     1       0.957  -8.693  15.726  1.00  0.00     0.091 A 
ATOM     67  F   UNL     1       1.758  -6.806  14.570  1.00  0.00    -0.205 F 
ATOM     68  C   UNL     1      -0.004  -9.697  15.856  1.00  0.00     0.022 A 
BRANCH  66  69
ATOM     69  S   UNL     1       2.115  -8.451  17.076  1.00  0.00     0.127 S 
ATOM     70  O   UNL     1       1.251  -7.878  18.104  1.00  0.00    -0.237 OA
ATOM     71  O   UNL     1       2.562  -9.821  17.332  1.00  0.00    -0.237 OA
ATOM     72  O   UNL     1       3.150  -7.575  16.544  1.00  0.00    -0.744 OA
ENDBRANCH  66  69
ENDBRANCH  48  62
BRANCH  49  73
ATOM     73  C   UNL     1       0.458   0.002  15.882  1.00  0.00     0.023 A 
ATOM     74  C   UNL     1      -0.612   0.243  16.777  1.00  0.00     0.012 A 
ATOM     75  C   UNL     1       1.768   0.244  16.340  1.00  0.00     0.148 A 
ATOM     76  C   UNL     1      -0.382   0.618  18.105  1.00  0.00     0.002 A 
ATOM     77  C   UNL     1       1.992   0.623  17.664  1.00  0.00     0.091 A 
ATOM     78  F   UNL     1       2.793   0.004  15.512  1.00  0.00    -0.205 F 
ATOM     79  C   UNL     1       0.922   0.788  18.554  1.00  0.00     0.022 A 
BRANCH  77  80
ATOM     80  S   UNL     1       3.647   0.845  18.331  1.00  0.00     0.127 S 
ATOM     81  O   UNL     1       3.508   2.091  19.086  1.00  0.00    -0.237 OA
ATOM     82  O   UNL     1       3.805  -0.352  19.151  1.00  0.00    -0.237 OA
ATOM     83  O   UNL     1       4.526   0.945  17.172  1.00  0.00    -0.744 OA
ENDBRANCH  77  80
ENDBRANCH  49  73
BRANCH  61  84
ATOM     84  C   UNL     1      -3.267  -2.553  11.535  1.00  0.00     0.023 A 
ATOM     85  C   UNL     1      -2.487  -1.604  10.847  1.00  0.00     0.012 A 
ATOM     86  C   UNL     1      -4.636  -2.665  11.247  1.00  0.00     0.148 A 
ATOM     87  C   UNL     1      -3.072  -0.778   9.883  1.00  0.00     0.002 A 
ATOM     88  C   UNL     1      -5.204  -1.872  10.264  1.00  0.00     0.091 A 
ATOM     89  F   UNL     1      -5.351  -3.573  11.928  1.00  0.00    -0.205 F 
ATOM     90  C   UNL     1      -4.427  -0.922   9.581  1.00  0.00     0.022 A 
BRANCH  88  91
ATOM     91  S   UNL     1      -6.914  -2.076   9.766  1.00  0.00     0.127 S 
ATOM     92  O   UNL     1      -7.519  -0.832  10.235  1.00  0.00    -0.237 OA
ATOM     93  O   UNL     1      -6.799  -2.193   8.312  1.00  0.00    -0.237 OA
ATOM     94  O   UNL     1      -7.388  -3.286  10.427  1.00  0.00    -0.744 OA
ENDBRANCH  88  91
ENDBRANCH  61  84
ENDBRANCH  35  36
ENDBRANCH  28  30
ENDBRANCH  27  28
ENDBRANCH  26  27
ENDBRANCH   1  26
TORSDOF 19
