REMARK SMILES O=C(OCCOCCOC(=O)c1ccc(-c2c3nc(c(-c4cccc(S(=O)(=O)[O-])c4F)c4ccc([nH]4)c(-c4cccc(S(=O)(=O)[O-])c4F)c4nc(c(-c5cccc(S(=O)(=O)[O-])c5F)c5ccc2[nH]5)C=C4)C=C3)cc1)C1=Cc2cc(S(F)(F)(F)(F)F)ccc2O[C@H]1C(F)(F)F
REMARK SMILES IDX 7 1 6 2 5 3 4 4 3 5 2 6 1 7 75 8 76 9 90 10 77 11 89 12
REMARK SMILES IDX 78 13 88 14 79 15 87 16 86 17 91 18 92 19 93 20 94 21 80 22
REMARK SMILES IDX 81 23 82 24 83 25 84 26 85 27 8 28 9 29 10 30 11 31 12 32
REMARK SMILES IDX 13 33 74 34 14 35 73 36 15 37 16 38 17 39 67 40 18 41 72 42
REMARK SMILES IDX 66 43 68 44 19 45 71 46 65 47 64 48 20 50 52 51 32 52 51 53
REMARK SMILES IDX 33 54 36 55 50 56 69 57 34 58 35 59 49 61 70 62 37 63 21 64
REMARK SMILES IDX 22 65 30 66 23 67 25 68 31 69 24 70 26 71 27 72 28 73 29 74
REMARK SMILES IDX 53 75 54 76 62 77 55 78 57 79 63 80 56 81 58 82 59 83 60 84
REMARK SMILES IDX 61 85 38 86 39 87 47 88 40 89 42 90 48 91 41 92 43 93 44 94
REMARK SMILES IDX 45 95 46 96
REMARK H PARENT 68 49 36 60
REMARK Flexibility Score: inf
ROOT
ATOM      1  C   UNL     1       2.989   0.124  -1.426  1.00  0.00     0.202 C 
ENDROOT
BRANCH   1   2
ATOM      2  O   UNL     1       4.409   0.124  -1.426  1.00  0.00    -0.374 OA
BRANCH   2   3
ATOM      3  C   UNL     1       4.882  -1.016  -0.723  1.00  0.00     0.202 C 
BRANCH   3   4
ATOM      4  C   UNL     1       4.375  -0.974   0.709  1.00  0.00     0.261 C 
BRANCH   4   5
ATOM      5  O   UNL     1       2.955  -0.974   0.709  1.00  0.00    -0.460 OA
BRANCH   5   6
ATOM      6  C   UNL     1       2.245   0.073   0.063  1.00  0.00     0.338 C 
ATOM      7  O   UNL     1       0.975   0.073   0.063  1.00  0.00    -0.246 OA
BRANCH   6   8
ATOM      8  C   UNL     1       3.006   1.193  -0.628  1.00  0.00     0.087 C 
ATOM      9  C   UNL     1       4.366   1.193  -0.628  1.00  0.00     0.027 C 
ATOM     10  C   UNL     1       2.245   2.313  -1.319  1.00  0.00     0.316 C 
ATOM     11  C   UNL     1       5.126   0.073   0.063  1.00  0.00     0.019 A 
ATOM     12  O   UNL     1       3.541  -1.535  -0.680  1.00  0.00    -0.475 OA
ATOM     13  C   UNL     1       6.257   0.438   0.775  1.00  0.00     0.036 A 
ATOM     14  C   UNL     1       4.787  -1.202  -0.086  1.00  0.00     0.128 A 
ATOM     15  C   UNL     1       7.133  -0.639   1.051  1.00  0.00     0.107 A 
ATOM     16  C   UNL     1       5.632  -2.203   0.330  1.00  0.00     0.048 A 
ATOM     17  C   UNL     1       6.795  -1.914   0.988  1.00  0.00     0.028 A 
BRANCH  10  18
ATOM     18  C   UNL     1       0.751   2.077  -1.173  1.00  0.00     0.430 C 
ATOM     19  F   UNL     1       0.231   3.205  -0.698  1.00  0.00    -0.167 F 
ATOM     20  F   UNL     1       0.260   1.839  -2.386  1.00  0.00    -0.167 F 
ATOM     21  F   UNL     1       0.440   1.069  -0.364  1.00  0.00    -0.167 F 
ENDBRANCH  10  18
BRANCH  15  22
ATOM     22  S   UNL     1       8.834  -0.240   1.523  1.00  0.00     0.310 S 
ATOM     23  F   UNL     1       8.472  -0.266   3.067  1.00  0.00    -0.094 F 
ATOM     24  F   UNL     1       8.441   1.285   1.525  1.00  0.00    -0.094 F 
ATOM     25  F   UNL     1      10.293   0.106   1.933  1.00  0.00    -0.094 F 
ATOM     26  F   UNL     1       9.172  -1.778   1.651  1.00  0.00    -0.094 F 
ATOM     27  F   UNL     1       7.328  -0.612   1.216  1.00  0.00    -0.094 F 
ENDBRANCH  15  22
ENDBRANCH   6   8
ENDBRANCH   5   6
ENDBRANCH   4   5
ENDBRANCH   3   4
ENDBRANCH   2   3
ENDBRANCH   1   2
BRANCH   1  28
ATOM     28  C   UNL     1       2.482  -1.138  -2.106  1.00  0.00     0.261 C 
BRANCH  28  29
ATOM     29  O   UNL     1       2.955  -2.277  -1.403  1.00  0.00    -0.460 OA
BRANCH  29  30
ATOM     30  C   UNL     1       4.352  -2.498  -1.267  1.00  0.00     0.338 C 
ATOM     31  O   UNL     1       5.178  -1.676  -1.774  1.00  0.00    -0.246 OA
BRANCH  30  32
ATOM     32  C   UNL     1       4.858  -3.717  -0.514  1.00  0.00     0.060 A 
ATOM     33  C   UNL     1       5.987  -3.557   0.273  1.00  0.00     0.016 A 
ATOM     34  C   UNL     1       4.327  -4.917  -0.720  1.00  0.00     0.016 A 
ATOM     35  C   UNL     1       6.657  -4.768   0.567  1.00  0.00     0.010 A 
ATOM     36  C   UNL     1       4.970  -6.051  -0.286  1.00  0.00     0.010 A 
ATOM     37  C   UNL     1       6.122  -5.969   0.447  1.00  0.00    -0.014 A 
BRANCH  37  38
ATOM     38  C   UNL     1       6.751  -7.195   1.088  1.00  0.00     0.031 A 
ATOM     39  C   UNL     1       7.173  -8.287   0.328  1.00  0.00     0.074 A 
ATOM     40  C   UNL     1       6.953  -7.077   2.452  1.00  0.00     0.049 A 
ATOM     41  N   UNL     1       7.848  -9.358   0.747  1.00  0.00    -0.248 NA
ATOM     42  C   UNL     1       6.929  -8.431  -1.115  1.00  0.00     0.031 C 
ATOM     43  C   UNL     1       6.539  -5.975   3.224  1.00  0.00     0.029 A 
ATOM     44  N   UNL     1       7.572  -7.974   3.295  1.00  0.00    -0.354 N 
ATOM     45  C   UNL     1       8.088 -10.182  -0.275  1.00  0.00     0.074 A 
ATOM     46  C   UNL     1       7.495  -9.600  -1.487  1.00  0.00     0.031 C 
ATOM     47  C   UNL     1       6.892  -6.208   4.516  1.00  0.00     0.029 A 
ATOM     48  C   UNL     1       7.533  -7.460   4.573  1.00  0.00     0.049 A 
ATOM     49  H   UNL     1       7.972  -8.834   3.031  1.00  0.00     0.167 HD
ATOM     50  C   UNL     1       8.779 -11.394  -0.245  1.00  0.00     0.034 A 
ATOM     51  C   UNL     1       8.023  -8.036   5.734  1.00  0.00     0.034 A 
ATOM     52  C   UNL     1       9.307 -11.950   0.910  1.00  0.00     0.049 A 
ATOM     53  C   UNL     1       8.663  -9.276   5.774  1.00  0.00     0.074 A 
ATOM     54  C   UNL     1      10.013 -13.167   0.956  1.00  0.00     0.029 A 
ATOM     55  N   UNL     1       9.247 -11.447   2.191  1.00  0.00    -0.354 N 
ATOM     56  N   UNL     1       8.937 -10.081   4.746  1.00  0.00    -0.248 NA
ATOM     57  C   UNL     1       9.157  -9.911   7.003  1.00  0.00     0.031 C 
ATOM     58  C   UNL     1      10.366 -13.400   2.248  1.00  0.00     0.029 A 
ATOM     59  C   UNL     1       9.885 -12.333   3.030  1.00  0.00     0.049 A 
ATOM     60  H   UNL     1       8.821 -10.601   2.460  1.00  0.00     0.167 HD
ATOM     61  C   UNL     1       9.577 -11.171   5.173  1.00  0.00     0.074 A 
ATOM     62  C   UNL     1       9.721 -11.081   6.632  1.00  0.00     0.031 C 
ATOM     63  C   UNL     1      10.049 -12.236   4.404  1.00  0.00     0.034 A 
BRANCH  50  64
ATOM     64  C   UNL     1       8.964 -12.147  -1.553  1.00  0.00     0.023 A 
ATOM     65  C   UNL     1       9.737 -11.529  -2.521  1.00  0.00     0.012 A 
ATOM     66  C   UNL     1       8.491 -13.375  -1.729  1.00  0.00     0.148 A 
ATOM     67  C   UNL     1       9.716 -12.183  -3.776  1.00  0.00     0.002 A 
ATOM     68  C   UNL     1       8.626 -14.009  -2.941  1.00  0.00     0.091 A 
ATOM     69  F   UNL     1       7.882 -13.998  -0.724  1.00  0.00    -0.205 F 
ATOM     70  C   UNL     1       9.326 -13.431  -3.963  1.00  0.00     0.022 A 
BRANCH  68  71
ATOM     71  S   UNL     1       7.864 -15.632  -3.188  1.00  0.00     0.127 S 
ATOM     72  O   UNL     1       6.857 -15.553  -4.338  1.00  0.00    -0.237 OA
ATOM     73  O   UNL     1       8.947 -16.658  -3.529  1.00  0.00    -0.237 OA
ATOM     74  O   UNL     1       7.058 -16.108  -1.757  1.00  0.00    -0.744 OA
ENDBRANCH  68  71
ENDBRANCH  50  64
BRANCH  51  75
ATOM     75  C   UNL     1       7.852  -7.274   7.039  1.00  0.00     0.023 A 
ATOM     76  C   UNL     1       8.944  -6.982   7.839  1.00  0.00     0.012 A 
ATOM     77  C   UNL     1       6.616  -6.989   7.430  1.00  0.00     0.148 A 
ATOM     78  C   UNL     1       8.606  -6.648   9.172  1.00  0.00     0.002 A 
ATOM     79  C   UNL     1       6.372  -6.537   8.704  1.00  0.00     0.091 A 
ATOM     80  F   UNL     1       5.604  -7.143   6.580  1.00  0.00    -0.205 F 
ATOM     81  C   UNL     1       7.400  -6.282   9.569  1.00  0.00     0.022 A 
BRANCH  79  82
ATOM     82  S   UNL     1       4.665  -6.273   9.246  1.00  0.00     0.127 S 
ATOM     83  O   UNL     1       4.370  -7.165  10.454  1.00  0.00    -0.237 OA
ATOM     84  O   UNL     1       4.475  -4.806   9.636  1.00  0.00    -0.237 OA
ATOM     85  O   UNL     1       3.595  -6.668   7.971  1.00  0.00    -0.744 OA
ENDBRANCH  79  82
ENDBRANCH  51  75
BRANCH  63  86
ATOM     86  C   UNL     1      10.789 -13.357   5.115  1.00  0.00     0.023 A 
ATOM     87  C   UNL     1      10.127 -13.966   6.168  1.00  0.00     0.012 A 
ATOM     88  C   UNL     1      12.045 -13.670   4.818  1.00  0.00     0.148 A 
ATOM     89  C   UNL     1      10.976 -14.690   7.038  1.00  0.00     0.002 A 
ATOM     90  C   UNL     1      12.774 -14.493   5.641  1.00  0.00     0.091 A 
ATOM     91  F   UNL     1      12.602 -13.182   3.713  1.00  0.00    -0.205 F 
ATOM     92  C   UNL     1      12.200 -15.083   6.734  1.00  0.00     0.022 A 
BRANCH  90  93
ATOM     93  S   UNL     1      14.519 -14.803   5.275  1.00  0.00     0.127 S 
ATOM     94  O   UNL     1      15.379 -14.333   6.451  1.00  0.00    -0.237 OA
ATOM     95  O   UNL     1      14.736 -16.301   5.052  1.00  0.00    -0.237 OA
ATOM     96  O   UNL     1      14.966 -13.946   3.864  1.00  0.00    -0.744 OA
ENDBRANCH  90  93
ENDBRANCH  63  86
ENDBRANCH  37  38
ENDBRANCH  30  32
ENDBRANCH  29  30
ENDBRANCH  28  29
ENDBRANCH   1  28
TORSDOF 19
