REMARK SMILES CC1(C)CCN(S(=O)(=O)c2ccc(O)c(C(=O)OCCOCCOC(=O)c3ccc(-c4c5nc(c(-c6cccc(S(=O)(=O)[O-])c6F)c6ccc([nH]6)c(-c6cccc(S(=O)(=O)[O-])c6F)c6nc(c(-c7cccc(S(=O)(=O)[O-])c7F)c7ccc4[nH]7)C=C6)C=C5)cc3)c2)C1
REMARK SMILES IDX 22 1 21 2 20 3 19 4 18 5 16 6 17 7 15 8 10 9 11 10 90 11
REMARK SMILES IDX 12 12 13 13 7 14 8 15 9 16 6 17 1 18 2 19 3 20 4 21 91 22
REMARK SMILES IDX 5 23 14 24 23 26 24 27 25 28 26 29 27 30 28 31 89 32 29 33
REMARK SMILES IDX 88 34 30 35 31 36 32 37 82 38 33 39 87 40 81 41 83 42 34 43
REMARK SMILES IDX 86 44 80 45 79 46 35 48 67 49 47 50 66 51 48 52 51 53 65 54
REMARK SMILES IDX 84 55 49 56 50 57 64 59 85 60 52 61 36 62 37 63 45 64 38 65
REMARK SMILES IDX 40 66 46 67 39 68 41 69 42 70 43 71 44 72 68 73 69 74 77 75
REMARK SMILES IDX 70 76 72 77 78 78 71 79 73 80 74 81 75 82 76 83 53 84 54 85
REMARK SMILES IDX 62 86 55 87 57 88 63 89 56 90 58 91 59 92 60 93 61 94
REMARK H PARENT 14 25 83 47 51 58
REMARK Flexibility Score: inf
ROOT
ATOM      1  C   UNL     1       6.610   5.879   1.577  1.00  0.00     0.202 C 
ENDROOT
BRANCH   1   2
ATOM      2  O   UNL     1       7.460   6.466   0.589  1.00  0.00    -0.374 OA
BRANCH   2   3
ATOM      3  C   UNL     1       7.000   7.678  -0.017  1.00  0.00     0.202 C 
BRANCH   3   4
ATOM      4  C   UNL     1       5.954   7.512  -1.122  1.00  0.00     0.261 C 
BRANCH   4   5
ATOM      5  O   UNL     1       4.731   7.006  -0.568  1.00  0.00    -0.460 OA
BRANCH   5   6
ATOM      6  C   UNL     1       4.257   5.855  -1.097  1.00  0.00     0.342 C 
ATOM      7  O   UNL     1       4.697   5.260  -2.068  1.00  0.00    -0.246 OA
BRANCH   6   8
ATOM      8  C   UNL     1       3.254   5.254  -0.184  1.00  0.00     0.103 A 
ATOM      9  C   UNL     1       2.482   3.242   0.919  1.00  0.00     0.083 A 
ATOM     10  C   UNL     1       1.534   3.987   1.627  1.00  0.00     0.025 A 
ATOM     11  C   UNL     1       3.348   3.869   0.022  1.00  0.00     0.041 A 
ATOM     12  C   UNL     1       1.422   5.362   1.404  1.00  0.00     0.048 A 
ATOM     13  C   UNL     1       2.281   5.994   0.502  1.00  0.00     0.130 A 
BRANCH   9  14
ATOM     14  S   UNL     1       2.652   1.501   1.235  1.00  0.00     0.243 S 
ATOM     15  O   UNL     1       2.204   1.243   2.587  1.00  0.00    -0.207 OA
ATOM     16  O   UNL     1       3.973   1.092   0.805  1.00  0.00    -0.207 OA
BRANCH  14  17
ATOM     17  N   UNL     1       1.521   0.806   0.172  1.00  0.00    -0.197 NA
ATOM     18  C   UNL     1      -0.976  -0.084  -1.550  1.00  0.00     0.012 C 
ATOM     19  C   UNL     1      -0.722  -0.049  -0.036  1.00  0.00    -0.020 C 
ATOM     20  C   UNL     1      -2.061  -0.095   0.705  1.00  0.00     0.012 C 
ATOM     21  C   UNL     1       0.204  -1.182   0.408  1.00  0.00     0.024 C 
ATOM     22  C   UNL     1       0.094   1.188   0.366  1.00  0.00     0.109 C 
ATOM     23  C   UNL     1       1.599  -0.677   0.063  1.00  0.00     0.103 C 
ENDBRANCH  14  17
ENDBRANCH   9  14
BRANCH  13  24
ATOM     24  O   UNL     1       2.153   7.335   0.285  1.00  0.00    -0.507 OA
ATOM     25  H   UNL     1       1.500   7.824   0.747  1.00  0.00     0.293 HD
ENDBRANCH  13  24
ENDBRANCH   6   8
ENDBRANCH   5   6
ENDBRANCH   4   5
ENDBRANCH   3   4
ENDBRANCH   2   3
ENDBRANCH   1   2
BRANCH   1  26
ATOM     26  C   UNL     1       6.687   6.484   2.985  1.00  0.00     0.261 C 
BRANCH  26  27
ATOM     27  O   UNL     1       6.195   7.834   3.030  1.00  0.00    -0.460 OA
BRANCH  27  28
ATOM     28  C   UNL     1       7.153   8.783   3.170  1.00  0.00     0.338 C 
ATOM     29  O   UNL     1       8.349   8.606   3.329  1.00  0.00    -0.246 OA
BRANCH  28  30
ATOM     30  C   UNL     1       6.573  10.120   2.935  1.00  0.00     0.060 A 
ATOM     31  C   UNL     1       7.210  10.946   2.000  1.00  0.00     0.016 A 
ATOM     32  C   UNL     1       5.474  10.585   3.660  1.00  0.00     0.016 A 
ATOM     33  C   UNL     1       6.779  12.259   1.820  1.00  0.00     0.010 A 
ATOM     34  C   UNL     1       5.046  11.904   3.481  1.00  0.00     0.010 A 
ATOM     35  C   UNL     1       5.718  12.758   2.587  1.00  0.00    -0.014 A 
BRANCH  35  36
ATOM     36  C   UNL     1       5.390  14.204   2.542  1.00  0.00     0.031 A 
ATOM     37  C   UNL     1       5.843  15.095   3.666  1.00  0.00     0.074 A 
ATOM     38  C   UNL     1       4.690  14.717   1.513  1.00  0.00     0.049 A 
ATOM     39  N   UNL     1       5.635  16.373   3.844  1.00  0.00    -0.248 NA
ATOM     40  C   UNL     1       6.630  14.458   4.736  1.00  0.00     0.031 C 
ATOM     41  C   UNL     1       4.196  13.957   0.367  1.00  0.00     0.029 A 
ATOM     42  N   UNL     1       4.252  15.997   1.284  1.00  0.00    -0.354 N 
ATOM     43  C   UNL     1       6.236  16.690   5.057  1.00  0.00     0.074 A 
ATOM     44  C   UNL     1       6.806  15.466   5.578  1.00  0.00     0.031 C 
ATOM     45  C   UNL     1       3.496  14.780  -0.432  1.00  0.00     0.029 A 
ATOM     46  C   UNL     1       3.472  16.117   0.158  1.00  0.00     0.049 A 
ATOM     47  H   UNL     1       4.474  16.757   1.870  1.00  0.00     0.167 HD
ATOM     48  C   UNL     1       6.320  17.892   5.673  1.00  0.00     0.034 A 
ATOM     49  C   UNL     1       2.797  17.178  -0.328  1.00  0.00     0.034 A 
ATOM     50  C   UNL     1       5.773  19.112   5.142  1.00  0.00     0.049 A 
ATOM     51  C   UNL     1       2.893  18.502   0.385  1.00  0.00     0.074 A 
ATOM     52  C   UNL     1       5.853  20.390   5.666  1.00  0.00     0.029 A 
ATOM     53  N   UNL     1       5.032  19.204   3.974  1.00  0.00    -0.354 N 
ATOM     54  N   UNL     1       3.567  18.811   1.466  1.00  0.00    -0.248 NA
ATOM     55  C   UNL     1       2.163  19.632  -0.208  1.00  0.00     0.031 C 
ATOM     56  C   UNL     1       5.136  21.251   4.829  1.00  0.00     0.029 A 
ATOM     57  C   UNL     1       4.637  20.514   3.766  1.00  0.00     0.049 A 
ATOM     58  H   UNL     1       4.819  18.449   3.380  1.00  0.00     0.167 HD
ATOM     59  C   UNL     1       3.376  20.175   1.661  1.00  0.00     0.074 A 
ATOM     60  C   UNL     1       2.534  20.636   0.576  1.00  0.00     0.031 C 
ATOM     61  C   UNL     1       3.845  20.972   2.653  1.00  0.00     0.034 A 
BRANCH  48  62
ATOM     62  C   UNL     1       7.054  17.956   6.988  1.00  0.00     0.023 A 
ATOM     63  C   UNL     1       8.458  17.839   7.011  1.00  0.00     0.012 A 
ATOM     64  C   UNL     1       6.360  18.187   8.191  1.00  0.00     0.148 A 
ATOM     65  C   UNL     1       9.158  17.919   8.214  1.00  0.00     0.002 A 
ATOM     66  C   UNL     1       7.068  18.310   9.381  1.00  0.00     0.091 A 
ATOM     67  F   UNL     1       5.022  18.273   8.152  1.00  0.00    -0.205 F 
ATOM     68  C   UNL     1       8.464  18.165   9.396  1.00  0.00     0.022 A 
BRANCH  66  69
ATOM     69  S   UNL     1       6.273  18.705  10.943  1.00  0.00     0.127 S 
ATOM     70  O   UNL     1       6.380  17.433  11.658  1.00  0.00    -0.237 OA
ATOM     71  O   UNL     1       7.129  19.770  11.464  1.00  0.00    -0.237 OA
ATOM     72  O   UNL     1       4.918  19.123  10.610  1.00  0.00    -0.744 OA
ENDBRANCH  66  69
ENDBRANCH  48  62
BRANCH  49  73
ATOM     73  C   UNL     1       1.998  17.040  -1.577  1.00  0.00     0.023 A 
ATOM     74  C   UNL     1       2.426  17.685  -2.753  1.00  0.00     0.012 A 
ATOM     75  C   UNL     1       0.828  16.255  -1.611  1.00  0.00     0.148 A 
ATOM     76  C   UNL     1       1.689  17.576  -3.933  1.00  0.00     0.002 A 
ATOM     77  C   UNL     1       0.129  16.105  -2.803  1.00  0.00     0.091 A 
ATOM     78  F   UNL     1       0.428  15.663  -0.477  1.00  0.00    -0.205 F 
ATOM     79  C   UNL     1       0.548  16.778  -3.961  1.00  0.00     0.022 A 
BRANCH  77  80
ATOM     80  S   UNL     1      -1.276  14.998  -2.962  1.00  0.00     0.127 S 
ATOM     81  O   UNL     1      -2.382  15.938  -3.119  1.00  0.00    -0.237 OA
ATOM     82  O   UNL     1      -0.931  14.243  -4.167  1.00  0.00    -0.237 OA
ATOM     83  O   UNL     1      -1.291  14.202  -1.741  1.00  0.00    -0.744 OA
ENDBRANCH  77  80
ENDBRANCH  49  73
BRANCH  61  84
ATOM     84  C   UNL     1       3.503  22.439   2.600  1.00  0.00     0.023 A 
ATOM     85  C   UNL     1       2.194  22.867   2.893  1.00  0.00     0.012 A 
ATOM     86  C   UNL     1       4.503  23.398   2.341  1.00  0.00     0.148 A 
ATOM     87  C   UNL     1       1.878  24.226   2.901  1.00  0.00     0.002 A 
ATOM     88  C   UNL     1       4.192  24.752   2.400  1.00  0.00     0.091 A 
ATOM     89  F   UNL     1       5.739  22.970   2.047  1.00  0.00    -0.205 F 
ATOM     90  C   UNL     1       2.878  25.167   2.667  1.00  0.00     0.022 A 
BRANCH  88  91
ATOM     91  S   UNL     1       5.435  26.035   2.209  1.00  0.00     0.127 S 
ATOM     92  O   UNL     1       5.100  26.581   0.895  1.00  0.00    -0.237 OA
ATOM     93  O   UNL     1       5.138  26.924   3.333  1.00  0.00    -0.237 OA
ATOM     94  O   UNL     1       6.724  25.363   2.296  1.00  0.00    -0.744 OA
ENDBRANCH  88  91
ENDBRANCH  61  84
ENDBRANCH  35  36
ENDBRANCH  28  30
ENDBRANCH  27  28
ENDBRANCH  26  27
ENDBRANCH   1  26
TORSDOF 20
