REMARK SMILES O=C(OCCOCCOC(=O)[C@H]1CC=CC[C@@H]1C(=O)Nc1nn(Cc2ccccc2F)cc1Br)c1ccc(-c2c3nc(c(-c4cccc(S(=O)(=O)[O-])c4F)c4ccc([nH]4)c(-c4cccc(S(=O)(=O)[O-])c4F)c4nc(c(-c5cccc(S(=O)(=O)[O-])c5F)c5ccc2[nH]5)C=C4)C=C3)cc1
REMARK SMILES IDX 7 1 6 2 5 3 4 4 3 5 2 6 1 7 35 8 36 9 97 10 37 11 96 12
REMARK SMILES IDX 38 13 39 14 40 15 90 16 41 17 95 18 89 19 91 20 42 21 94 22
REMARK SMILES IDX 88 23 87 24 43 26 75 27 55 28 74 29 56 30 59 31 73 32 92 33
REMARK SMILES IDX 57 34 58 35 72 37 93 38 60 39 44 40 45 41 53 42 46 43 48 44
REMARK SMILES IDX 54 45 47 46 49 47 50 48 51 49 52 50 76 51 77 52 85 53 78 54
REMARK SMILES IDX 80 55 86 56 79 57 81 58 82 59 83 60 84 61 61 62 62 63 70 64
REMARK SMILES IDX 63 65 65 66 71 67 64 68 66 69 67 70 68 71 69 72 8 73 9 74
REMARK SMILES IDX 10 75 11 76 12 77 13 78 17 79 14 80 16 81 15 82 18 83 19 84
REMARK SMILES IDX 20 85 21 87 22 88 33 89 23 90 32 91 34 92 24 93 25 94 26 95
REMARK SMILES IDX 30 96 27 97 29 98 31 99 28 100
REMARK H PARENT 91 25 59 36 20 86
REMARK Flexibility Score: inf
ROOT
ATOM      1  C   UNL     1       2.599   1.720   0.534  1.00  0.00     0.202 C 
ENDROOT
BRANCH   1   2
ATOM      2  O   UNL     1       3.839   1.025   0.747  1.00  0.00    -0.374 OA
BRANCH   2   3
ATOM      3  C   UNL     1       4.642   0.537  -0.328  1.00  0.00     0.202 C 
BRANCH   3   4
ATOM      4  C   UNL     1       4.435  -0.857  -0.966  1.00  0.00     0.261 C 
BRANCH   4   5
ATOM      5  O   UNL     1       3.123  -1.075  -1.473  1.00  0.00    -0.460 OA
BRANCH   5   6
ATOM      6  C   UNL     1       2.000  -0.999  -0.732  1.00  0.00     0.338 C 
ATOM      7  O   UNL     1       0.942  -0.686  -1.259  1.00  0.00    -0.246 OA
BRANCH   6   8
ATOM      8  C   UNL     1       2.029  -1.405   0.703  1.00  0.00     0.060 A 
ATOM      9  C   UNL     1       3.185  -1.661   1.451  1.00  0.00     0.016 A 
ATOM     10  C   UNL     1       0.778  -1.576   1.305  1.00  0.00     0.016 A 
ATOM     11  C   UNL     1       3.133  -2.424   2.567  1.00  0.00     0.010 A 
ATOM     12  C   UNL     1       0.701  -2.256   2.494  1.00  0.00     0.010 A 
ATOM     13  C   UNL     1       1.880  -2.800   2.989  1.00  0.00    -0.014 A 
BRANCH  13  14
ATOM     14  C   UNL     1       1.883  -3.882   3.926  1.00  0.00     0.031 A 
ATOM     15  C   UNL     1       2.449  -3.485   5.239  1.00  0.00     0.074 A 
ATOM     16  C   UNL     1       1.405  -5.049   3.456  1.00  0.00     0.049 A 
ATOM     17  N   UNL     1       3.423  -4.026   5.894  1.00  0.00    -0.248 NA
ATOM     18  C   UNL     1       2.022  -2.177   5.778  1.00  0.00     0.031 C 
ATOM     19  C   UNL     1       0.713  -5.291   2.177  1.00  0.00     0.029 A 
ATOM     20  N   UNL     1       1.214  -6.213   4.112  1.00  0.00    -0.354 N 
ATOM     21  C   UNL     1       3.526  -3.270   7.060  1.00  0.00     0.074 A 
ATOM     22  C   UNL     1       2.827  -2.037   6.828  1.00  0.00     0.031 C 
ATOM     23  C   UNL     1      -0.134  -6.328   2.338  1.00  0.00     0.029 A 
ATOM     24  C   UNL     1       0.071  -6.871   3.667  1.00  0.00     0.049 A 
ATOM     25  H   UNL     1       1.810  -6.554   4.817  1.00  0.00     0.167 HD
ATOM     26  C   UNL     1       3.882  -3.841   8.239  1.00  0.00     0.034 A 
ATOM     27  C   UNL     1      -0.746  -7.623   4.444  1.00  0.00     0.034 A 
ATOM     28  C   UNL     1       4.594  -5.071   8.044  1.00  0.00     0.049 A 
ATOM     29  C   UNL     1       0.010  -7.931   5.691  1.00  0.00     0.074 A 
ATOM     30  C   UNL     1       5.778  -5.402   7.417  1.00  0.00     0.029 A 
ATOM     31  N   UNL     1       3.874  -6.236   8.152  1.00  0.00    -0.354 N 
ATOM     32  N   UNL     1       1.111  -8.633   5.712  1.00  0.00    -0.248 NA
ATOM     33  C   UNL     1      -0.179  -7.035   6.826  1.00  0.00     0.031 C 
ATOM     34  C   UNL     1       5.506  -6.633   6.756  1.00  0.00     0.029 A 
ATOM     35  C   UNL     1       4.204  -7.024   7.079  1.00  0.00     0.049 A 
ATOM     36  H   UNL     1       3.237  -6.464   8.868  1.00  0.00     0.167 HD
ATOM     37  C   UNL     1       1.940  -7.965   6.607  1.00  0.00     0.074 A 
ATOM     38  C   UNL     1       1.060  -7.042   7.327  1.00  0.00     0.031 C 
ATOM     39  C   UNL     1       3.300  -7.973   6.465  1.00  0.00     0.034 A 
BRANCH  26  40
ATOM     40  C   UNL     1       3.234  -3.472   9.545  1.00  0.00     0.023 A 
ATOM     41  C   UNL     1       3.846  -3.906  10.735  1.00  0.00     0.012 A 
ATOM     42  C   UNL     1       1.925  -2.940   9.646  1.00  0.00     0.148 A 
ATOM     43  C   UNL     1       3.181  -3.822  11.964  1.00  0.00     0.002 A 
ATOM     44  C   UNL     1       1.310  -2.769  10.876  1.00  0.00     0.091 A 
ATOM     45  F   UNL     1       1.201  -2.727   8.543  1.00  0.00    -0.205 F 
ATOM     46  C   UNL     1       1.921  -3.236  12.038  1.00  0.00     0.022 A 
BRANCH  44  47
ATOM     47  S   UNL     1      -0.284  -1.952  11.015  1.00  0.00     0.127 S 
ATOM     48  O   UNL     1      -1.177  -3.082  11.233  1.00  0.00    -0.237 OA
ATOM     49  O   UNL     1      -0.077  -1.087  12.176  1.00  0.00    -0.237 OA
ATOM     50  O   UNL     1      -0.453  -1.225   9.759  1.00  0.00    -0.744 OA
ENDBRANCH  44  47
ENDBRANCH  26  40
BRANCH  27  51
ATOM     51  C   UNL     1      -2.229  -7.679   4.380  1.00  0.00     0.023 A 
ATOM     52  C   UNL     1      -2.896  -8.778   4.951  1.00  0.00     0.012 A 
ATOM     53  C   UNL     1      -3.005  -6.559   3.992  1.00  0.00     0.148 A 
ATOM     54  C   UNL     1      -4.282  -8.757   5.146  1.00  0.00     0.002 A 
ATOM     55  C   UNL     1      -4.384  -6.549   4.174  1.00  0.00     0.091 A 
ATOM     56  F   UNL     1      -2.384  -5.465   3.532  1.00  0.00    -0.205 F 
ATOM     57  C   UNL     1      -5.026  -7.644   4.762  1.00  0.00     0.022 A 
BRANCH  55  58
ATOM     58  S   UNL     1      -5.405  -5.136   3.723  1.00  0.00     0.127 S 
ATOM     59  O   UNL     1      -6.486  -5.773   2.969  1.00  0.00    -0.237 OA
ATOM     60  O   UNL     1      -5.794  -4.616   5.030  1.00  0.00    -0.237 OA
ATOM     61  O   UNL     1      -4.550  -4.267   2.924  1.00  0.00    -0.744 OA
ENDBRANCH  55  58
ENDBRANCH  27  51
BRANCH  39  62
ATOM     62  C   UNL     1       3.909  -8.863   5.406  1.00  0.00     0.023 A 
ATOM     63  C   UNL     1       3.716  -8.645   4.024  1.00  0.00     0.012 A 
ATOM     64  C   UNL     1       4.882  -9.789   5.809  1.00  0.00     0.148 A 
ATOM     65  C   UNL     1       4.463  -9.343   3.070  1.00  0.00     0.002 A 
ATOM     66  C   UNL     1       5.661 -10.442   4.860  1.00  0.00     0.091 A 
ATOM     67  F   UNL     1       5.064  -9.983   7.124  1.00  0.00    -0.205 F 
ATOM     68  C   UNL     1       5.449 -10.230   3.489  1.00  0.00     0.022 A 
BRANCH  66  69
ATOM     69  S   UNL     1       7.046 -11.470   5.350  1.00  0.00     0.127 S 
ATOM     70  O   UNL     1       6.502 -12.815   5.182  1.00  0.00    -0.237 OA
ATOM     71  O   UNL     1       8.076 -11.100   4.377  1.00  0.00    -0.237 OA
ATOM     72  O   UNL     1       7.363 -11.083   6.720  1.00  0.00    -0.744 OA
ENDBRANCH  66  69
ENDBRANCH  39  62
ENDBRANCH  13  14
ENDBRANCH   6   8
ENDBRANCH   5   6
ENDBRANCH   4   5
ENDBRANCH   3   4
ENDBRANCH   2   3
ENDBRANCH   1   2
BRANCH   1  73
ATOM     73  C   UNL     1       2.444   2.758  -0.578  1.00  0.00     0.261 C 
BRANCH  73  74
ATOM     74  O   UNL     1       2.883   2.250  -1.843  1.00  0.00    -0.463 OA
BRANCH  74  75
ATOM     75  C   UNL     1       3.610   3.130  -2.562  1.00  0.00     0.310 C 
ATOM     76  O   UNL     1       3.655   4.338  -2.333  1.00  0.00    -0.252 OA
BRANCH  75  77
ATOM     77  C   UNL     1       4.425   2.523  -3.686  1.00  0.00     0.116 C 
ATOM     78  C   UNL     1       4.746   1.034  -3.796  1.00  0.00     0.043 C 
ATOM     79  C   UNL     1       3.874   2.990  -5.008  1.00  0.00     0.097 C 
ATOM     80  C   UNL     1       3.573   0.217  -4.223  1.00  0.00    -0.030 C 
ATOM     81  C   UNL     1       2.529   2.234  -5.255  1.00  0.00     0.041 C 
ATOM     82  C   UNL     1       2.539   0.778  -4.863  1.00  0.00    -0.030 C 
BRANCH  79  83
ATOM     83  C   UNL     1       4.876   2.861  -6.168  1.00  0.00     0.229 C 
ATOM     84  O   UNL     1       4.482   2.463  -7.275  1.00  0.00    -0.274 OA
ATOM     85  N   UNL     1       6.143   3.375  -6.154  1.00  0.00    -0.308 N 
ATOM     86  H   UNL     1       6.494   3.507  -7.065  1.00  0.00     0.171 HD
BRANCH  85  87
ATOM     87  C   UNL     1       7.059   3.758  -5.187  1.00  0.00     0.168 A 
ATOM     88  N   UNL     1       7.347   3.114  -4.046  1.00  0.00    -0.153 NA
ATOM     89  C   UNL     1       7.980   4.820  -5.354  1.00  0.00     0.080 A 
ATOM     90  N   UNL     1       8.262   3.890  -3.407  1.00  0.00    -0.265 N 
ATOM     91  C   UNL     1       8.712   4.910  -4.199  1.00  0.00     0.127 A 
ATOM     92  Br  UNL     1       8.093   5.946  -6.845  1.00  0.00    -0.045 Br
BRANCH  90  93
ATOM     93  C   UNL     1       8.812   3.522  -2.094  1.00  0.00     0.182 C 
BRANCH  93  94
ATOM     94  C   UNL     1       7.965   3.965  -0.928  1.00  0.00     0.009 A 
ATOM     95  C   UNL     1       8.340   4.970  -0.024  1.00  0.00     0.008 A 
ATOM     96  C   UNL     1       6.772   3.301  -0.683  1.00  0.00     0.128 A 
ATOM     97  C   UNL     1       7.508   5.311   1.056  1.00  0.00     0.001 A 
ATOM     98  C   UNL     1       5.935   3.647   0.372  1.00  0.00     0.039 A 
ATOM     99  F   UNL     1       6.458   2.264  -1.464  1.00  0.00    -0.207 F 
ATOM    100  C   UNL     1       6.293   4.660   1.244  1.00  0.00     0.003 A 
ENDBRANCH  93  94
ENDBRANCH  90  93
ENDBRANCH  85  87
ENDBRANCH  79  83
ENDBRANCH  75  77
ENDBRANCH  74  75
ENDBRANCH  73  74
ENDBRANCH   1  73
TORSDOF 21
