REMARK SMILES Cc1cc(C(=O)OCCOCCOC(=O)c2ccc(-c3c4nc(c(-c5cccc(S(=O)(=O)[O-])c5F)c5ccc([nH]5)c(-c5cccc(S(=O)(=O)[O-])c5F)c5nc(c(-c6cccc(S(=O)(=O)[O-])c6F)c6ccc3[nH]6)C=C5)C=C4)cc2)ccc1NS(=O)(=O)c1c(F)cccc1F
REMARK SMILES IDX 10 1 9 2 8 3 7 4 5 5 6 6 4 7 1 8 2 9 3 10 81 11 80 12 79 13
REMARK SMILES IDX 82 14 83 16 84 17 85 18 86 19 87 20 92 21 88 22 89 23 91 24
REMARK SMILES IDX 93 25 90 26 11 27 12 28 13 29 14 30 15 31 16 32 17 33 78 34
REMARK SMILES IDX 18 35 77 36 19 37 20 38 21 39 71 40 22 41 76 42 70 43 72 44
REMARK SMILES IDX 23 45 75 46 69 47 68 48 24 50 56 51 36 52 55 53 37 54 40 55
REMARK SMILES IDX 54 56 73 57 38 58 39 59 53 61 74 62 41 63 25 64 26 65 34 66
REMARK SMILES IDX 27 67 29 68 35 69 28 70 30 71 31 72 32 73 33 74 57 75 58 76
REMARK SMILES IDX 66 77 59 78 61 79 67 80 60 81 62 82 63 83 64 84 65 85 42 86
REMARK SMILES IDX 43 87 51 88 44 89 46 90 52 91 45 92 47 93 48 94 49 95 50 96
REMARK H PARENT 82 15 72 49 40 60
REMARK Flexibility Score: inf
ROOT
ATOM      1  O   UNL     1      -0.335  -3.210  -2.621  1.00  0.00    -0.374 OA
ENDROOT
BRANCH   1   2
ATOM      2  C   UNL     1      -1.165  -3.972  -1.784  1.00  0.00     0.202 C 
BRANCH   2   3
ATOM      3  C   UNL     1      -2.262  -3.202  -1.020  1.00  0.00     0.261 C 
BRANCH   3   4
ATOM      4  O   UNL     1      -1.791  -2.040  -0.384  1.00  0.00    -0.460 OA
BRANCH   4   5
ATOM      5  C   UNL     1      -0.892  -2.317   0.585  1.00  0.00     0.338 C 
ATOM      6  O   UNL     1      -0.423  -3.387   0.918  1.00  0.00    -0.246 OA
BRANCH   5   7
ATOM      7  C   UNL     1      -0.338  -1.012   0.885  1.00  0.00     0.060 A 
ATOM      8  C   UNL     1       2.918   0.472  -0.114  1.00  0.00     0.046 C 
ATOM      9  C   UNL     1       1.499   0.421   0.361  1.00  0.00    -0.026 A 
ATOM     10  C   UNL     1       0.993  -0.861   0.551  1.00  0.00     0.021 A 
ATOM     11  C   UNL     1       0.647   1.532   0.551  1.00  0.00     0.052 A 
ATOM     12  C   UNL     1      -0.594   1.348   1.162  1.00  0.00     0.028 A 
ATOM     13  C   UNL     1      -1.136   0.076   1.218  1.00  0.00     0.018 A 
BRANCH  11  14
ATOM     14  N   UNL     1       0.919   2.717  -0.194  1.00  0.00    -0.279 N 
ATOM     15  H   UNL     1       1.672   2.663  -0.826  1.00  0.00     0.180 HD
BRANCH  14  16
ATOM     16  S   UNL     1       0.128   4.185  -0.136  1.00  0.00     0.267 S 
ATOM     17  O   UNL     1       0.321   4.693   1.207  1.00  0.00    -0.201 OA
ATOM     18  O   UNL     1       0.619   4.924  -1.282  1.00  0.00    -0.201 OA
BRANCH  16  19
ATOM     19  C   UNL     1      -1.602   3.989  -0.384  1.00  0.00     0.158 A 
ATOM     20  C   UNL     1      -2.435   4.926   0.222  1.00  0.00     0.146 A 
ATOM     21  C   UNL     1      -2.172   2.866  -0.965  1.00  0.00     0.146 A 
ATOM     22  F   UNL     1      -1.949   6.083   0.692  1.00  0.00    -0.205 F 
ATOM     23  C   UNL     1      -3.803   4.692   0.360  1.00  0.00     0.041 A 
ATOM     24  C   UNL     1      -3.537   2.599  -0.797  1.00  0.00     0.041 A 
ATOM     25  F   UNL     1      -1.435   1.975  -1.641  1.00  0.00    -0.205 F 
ATOM     26  C   UNL     1      -4.351   3.503  -0.111  1.00  0.00     0.006 A 
ENDBRANCH  16  19
ENDBRANCH  14  16
ENDBRANCH  11  14
ENDBRANCH   5   7
ENDBRANCH   4   5
ENDBRANCH   3   4
ENDBRANCH   2   3
ENDBRANCH   1   2
BRANCH   1  27
ATOM     27  C   UNL     1      -1.093  -2.312  -3.388  1.00  0.00     0.202 C 
BRANCH  27  28
ATOM     28  C   UNL     1      -2.569  -2.629  -3.903  1.00  0.00     0.261 C 
BRANCH  28  29
ATOM     29  O   UNL     1      -3.301  -4.022  -3.782  1.00  0.00    -0.460 OA
BRANCH  29  30
ATOM     30  C   UNL     1      -4.240  -4.937  -3.337  1.00  0.00     0.338 C 
ATOM     31  O   UNL     1      -5.096  -5.288  -4.155  1.00  0.00    -0.246 OA
BRANCH  30  32
ATOM     32  C   UNL     1      -4.053  -5.805  -2.120  1.00  0.00     0.060 A 
ATOM     33  C   UNL     1      -5.149  -6.035  -1.283  1.00  0.00     0.016 A 
ATOM     34  C   UNL     1      -2.870  -6.301  -1.641  1.00  0.00     0.016 A 
ATOM     35  C   UNL     1      -4.983  -6.021   0.113  1.00  0.00     0.010 A 
ATOM     36  C   UNL     1      -2.665  -6.204  -0.269  1.00  0.00     0.010 A 
ATOM     37  C   UNL     1      -3.712  -5.842   0.595  1.00  0.00    -0.014 A 
BRANCH  37  38
ATOM     38  C   UNL     1      -3.335  -5.215   1.875  1.00  0.00     0.031 A 
ATOM     39  C   UNL     1      -2.516  -6.059   2.788  1.00  0.00     0.074 A 
ATOM     40  C   UNL     1      -3.439  -3.866   2.103  1.00  0.00     0.049 A 
ATOM     41  N   UNL     1      -2.182  -5.731   3.983  1.00  0.00    -0.248 NA
ATOM     42  C   UNL     1      -2.031  -7.395   2.428  1.00  0.00     0.031 C 
ATOM     43  C   UNL     1      -2.594  -3.098   3.034  1.00  0.00     0.029 A 
ATOM     44  N   UNL     1      -4.217  -2.841   1.533  1.00  0.00    -0.354 N 
ATOM     45  C   UNL     1      -1.208  -6.611   4.400  1.00  0.00     0.074 A 
ATOM     46  C   UNL     1      -1.252  -7.698   3.467  1.00  0.00     0.031 C 
ATOM     47  C   UNL     1      -3.027  -1.832   3.126  1.00  0.00     0.029 A 
ATOM     48  C   UNL     1      -4.287  -1.757   2.423  1.00  0.00     0.049 A 
ATOM     49  H   UNL     1      -4.646  -2.878   0.648  1.00  0.00     0.167 HD
ATOM     50  C   UNL     1      -0.400  -6.247   5.429  1.00  0.00     0.034 A 
ATOM     51  C   UNL     1      -5.420  -1.247   2.997  1.00  0.00     0.034 A 
ATOM     52  C   UNL     1      -0.894  -4.994   6.031  1.00  0.00     0.049 A 
ATOM     53  C   UNL     1      -5.463  -1.596   4.486  1.00  0.00     0.074 A 
ATOM     54  C   UNL     1      -0.477  -3.677   5.973  1.00  0.00     0.029 A 
ATOM     55  N   UNL     1      -2.198  -4.964   6.530  1.00  0.00    -0.354 N 
ATOM     56  N   UNL     1      -4.485  -2.216   5.093  1.00  0.00    -0.248 NA
ATOM     57  C   UNL     1      -6.545  -1.292   5.420  1.00  0.00     0.031 C 
ATOM     58  C   UNL     1      -1.593  -2.854   6.323  1.00  0.00     0.029 A 
ATOM     59  C   UNL     1      -2.673  -3.664   6.651  1.00  0.00     0.049 A 
ATOM     60  H   UNL     1      -2.718  -5.766   6.766  1.00  0.00     0.167 HD
ATOM     61  C   UNL     1      -4.818  -2.553   6.364  1.00  0.00     0.074 A 
ATOM     62  C   UNL     1      -6.093  -1.874   6.550  1.00  0.00     0.031 C 
ATOM     63  C   UNL     1      -4.050  -3.411   7.110  1.00  0.00     0.034 A 
BRANCH  50  64
ATOM     64  C   UNL     1       0.899  -6.930   5.832  1.00  0.00     0.023 A 
ATOM     65  C   UNL     1       1.499  -6.476   7.027  1.00  0.00     0.012 A 
ATOM     66  C   UNL     1       1.623  -7.925   5.115  1.00  0.00     0.148 A 
ATOM     67  C   UNL     1       2.724  -6.972   7.490  1.00  0.00     0.002 A 
ATOM     68  C   UNL     1       2.816  -8.467   5.614  1.00  0.00     0.091 A 
ATOM     69  F   UNL     1       1.223  -8.306   3.900  1.00  0.00    -0.205 F 
ATOM     70  C   UNL     1       3.375  -7.980   6.796  1.00  0.00     0.022 A 
BRANCH  68  71
ATOM     71  S   UNL     1       3.705  -9.818   4.804  1.00  0.00     0.127 S 
ATOM     72  O   UNL     1       4.962  -9.175   4.420  1.00  0.00    -0.237 OA
ATOM     73  O   UNL     1       3.834 -10.799   5.883  1.00  0.00    -0.237 OA
ATOM     74  O   UNL     1       2.870 -10.253   3.692  1.00  0.00    -0.744 OA
ENDBRANCH  68  71
ENDBRANCH  50  64
BRANCH  51  75
ATOM     75  C   UNL     1      -6.549  -1.103   2.039  1.00  0.00     0.023 A 
ATOM     76  C   UNL     1      -6.374  -0.107   1.037  1.00  0.00     0.012 A 
ATOM     77  C   UNL     1      -7.374  -2.200   1.777  1.00  0.00     0.148 A 
ATOM     78  C   UNL     1      -6.846  -0.300  -0.262  1.00  0.00     0.002 A 
ATOM     79  C   UNL     1      -7.780  -2.413   0.466  1.00  0.00     0.091 A 
ATOM     80  F   UNL     1      -7.579  -3.097   2.750  1.00  0.00    -0.205 F 
ATOM     81  C   UNL     1      -7.508  -1.477  -0.554  1.00  0.00     0.022 A 
BRANCH  79  82
ATOM     82  S   UNL     1      -8.092  -4.065  -0.142  1.00  0.00     0.127 S 
ATOM     83  O   UNL     1      -9.424  -3.968  -0.724  1.00  0.00    -0.237 OA
ATOM     84  O   UNL     1      -7.007  -4.124  -1.114  1.00  0.00    -0.237 OA
ATOM     85  O   UNL     1      -7.961  -4.948   1.006  1.00  0.00    -0.744 OA
ENDBRANCH  79  82
ENDBRANCH  51  75
BRANCH  63  86
ATOM     86  C   UNL     1      -4.562  -4.093   8.365  1.00  0.00     0.023 A 
ATOM     87  C   UNL     1      -5.940  -4.211   8.635  1.00  0.00     0.012 A 
ATOM     88  C   UNL     1      -3.686  -4.766   9.253  1.00  0.00     0.148 A 
ATOM     89  C   UNL     1      -6.421  -4.836   9.787  1.00  0.00     0.002 A 
ATOM     90  C   UNL     1      -4.180  -5.520  10.311  1.00  0.00     0.091 A 
ATOM     91  F   UNL     1      -2.359  -4.664   9.097  1.00  0.00    -0.205 F 
ATOM     92  C   UNL     1      -5.541  -5.508  10.618  1.00  0.00     0.022 A 
BRANCH  90  93
ATOM     93  S   UNL     1      -3.129  -6.664  11.213  1.00  0.00     0.127 S 
ATOM     94  O   UNL     1      -2.838  -5.908  12.428  1.00  0.00    -0.237 OA
ATOM     95  O   UNL     1      -4.019  -7.811  11.405  1.00  0.00    -0.237 OA
ATOM     96  O   UNL     1      -1.999  -6.928  10.333  1.00  0.00    -0.744 OA
ENDBRANCH  90  93
ENDBRANCH  63  86
ENDBRANCH  37  38
ENDBRANCH  30  32
ENDBRANCH  29  30
ENDBRANCH  28  29
ENDBRANCH  27  28
ENDBRANCH   1  27
TORSDOF 20
