REMARK SMILES COc1c(C(C)C)cc(NC(=O)c2ccccc2C(=O)OCCOCCOC(=O)c2ccc(-c3c4nc(c(-c5cccc(S(=O)(=O)[O-])c5F)c5ccc([nH]5)c(-c5cccc(S(=O)(=O)[O-])c5F)c5nc(c(-c6cccc(S(=O)(=O)[O-])c6F)c6ccc3[nH]6)C=C5)C=C4)cc2)cc1C(C)C
REMARK SMILES IDX 24 1 23 2 22 3 21 4 19 5 20 6 18 7 13 8 14 9 15 10 17 11
REMARK SMILES IDX 16 12 11 13 10 14 12 16 9 17 3 18 4 19 94 20 8 21 93 22 2 23
REMARK SMILES IDX 1 24 5 25 6 26 7 27 95 28 96 29 97 30 25 31 26 32 27 33
REMARK SMILES IDX 28 34 29 35 30 36 31 37 92 38 32 39 91 40 33 41 34 42 35 43
REMARK SMILES IDX 85 44 36 45 90 46 84 47 86 48 37 49 89 50 83 51 82 52 38 54
REMARK SMILES IDX 70 55 50 56 69 57 51 58 54 59 68 60 87 61 52 62 53 63 67 65
REMARK SMILES IDX 88 66 55 67 39 68 40 69 48 70 41 71 43 72 49 73 42 74 44 75
REMARK SMILES IDX 45 76 46 77 47 78 71 79 72 80 80 81 73 82 75 83 81 84 74 85
REMARK SMILES IDX 76 86 77 87 78 88 79 89 56 90 57 91 65 92 58 93 60 94 66 95
REMARK SMILES IDX 59 96 61 97 62 98 63 99 64 100
REMARK H PARENT 10 15 86 53 54 64
REMARK Flexibility Score: inf
ROOT
ATOM      1  O   UNL     1      -0.714   4.968   2.999  1.00  0.00    -0.374 OA
ENDROOT
BRANCH   1   2
ATOM      2  C   UNL     1       0.658   4.927   2.636  1.00  0.00     0.202 C 
BRANCH   2   3
ATOM      3  C   UNL     1       1.085   4.917   1.159  1.00  0.00     0.261 C 
BRANCH   3   4
ATOM      4  O   UNL     1       0.477   5.884   0.289  1.00  0.00    -0.460 OA
BRANCH   4   5
ATOM      5  C   UNL     1      -0.619   5.394  -0.331  1.00  0.00     0.339 C 
ATOM      6  O   UNL     1      -1.216   4.377  -0.001  1.00  0.00    -0.246 OA
BRANCH   5   7
ATOM      7  C   UNL     1      -1.147   6.239  -1.419  1.00  0.00     0.072 A 
ATOM      8  C   UNL     1      -0.383   6.803  -2.445  1.00  0.00     0.054 A 
ATOM      9  C   UNL     1      -1.031   7.496  -3.486  1.00  0.00     0.015 A 
ATOM     10  C   UNL     1      -2.423   7.582  -3.535  1.00  0.00     0.001 A 
ATOM     11  C   UNL     1      -2.552   6.329  -1.482  1.00  0.00     0.016 A 
ATOM     12  C   UNL     1      -3.185   6.994  -2.533  1.00  0.00     0.001 A 
BRANCH   8  13
ATOM     13  C   UNL     1       1.084   6.772  -2.542  1.00  0.00     0.256 C 
ATOM     14  N   UNL     1       1.837   5.627  -2.504  1.00  0.00    -0.322 N 
ATOM     15  H   UNL     1       2.804   5.798  -2.561  1.00  0.00     0.170 HD
ATOM     16  O   UNL     1       1.651   7.859  -2.672  1.00  0.00    -0.269 OA
BRANCH  14  17
ATOM     17  C   UNL     1       1.523   4.263  -2.400  1.00  0.00     0.042 A 
ATOM     18  C   UNL     1       0.989   1.612  -1.693  1.00  0.00     0.125 A 
ATOM     19  C   UNL     1      -0.027   2.375  -2.318  1.00  0.00    -0.001 A 
ATOM     20  C   UNL     1       2.292   2.120  -1.513  1.00  0.00    -0.001 A 
ATOM     21  C   UNL     1       0.284   3.696  -2.699  1.00  0.00     0.034 A 
ATOM     22  C   UNL     1       2.533   3.454  -1.878  1.00  0.00     0.034 A 
BRANCH  18  23
ATOM     23  O   UNL     1       0.692   0.322  -1.321  1.00  0.00    -0.496 OA
ATOM     24  C   UNL     1       0.498   0.211   0.091  1.00  0.00     0.278 C 
ENDBRANCH  18  23
BRANCH  19  25
ATOM     25  C   UNL     1      -1.432   1.798  -2.508  1.00  0.00     0.017 C 
ATOM     26  C   UNL     1      -2.295   1.917  -1.243  1.00  0.00     0.012 C 
ATOM     27  C   UNL     1      -2.226   2.397  -3.678  1.00  0.00     0.012 C 
ENDBRANCH  19  25
BRANCH  20  28
ATOM     28  C   UNL     1       3.416   1.313  -0.880  1.00  0.00     0.017 C 
ATOM     29  C   UNL     1       4.702   1.333  -1.715  1.00  0.00     0.012 C 
ATOM     30  C   UNL     1       3.700   1.813   0.542  1.00  0.00     0.012 C 
ENDBRANCH  20  28
ENDBRANCH  14  17
ENDBRANCH   8  13
ENDBRANCH   5   7
ENDBRANCH   4   5
ENDBRANCH   3   4
ENDBRANCH   2   3
ENDBRANCH   1   2
BRANCH   1  31
ATOM     31  C   UNL     1      -1.505   6.100   2.660  1.00  0.00     0.202 C 
BRANCH  31  32
ATOM     32  C   UNL     1      -1.056   7.512   3.054  1.00  0.00     0.261 C 
BRANCH  32  33
ATOM     33  O   UNL     1       0.261   7.860   2.603  1.00  0.00    -0.460 OA
BRANCH  33  34
ATOM     34  C   UNL     1       1.158   8.045   3.601  1.00  0.00     0.338 C 
ATOM     35  O   UNL     1       0.946   7.961   4.804  1.00  0.00    -0.246 OA
BRANCH  34  36
ATOM     36  C   UNL     1       2.518   8.188   3.061  1.00  0.00     0.060 A 
ATOM     37  C   UNL     1       3.505   7.320   3.551  1.00  0.00     0.016 A 
ATOM     38  C   UNL     1       2.851   9.238   2.205  1.00  0.00     0.016 A 
ATOM     39  C   UNL     1       4.843   7.545   3.246  1.00  0.00     0.010 A 
ATOM     40  C   UNL     1       4.197   9.473   1.913  1.00  0.00     0.010 A 
ATOM     41  C   UNL     1       5.197   8.659   2.476  1.00  0.00    -0.014 A 
BRANCH  41  42
ATOM     42  C   UNL     1       6.615   9.080   2.433  1.00  0.00     0.031 A 
ATOM     43  C   UNL     1       7.093  10.106   3.424  1.00  0.00     0.074 A 
ATOM     44  C   UNL     1       7.465   8.546   1.540  1.00  0.00     0.049 A 
ATOM     45  N   UNL     1       8.290  10.603   3.588  1.00  0.00    -0.248 NA
ATOM     46  C   UNL     1       6.085  10.640   4.356  1.00  0.00     0.031 C 
ATOM     47  C   UNL     1       7.117   7.538   0.543  1.00  0.00     0.029 A 
ATOM     48  N   UNL     1       8.796   8.794   1.324  1.00  0.00    -0.354 N 
ATOM     49  C   UNL     1       8.177  11.524   4.623  1.00  0.00     0.074 A 
ATOM     50  C   UNL     1       6.793  11.525   5.043  1.00  0.00     0.031 C 
ATOM     51  C   UNL     1       8.206   7.264  -0.196  1.00  0.00     0.029 A 
ATOM     52  C   UNL     1       9.320   8.091   0.267  1.00  0.00     0.049 A 
ATOM     53  H   UNL     1       9.325   9.417   1.874  1.00  0.00     0.167 HD
ATOM     54  C   UNL     1       9.142  12.288   5.186  1.00  0.00     0.034 A 
ATOM     55  C   UNL     1      10.556   8.122  -0.268  1.00  0.00     0.034 A 
ATOM     56  C   UNL     1      10.520  12.271   4.780  1.00  0.00     0.049 A 
ATOM     57  C   UNL     1      11.603   9.010   0.351  1.00  0.00     0.074 A 
ATOM     58  C   UNL     1      11.588  12.960   5.326  1.00  0.00     0.029 A 
ATOM     59  N   UNL     1      11.018  11.537   3.714  1.00  0.00    -0.354 N 
ATOM     60  N   UNL     1      11.517   9.771   1.416  1.00  0.00    -0.248 NA
ATOM     61  C   UNL     1      12.927   9.023  -0.289  1.00  0.00     0.031 C 
ATOM     62  C   UNL     1      12.730  12.657   4.575  1.00  0.00     0.029 A 
ATOM     63  C   UNL     1      12.375  11.770   3.571  1.00  0.00     0.049 A 
ATOM     64  H   UNL     1      10.485  10.939   3.143  1.00  0.00     0.167 HD
ATOM     65  C   UNL     1      12.780  10.326   1.594  1.00  0.00     0.074 A 
ATOM     66  C   UNL     1      13.618   9.801   0.534  1.00  0.00     0.031 C 
ATOM     67  C   UNL     1      13.206  11.200   2.540  1.00  0.00     0.034 A 
BRANCH  54  68
ATOM     68  C   UNL     1       8.737  13.183   6.325  1.00  0.00     0.023 A 
ATOM     69  C   UNL     1       8.476  12.620   7.591  1.00  0.00     0.012 A 
ATOM     70  C   UNL     1       8.633  14.576   6.153  1.00  0.00     0.148 A 
ATOM     71  C   UNL     1       8.088  13.427   8.661  1.00  0.00     0.002 A 
ATOM     72  C   UNL     1       8.280  15.378   7.234  1.00  0.00     0.091 A 
ATOM     73  F   UNL     1       8.851  15.091   4.935  1.00  0.00    -0.205 F 
ATOM     74  C   UNL     1       7.999  14.805   8.484  1.00  0.00     0.022 A 
BRANCH  72  75
ATOM     75  S   UNL     1       8.206  17.168   7.104  1.00  0.00     0.127 S 
ATOM     76  O   UNL     1       6.774  17.393   6.920  1.00  0.00    -0.237 OA
ATOM     77  O   UNL     1       8.728  17.600   8.402  1.00  0.00    -0.237 OA
ATOM     78  O   UNL     1       9.055  17.514   5.972  1.00  0.00    -0.744 OA
ENDBRANCH  72  75
ENDBRANCH  54  68
BRANCH  55  79
ATOM     79  C   UNL     1      10.884   7.234  -1.417  1.00  0.00     0.023 A 
ATOM     80  C   UNL     1      11.741   6.135  -1.214  1.00  0.00     0.012 A 
ATOM     81  C   UNL     1      10.321   7.442  -2.692  1.00  0.00     0.148 A 
ATOM     82  C   UNL     1      12.044   5.267  -2.263  1.00  0.00     0.002 A 
ATOM     83  C   UNL     1      10.588   6.545  -3.719  1.00  0.00     0.091 A 
ATOM     84  F   UNL     1       9.521   8.503  -2.866  1.00  0.00    -0.205 F 
ATOM     85  C   UNL     1      11.460   5.465  -3.511  1.00  0.00     0.022 A 
BRANCH  83  86
ATOM     86  S   UNL     1       9.786   6.645  -5.324  1.00  0.00     0.127 S 
ATOM     87  O   UNL     1      10.905   6.987  -6.197  1.00  0.00    -0.237 OA
ATOM     88  O   UNL     1       9.271   5.285  -5.485  1.00  0.00    -0.237 OA
ATOM     89  O   UNL     1       8.757   7.666  -5.187  1.00  0.00    -0.744 OA
ENDBRANCH  83  86
ENDBRANCH  55  79
BRANCH  67  90
ATOM     90  C   UNL     1      14.647  11.636   2.493  1.00  0.00     0.023 A 
ATOM     91  C   UNL     1      15.060  12.559   1.513  1.00  0.00     0.012 A 
ATOM     92  C   UNL     1      15.568  11.199   3.465  1.00  0.00     0.148 A 
ATOM     93  C   UNL     1      16.375  13.023   1.487  1.00  0.00     0.002 A 
ATOM     94  C   UNL     1      16.865  11.698   3.459  1.00  0.00     0.091 A 
ATOM     95  F   UNL     1      15.161  10.303   4.377  1.00  0.00    -0.205 F 
ATOM     96  C   UNL     1      17.273  12.603   2.466  1.00  0.00     0.022 A 
BRANCH  94  97
ATOM     97  S   UNL     1      18.056  11.280   4.738  1.00  0.00     0.127 S 
ATOM     98  O   UNL     1      18.895  10.297   4.056  1.00  0.00    -0.237 OA
ATOM     99  O   UNL     1      18.708  12.565   4.994  1.00  0.00    -0.237 OA
ATOM    100  O   UNL     1      17.273  10.773   5.857  1.00  0.00    -0.744 OA
ENDBRANCH  94  97
ENDBRANCH  67  90
ENDBRANCH  41  42
ENDBRANCH  34  36
ENDBRANCH  33  34
ENDBRANCH  32  33
ENDBRANCH  31  32
ENDBRANCH   1  31
TORSDOF 22
