REMARK SMILES CCc1cc(/C=C/C(=O)OCCOCCOC(=O)c2ccc(-c3c4nc(c(-c5cccc(S(=O)(=O)[O-])c5F)c5ccc([nH]5)c(-c5cccc(S(=O)(=O)[O-])c5F)c5nc(c(-c6cccc(S(=O)(=O)[O-])c6F)c6ccc3[nH]6)C=C5)C=C4)cc2)cc(C(=O)c2ccccc2)c1
REMARK SMILES IDX 13 1 12 2 11 3 10 4 8 5 9 6 7 7 6 8 5 9 3 10 4 11 92 12
REMARK SMILES IDX 83 13 82 14 2 15 1 16 84 17 85 18 86 19 87 20 91 21 88 22
REMARK SMILES IDX 90 23 89 24 14 25 15 26 16 27 17 28 18 29 19 30 20 31 81 32
REMARK SMILES IDX 21 33 80 34 22 35 23 36 24 37 74 38 25 39 79 40 73 41 75 42
REMARK SMILES IDX 26 43 78 44 72 45 71 46 27 48 59 49 39 50 58 51 40 52 43 53
REMARK SMILES IDX 57 54 76 55 41 56 42 57 56 59 77 60 44 61 28 62 29 63 37 64
REMARK SMILES IDX 30 65 32 66 38 67 31 68 33 69 34 70 35 71 36 72 60 73 61 74
REMARK SMILES IDX 69 75 62 76 64 77 70 78 63 79 65 80 66 81 67 82 68 83 45 84
REMARK SMILES IDX 46 85 54 86 47 87 49 88 55 89 48 90 50 91 51 92 52 93 53 94
REMARK H PARENT 75 47 43 58
REMARK Flexibility Score: inf
ROOT
ATOM      1  O   UNL     1       1.281   0.006   9.947  1.00  0.00    -0.374 OA
ENDROOT
BRANCH   1   2
ATOM      2  C   UNL     1       1.873   1.222  10.412  1.00  0.00     0.202 C 
BRANCH   2   3
ATOM      3  C   UNL     1       3.171   1.627   9.709  1.00  0.00     0.261 C 
BRANCH   3   4
ATOM      4  O   UNL     1       2.932   1.920   8.322  1.00  0.00    -0.460 OA
BRANCH   4   5
ATOM      5  C   UNL     1       3.520   1.081   7.439  1.00  0.00     0.330 C 
ATOM      6  O   UNL     1       4.309   0.183   7.697  1.00  0.00    -0.247 OA
BRANCH   5   7
ATOM      7  C   UNL     1       3.010   1.268   6.065  1.00  0.00     0.094 C 
ATOM      8  C   UNL     1       2.186   2.238   5.635  1.00  0.00     0.015 C 
BRANCH   8   9
ATOM      9  C   UNL     1       1.675   2.285   4.252  1.00  0.00    -0.024 A 
ATOM     10  C   UNL     1       0.941   1.142   2.209  1.00  0.00    -0.047 A 
ATOM     11  C   UNL     1       1.391   1.108   3.537  1.00  0.00     0.011 A 
ATOM     12  C   UNL     1       0.728   2.387   1.610  1.00  0.00     0.016 A 
ATOM     13  C   UNL     1       0.937   3.578   2.320  1.00  0.00     0.023 A 
ATOM     14  C   UNL     1       1.417   3.518   3.639  1.00  0.00     0.020 A 
BRANCH  10  15
ATOM     15  C   UNL     1       0.635  -0.147   1.484  1.00  0.00     0.032 C 
ATOM     16  C   UNL     1       1.182  -0.220   0.063  1.00  0.00     0.009 C 
ENDBRANCH  10  15
BRANCH  13  17
ATOM     17  C   UNL     1       0.712   4.916   1.694  1.00  0.00     0.193 C 
ATOM     18  O   UNL     1       1.121   5.932   2.247  1.00  0.00    -0.289 OA
BRANCH  17  19
ATOM     19  C   UNL     1       0.055   5.056   0.373  1.00  0.00     0.022 A 
ATOM     20  C   UNL     1       0.711   5.794  -0.617  1.00  0.00     0.012 A 
ATOM     21  C   UNL     1      -1.187   4.469   0.104  1.00  0.00     0.012 A 
ATOM     22  C   UNL     1       0.155   5.894  -1.893  1.00  0.00     0.001 A 
ATOM     23  C   UNL     1      -1.736   4.566  -1.176  1.00  0.00     0.001 A 
ATOM     24  C   UNL     1      -1.061   5.269  -2.175  1.00  0.00     0.000 A 
ENDBRANCH  17  19
ENDBRANCH  13  17
ENDBRANCH   8   9
ENDBRANCH   5   7
ENDBRANCH   4   5
ENDBRANCH   3   4
ENDBRANCH   2   3
ENDBRANCH   1   2
BRANCH   1  25
ATOM     25  C   UNL     1       0.449   0.109   8.789  1.00  0.00     0.202 C 
BRANCH  25  26
ATOM     26  C   UNL     1      -0.984   0.594   9.043  1.00  0.00     0.261 C 
BRANCH  26  27
ATOM     27  O   UNL     1      -1.018   1.983   9.415  1.00  0.00    -0.460 OA
BRANCH  27  28
ATOM     28  C   UNL     1      -1.350   2.225  10.704  1.00  0.00     0.338 C 
ATOM     29  O   UNL     1      -1.708   1.402  11.539  1.00  0.00    -0.246 OA
BRANCH  28  30
ATOM     30  C   UNL     1      -1.049   3.627  11.051  1.00  0.00     0.060 A 
ATOM     31  C   UNL     1      -0.308   3.859  12.217  1.00  0.00     0.016 A 
ATOM     32  C   UNL     1      -1.522   4.697  10.287  1.00  0.00     0.016 A 
ATOM     33  C   UNL     1      -0.083   5.163  12.654  1.00  0.00     0.010 A 
ATOM     34  C   UNL     1      -1.299   6.006  10.731  1.00  0.00     0.010 A 
ATOM     35  C   UNL     1      -0.611   6.244  11.935  1.00  0.00    -0.014 A 
BRANCH  35  36
ATOM     36  C   UNL     1      -0.555   7.607  12.516  1.00  0.00     0.031 A 
ATOM     37  C   UNL     1      -1.779   8.169  13.187  1.00  0.00     0.074 A 
ATOM     38  C   UNL     1       0.575   8.335  12.453  1.00  0.00     0.049 A 
ATOM     39  N   UNL     1      -1.949   9.332  13.759  1.00  0.00    -0.248 NA
ATOM     40  C   UNL     1      -2.972   7.306  13.214  1.00  0.00     0.031 C 
ATOM     41  C   UNL     1       1.823   7.905  11.825  1.00  0.00     0.029 A 
ATOM     42  N   UNL     1       0.845   9.602  12.907  1.00  0.00    -0.354 N 
ATOM     43  C   UNL     1      -3.270   9.353  14.191  1.00  0.00     0.074 A 
ATOM     44  C   UNL     1      -3.862   8.092  13.802  1.00  0.00     0.031 C 
ATOM     45  C   UNL     1       2.719   8.903  11.910  1.00  0.00     0.029 A 
ATOM     46  C   UNL     1       2.105  10.046  12.582  1.00  0.00     0.049 A 
ATOM     47  H   UNL     1       0.198  10.142  13.416  1.00  0.00     0.167 HD
ATOM     48  C   UNL     1      -3.926  10.325  14.867  1.00  0.00     0.034 A 
ATOM     49  C   UNL     1       2.689  11.243  12.791  1.00  0.00     0.034 A 
ATOM     50  C   UNL     1      -3.330  11.569  15.275  1.00  0.00     0.049 A 
ATOM     51  C   UNL     1       1.933  12.313  13.536  1.00  0.00     0.074 A 
ATOM     52  C   UNL     1      -3.898  12.594  16.011  1.00  0.00     0.029 A 
ATOM     53  N   UNL     1      -2.037  11.963  14.972  1.00  0.00    -0.354 N 
ATOM     54  N   UNL     1       0.729  12.265  14.055  1.00  0.00    -0.248 NA
ATOM     55  C   UNL     1       2.629  13.589  13.756  1.00  0.00     0.031 C 
ATOM     56  C   UNL     1      -2.954  13.619  16.134  1.00  0.00     0.029 A 
ATOM     57  C   UNL     1      -1.790  13.220  15.496  1.00  0.00     0.049 A 
ATOM     58  H   UNL     1      -1.389  11.428  14.460  1.00  0.00     0.167 HD
ATOM     59  C   UNL     1       0.540  13.486  14.694  1.00  0.00     0.074 A 
ATOM     60  C   UNL     1       1.759  14.246  14.513  1.00  0.00     0.031 C 
ATOM     61  C   UNL     1      -0.550  13.942  15.361  1.00  0.00     0.034 A 
BRANCH  48  62
ATOM     62  C   UNL     1      -5.362  10.069  15.242  1.00  0.00     0.023 A 
ATOM     63  C   UNL     1      -5.658   9.157  16.276  1.00  0.00     0.012 A 
ATOM     64  C   UNL     1      -6.412  10.767  14.614  1.00  0.00     0.148 A 
ATOM     65  C   UNL     1      -6.978   8.923  16.660  1.00  0.00     0.002 A 
ATOM     66  C   UNL     1      -7.722  10.558  15.030  1.00  0.00     0.091 A 
ATOM     67  F   UNL     1      -6.112  11.611  13.617  1.00  0.00    -0.205 F 
ATOM     68  C   UNL     1      -8.007   9.630  16.044  1.00  0.00     0.022 A 
BRANCH  66  69
ATOM     69  S   UNL     1      -9.109  11.476  14.350  1.00  0.00     0.127 S 
ATOM     70  O   UNL     1      -9.771  10.453  13.541  1.00  0.00    -0.237 OA
ATOM     71  O   UNL     1      -9.841  11.867  15.556  1.00  0.00    -0.237 OA
ATOM     72  O   UNL     1      -8.530  12.585  13.607  1.00  0.00    -0.744 OA
ENDBRANCH  66  69
ENDBRANCH  48  62
BRANCH  49  73
ATOM     73  C   UNL     1       4.085  11.480  12.327  1.00  0.00     0.023 A 
ATOM     74  C   UNL     1       5.119  11.613  13.274  1.00  0.00     0.012 A 
ATOM     75  C   UNL     1       4.397  11.556  10.956  1.00  0.00     0.148 A 
ATOM     76  C   UNL     1       6.432  11.846  12.866  1.00  0.00     0.002 A 
ATOM     77  C   UNL     1       5.715  11.735  10.554  1.00  0.00     0.091 A 
ATOM     78  F   UNL     1       3.397  11.446  10.070  1.00  0.00    -0.205 F 
ATOM     79  C   UNL     1       6.732  11.896  11.507  1.00  0.00     0.022 A 
BRANCH  77  80
ATOM     80  S   UNL     1       6.212  11.686   8.828  1.00  0.00     0.127 S 
ATOM     81  O   UNL     1       6.538  13.086   8.572  1.00  0.00    -0.237 OA
ATOM     82  O   UNL     1       7.362  10.781   8.871  1.00  0.00    -0.237 OA
ATOM     83  O   UNL     1       5.062  11.159   8.106  1.00  0.00    -0.744 OA
ENDBRANCH  77  80
ENDBRANCH  49  73
BRANCH  61  84
ATOM     84  C   UNL     1      -0.472  15.312  15.984  1.00  0.00     0.023 A 
ATOM     85  C   UNL     1      -0.515  16.458  15.166  1.00  0.00     0.012 A 
ATOM     86  C   UNL     1      -0.440  15.463  17.385  1.00  0.00     0.148 A 
ATOM     87  C   UNL     1      -0.497  17.733  15.730  1.00  0.00     0.002 A 
ATOM     88  C   UNL     1      -0.471  16.737  17.942  1.00  0.00     0.091 A 
ATOM     89  F   UNL     1      -0.381  14.361  18.147  1.00  0.00    -0.205 F 
ATOM     90  C   UNL     1      -0.488  17.872  17.116  1.00  0.00     0.022 A 
BRANCH  88  91
ATOM     91  S   UNL     1      -0.559  17.008  19.716  1.00  0.00     0.127 S 
ATOM     92  O   UNL     1       0.797  17.464  20.015  1.00  0.00    -0.237 OA
ATOM     93  O   UNL     1      -1.588  18.043  19.823  1.00  0.00    -0.237 OA
ATOM     94  O   UNL     1      -0.932  15.726  20.299  1.00  0.00    -0.744 OA
ENDBRANCH  88  91
ENDBRANCH  61  84
ENDBRANCH  35  36
ENDBRANCH  28  30
ENDBRANCH  27  28
ENDBRANCH  26  27
ENDBRANCH  25  26
ENDBRANCH   1  25
TORSDOF 21
