REMARK SMILES CCCN(CCC)c1cc(C(=O)OCCOCCOC(=O)c2ccc(-c3c4nc(c(-c5cccc(S(=O)(=O)[O-])c5F)c5ccc([nH]5)c(-c5cccc(S(=O)(=O)[O-])c5F)c5nc(c(-c6cccc(S(=O)(=O)[O-])c6F)c6ccc3[nH]6)C=C5)C=C4)cc2)cc(C(F)(F)F)c1
REMARK SMILES IDX 16 1 15 2 14 3 13 4 11 5 12 6 10 7 8 8 9 9 91 10 86 11 85 12
REMARK SMILES IDX 4 13 3 14 2 15 1 16 5 17 6 18 7 19 87 20 88 21 89 22 90 23
REMARK SMILES IDX 17 24 18 25 19 26 20 27 21 28 22 29 23 30 84 31 24 32 83 33
REMARK SMILES IDX 25 34 26 35 27 36 77 37 28 38 82 39 76 40 78 41 29 42 81 43
REMARK SMILES IDX 75 44 74 45 30 47 62 48 42 49 61 50 43 51 46 52 60 53 79 54
REMARK SMILES IDX 44 55 45 56 59 58 80 59 47 60 31 61 32 62 40 63 33 64 35 65
REMARK SMILES IDX 41 66 34 67 36 68 37 69 38 70 39 71 63 72 64 73 72 74 65 75
REMARK SMILES IDX 67 76 73 77 66 78 68 79 69 80 70 81 71 82 48 83 49 84 57 85
REMARK SMILES IDX 50 86 52 87 58 88 51 89 53 90 54 91 55 92 56 93
REMARK H PARENT 78 46 46 57
REMARK Flexibility Score: inf
ROOT
ATOM      1  O   UNL     1       0.389   5.780   5.989  1.00  0.00    -0.374 OA
ENDROOT
BRANCH   1   2
ATOM      2  C   UNL     1       1.167   6.714   5.233  1.00  0.00     0.202 C 
BRANCH   2   3
ATOM      3  C   UNL     1       2.503   6.189   4.693  1.00  0.00     0.261 C 
BRANCH   3   4
ATOM      4  O   UNL     1       2.265   5.346   3.551  1.00  0.00    -0.460 OA
BRANCH   4   5
ATOM      5  C   UNL     1       2.819   4.108   3.587  1.00  0.00     0.338 C 
ATOM      6  O   UNL     1       3.636   3.690   4.382  1.00  0.00    -0.246 OA
BRANCH   5   7
ATOM      7  C   UNL     1       2.058   3.247   2.645  1.00  0.00     0.062 A 
ATOM      8  C   UNL     1       0.894   1.132   2.336  1.00  0.00     0.038 A 
ATOM      9  C   UNL     1       1.781   1.935   3.054  1.00  0.00     0.041 A 
ATOM     10  C   UNL     1       0.328   1.663   1.173  1.00  0.00     0.039 A 
ATOM     11  C   UNL     1       0.688   2.926   0.677  1.00  0.00     0.058 A 
ATOM     12  C   UNL     1       1.533   3.736   1.445  1.00  0.00     0.029 A 
BRANCH   8  13
ATOM     13  N   UNL     1       0.604  -0.158   2.734  1.00  0.00    -0.372 N 
BRANCH  13  14
ATOM     14  C   UNL     1       1.298  -1.278   2.088  1.00  0.00     0.116 C 
BRANCH  14  15
ATOM     15  C   UNL     1       0.742  -1.592   0.693  1.00  0.00     0.018 C 
ATOM     16  C   UNL     1       1.594  -1.012  -0.432  1.00  0.00     0.006 C 
ENDBRANCH  14  15
ENDBRANCH  13  14
BRANCH  13  17
ATOM     17  C   UNL     1      -0.381  -0.416   3.788  1.00  0.00     0.116 C 
BRANCH  17  18
ATOM     18  C   UNL     1       0.202  -0.235   5.194  1.00  0.00     0.018 C 
ATOM     19  C   UNL     1      -0.152   1.115   5.798  1.00  0.00     0.006 C 
ENDBRANCH  17  18
ENDBRANCH  13  17
ENDBRANCH   8  13
BRANCH  11  20
ATOM     20  C   UNL     1       0.185   3.385  -0.668  1.00  0.00     0.416 C 
ATOM     21  F   UNL     1      -0.735   4.380  -0.573  1.00  0.00    -0.166 F 
ATOM     22  F   UNL     1       1.185   3.857  -1.460  1.00  0.00    -0.166 F 
ATOM     23  F   UNL     1      -0.411   2.389  -1.385  1.00  0.00    -0.166 F 
ENDBRANCH  11  20
ENDBRANCH   5   7
ENDBRANCH   4   5
ENDBRANCH   3   4
ENDBRANCH   2   3
ENDBRANCH   1   2
BRANCH   1  24
ATOM     24  C   UNL     1      -0.286   4.760   5.257  1.00  0.00     0.202 C 
BRANCH  24  25
ATOM     25  C   UNL     1      -1.645   5.119   4.644  1.00  0.00     0.261 C 
BRANCH  25  26
ATOM     26  O   UNL     1      -1.583   6.261   3.783  1.00  0.00    -0.460 OA
BRANCH  26  27
ATOM     27  C   UNL     1      -2.020   7.409   4.357  1.00  0.00     0.338 C 
ATOM     28  O   UNL     1      -2.512   7.542   5.465  1.00  0.00    -0.246 OA
BRANCH  27  29
ATOM     29  C   UNL     1      -1.667   8.553   3.498  1.00  0.00     0.060 A 
ATOM     30  C   UNL     1      -0.966   9.611   4.089  1.00  0.00     0.016 A 
ATOM     31  C   UNL     1      -2.060   8.614   2.160  1.00  0.00     0.016 A 
ATOM     32  C   UNL     1      -0.690  10.758   3.351  1.00  0.00     0.010 A 
ATOM     33  C   UNL     1      -1.788   9.770   1.424  1.00  0.00     0.010 A 
ATOM     34  C   UNL     1      -1.132  10.858   2.026  1.00  0.00    -0.014 A 
BRANCH  34  35
ATOM     35  C   UNL     1      -1.020  12.149   1.308  1.00  0.00     0.031 A 
ATOM     36  C   UNL     1      -2.237  13.022   1.181  1.00  0.00     0.074 A 
ATOM     37  C   UNL     1       0.152  12.530   0.769  1.00  0.00     0.049 A 
ATOM     38  N   UNL     1      -2.373  14.165   0.564  1.00  0.00    -0.248 NA
ATOM     39  C   UNL     1      -3.466  12.539   1.833  1.00  0.00     0.031 C 
ATOM     40  C   UNL     1       1.397  11.766   0.829  1.00  0.00     0.029 A 
ATOM     41  N   UNL     1       0.475  13.646   0.039  1.00  0.00    -0.354 N 
ATOM     42  C   UNL     1      -3.706  14.525   0.724  1.00  0.00     0.074 A 
ATOM     43  C   UNL     1      -4.340  13.473   1.488  1.00  0.00     0.031 C 
ATOM     44  C   UNL     1       2.344  12.421   0.136  1.00  0.00     0.029 A 
ATOM     45  C   UNL     1       1.765  13.636  -0.435  1.00  0.00     0.049 A 
ATOM     46  H   UNL     1      -0.156  14.382  -0.129  1.00  0.00     0.167 HD
ATOM     47  C   UNL     1      -4.340  15.639   0.288  1.00  0.00     0.034 A 
ATOM     48  C   UNL     1       2.398  14.498  -1.255  1.00  0.00     0.034 A 
ATOM     49  C   UNL     1      -3.700  16.691  -0.454  1.00  0.00     0.049 A 
ATOM     50  C   UNL     1       1.664  15.720  -1.742  1.00  0.00     0.074 A 
ATOM     51  C   UNL     1      -4.243  17.884  -0.898  1.00  0.00     0.029 A 
ATOM     52  N   UNL     1      -2.379  16.672  -0.874  1.00  0.00    -0.354 N 
ATOM     53  N   UNL     1       0.439  16.108  -1.480  1.00  0.00    -0.248 NA
ATOM     54  C   UNL     1       2.410  16.642  -2.611  1.00  0.00     0.031 C 
ATOM     55  C   UNL     1      -3.256  18.574  -1.610  1.00  0.00     0.029 A 
ATOM     56  C   UNL     1      -2.090  17.825  -1.582  1.00  0.00     0.049 A 
ATOM     57  H   UNL     1      -1.740  15.945  -0.694  1.00  0.00     0.167 HD
ATOM     58  C   UNL     1       0.280  17.334  -2.117  1.00  0.00     0.074 A 
ATOM     59  C   UNL     1       1.541  17.632  -2.765  1.00  0.00     0.031 C 
ATOM     60  C   UNL     1      -0.813  18.134  -2.173  1.00  0.00     0.034 A 
BRANCH  47  61
ATOM     61  C   UNL     1      -5.801  15.789   0.624  1.00  0.00     0.023 A 
ATOM     62  C   UNL     1      -6.185  16.083   1.948  1.00  0.00     0.012 A 
ATOM     63  C   UNL     1      -6.787  15.693  -0.377  1.00  0.00     0.148 A 
ATOM     64  C   UNL     1      -7.530  16.248   2.276  1.00  0.00     0.002 A 
ATOM     65  C   UNL     1      -8.121  15.902  -0.051  1.00  0.00     0.091 A 
ATOM     66  F   UNL     1      -6.403  15.388  -1.625  1.00  0.00    -0.205 F 
ATOM     67  C   UNL     1      -8.496  16.169   1.277  1.00  0.00     0.022 A 
BRANCH  65  68
ATOM     68  S   UNL     1      -9.431  15.896  -1.280  1.00  0.00     0.127 S 
ATOM     69  O   UNL     1     -10.131  14.653  -0.959  1.00  0.00    -0.237 OA
ATOM     70  O   UNL     1     -10.170  17.114  -0.948  1.00  0.00    -0.237 OA
ATOM     71  O   UNL     1      -8.767  15.923  -2.575  1.00  0.00    -0.744 OA
ENDBRANCH  65  68
ENDBRANCH  47  61
BRANCH  48  72
ATOM     72  C   UNL     1       3.817  14.254  -1.639  1.00  0.00     0.023 A 
ATOM     73  C   UNL     1       4.825  15.106  -1.149  1.00  0.00     0.012 A 
ATOM     74  C   UNL     1       4.173  13.174  -2.469  1.00  0.00     0.148 A 
ATOM     75  C   UNL     1       6.160  14.905  -1.504  1.00  0.00     0.002 A 
ATOM     76  C   UNL     1       5.510  12.946  -2.773  1.00  0.00     0.091 A 
ATOM     77  F   UNL     1       3.196  12.384  -2.938  1.00  0.00    -0.205 F 
ATOM     78  C   UNL     1       6.503  13.820  -2.306  1.00  0.00     0.022 A 
BRANCH  76  79
ATOM     79  S   UNL     1       6.056  11.502  -3.692  1.00  0.00     0.127 S 
ATOM     80  O   UNL     1       6.475  12.094  -4.959  1.00  0.00    -0.237 OA
ATOM     81  O   UNL     1       7.147  11.006  -2.852  1.00  0.00    -0.237 OA
ATOM     82  O   UNL     1       4.900  10.618  -3.757  1.00  0.00    -0.744 OA
ENDBRANCH  76  79
ENDBRANCH  48  72
BRANCH  60  83
ATOM     83  C   UNL     1      -0.692  19.436  -2.923  1.00  0.00     0.023 A 
ATOM     84  C   UNL     1      -0.636  19.433  -4.331  1.00  0.00     0.012 A 
ATOM     85  C   UNL     1      -0.716  20.665  -2.234  1.00  0.00     0.148 A 
ATOM     86  C   UNL     1      -0.573  20.633  -5.040  1.00  0.00     0.002 A 
ATOM     87  C   UNL     1      -0.704  21.857  -2.949  1.00  0.00     0.091 A 
ATOM     88  F   UNL     1      -0.752  20.646  -0.894  1.00  0.00    -0.205 F 
ATOM     89  C   UNL     1      -0.620  21.843  -4.351  1.00  0.00     0.022 A 
BRANCH  87  90
ATOM     90  S   UNL     1      -0.859  23.459  -2.152  1.00  0.00     0.127 S 
ATOM     91  O   UNL     1       0.497  23.990  -2.283  1.00  0.00    -0.237 OA
ATOM     92  O   UNL     1      -1.858  24.127  -2.987  1.00  0.00    -0.237 OA
ATOM     93  O   UNL     1      -1.296  23.189  -0.788  1.00  0.00    -0.744 OA
ENDBRANCH  87  90
ENDBRANCH  60  83
ENDBRANCH  34  35
ENDBRANCH  27  29
ENDBRANCH  26  27
ENDBRANCH  25  26
ENDBRANCH  24  25
ENDBRANCH   1  24
TORSDOF 23
