REMARK SMILES CC(C)Oc1ccc(-c2ccc(/C(=C\c3ccc(S(C)(=O)=O)cc3)C(=O)OCCOCCOC(=O)c3ccc(-c4c5nc(c(-c6cccc(S(=O)(=O)[O-])c6F)c6ccc([nH]6)c(-c6cccc(S(=O)(=O)[O-])c6F)c6nc(c(-c7cccc(S(=O)(=O)[O-])c7F)c7ccc4[nH]7)C=C6)C=C5)cc3)cc2)cc1
REMARK SMILES IDX 29 1 28 2 27 3 25 4 26 5 13 6 14 7 12 8 9 9 10 10 100 11
REMARK SMILES IDX 11 12 99 13 8 14 5 15 6 16 102 17 7 18 101 19 4 20 2 21 1 22
REMARK SMILES IDX 3 23 15 24 16 25 24 26 17 27 23 28 18 29 19 30 20 31 21 32
REMARK SMILES IDX 22 33 30 34 31 35 32 36 33 37 34 38 35 39 36 40 37 41 98 42
REMARK SMILES IDX 38 43 97 44 39 45 40 46 41 47 91 48 42 49 96 50 90 51 92 52
REMARK SMILES IDX 43 53 95 54 89 55 88 56 44 58 76 59 56 60 75 61 57 62 60 63
REMARK SMILES IDX 74 64 93 65 58 66 59 67 73 69 94 70 61 71 45 72 46 73 54 74
REMARK SMILES IDX 47 75 49 76 55 77 48 78 50 79 51 80 52 81 53 82 77 83 78 84
REMARK SMILES IDX 86 85 79 86 81 87 87 88 80 89 82 90 83 91 84 92 85 93 62 94
REMARK SMILES IDX 63 95 71 96 64 97 66 98 72 99 65 100 67 101 68 102 69 103
REMARK SMILES IDX 70 104
REMARK H PARENT 92 57 60 68
REMARK Flexibility Score: inf
ROOT
ATOM      1  C   UNL     1      -6.965   6.294  -8.178  1.00  0.00     0.202 C 
ENDROOT
BRANCH   1   2
ATOM      2  C   UNL     1      -7.892   6.723  -7.036  1.00  0.00     0.261 C 
BRANCH   2   3
ATOM      3  O   UNL     1      -7.146   7.245  -5.929  1.00  0.00    -0.460 OA
BRANCH   3   4
ATOM      4  C   UNL     1      -7.201   6.502  -4.794  1.00  0.00     0.338 C 
ATOM      5  O   UNL     1      -7.937   5.544  -4.604  1.00  0.00    -0.246 OA
BRANCH   4   6
ATOM      6  C   UNL     1      -6.120   6.902  -3.828  1.00  0.00     0.067 C 
ATOM      7  C   UNL     1      -5.832   8.227  -3.748  1.00  0.00     0.024 C 
BRANCH   6   8
ATOM      8  C   UNL     1      -5.465   5.812  -3.043  1.00  0.00    -0.011 A 
ATOM      9  C   UNL     1      -3.975   3.780  -1.676  1.00  0.00    -0.018 A 
ATOM     10  C   UNL     1      -4.332   4.985  -1.053  1.00  0.00     0.009 A 
ATOM     11  C   UNL     1      -4.435   3.585  -2.985  1.00  0.00     0.009 A 
ATOM     12  C   UNL     1      -5.102   5.953  -1.703  1.00  0.00     0.009 A 
ATOM     13  C   UNL     1      -5.156   4.586  -3.657  1.00  0.00     0.009 A 
BRANCH   9  14
ATOM     14  C   UNL     1      -3.158   2.778  -0.960  1.00  0.00    -0.018 A 
ATOM     15  C   UNL     1      -1.516   0.976   0.473  1.00  0.00     0.119 A 
ATOM     16  C   UNL     1      -2.511   1.686   1.132  1.00  0.00     0.047 A 
ATOM     17  C   UNL     1      -1.374   1.105  -0.904  1.00  0.00     0.047 A 
ATOM     18  C   UNL     1      -3.321   2.575   0.423  1.00  0.00     0.012 A 
ATOM     19  C   UNL     1      -2.176   2.011  -1.611  1.00  0.00     0.012 A 
BRANCH  15  20
ATOM     20  O   UNL     1      -0.791   0.089   1.212  1.00  0.00    -0.491 OA
BRANCH  20  21
ATOM     21  C   UNL     1       0.614   0.355   1.368  1.00  0.00     0.167 C 
ATOM     22  C   UNL     1       1.432  -0.170   0.193  1.00  0.00     0.052 C 
ATOM     23  C   UNL     1       0.967   1.798   1.731  1.00  0.00     0.052 C 
ENDBRANCH  20  21
ENDBRANCH  15  20
ENDBRANCH   9  14
ENDBRANCH   6   8
BRANCH   7  24
ATOM     24  C   UNL     1      -4.991   8.876  -2.727  1.00  0.00    -0.025 A 
ATOM     25  C   UNL     1      -5.667   9.660  -1.779  1.00  0.00     0.009 A 
ATOM     26  C   UNL     1      -3.631   8.590  -2.544  1.00  0.00     0.009 A 
ATOM     27  C   UNL     1      -5.043  10.019  -0.587  1.00  0.00     0.021 A 
ATOM     28  C   UNL     1      -3.000   8.944  -1.345  1.00  0.00     0.021 A 
ATOM     29  C   UNL     1      -3.726   9.618  -0.357  1.00  0.00     0.067 A 
BRANCH  29  30
ATOM     30  S   UNL     1      -3.062   9.801   1.282  1.00  0.00     0.175 S 
ATOM     31  C   UNL     1      -2.816  11.544   1.468  1.00  0.00     0.163 C 
ATOM     32  O   UNL     1      -4.101   9.388   2.207  1.00  0.00    -0.224 OA
ATOM     33  O   UNL     1      -1.759   9.162   1.311  1.00  0.00    -0.224 OA
ENDBRANCH  29  30
ENDBRANCH   7  24
ENDBRANCH   4   6
ENDBRANCH   3   4
ENDBRANCH   2   3
ENDBRANCH   1   2
BRANCH   1  34
ATOM     34  O   UNL     1      -5.966   5.318  -7.879  1.00  0.00    -0.374 OA
BRANCH  34  35
ATOM     35  C   UNL     1      -4.804   5.759  -7.176  1.00  0.00     0.202 C 
BRANCH  35  36
ATOM     36  C   UNL     1      -3.754   6.567  -7.948  1.00  0.00     0.261 C 
BRANCH  36  37
ATOM     37  O   UNL     1      -4.257   7.823  -8.427  1.00  0.00    -0.460 OA
BRANCH  37  38
ATOM     38  C   UNL     1      -4.420   7.897  -9.769  1.00  0.00     0.338 C 
ATOM     39  O   UNL     1      -4.130   7.044 -10.598  1.00  0.00    -0.246 OA
BRANCH  38  40
ATOM     40  C   UNL     1      -5.194   9.104 -10.105  1.00  0.00     0.060 A 
ATOM     41  C   UNL     1      -6.400   8.934 -10.798  1.00  0.00     0.016 A 
ATOM     42  C   UNL     1      -4.736  10.380  -9.776  1.00  0.00     0.016 A 
ATOM     43  C   UNL     1      -7.146  10.046 -11.182  1.00  0.00     0.010 A 
ATOM     44  C   UNL     1      -5.480  11.495 -10.173  1.00  0.00     0.010 A 
ATOM     45  C   UNL     1      -6.679  11.334 -10.892  1.00  0.00    -0.014 A 
BRANCH  45  46
ATOM     46  C   UNL     1      -7.413  12.520 -11.390  1.00  0.00     0.031 A 
ATOM     47  C   UNL     1      -6.894  13.269 -12.584  1.00  0.00     0.074 A 
ATOM     48  C   UNL     1      -8.525  12.938 -10.758  1.00  0.00     0.049 A 
ATOM     49  N   UNL     1      -7.353  14.360 -13.138  1.00  0.00    -0.248 NA
ATOM     50  C   UNL     1      -5.697  12.717 -13.240  1.00  0.00     0.031 C 
ATOM     51  C   UNL     1      -9.123  12.292  -9.590  1.00  0.00     0.029 A 
ATOM     52  N   UNL     1      -9.329  14.025 -10.992  1.00  0.00    -0.354 N 
ATOM     53  C   UNL     1      -6.489  14.646 -14.188  1.00  0.00     0.074 A 
ATOM     54  C   UNL     1      -5.473  13.615 -14.190  1.00  0.00     0.031 C 
ATOM     55  C   UNL     1     -10.181  13.015  -9.187  1.00  0.00     0.029 A 
ATOM     56  C   UNL     1     -10.314  14.189 -10.047  1.00  0.00     0.049 A 
ATOM     57  H   UNL     1      -9.212  14.629 -11.760  1.00  0.00     0.167 HD
ATOM     58  C   UNL     1      -6.545  15.668 -15.075  1.00  0.00     0.034 A 
ATOM     59  C   UNL     1     -11.201  15.189  -9.875  1.00  0.00     0.034 A 
ATOM     60  C   UNL     1      -7.563  16.684 -15.074  1.00  0.00     0.049 A 
ATOM     61  C   UNL     1     -11.216  16.335 -10.852  1.00  0.00     0.074 A 
ATOM     62  C   UNL     1      -7.738  17.727 -15.967  1.00  0.00     0.029 A 
ATOM     63  N   UNL     1      -8.566  16.801 -14.124  1.00  0.00    -0.354 N 
ATOM     64  N   UNL     1     -10.473  16.523 -11.916  1.00  0.00    -0.248 NA
ATOM     65  C   UNL     1     -12.211  17.392 -10.622  1.00  0.00     0.031 C 
ATOM     66  C   UNL     1      -8.823  18.497 -15.535  1.00  0.00     0.029 A 
ATOM     67  C   UNL     1      -9.348  17.913 -14.393  1.00  0.00     0.049 A 
ATOM     68  H   UNL     1      -8.703  16.185 -13.369  1.00  0.00     0.167 HD
ATOM     69  C   UNL     1     -10.928  17.702 -12.496  1.00  0.00     0.074 A 
ATOM     70  C   UNL     1     -12.029  18.170 -11.680  1.00  0.00     0.031 C 
ATOM     71  C   UNL     1     -10.466  18.349 -13.596  1.00  0.00     0.034 A 
BRANCH  58  72
ATOM     72  C   UNL     1      -5.478  15.733 -16.137  1.00  0.00     0.023 A 
ATOM     73  C   UNL     1      -5.489  14.806 -17.198  1.00  0.00     0.012 A 
ATOM     74  C   UNL     1      -4.505  16.751 -16.118  1.00  0.00     0.148 A 
ATOM     75  C   UNL     1      -4.531  14.872 -18.209  1.00  0.00     0.002 A 
ATOM     76  C   UNL     1      -3.580  16.838 -17.152  1.00  0.00     0.091 A 
ATOM     77  F   UNL     1      -4.497  17.610 -15.089  1.00  0.00    -0.205 F 
ATOM     78  C   UNL     1      -3.584  15.893 -18.192  1.00  0.00     0.022 A 
BRANCH  76  79
ATOM     79  S   UNL     1      -2.369  18.160 -17.261  1.00  0.00     0.127 S 
ATOM     80  O   UNL     1      -1.123  17.441 -17.001  1.00  0.00    -0.237 OA
ATOM     81  O   UNL     1      -2.535  18.614 -18.642  1.00  0.00    -0.237 OA
ATOM     82  O   UNL     1      -2.748  19.137 -16.250  1.00  0.00    -0.744 OA
ENDBRANCH  76  79
ENDBRANCH  58  72
BRANCH  59  83
ATOM     83  C   UNL     1     -12.158  15.146  -8.734  1.00  0.00     0.023 A 
ATOM     84  C   UNL     1     -13.532  14.967  -8.983  1.00  0.00     0.012 A 
ATOM     85  C   UNL     1     -11.710  15.263  -7.403  1.00  0.00     0.148 A 
ATOM     86  C   UNL     1     -14.447  14.936  -7.930  1.00  0.00     0.002 A 
ATOM     87  C   UNL     1     -12.619  15.171  -6.356  1.00  0.00     0.091 A 
ATOM     88  F   UNL     1     -10.400  15.449  -7.188  1.00  0.00    -0.205 F 
ATOM     89  C   UNL     1     -13.990  15.027  -6.617  1.00  0.00     0.022 A 
BRANCH  87  90
ATOM     90  S   UNL     1     -12.104  15.143  -4.635  1.00  0.00     0.127 S 
ATOM     91  O   UNL     1     -12.601  16.429  -4.152  1.00  0.00    -0.237 OA
ATOM     92  O   UNL     1     -12.820  13.973  -4.126  1.00  0.00    -0.237 OA
ATOM     93  O   UNL     1     -10.655  14.994  -4.659  1.00  0.00    -0.744 OA
ENDBRANCH  87  90
ENDBRANCH  59  83
BRANCH  71  94
ATOM     94  C   UNL     1     -11.161  19.625 -14.000  1.00  0.00     0.023 A 
ATOM     95  C   UNL     1     -10.992  20.790 -13.225  1.00  0.00     0.012 A 
ATOM     96  C   UNL     1     -11.925  19.687 -15.182  1.00  0.00     0.148 A 
ATOM     97  C   UNL     1     -11.601  21.987 -13.601  1.00  0.00     0.002 A 
ATOM     98  C   UNL     1     -12.488  20.895 -15.577  1.00  0.00     0.091 A 
ATOM     99  F   UNL     1     -12.087  18.565 -15.898  1.00  0.00    -0.205 F 
ATOM    100  C   UNL     1     -12.339  22.042 -14.781  1.00  0.00     0.022 A 
BRANCH  98 101
ATOM    101  S   UNL     1     -13.374  21.087 -17.128  1.00  0.00     0.127 S 
ATOM    102  O   UNL     1     -14.748  21.276 -16.663  1.00  0.00    -0.237 OA
ATOM    103  O   UNL     1     -12.752  22.285 -17.693  1.00  0.00    -0.237 OA
ATOM    104  O   UNL     1     -13.135  19.866 -17.884  1.00  0.00    -0.744 OA
ENDBRANCH  98 101
ENDBRANCH  71  94
ENDBRANCH  45  46
ENDBRANCH  38  40
ENDBRANCH  37  38
ENDBRANCH  36  37
ENDBRANCH  35  36
ENDBRANCH  34  35
ENDBRANCH   1  34
TORSDOF 23
