REMARK SMILES O=C(Cc1ccccc1Nc1c(F)cccc1C(F)(F)F)OCCOCCOC(=O)c1ccc(-c2c3nc(c(-c4cccc(S(=O)(=O)[O-])c4F)c4ccc([nH]4)c(-c4cccc(S(=O)(=O)[O-])c4F)c4nc(c(-c5cccc(S(=O)(=O)[O-])c5F)c5ccc2[nH]5)C=C4)C=C3)cc1
REMARK SMILES IDX 24 1 23 2 22 3 2 4 1 5 3 6 4 7 5 8 9 9 6 10 8 11 7 12 10 13
REMARK SMILES IDX 11 15 12 16 17 17 13 18 14 19 16 20 15 21 18 22 19 23 20 24
REMARK SMILES IDX 21 25 25 26 26 27 27 28 28 29 29 30 30 31 31 32 32 33 93 34
REMARK SMILES IDX 33 35 92 36 34 37 35 38 36 39 86 40 37 41 91 42 85 43 87 44
REMARK SMILES IDX 38 45 90 46 84 47 83 48 39 50 71 51 51 52 70 53 52 54 55 55
REMARK SMILES IDX 69 56 88 57 53 58 54 59 68 61 89 62 56 63 40 64 41 65 49 66
REMARK SMILES IDX 42 67 44 68 50 69 43 70 45 71 46 72 47 73 48 74 72 75 73 76
REMARK SMILES IDX 81 77 74 78 76 79 82 80 75 81 77 82 78 83 79 84 80 85 57 86
REMARK SMILES IDX 58 87 66 88 59 89 61 90 67 91 60 92 62 93 63 94 64 95 65 96
REMARK H PARENT 10 14 87 49 55 60
REMARK Flexibility Score: inf
ROOT
ATOM      1  C   UNL     1       4.479  -1.392   0.213  1.00  0.00     0.202 C 
ENDROOT
BRANCH   1   2
ATOM      2  C   UNL     1       3.810  -0.412   1.181  1.00  0.00     0.261 C 
BRANCH   2   3
ATOM      3  O   UNL     1       2.454  -0.065   0.885  1.00  0.00    -0.463 OA
BRANCH   3   4
ATOM      4  C   UNL     1       2.110   0.957   0.065  1.00  0.00     0.310 C 
ATOM      5  O   UNL     1       0.962   1.405   0.096  1.00  0.00    -0.252 OA
BRANCH   4   6
ATOM      6  C   UNL     1       3.111   1.488  -0.938  1.00  0.00     0.160 C 
BRANCH   6   7
ATOM      7  C   UNL     1       3.884   2.676  -0.442  1.00  0.00    -0.013 A 
ATOM      8  C   UNL     1       5.162   2.489   0.110  1.00  0.00     0.006 A 
ATOM      9  C   UNL     1       3.349   3.968  -0.520  1.00  0.00     0.042 A 
ATOM     10  C   UNL     1       5.832   3.533   0.731  1.00  0.00     0.000 A 
ATOM     11  C   UNL     1       4.037   5.014   0.105  1.00  0.00     0.026 A 
ATOM     12  C   UNL     1       5.253   4.794   0.754  1.00  0.00     0.002 A 
BRANCH   9  13
ATOM     13  N   UNL     1       2.203   4.202  -1.297  1.00  0.00    -0.352 N 
ATOM     14  H   UNL     1       1.516   3.499  -1.246  1.00  0.00     0.167 HD
BRANCH  13  15
ATOM     15  C   UNL     1       1.883   5.284  -2.138  1.00  0.00     0.087 A 
ATOM     16  C   UNL     1       0.533   5.685  -2.169  1.00  0.00     0.147 A 
ATOM     17  C   UNL     1       2.814   6.042  -2.875  1.00  0.00     0.082 A 
ATOM     18  F   UNL     1      -0.387   4.932  -1.545  1.00  0.00    -0.205 F 
ATOM     19  C   UNL     1       0.113   6.846  -2.807  1.00  0.00     0.041 A 
ATOM     20  C   UNL     1       2.383   7.245  -3.483  1.00  0.00     0.015 A 
ATOM     21  C   UNL     1       1.050   7.650  -3.438  1.00  0.00     0.004 A 
BRANCH  17  22
ATOM     22  C   UNL     1       4.248   5.627  -3.127  1.00  0.00     0.418 C 
ATOM     23  F   UNL     1       4.675   6.041  -4.364  1.00  0.00    -0.166 F 
ATOM     24  F   UNL     1       5.131   6.194  -2.259  1.00  0.00    -0.166 F 
ATOM     25  F   UNL     1       4.483   4.288  -3.127  1.00  0.00    -0.166 F 
ENDBRANCH  17  22
ENDBRANCH  13  15
ENDBRANCH   9  13
ENDBRANCH   6   7
ENDBRANCH   4   6
ENDBRANCH   3   4
ENDBRANCH   2   3
ENDBRANCH   1   2
BRANCH   1  26
ATOM     26  O   UNL     1       4.128  -1.371  -1.168  1.00  0.00    -0.374 OA
BRANCH  26  27
ATOM     27  C   UNL     1       2.840  -1.886  -1.518  1.00  0.00     0.202 C 
BRANCH  27  28
ATOM     28  C   UNL     1       2.778  -3.390  -1.786  1.00  0.00     0.261 C 
BRANCH  28  29
ATOM     29  O   UNL     1       3.215  -4.135  -0.644  1.00  0.00    -0.460 OA
BRANCH  29  30
ATOM     30  C   UNL     1       4.518  -4.502  -0.688  1.00  0.00     0.338 C 
ATOM     31  O   UNL     1       5.275  -4.424  -1.644  1.00  0.00    -0.246 OA
BRANCH  30  32
ATOM     32  C   UNL     1       4.975  -4.799   0.685  1.00  0.00     0.060 A 
ATOM     33  C   UNL     1       6.237  -4.314   1.056  1.00  0.00     0.016 A 
ATOM     34  C   UNL     1       4.174  -5.482   1.604  1.00  0.00     0.016 A 
ATOM     35  C   UNL     1       6.739  -4.589   2.320  1.00  0.00     0.010 A 
ATOM     36  C   UNL     1       4.682  -5.765   2.872  1.00  0.00     0.010 A 
ATOM     37  C   UNL     1       5.988  -5.370   3.206  1.00  0.00    -0.014 A 
BRANCH  37  38
ATOM     38  C   UNL     1       6.676  -5.963   4.372  1.00  0.00     0.031 A 
ATOM     39  C   UNL     1       7.157  -7.383   4.258  1.00  0.00     0.074 A 
ATOM     40  C   UNL     1       6.925  -5.231   5.470  1.00  0.00     0.049 A 
ATOM     41  N   UNL     1       7.826  -8.102   5.119  1.00  0.00    -0.248 NA
ATOM     42  C   UNL     1       6.841  -8.090   3.003  1.00  0.00     0.031 C 
ATOM     43  C   UNL     1       6.501  -3.847   5.679  1.00  0.00     0.029 A 
ATOM     44  N   UNL     1       7.586  -5.562   6.623  1.00  0.00    -0.354 N 
ATOM     45  C   UNL     1       7.999  -9.343   4.518  1.00  0.00     0.074 A 
ATOM     46  C   UNL     1       7.338  -9.294   3.234  1.00  0.00     0.031 C 
ATOM     47  C   UNL     1       6.892  -3.454   6.903  1.00  0.00     0.029 A 
ATOM     48  C   UNL     1       7.576  -4.562   7.565  1.00  0.00     0.049 A 
ATOM     49  H   UNL     1       8.025  -6.432   6.763  1.00  0.00     0.167 HD
ATOM     50  C   UNL     1       8.672 -10.420   4.984  1.00  0.00     0.034 A 
ATOM     51  C   UNL     1       8.051  -4.559   8.826  1.00  0.00     0.034 A 
ATOM     52  C   UNL     1       9.329 -10.457   6.260  1.00  0.00     0.049 A 
ATOM     53  C   UNL     1       8.777  -5.778   9.329  1.00  0.00     0.074 A 
ATOM     54  C   UNL     1      10.055 -11.488   6.827  1.00  0.00     0.029 A 
ATOM     55  N   UNL     1       9.332  -9.414   7.175  1.00  0.00    -0.354 N 
ATOM     56  N   UNL     1       9.022  -6.910   8.712  1.00  0.00    -0.248 NA
ATOM     57  C   UNL     1       9.332  -5.704  10.688  1.00  0.00     0.031 C 
ATOM     58  C   UNL     1      10.471 -11.078   8.098  1.00  0.00     0.029 A 
ATOM     59  C   UNL     1      10.041  -9.777   8.305  1.00  0.00     0.049 A 
ATOM     60  H   UNL     1       8.892  -8.543   7.039  1.00  0.00     0.167 HD
ATOM     61  C   UNL     1       9.783  -7.670   9.593  1.00  0.00     0.074 A 
ATOM     62  C   UNL     1       9.987  -6.853  10.773  1.00  0.00     0.031 C 
ATOM     63  C   UNL     1      10.260  -8.932   9.451  1.00  0.00     0.034 A 
BRANCH  50  64
ATOM     64  C   UNL     1       8.747 -11.633   4.093  1.00  0.00     0.023 A 
ATOM     65  C   UNL     1       9.539 -11.595   2.926  1.00  0.00     0.012 A 
ATOM     66  C   UNL     1       8.072 -12.822   4.431  1.00  0.00     0.148 A 
ATOM     67  C   UNL     1       9.632 -12.710   2.093  1.00  0.00     0.002 A 
ATOM     68  C   UNL     1       8.208 -13.943   3.622  1.00  0.00     0.091 A 
ATOM     69  F   UNL     1       7.304 -12.830   5.529  1.00  0.00    -0.205 F 
ATOM     70  C   UNL     1       8.976 -13.886   2.447  1.00  0.00     0.022 A 
BRANCH  68  71
ATOM     71  S   UNL     1       7.468 -15.529   4.027  1.00  0.00     0.127 S 
ATOM     72  O   UNL     1       6.483 -15.677   2.956  1.00  0.00    -0.237 OA
ATOM     73  O   UNL     1       8.614 -16.433   3.931  1.00  0.00    -0.237 OA
ATOM     74  O   UNL     1       6.913 -15.385   5.365  1.00  0.00    -0.744 OA
ENDBRANCH  68  71
ENDBRANCH  50  64
BRANCH  51  75
ATOM     75  C   UNL     1       7.868  -3.358   9.688  1.00  0.00     0.023 A 
ATOM     76  C   UNL     1       8.982  -2.591  10.079  1.00  0.00     0.012 A 
ATOM     77  C   UNL     1       6.584  -2.971  10.117  1.00  0.00     0.148 A 
ATOM     78  C   UNL     1       8.824  -1.483  10.913  1.00  0.00     0.002 A 
ATOM     79  C   UNL     1       6.427  -1.832  10.896  1.00  0.00     0.091 A 
ATOM     80  F   UNL     1       5.538  -3.724   9.747  1.00  0.00    -0.205 F 
ATOM     81  C   UNL     1       7.547  -1.098  11.313  1.00  0.00     0.022 A 
BRANCH  79  82
ATOM     82  S   UNL     1       4.810  -1.190  11.340  1.00  0.00     0.127 S 
ATOM     83  O   UNL     1       4.758  -1.472  12.772  1.00  0.00    -0.237 OA
ATOM     84  O   UNL     1       4.944   0.226  10.994  1.00  0.00    -0.237 OA
ATOM     85  O   UNL     1       3.857  -1.921  10.515  1.00  0.00    -0.744 OA
ENDBRANCH  79  82
ENDBRANCH  51  75
BRANCH  63  86
ATOM     86  C   UNL     1      11.079  -9.491  10.587  1.00  0.00     0.023 A 
ATOM     87  C   UNL     1      10.460  -9.810  11.812  1.00  0.00     0.012 A 
ATOM     88  C   UNL     1      12.456  -9.736  10.423  1.00  0.00     0.148 A 
ATOM     89  C   UNL     1      11.210 -10.312  12.875  1.00  0.00     0.002 A 
ATOM     90  C   UNL     1      13.186 -10.290  11.468  1.00  0.00     0.091 A 
ATOM     91  F   UNL     1      13.031  -9.414   9.255  1.00  0.00    -0.205 F 
ATOM     92  C   UNL     1      12.569 -10.561  12.700  1.00  0.00     0.022 A 
BRANCH  90  93
ATOM     93  S   UNL     1      14.917 -10.737  11.299  1.00  0.00     0.127 S 
ATOM     94  O   UNL     1      15.572  -9.691  12.083  1.00  0.00    -0.237 OA
ATOM     95  O   UNL     1      14.954 -12.068  11.905  1.00  0.00    -0.237 OA
ATOM     96  O   UNL     1      15.198 -10.718   9.870  1.00  0.00    -0.744 OA
ENDBRANCH  90  93
ENDBRANCH  63  86
ENDBRANCH  37  38
ENDBRANCH  30  32
ENDBRANCH  29  30
ENDBRANCH  28  29
ENDBRANCH  27  28
ENDBRANCH  26  27
ENDBRANCH   1  26
TORSDOF 21
