REMARK SMILES CN1C(=O)C[C@@H](C(=O)OCCOCCOC(=O)c2ccc(-c3c4nc(c(-c5cccc(S(=O)(=O)[O-])c5F)c5ccc([nH]5)c(-c5cccc(S(=O)(=O)[O-])c5F)c5nc(c(-c6cccc(S(=O)(=O)[O-])c6F)c6ccc3[nH]6)C=C5)C=C4)cc2)C12CCN(C(=O)c1cccc3ccccc13)CC2
REMARK SMILES IDX 13 1 12 2 11 3 10 4 9 5 7 6 8 7 6 8 1 9 2 10 3 11 81 12 4 13
REMARK SMILES IDX 5 14 82 15 98 16 83 17 97 18 84 19 85 20 86 21 87 22 88 23
REMARK SMILES IDX 96 24 89 25 91 26 95 27 90 28 92 29 94 30 93 31 14 32 15 33
REMARK SMILES IDX 16 34 17 35 18 36 19 37 80 38 20 39 79 40 21 41 22 42 23 43
REMARK SMILES IDX 73 44 24 45 78 46 72 47 74 48 25 49 77 50 71 51 70 52 26 54
REMARK SMILES IDX 58 55 38 56 57 57 39 58 42 59 56 60 75 61 40 62 41 63 55 65
REMARK SMILES IDX 76 66 43 67 27 68 28 69 36 70 29 71 31 72 37 73 30 74 32 75
REMARK SMILES IDX 33 76 34 77 35 78 59 79 60 80 68 81 61 82 63 83 69 84 62 85
REMARK SMILES IDX 64 86 65 87 66 88 67 89 44 90 45 91 53 92 46 93 48 94 54 95
REMARK SMILES IDX 47 96 49 97 50 98 51 99 52 100
REMARK H PARENT 74 53 42 64
REMARK Flexibility Score: inf
ROOT
ATOM      1  C   UNL     1       2.435  -3.364  -6.159  1.00  0.00     0.202 C 
ENDROOT
BRANCH   1   2
ATOM      2  O   UNL     1       1.642  -2.692  -7.131  1.00  0.00    -0.374 OA
BRANCH   2   3
ATOM      3  C   UNL     1       1.116  -1.410  -6.793  1.00  0.00     0.202 C 
BRANCH   3   4
ATOM      4  C   UNL     1       0.044  -1.343  -5.695  1.00  0.00     0.261 C 
BRANCH   4   5
ATOM      5  O   UNL     1       0.500  -1.605  -4.346  1.00  0.00    -0.463 OA
BRANCH   5   6
ATOM      6  C   UNL     1       0.029  -2.742  -3.787  1.00  0.00     0.311 C 
ATOM      7  O   UNL     1      -0.516  -3.644  -4.421  1.00  0.00    -0.252 OA
BRANCH   6   8
ATOM      8  C   UNL     1       0.099  -2.824  -2.273  1.00  0.00     0.134 C 
ATOM      9  C   UNL     1       0.904   0.140  -0.077  1.00  0.00     0.147 C 
ATOM     10  N   UNL     1       0.377  -0.894  -0.953  1.00  0.00    -0.339 N 
ATOM     11  C   UNL     1      -0.995  -1.043  -1.095  1.00  0.00     0.223 C 
ATOM     12  C   UNL     1       1.133  -2.079  -1.387  1.00  0.00     0.060 C 
ATOM     13  O   UNL     1      -1.859  -0.294  -0.671  1.00  0.00    -0.275 OA
ATOM     14  C   UNL     1      -1.271  -2.355  -1.766  1.00  0.00     0.118 C 
ATOM     15  C   UNL     1       2.467  -1.711  -2.062  1.00  0.00     0.051 C 
ATOM     16  C   UNL     1       1.466  -2.946  -0.130  1.00  0.00     0.051 C 
ATOM     17  C   UNL     1       3.303  -2.942  -2.393  1.00  0.00     0.122 C 
ATOM     18  C   UNL     1       2.430  -4.102  -0.405  1.00  0.00     0.122 C 
ATOM     19  N   UNL     1       3.599  -3.689  -1.179  1.00  0.00    -0.338 N 
ATOM     20  C   UNL     1       4.850  -4.192  -0.806  1.00  0.00     0.254 C 
ATOM     21  O   UNL     1       5.001  -4.888   0.200  1.00  0.00    -0.269 OA
BRANCH  20  22
ATOM     22  C   UNL     1       6.056  -4.019  -1.662  1.00  0.00     0.047 A 
ATOM     23  C   UNL     1       6.625  -5.226  -2.108  1.00  0.00     0.014 A 
ATOM     24  C   UNL     1       6.708  -2.779  -1.910  1.00  0.00    -0.006 A 
ATOM     25  C   UNL     1       7.832  -5.232  -2.797  1.00  0.00     0.001 A 
ATOM     26  C   UNL     1       7.937  -2.808  -2.624  1.00  0.00    -0.018 A 
ATOM     27  C   UNL     1       6.235  -1.512  -1.490  1.00  0.00     0.009 A 
ATOM     28  C   UNL     1       8.485  -4.029  -3.046  1.00  0.00     0.009 A 
ATOM     29  C   UNL     1       8.623  -1.615  -2.904  1.00  0.00     0.009 A 
ATOM     30  C   UNL     1       6.907  -0.330  -1.817  1.00  0.00     0.001 A 
ATOM     31  C   UNL     1       8.104  -0.383  -2.519  1.00  0.00     0.001 A 
ENDBRANCH  20  22
ENDBRANCH   6   8
ENDBRANCH   5   6
ENDBRANCH   4   5
ENDBRANCH   3   4
ENDBRANCH   2   3
ENDBRANCH   1   2
BRANCH   1  32
ATOM     32  C   UNL     1       3.803  -2.745  -5.854  1.00  0.00     0.261 C 
BRANCH  32  33
ATOM     33  O   UNL     1       3.685  -1.391  -5.388  1.00  0.00    -0.460 OA
BRANCH  33  34
ATOM     34  C   UNL     1       4.650  -0.569  -5.874  1.00  0.00     0.338 C 
ATOM     35  O   UNL     1       5.685  -0.905  -6.423  1.00  0.00    -0.246 OA
BRANCH  34  36
ATOM     36  C   UNL     1       4.194   0.832  -5.845  1.00  0.00     0.060 A 
ATOM     37  C   UNL     1       3.841   1.421  -7.066  1.00  0.00     0.016 A 
ATOM     38  C   UNL     1       4.253   1.596  -4.678  1.00  0.00     0.016 A 
ATOM     39  C   UNL     1       3.604   2.793  -7.135  1.00  0.00     0.010 A 
ATOM     40  C   UNL     1       4.014   2.976  -4.752  1.00  0.00     0.010 A 
ATOM     41  C   UNL     1       3.733   3.588  -5.987  1.00  0.00    -0.014 A 
BRANCH  41  42
ATOM     42  C   UNL     1       3.706   5.067  -6.126  1.00  0.00     0.031 A 
ATOM     43  C   UNL     1       5.004   5.830  -6.180  1.00  0.00     0.074 A 
ATOM     44  C   UNL     1       2.537   5.723  -6.243  1.00  0.00     0.049 A 
ATOM     45  N   UNL     1       5.206   7.108  -6.371  1.00  0.00    -0.248 NA
ATOM     46  C   UNL     1       6.238   5.049  -5.995  1.00  0.00     0.031 C 
ATOM     47  C   UNL     1       1.214   5.102  -6.194  1.00  0.00     0.029 A 
ATOM     48  N   UNL     1       2.275   7.060  -6.415  1.00  0.00    -0.354 N 
ATOM     49  C   UNL     1       6.584   7.289  -6.316  1.00  0.00     0.074 A 
ATOM     50  C   UNL     1       7.169   5.992  -6.053  1.00  0.00     0.031 C 
ATOM     51  C   UNL     1       0.278   6.059  -6.316  1.00  0.00     0.029 A 
ATOM     52  C   UNL     1       0.933   7.360  -6.442  1.00  0.00     0.049 A 
ATOM     53  H   UNL     1       2.980   7.740  -6.510  1.00  0.00     0.167 HD
ATOM     54  C   UNL     1       7.300   8.425  -6.491  1.00  0.00     0.034 A 
ATOM     55  C   UNL     1       0.305   8.548  -6.553  1.00  0.00     0.034 A 
ATOM     56  C   UNL     1       6.719   9.711  -6.769  1.00  0.00     0.049 A 
ATOM     57  C   UNL     1       1.123   9.800  -6.737  1.00  0.00     0.074 A 
ATOM     58  C   UNL     1       7.362  10.913  -7.011  1.00  0.00     0.029 A 
ATOM     59  N   UNL     1       5.358   9.968  -6.828  1.00  0.00    -0.354 N 
ATOM     60  N   UNL     1       2.425   9.929  -6.824  1.00  0.00    -0.248 NA
ATOM     61  C   UNL     1       0.386  11.064  -6.877  1.00  0.00     0.031 C 
ATOM     62  C   UNL     1       6.388  11.901  -7.193  1.00  0.00     0.029 A 
ATOM     63  C   UNL     1       5.139  11.310  -7.089  1.00  0.00     0.049 A 
ATOM     64  H   UNL     1       4.650   9.295  -6.702  1.00  0.00     0.167 HD
ATOM     65  C   UNL     1       2.661  11.278  -7.063  1.00  0.00     0.074 A 
ATOM     66  C   UNL     1       1.365  11.923  -7.127  1.00  0.00     0.031 C 
ATOM     67  C   UNL     1       3.843  11.928  -7.203  1.00  0.00     0.034 A 
BRANCH  54  68
ATOM     68  C   UNL     1       8.802   8.324  -6.421  1.00  0.00     0.023 A 
ATOM     69  C   UNL     1       9.507   7.729  -7.487  1.00  0.00     0.012 A 
ATOM     70  C   UNL     1       9.518   8.866  -5.336  1.00  0.00     0.148 A 
ATOM     71  C   UNL     1      10.899   7.647  -7.460  1.00  0.00     0.002 A 
ATOM     72  C   UNL     1      10.907   8.815  -5.334  1.00  0.00     0.091 A 
ATOM     73  F   UNL     1       8.829   9.408  -4.322  1.00  0.00    -0.205 F 
ATOM     74  C   UNL     1      11.598   8.197  -6.390  1.00  0.00     0.022 A 
BRANCH  72  75
ATOM     75  S   UNL     1      11.901   9.556  -4.034  1.00  0.00     0.127 S 
ATOM     76  O   UNL     1      12.392   8.373  -3.328  1.00  0.00    -0.237 OA
ATOM     77  O   UNL     1      12.921  10.277  -4.797  1.00  0.00    -0.237 OA
ATOM     78  O   UNL     1      10.996  10.408  -3.275  1.00  0.00    -0.744 OA
ENDBRANCH  72  75
ENDBRANCH  54  68
BRANCH  55  79
ATOM     79  C   UNL     1      -1.185   8.604  -6.543  1.00  0.00     0.023 A 
ATOM     80  C   UNL     1      -1.879   8.937  -7.722  1.00  0.00     0.012 A 
ATOM     81  C   UNL     1      -1.916   8.306  -5.376  1.00  0.00     0.148 A 
ATOM     82  C   UNL     1      -3.274   8.997  -7.733  1.00  0.00     0.002 A 
ATOM     83  C   UNL     1      -3.306   8.315  -5.409  1.00  0.00     0.091 A 
ATOM     84  F   UNL     1      -1.237   8.013  -4.259  1.00  0.00    -0.205 F 
ATOM     85  C   UNL     1      -3.987   8.675  -6.582  1.00  0.00     0.022 A 
BRANCH  83  86
ATOM     86  S   UNL     1      -4.302   7.789  -4.009  1.00  0.00     0.127 S 
ATOM     87  O   UNL     1      -4.858   9.058  -3.546  1.00  0.00    -0.237 OA
ATOM     88  O   UNL     1      -5.264   6.889  -4.646  1.00  0.00    -0.237 OA
ATOM     89  O   UNL     1      -3.377   7.131  -3.098  1.00  0.00    -0.744 OA
ENDBRANCH  83  86
ENDBRANCH  55  79
BRANCH  67  90
ATOM     90  C   UNL     1       3.801  13.411  -7.469  1.00  0.00     0.023 A 
ATOM     91  C   UNL     1       3.456  14.299  -6.431  1.00  0.00     0.012 A 
ATOM     92  C   UNL     1       4.184  13.928  -8.723  1.00  0.00     0.148 A 
ATOM     93  C   UNL     1       3.463  15.677  -6.645  1.00  0.00     0.002 A 
ATOM     94  C   UNL     1       4.234  15.304  -8.915  1.00  0.00     0.091 A 
ATOM     95  F   UNL     1       4.490  13.068  -9.704  1.00  0.00    -0.205 F 
ATOM     96  C   UNL     1       3.863  16.179  -7.881  1.00  0.00     0.022 A 
BRANCH  94  97
ATOM     97  S   UNL     1       4.828  16.041 -10.442  1.00  0.00     0.127 S 
ATOM     98  O   UNL     1       3.585  16.511 -11.050  1.00  0.00    -0.237 OA
ATOM     99  O   UNL     1       5.709  17.103  -9.954  1.00  0.00    -0.237 OA
ATOM    100  O   UNL     1       5.513  14.973 -11.160  1.00  0.00    -0.744 OA
ENDBRANCH  94  97
ENDBRANCH  67  90
ENDBRANCH  41  42
ENDBRANCH  34  36
ENDBRANCH  33  34
ENDBRANCH  32  33
ENDBRANCH   1  32
TORSDOF 18
