REMARK SMILES C[C@@H](C(=O)OCCOCCOC(=O)c1ccc(-c2c3nc(c(-c4cccc(S(=O)(=O)[O-])c4F)c4ccc([nH]4)c(-c4cccc(S(=O)(=O)[O-])c4F)c4nc(c(-c5cccc(S(=O)(=O)[O-])c5F)c5ccc2[nH]5)C=C4)C=C3)cc1)c1ccc(-c2cccc(OC(=O)NCCCc3ccccc3)c2)c(F)c1
REMARK SMILES IDX 6 1 5 2 3 3 4 4 2 5 1 6 77 7 78 8 102 9 79 10 100 11 80 12
REMARK SMILES IDX 101 13 81 14 82 15 99 16 83 17 85 18 84 19 86 20 87 21 88 22
REMARK SMILES IDX 89 23 90 25 91 26 92 27 93 28 94 29 98 30 95 31 97 32 96 33
REMARK SMILES IDX 7 34 8 35 9 36 10 37 11 38 12 39 13 40 14 41 15 42 76 43
REMARK SMILES IDX 16 44 75 45 17 46 18 47 19 48 69 49 20 50 74 51 68 52 70 53
REMARK SMILES IDX 21 54 73 55 67 56 66 57 22 59 54 60 34 61 53 62 35 63 38 64
REMARK SMILES IDX 52 65 71 66 36 67 37 68 51 70 72 71 39 72 23 73 24 74 32 75
REMARK SMILES IDX 25 76 27 77 33 78 26 79 28 80 29 81 30 82 31 83 55 84 56 85
REMARK SMILES IDX 64 86 57 87 59 88 65 89 58 90 60 91 61 92 62 93 63 94 40 95
REMARK SMILES IDX 41 96 49 97 42 98 44 99 50 100 43 101 45 102 46 103 47 104
REMARK SMILES IDX 48 105
REMARK H PARENT 89 24 70 58 38 69
REMARK Flexibility Score: inf
ROOT
ATOM      1  C   UNL     1       2.273  -0.843  -4.158  1.00  0.00     0.261 C 
ENDROOT
BRANCH   1   2
ATOM      2  O   UNL     1       1.972  -0.255  -2.878  1.00  0.00    -0.463 OA
BRANCH   2   3
ATOM      3  C   UNL     1       0.911   0.595  -2.852  1.00  0.00     0.313 C 
ATOM      4  O   UNL     1       0.307   0.974  -3.851  1.00  0.00    -0.252 OA
BRANCH   3   5
ATOM      5  C   UNL     1       0.513   1.013  -1.428  1.00  0.00     0.126 C 
ATOM      6  C   UNL     1       1.247   0.292  -0.292  1.00  0.00     0.025 C 
BRANCH   5   7
ATOM      7  C   UNL     1      -1.004   0.918  -1.285  1.00  0.00    -0.031 A 
ATOM      8  C   UNL     1      -1.796   2.062  -1.453  1.00  0.00     0.005 A 
ATOM      9  C   UNL     1      -1.651  -0.310  -1.113  1.00  0.00     0.044 A 
ATOM     10  C   UNL     1      -3.194   1.974  -1.458  1.00  0.00     0.012 A 
ATOM     11  C   UNL     1      -3.038  -0.396  -1.156  1.00  0.00     0.131 A 
ATOM     12  C   UNL     1      -3.843   0.739  -1.313  1.00  0.00     0.018 A 
ATOM     13  F   UNL     1      -3.589  -1.615  -1.041  1.00  0.00    -0.206 F 
BRANCH  12  14
ATOM     14  C   UNL     1      -5.308   0.648  -1.236  1.00  0.00    -0.012 A 
ATOM     15  C   UNL     1      -6.157   1.283  -2.155  1.00  0.00     0.009 A 
ATOM     16  C   UNL     1      -5.890  -0.074  -0.183  1.00  0.00     0.056 A 
ATOM     17  C   UNL     1      -7.547   1.207  -2.014  1.00  0.00     0.004 A 
ATOM     18  C   UNL     1      -7.269  -0.144  -0.037  1.00  0.00     0.133 A 
ATOM     19  C   UNL     1      -8.104   0.496  -0.951  1.00  0.00     0.047 A 
BRANCH  18  20
ATOM     20  O   UNL     1      -7.912  -0.853   1.003  1.00  0.00    -0.410 OA
BRANCH  20  21
ATOM     21  C   UNL     1      -7.282  -1.460   2.086  1.00  0.00     0.412 C 
ATOM     22  O   UNL     1      -6.080  -1.457   2.342  1.00  0.00    -0.224 OA
ATOM     23  N   UNL     1      -8.150  -2.089   2.927  1.00  0.00    -0.321 N 
ATOM     24  H   UNL     1      -7.764  -2.631   3.653  1.00  0.00     0.167 HD
BRANCH  23  25
ATOM     25  C   UNL     1      -9.588  -2.027   2.842  1.00  0.00     0.120 C 
BRANCH  25  26
ATOM     26  C   UNL     1     -10.298  -3.273   3.366  1.00  0.00     0.026 C 
BRANCH  26  27
ATOM     27  C   UNL     1      -9.755  -3.940   4.636  1.00  0.00     0.037 C 
BRANCH  27  28
ATOM     28  C   UNL     1      -9.902  -3.271   5.984  1.00  0.00    -0.048 A 
ATOM     29  C   UNL     1     -10.104  -1.902   6.178  1.00  0.00     0.004 A 
ATOM     30  C   UNL     1      -9.755  -4.080   7.126  1.00  0.00     0.004 A 
ATOM     31  C   UNL     1     -10.146  -1.354   7.465  1.00  0.00     0.000 A 
ATOM     32  C   UNL     1      -9.809  -3.537   8.412  1.00  0.00     0.000 A 
ATOM     33  C   UNL     1      -9.998  -2.171   8.581  1.00  0.00     0.000 A 
ENDBRANCH  27  28
ENDBRANCH  26  27
ENDBRANCH  25  26
ENDBRANCH  23  25
ENDBRANCH  20  21
ENDBRANCH  18  20
ENDBRANCH  12  14
ENDBRANCH   5   7
ENDBRANCH   3   5
ENDBRANCH   2   3
ENDBRANCH   1   2
BRANCH   1  34
ATOM     34  C   UNL     1       2.272  -2.373  -4.085  1.00  0.00     0.202 C 
BRANCH  34  35
ATOM     35  O   UNL     1       1.026  -3.026  -3.829  1.00  0.00    -0.374 OA
BRANCH  35  36
ATOM     36  C   UNL     1       0.470  -2.881  -2.527  1.00  0.00     0.202 C 
BRANCH  36  37
ATOM     37  C   UNL     1       1.060  -3.723  -1.388  1.00  0.00     0.261 C 
BRANCH  37  38
ATOM     38  O   UNL     1       2.465  -3.500  -1.198  1.00  0.00    -0.460 OA
BRANCH  38  39
ATOM     39  C   UNL     1       3.248  -4.508  -1.655  1.00  0.00     0.338 C 
ATOM     40  O   UNL     1       2.881  -5.580  -2.108  1.00  0.00    -0.246 OA
BRANCH  39  41
ATOM     41  C   UNL     1       4.652  -4.064  -1.723  1.00  0.00     0.060 A 
ATOM     42  C   UNL     1       5.291  -4.166  -2.966  1.00  0.00     0.016 A 
ATOM     43  C   UNL     1       5.347  -3.627  -0.595  1.00  0.00     0.016 A 
ATOM     44  C   UNL     1       6.648  -3.884  -3.075  1.00  0.00     0.010 A 
ATOM     45  C   UNL     1       6.715  -3.355  -0.706  1.00  0.00     0.010 A 
ATOM     46  C   UNL     1       7.377  -3.522  -1.936  1.00  0.00    -0.014 A 
BRANCH  46  47
ATOM     47  C   UNL     1       8.856  -3.470  -2.013  1.00  0.00     0.031 A 
ATOM     48  C   UNL     1       9.655  -4.617  -1.458  1.00  0.00     0.074 A 
ATOM     49  C   UNL     1       9.475  -2.428  -2.596  1.00  0.00     0.049 A 
ATOM     50  N   UNL     1      10.952  -4.775  -1.412  1.00  0.00    -0.248 NA
ATOM     51  C   UNL     1       8.892  -5.734  -0.877  1.00  0.00     0.031 C 
ATOM     52  C   UNL     1       8.804  -1.270  -3.185  1.00  0.00     0.029 A 
ATOM     53  N   UNL     1      10.810  -2.169  -2.770  1.00  0.00    -0.354 N 
ATOM     54  C   UNL     1      11.163  -5.987  -0.765  1.00  0.00     0.074 A 
ATOM     55  C   UNL     1       9.861  -6.521  -0.431  1.00  0.00     0.031 C 
ATOM     56  C   UNL     1       9.734  -0.411  -3.636  1.00  0.00     0.029 A 
ATOM     57  C   UNL     1      11.062  -0.945  -3.340  1.00  0.00     0.049 A 
ATOM     58  H   UNL     1      11.521  -2.800  -2.511  1.00  0.00     0.167 HD
ATOM     59  C   UNL     1      12.334  -6.605  -0.485  1.00  0.00     0.034 A 
ATOM     60  C   UNL     1      12.231  -0.316  -3.573  1.00  0.00     0.034 A 
ATOM     61  C   UNL     1      13.625  -6.078  -0.838  1.00  0.00     0.049 A 
ATOM     62  C   UNL     1      13.520  -1.012  -3.222  1.00  0.00     0.074 A 
ATOM     63  C   UNL     1      14.869  -6.652  -0.647  1.00  0.00     0.029 A 
ATOM     64  N   UNL     1      13.841  -4.846  -1.437  1.00  0.00    -0.354 N 
ATOM     65  N   UNL     1      13.703  -2.207  -2.713  1.00  0.00    -0.248 NA
ATOM     66  C   UNL     1      14.766  -0.285  -3.508  1.00  0.00     0.031 C 
ATOM     67  C   UNL     1      15.839  -5.748  -1.091  1.00  0.00     0.029 A 
ATOM     68  C   UNL     1      15.198  -4.632  -1.603  1.00  0.00     0.049 A 
ATOM     69  H   UNL     1      13.133  -4.217  -1.705  1.00  0.00     0.167 HD
ATOM     70  C   UNL     1      15.081  -2.391  -2.656  1.00  0.00     0.074 A 
ATOM     71  C   UNL     1      15.684  -1.191  -3.198  1.00  0.00     0.031 C 
ATOM     72  C   UNL     1      15.783  -3.453  -2.189  1.00  0.00     0.034 A 
BRANCH  59  73
ATOM     73  C   UNL     1      12.277  -7.924   0.239  1.00  0.00     0.023 A 
ATOM     74  C   UNL     1      11.812  -9.076  -0.426  1.00  0.00     0.012 A 
ATOM     75  C   UNL     1      12.741  -8.033   1.565  1.00  0.00     0.148 A 
ATOM     76  C   UNL     1      11.776 -10.308   0.227  1.00  0.00     0.002 A 
ATOM     77  C   UNL     1      12.748  -9.272   2.194  1.00  0.00     0.091 A 
ATOM     78  F   UNL     1      13.159  -6.922   2.189  1.00  0.00    -0.205 F 
ATOM     79  C   UNL     1      12.255 -10.408   1.531  1.00  0.00     0.022 A 
BRANCH  77  80
ATOM     80  S   UNL     1      13.419  -9.519   3.841  1.00  0.00     0.127 S 
ATOM     81  O   UNL     1      12.211  -9.812   4.611  1.00  0.00    -0.237 OA
ATOM     82  O   UNL     1      14.308 -10.664   3.641  1.00  0.00    -0.237 OA
ATOM     83  O   UNL     1      14.095  -8.278   4.192  1.00  0.00    -0.744 OA
ENDBRANCH  77  80
ENDBRANCH  59  73
BRANCH  60  84
ATOM     84  C   UNL     1      12.239   1.040  -4.191  1.00  0.00     0.023 A 
ATOM     85  C   UNL     1      12.750   1.210  -5.492  1.00  0.00     0.012 A 
ATOM     86  C   UNL     1      11.735   2.158  -3.499  1.00  0.00     0.148 A 
ATOM     87  C   UNL     1      12.791   2.475  -6.080  1.00  0.00     0.002 A 
ATOM     88  C   UNL     1      11.725   3.405  -4.112  1.00  0.00     0.091 A 
ATOM     89  F   UNL     1      11.265   1.977  -2.257  1.00  0.00    -0.205 F 
ATOM     90  C   UNL     1      12.270   3.570  -5.395  1.00  0.00     0.022 A 
BRANCH  88  91
ATOM     91  S   UNL     1      10.959   4.844  -3.358  1.00  0.00     0.127 S 
ATOM     92  O   UNL     1      12.118   5.691  -3.087  1.00  0.00    -0.237 OA
ATOM     93  O   UNL     1      10.087   5.317  -4.434  1.00  0.00    -0.237 OA
ATOM     94  O   UNL     1      10.252   4.347  -2.186  1.00  0.00    -0.744 OA
ENDBRANCH  88  91
ENDBRANCH  60  84
BRANCH  72  95
ATOM     95  C   UNL     1      17.287  -3.396  -2.285  1.00  0.00     0.023 A 
ATOM     96  C   UNL     1      18.018  -2.528  -1.451  1.00  0.00     0.012 A 
ATOM     97  C   UNL     1      17.978  -4.262  -3.157  1.00  0.00     0.148 A 
ATOM     98  C   UNL     1      19.412  -2.495  -1.510  1.00  0.00     0.002 A 
ATOM     99  C   UNL     1      19.367  -4.263  -3.171  1.00  0.00     0.091 A 
ATOM    100  F   UNL     1      17.265  -5.070  -3.954  1.00  0.00    -0.205 F 
ATOM    101  C   UNL     1      20.085  -3.370  -2.359  1.00  0.00     0.022 A 
BRANCH  99 102
ATOM    102  S   UNL     1      20.322  -5.422  -4.157  1.00  0.00     0.127 S 
ATOM    103  O   UNL     1      20.896  -4.544  -5.175  1.00  0.00    -0.237 OA
ATOM    104  O   UNL     1      21.284  -5.937  -3.182  1.00  0.00    -0.237 OA
ATOM    105  O   UNL     1      19.372  -6.410  -4.650  1.00  0.00    -0.744 OA
ENDBRANCH  99 102
ENDBRANCH  72  95
ENDBRANCH  46  47
ENDBRANCH  39  41
ENDBRANCH  38  39
ENDBRANCH  37  38
ENDBRANCH  36  37
ENDBRANCH  35  36
ENDBRANCH  34  35
ENDBRANCH   1  34
TORSDOF 25
