REMARK SMILES CCCCCCCNC(=O)Oc1cccc(-c2ccc([C@@H](C)C(=O)OCCOCCOC(=O)c3ccc(-c4c5nc(c(-c6cccc(S(=O)(=O)[O-])c6F)c6ccc([nH]6)c(-c6cccc(S(=O)(=O)[O-])c6F)c6nc(c(-c7cccc(S(=O)(=O)[O-])c7F)c7ccc4[nH]7)C=C6)C=C5)cc3)cc2F)c1
REMARK SMILES IDX 23 1 24 2 21 3 22 4 20 5 17 6 18 7 98 8 19 9 97 10 99 11
REMARK SMILES IDX 16 12 12 13 13 14 100 15 14 16 15 17 11 18 9 19 8 20 10 22
REMARK SMILES IDX 7 23 6 24 5 25 4 26 3 27 2 28 1 29 25 30 26 31 27 32 28 33
REMARK SMILES IDX 29 34 30 35 31 36 32 37 33 38 34 39 35 40 96 41 36 42 95 43
REMARK SMILES IDX 37 44 38 45 39 46 89 47 40 48 94 49 88 50 90 51 41 52 93 53
REMARK SMILES IDX 87 54 86 55 42 57 74 58 54 59 73 60 55 61 58 62 72 63 91 64
REMARK SMILES IDX 56 65 57 66 71 68 92 69 59 70 43 71 44 72 52 73 45 74 47 75
REMARK SMILES IDX 53 76 46 77 48 78 49 79 50 80 51 81 75 82 76 83 84 84 77 85
REMARK SMILES IDX 79 86 85 87 78 88 80 89 81 90 82 91 83 92 60 93 61 94 69 95
REMARK SMILES IDX 62 96 64 97 70 98 63 99 65 100 66 101 67 102 68 103
REMARK H PARENT 8 21 90 56 58 67
REMARK Flexibility Score: inf
ROOT
ATOM      1  C   UNL     1     -11.134   9.711  -5.158  1.00  0.00     0.313 C 
ATOM      2  O   UNL     1     -12.141   9.190  -5.631  1.00  0.00    -0.252 OA
ENDROOT
BRANCH   1   3
ATOM      3  C   UNL     1     -10.965   9.906  -3.660  1.00  0.00     0.126 C 
ATOM      4  C   UNL     1     -11.704  11.169  -3.229  1.00  0.00     0.025 C 
BRANCH   3   5
ATOM      5  C   UNL     1      -9.554   9.843  -3.085  1.00  0.00    -0.031 A 
ATOM      6  C   UNL     1      -7.012   9.781  -1.779  1.00  0.00     0.018 A 
ATOM      7  C   UNL     1      -7.335  10.788  -2.704  1.00  0.00     0.012 A 
ATOM      8  C   UNL     1      -7.973   8.786  -1.561  1.00  0.00     0.131 A 
ATOM      9  C   UNL     1      -8.584  10.821  -3.345  1.00  0.00     0.005 A 
ATOM     10  C   UNL     1      -9.217   8.810  -2.196  1.00  0.00     0.044 A 
ATOM     11  F   UNL     1      -7.736   7.792  -0.689  1.00  0.00    -0.206 F 
BRANCH   6  12
ATOM     12  C   UNL     1      -5.739   9.804  -1.036  1.00  0.00    -0.012 A 
ATOM     13  C   UNL     1      -3.700   8.728  -0.266  1.00  0.00     0.133 A 
ATOM     14  C   UNL     1      -3.337   9.862   0.456  1.00  0.00     0.047 A 
ATOM     15  C   UNL     1      -4.893   8.683  -0.993  1.00  0.00     0.056 A 
ATOM     16  C   UNL     1      -4.163  10.980   0.425  1.00  0.00     0.004 A 
ATOM     17  C   UNL     1      -5.350  10.951  -0.316  1.00  0.00     0.009 A 
BRANCH  13  18
ATOM     18  O   UNL     1      -2.871   7.602  -0.137  1.00  0.00    -0.410 OA
BRANCH  18  19
ATOM     19  C   UNL     1      -2.397   7.016  -1.297  1.00  0.00     0.412 C 
ATOM     20  N   UNL     1      -1.581   5.945  -1.072  1.00  0.00    -0.321 N 
ATOM     21  H   UNL     1      -1.212   5.500  -1.868  1.00  0.00     0.167 HD
ATOM     22  O   UNL     1      -2.648   7.378  -2.449  1.00  0.00    -0.224 OA
BRANCH  20  23
ATOM     23  C   UNL     1      -1.200   5.392   0.213  1.00  0.00     0.119 C 
BRANCH  23  24
ATOM     24  C   UNL     1      -1.668   3.944   0.371  1.00  0.00     0.021 C 
BRANCH  24  25
ATOM     25  C   UNL     1      -1.071   2.961  -0.644  1.00  0.00     0.002 C 
BRANCH  25  26
ATOM     26  C   UNL     1       0.456   2.841  -0.623  1.00  0.00     0.000 C 
BRANCH  26  27
ATOM     27  C   UNL     1       1.053   2.330   0.693  1.00  0.00    -0.000 C 
BRANCH  27  28
ATOM     28  C   UNL     1       0.600   0.931   1.119  1.00  0.00    -0.003 C 
ATOM     29  C   UNL     1       0.974  -0.155   0.120  1.00  0.00     0.004 C 
ENDBRANCH  27  28
ENDBRANCH  26  27
ENDBRANCH  25  26
ENDBRANCH  24  25
ENDBRANCH  23  24
ENDBRANCH  20  23
ENDBRANCH  18  19
ENDBRANCH  13  18
ENDBRANCH   6  12
ENDBRANCH   3   5
ENDBRANCH   1   3
BRANCH   1  30
ATOM     30  O   UNL     1     -10.094  10.180  -5.893  1.00  0.00    -0.463 OA
BRANCH  30  31
ATOM     31  C   UNL     1     -10.150   9.920  -7.306  1.00  0.00     0.261 C 
BRANCH  31  32
ATOM     32  C   UNL     1      -9.046   8.953  -7.741  1.00  0.00     0.202 C 
BRANCH  32  33
ATOM     33  O   UNL     1      -9.127   7.621  -7.233  1.00  0.00    -0.374 OA
BRANCH  33  34
ATOM     34  C   UNL     1      -8.725   7.407  -5.880  1.00  0.00     0.202 C 
BRANCH  34  35
ATOM     35  C   UNL     1      -7.220   7.410  -5.583  1.00  0.00     0.261 C 
BRANCH  35  36
ATOM     36  O   UNL     1      -6.619   8.700  -5.780  1.00  0.00    -0.460 OA
BRANCH  36  37
ATOM     37  C   UNL     1      -5.797   8.783  -6.855  1.00  0.00     0.338 C 
ATOM     38  O   UNL     1      -5.502   7.885  -7.626  1.00  0.00    -0.246 OA
BRANCH  37  39
ATOM     39  C   UNL     1      -5.442  10.192  -7.112  1.00  0.00     0.060 A 
ATOM     40  C   UNL     1      -5.636  10.676  -8.413  1.00  0.00     0.016 A 
ATOM     41  C   UNL     1      -4.857  10.998  -6.134  1.00  0.00     0.016 A 
ATOM     42  C   UNL     1      -5.185  11.947  -8.761  1.00  0.00     0.010 A 
ATOM     43  C   UNL     1      -4.401  12.273  -6.487  1.00  0.00     0.010 A 
ATOM     44  C   UNL     1      -4.523  12.735  -7.812  1.00  0.00    -0.014 A 
BRANCH  44  45
ATOM     45  C   UNL     1      -3.810  13.961  -8.248  1.00  0.00     0.031 A 
ATOM     46  C   UNL     1      -2.315  13.908  -8.420  1.00  0.00     0.074 A 
ATOM     47  C   UNL     1      -4.479  15.101  -8.494  1.00  0.00     0.049 A 
ATOM     48  N   UNL     1      -1.484  14.864  -8.743  1.00  0.00    -0.248 NA
ATOM     49  C   UNL     1      -1.671  12.603  -8.194  1.00  0.00     0.031 C 
ATOM     50  C   UNL     1      -5.926  15.273  -8.380  1.00  0.00     0.029 A 
ATOM     51  N   UNL     1      -4.020  16.340  -8.867  1.00  0.00    -0.354 N 
ATOM     52  C   UNL     1      -0.219  14.289  -8.723  1.00  0.00     0.074 A 
ATOM     53  C   UNL     1      -0.390  12.902  -8.349  1.00  0.00     0.031 C 
ATOM     54  C   UNL     1      -6.234  16.555  -8.645  1.00  0.00     0.029 A 
ATOM     55  C   UNL     1      -5.005  17.297  -8.919  1.00  0.00     0.049 A 
ATOM     56  H   UNL     1      -3.076  16.525  -9.077  1.00  0.00     0.167 HD
ATOM     57  C   UNL     1       0.976  14.859  -9.004  1.00  0.00     0.034 A 
ATOM     58  C   UNL     1      -4.920  18.625  -9.138  1.00  0.00     0.034 A 
ATOM     59  C   UNL     1       1.142  16.230  -9.402  1.00  0.00     0.049 A 
ATOM     60  C   UNL     1      -3.575  19.241  -9.426  1.00  0.00     0.074 A 
ATOM     61  C   UNL     1       2.306  16.889  -9.754  1.00  0.00     0.029 A 
ATOM     62  N   UNL     1       0.115  17.157  -9.490  1.00  0.00    -0.354 N 
ATOM     63  N   UNL     1      -2.402  18.661  -9.511  1.00  0.00    -0.248 NA
ATOM     64  C   UNL     1      -3.545  20.689  -9.681  1.00  0.00     0.031 C 
ATOM     65  C   UNL     1       1.988  18.223 -10.028  1.00  0.00     0.029 A 
ATOM     66  C   UNL     1       0.620  18.386  -9.879  1.00  0.00     0.049 A 
ATOM     67  H   UNL     1      -0.833  16.970  -9.303  1.00  0.00     0.167 HD
ATOM     68  C   UNL     1      -1.505  19.662  -9.870  1.00  0.00     0.074 A 
ATOM     69  C   UNL     1      -2.272  20.883 -10.000  1.00  0.00     0.031 C 
ATOM     70  C   UNL     1      -0.165  19.580 -10.065  1.00  0.00     0.034 A 
BRANCH  57  71
ATOM     71  C   UNL     1       2.205  13.992  -8.911  1.00  0.00     0.023 A 
ATOM     72  C   UNL     1       2.442  13.007  -9.890  1.00  0.00     0.012 A 
ATOM     73  C   UNL     1       3.150  14.191  -7.886  1.00  0.00     0.148 A 
ATOM     74  C   UNL     1       3.586  12.211  -9.834  1.00  0.00     0.002 A 
ATOM     75  C   UNL     1       4.310  13.424  -7.861  1.00  0.00     0.091 A 
ATOM     76  F   UNL     1       2.895  15.117  -6.951  1.00  0.00    -0.205 F 
ATOM     77  C   UNL     1       4.524  12.427  -8.827  1.00  0.00     0.022 A 
BRANCH  75  78
ATOM     78  S   UNL     1       5.614  13.681  -6.653  1.00  0.00     0.127 S 
ATOM     79  O   UNL     1       5.487  12.485  -5.822  1.00  0.00    -0.237 OA
ATOM     80  O   UNL     1       6.811  13.714  -7.494  1.00  0.00    -0.237 OA
ATOM     81  O   UNL     1       5.305  14.939  -5.988  1.00  0.00    -0.744 OA
ENDBRANCH  75  78
ENDBRANCH  57  71
BRANCH  58  82
ATOM     82  C   UNL     1      -6.153  19.463  -9.120  1.00  0.00     0.023 A 
ATOM     83  C   UNL     1      -6.622  20.038 -10.316  1.00  0.00     0.012 A 
ATOM     84  C   UNL     1      -6.869  19.680  -7.926  1.00  0.00     0.148 A 
ATOM     85  C   UNL     1      -7.764  20.840 -10.319  1.00  0.00     0.002 A 
ATOM     86  C   UNL     1      -8.036  20.434  -7.946  1.00  0.00     0.091 A 
ATOM     87  F   UNL     1      -6.396  19.139  -6.794  1.00  0.00    -0.205 F 
ATOM     88  C   UNL     1      -8.476  21.029  -9.138  1.00  0.00     0.022 A 
BRANCH  86  89
ATOM     89  S   UNL     1      -9.085  20.622  -6.500  1.00  0.00     0.127 S 
ATOM     90  O   UNL     1      -8.887  22.031  -6.168  1.00  0.00    -0.237 OA
ATOM     91  O   UNL     1     -10.405  20.296  -7.041  1.00  0.00    -0.237 OA
ATOM     92  O   UNL     1      -8.585  19.665  -5.523  1.00  0.00    -0.744 OA
ENDBRANCH  86  89
ENDBRANCH  58  82
BRANCH  70  93
ATOM     93  C   UNL     1       0.564  20.828 -10.492  1.00  0.00     0.023 A 
ATOM     94  C   UNL     1       0.781  21.868  -9.567  1.00  0.00     0.012 A 
ATOM     95  C   UNL     1       1.111  20.928 -11.787  1.00  0.00     0.148 A 
ATOM     96  C   UNL     1       1.507  23.002  -9.934  1.00  0.00     0.002 A 
ATOM     97  C   UNL     1       1.875  22.038 -12.130  1.00  0.00     0.091 A 
ATOM     98  F   UNL     1       0.879  19.935 -12.658  1.00  0.00    -0.205 F 
ATOM     99  C   UNL     1       2.063  23.081 -11.209  1.00  0.00     0.022 A 
BRANCH  97 100
ATOM    100  S   UNL     1       2.712  22.179 -13.713  1.00  0.00     0.127 S 
ATOM    101  O   UNL     1       1.917  23.209 -14.380  1.00  0.00    -0.237 OA
ATOM    102  O   UNL     1       4.055  22.606 -13.317  1.00  0.00    -0.237 OA
ATOM    103  O   UNL     1       2.654  20.855 -14.318  1.00  0.00    -0.744 OA
ENDBRANCH  97 100
ENDBRANCH  70  93
ENDBRANCH  44  45
ENDBRANCH  37  39
ENDBRANCH  36  37
ENDBRANCH  35  36
ENDBRANCH  34  35
ENDBRANCH  33  34
ENDBRANCH  32  33
ENDBRANCH  31  32
ENDBRANCH  30  31
ENDBRANCH   1  30
TORSDOF 27
