REMARK SMILES O=C(OCCOCCOC(=O)c1ccc(N[C@@H]2CCCS(=O)(=O)C2)c(F)c1F)c1ccc(-c2c3nc(c(-c4cccc(S(=O)(=O)[O-])c4F)c4ccc([nH]4)c(-c4cccc(S(=O)(=O)[O-])c4F)c4nc(c(-c5cccc(S(=O)(=O)[O-])c5F)c5ccc2[nH]5)C=C4)C=C3)cc1
REMARK SMILES IDX 5 1 4 2 3 3 2 4 1 5 29 6 30 7 91 8 31 9 90 10 32 11 33 12
REMARK SMILES IDX 34 13 84 14 35 15 89 16 83 17 85 18 36 19 88 20 82 21 81 22
REMARK SMILES IDX 37 24 69 25 49 26 68 27 50 28 53 29 67 30 86 31 51 32 52 33
REMARK SMILES IDX 66 35 87 36 54 37 38 38 39 39 47 40 40 41 42 42 48 43 41 44
REMARK SMILES IDX 43 45 44 46 45 47 46 48 70 49 71 50 79 51 72 52 74 53 80 54
REMARK SMILES IDX 73 55 75 56 76 57 77 58 78 59 55 60 56 61 64 62 57 63 59 64
REMARK SMILES IDX 65 65 58 66 60 67 61 68 62 69 63 70 6 71 7 72 8 73 9 74
REMARK SMILES IDX 10 75 11 76 12 77 13 78 27 79 14 80 25 81 28 82 15 83 26 84
REMARK SMILES IDX 16 85 17 87 18 88 24 89 19 90 21 91 20 92 22 93 23 94
REMARK H PARENT 85 23 53 34 16 86
REMARK Flexibility Score: inf
ROOT
ATOM      1  C   UNL     1       4.368   0.491  -1.614  1.00  0.00     0.202 C 
ENDROOT
BRANCH   1   2
ATOM      2  C   UNL     1       4.014  -0.896  -1.073  1.00  0.00     0.261 C 
BRANCH   2   3
ATOM      3  O   UNL     1       2.630  -0.936  -0.689  1.00  0.00    -0.460 OA
BRANCH   3   4
ATOM      4  C   UNL     1       2.113  -1.017   0.560  1.00  0.00     0.338 C 
ATOM      5  O   UNL     1       0.902  -1.193   0.682  1.00  0.00    -0.246 OA
BRANCH   4   6
ATOM      6  C   UNL     1       2.938  -0.887   1.799  1.00  0.00     0.060 A 
ATOM      7  C   UNL     1       4.130  -0.164   1.884  1.00  0.00     0.016 A 
ATOM      8  C   UNL     1       2.425  -1.449   2.978  1.00  0.00     0.016 A 
ATOM      9  C   UNL     1       4.836  -0.059   3.070  1.00  0.00     0.010 A 
ATOM     10  C   UNL     1       3.103  -1.306   4.193  1.00  0.00     0.010 A 
ATOM     11  C   UNL     1       4.322  -0.621   4.233  1.00  0.00    -0.014 A 
BRANCH  11  12
ATOM     12  C   UNL     1       5.134  -0.522   5.455  1.00  0.00     0.031 A 
ATOM     13  C   UNL     1       5.879  -1.732   5.918  1.00  0.00     0.074 A 
ATOM     14  C   UNL     1       5.278   0.675   6.051  1.00  0.00     0.049 A 
ATOM     15  N   UNL     1       6.644  -1.878   6.963  1.00  0.00    -0.248 NA
ATOM     16  C   UNL     1       5.760  -2.940   5.082  1.00  0.00     0.031 C 
ATOM     17  C   UNL     1       4.655   1.922   5.596  1.00  0.00     0.029 A 
ATOM     18  N   UNL     1       6.002   1.048   7.151  1.00  0.00    -0.354 N 
ATOM     19  C   UNL     1       7.056  -3.203   6.941  1.00  0.00     0.074 A 
ATOM     20  C   UNL     1       6.475  -3.817   5.769  1.00  0.00     0.031 C 
ATOM     21  C   UNL     1       5.031   2.923   6.407  1.00  0.00     0.029 A 
ATOM     22  C   UNL     1       5.867   2.379   7.470  1.00  0.00     0.049 A 
ATOM     23  H   UNL     1       6.565   0.424   7.664  1.00  0.00     0.167 HD
ATOM     24  C   UNL     1       7.848  -3.844   7.830  1.00  0.00     0.034 A 
ATOM     25  C   UNL     1       6.342   3.064   8.526  1.00  0.00     0.034 A 
ATOM     26  C   UNL     1       8.418  -3.200   8.980  1.00  0.00     0.049 A 
ATOM     27  C   UNL     1       7.183   2.314   9.524  1.00  0.00     0.074 A 
ATOM     28  C   UNL     1       9.200  -3.746   9.978  1.00  0.00     0.029 A 
ATOM     29  N   UNL     1       8.257  -1.853   9.281  1.00  0.00    -0.354 N 
ATOM     30  N   UNL     1       7.580   1.063   9.489  1.00  0.00    -0.248 NA
ATOM     31  C   UNL     1       7.650   3.063  10.696  1.00  0.00     0.031 C 
ATOM     32  C   UNL     1       9.493  -2.732  10.898  1.00  0.00     0.029 A 
ATOM     33  C   UNL     1       8.918  -1.549  10.456  1.00  0.00     0.049 A 
ATOM     34  H   UNL     1       7.747  -1.210   8.738  1.00  0.00     0.167 HD
ATOM     35  C   UNL     1       8.360   0.878  10.623  1.00  0.00     0.074 A 
ATOM     36  C   UNL     1       8.401   2.156  11.308  1.00  0.00     0.031 C 
ATOM     37  C   UNL     1       8.970  -0.247  11.074  1.00  0.00     0.034 A 
BRANCH  24  38
ATOM     38  C   UNL     1       8.093  -5.309   7.599  1.00  0.00     0.023 A 
ATOM     39  C   UNL     1       8.960  -5.727   6.569  1.00  0.00     0.012 A 
ATOM     40  C   UNL     1       7.440  -6.275   8.389  1.00  0.00     0.148 A 
ATOM     41  C   UNL     1       9.145  -7.085   6.306  1.00  0.00     0.002 A 
ATOM     42  C   UNL     1       7.658  -7.626   8.145  1.00  0.00     0.091 A 
ATOM     43  F   UNL     1       6.596  -5.856   9.342  1.00  0.00    -0.205 F 
ATOM     44  C   UNL     1       8.499  -8.033   7.096  1.00  0.00     0.022 A 
BRANCH  42  45
ATOM     45  S   UNL     1       6.910  -8.922   9.138  1.00  0.00     0.127 S 
ATOM     46  O   UNL     1       5.962  -9.508   8.192  1.00  0.00    -0.237 OA
ATOM     47  O   UNL     1       8.061  -9.769   9.451  1.00  0.00    -0.237 OA
ATOM     48  O   UNL     1       6.314  -8.256  10.287  1.00  0.00    -0.744 OA
ENDBRANCH  42  45
ENDBRANCH  24  38
BRANCH  25  49
ATOM     49  C   UNL     1       6.033   4.515   8.687  1.00  0.00     0.023 A 
ATOM     50  C   UNL     1       7.069   5.465   8.610  1.00  0.00     0.012 A 
ATOM     51  C   UNL     1       4.711   4.962   8.887  1.00  0.00     0.148 A 
ATOM     52  C   UNL     1       6.798   6.828   8.754  1.00  0.00     0.002 A 
ATOM     53  C   UNL     1       4.440   6.324   8.971  1.00  0.00     0.091 A 
ATOM     54  F   UNL     1       3.737   4.046   8.983  1.00  0.00    -0.205 F 
ATOM     55  C   UNL     1       5.484   7.258   8.922  1.00  0.00     0.022 A 
BRANCH  53  56
ATOM     56  S   UNL     1       2.763   6.963   9.054  1.00  0.00     0.127 S 
ATOM     57  O   UNL     1       2.668   7.375  10.452  1.00  0.00    -0.237 OA
ATOM     58  O   UNL     1       2.807   8.064   8.090  1.00  0.00    -0.237 OA
ATOM     59  O   UNL     1       1.903   5.856   8.656  1.00  0.00    -0.744 OA
ENDBRANCH  53  56
ENDBRANCH  25  49
BRANCH  37  60
ATOM     60  C   UNL     1       9.752  -0.135  12.353  1.00  0.00     0.023 A 
ATOM     61  C   UNL     1       9.069  -0.053  13.582  1.00  0.00     0.012 A 
ATOM     62  C   UNL     1      11.157  -0.209  12.337  1.00  0.00     0.148 A 
ATOM     63  C   UNL     1       9.780  -0.021  14.780  1.00  0.00     0.002 A 
ATOM     64  C   UNL     1      11.855  -0.228  13.537  1.00  0.00     0.091 A 
ATOM     65  F   UNL     1      11.782  -0.264  11.152  1.00  0.00    -0.205 F 
ATOM     66  C   UNL     1      11.169  -0.124  14.758  1.00  0.00     0.022 A 
BRANCH  64  67
ATOM     67  S   UNL     1      13.633  -0.466  13.603  1.00  0.00     0.127 S 
ATOM     68  O   UNL     1      14.101   0.879  13.934  1.00  0.00    -0.237 OA
ATOM     69  O   UNL     1      13.776  -1.445  14.681  1.00  0.00    -0.237 OA
ATOM     70  O   UNL     1      14.019  -0.958  12.287  1.00  0.00    -0.744 OA
ENDBRANCH  64  67
ENDBRANCH  37  60
ENDBRANCH  11  12
ENDBRANCH   4   6
ENDBRANCH   3   4
ENDBRANCH   2   3
ENDBRANCH   1   2
BRANCH   1  71
ATOM     71  O   UNL     1       4.203   1.559  -0.685  1.00  0.00    -0.374 OA
BRANCH  71  72
ATOM     72  C   UNL     1       2.885   2.102  -0.551  1.00  0.00     0.202 C 
BRANCH  72  73
ATOM     73  C   UNL     1       3.001   3.617  -0.345  1.00  0.00     0.261 C 
BRANCH  73  74
ATOM     74  O   UNL     1       3.567   4.173  -1.542  1.00  0.00    -0.460 OA
BRANCH  74  75
ATOM     75  C   UNL     1       4.923   4.092  -1.624  1.00  0.00     0.341 C 
ATOM     76  O   UNL     1       5.722   4.161  -0.710  1.00  0.00    -0.246 OA
BRANCH  75  77
ATOM     77  C   UNL     1       5.241   3.742  -3.021  1.00  0.00     0.099 A 
ATOM     78  C   UNL     1       4.392   4.153  -4.049  1.00  0.00     0.021 A 
ATOM     79  C   UNL     1       6.324   2.920  -3.318  1.00  0.00     0.175 A 
ATOM     80  C   UNL     1       4.635   3.750  -5.357  1.00  0.00     0.030 A 
ATOM     81  C   UNL     1       6.558   2.526  -4.636  1.00  0.00     0.182 A 
ATOM     82  F   UNL     1       7.132   2.455  -2.354  1.00  0.00    -0.203 F 
ATOM     83  C   UNL     1       5.737   2.954  -5.694  1.00  0.00     0.074 A 
ATOM     84  F   UNL     1       7.605   1.728  -4.909  1.00  0.00    -0.201 F 
BRANCH  83  85
ATOM     85  N   UNL     1       6.067   2.639  -7.010  1.00  0.00    -0.379 N 
ATOM     86  H   UNL     1       6.641   1.853  -7.159  1.00  0.00     0.160 HD
BRANCH  85  87
ATOM     87  C   UNL     1       5.624   3.393  -8.196  1.00  0.00     0.094 C 
ATOM     88  C   UNL     1       6.024   4.880  -8.019  1.00  0.00     0.027 C 
ATOM     89  C   UNL     1       4.186   3.001  -8.542  1.00  0.00     0.161 C 
ATOM     90  C   UNL     1       5.293   5.904  -8.871  1.00  0.00     0.018 C 
ATOM     91  S   UNL     1       3.320   4.187  -9.520  1.00  0.00     0.152 S 
ATOM     92  C   UNL     1       3.793   5.733  -8.787  1.00  0.00     0.137 C 
ATOM     93  O   UNL     1       1.900   4.008  -9.281  1.00  0.00    -0.229 OA
ATOM     94  O   UNL     1       3.856   4.142 -10.866  1.00  0.00    -0.229 OA
ENDBRANCH  85  87
ENDBRANCH  83  85
ENDBRANCH  75  77
ENDBRANCH  74  75
ENDBRANCH  73  74
ENDBRANCH  72  73
ENDBRANCH  71  72
ENDBRANCH   1  71
TORSDOF 19
