REMARK SMILES CCc1ccc(C(=O)[C@@H](Br)CC(=O)OCCOCCOC(=O)c2ccc(-c3c4nc(c(-c5cccc(S(=O)(=O)[O-])c5F)c5ccc([nH]5)c(-c5cccc(S(=O)(=O)[O-])c5F)c5nc(c(-c6cccc(S(=O)(=O)[O-])c6F)c6ccc3[nH]6)C=C5)C=C4)cc2)cc1
REMARK SMILES IDX 16 1 15 2 14 3 12 4 13 5 11 6 9 7 10 8 7 9 8 10 6 11 3 12
REMARK SMILES IDX 4 13 87 14 5 15 86 16 2 17 1 18 17 19 18 20 19 21 20 22
REMARK SMILES IDX 21 23 22 24 23 25 24 26 85 27 25 28 84 29 26 30 27 31 28 32
REMARK SMILES IDX 78 33 29 34 83 35 77 36 79 37 30 38 82 39 76 40 75 41 31 43
REMARK SMILES IDX 63 44 43 45 62 46 44 47 47 48 61 49 80 50 45 51 46 52 60 54
REMARK SMILES IDX 81 55 48 56 32 57 33 58 41 59 34 60 36 61 42 62 35 63 37 64
REMARK SMILES IDX 38 65 39 66 40 67 64 68 65 69 73 70 66 71 68 72 74 73 67 74
REMARK SMILES IDX 69 75 70 76 71 77 72 78 49 79 50 80 58 81 51 82 53 83 59 84
REMARK SMILES IDX 52 85 54 86 55 87 56 88 57 89
REMARK H PARENT 79 42 47 53
REMARK Flexibility Score: inf
ROOT
ATOM      1  C   UNL     1       4.725  -7.791  -0.403  1.00  0.00     0.202 C 
ENDROOT
BRANCH   1   2
ATOM      2  C   UNL     1       4.888  -6.269  -0.347  1.00  0.00     0.261 C 
BRANCH   2   3
ATOM      3  O   UNL     1       4.439  -5.643  -1.565  1.00  0.00    -0.463 OA
BRANCH   3   4
ATOM      4  C   UNL     1       5.379  -4.963  -2.260  1.00  0.00     0.307 C 
ATOM      5  O   UNL     1       6.531  -4.769  -1.889  1.00  0.00    -0.252 OA
BRANCH   4   6
ATOM      6  C   UNL     1       4.880  -4.423  -3.576  1.00  0.00     0.146 C 
BRANCH   6   7
ATOM      7  C   UNL     1       3.646  -5.079  -4.167  1.00  0.00     0.140 C 
ATOM      8  Br  UNL     1       3.391  -4.466  -6.021  1.00  0.00    -0.080 Br
BRANCH   7   9
ATOM      9  C   UNL     1       2.292  -4.956  -3.483  1.00  0.00     0.177 C 
ATOM     10  O   UNL     1       1.563  -5.951  -3.412  1.00  0.00    -0.293 OA
BRANCH   9  11
ATOM     11  C   UNL     1       1.791  -3.670  -2.908  1.00  0.00     0.019 A 
ATOM     12  C   UNL     1       0.773  -1.325  -1.721  1.00  0.00    -0.048 A 
ATOM     13  C   UNL     1       0.219  -2.572  -1.413  1.00  0.00     0.004 A 
ATOM     14  C   UNL     1       1.824  -1.258  -2.640  1.00  0.00     0.004 A 
ATOM     15  C   UNL     1       0.724  -3.734  -2.001  1.00  0.00     0.012 A 
ATOM     16  C   UNL     1       2.313  -2.418  -3.246  1.00  0.00     0.012 A 
BRANCH  12  17
ATOM     17  C   UNL     1       0.260  -0.075  -1.051  1.00  0.00     0.032 C 
ATOM     18  C   UNL     1       0.875   0.118   0.326  1.00  0.00     0.009 C 
ENDBRANCH  12  17
ENDBRANCH   9  11
ENDBRANCH   7   9
ENDBRANCH   6   7
ENDBRANCH   4   6
ENDBRANCH   3   4
ENDBRANCH   2   3
ENDBRANCH   1   2
BRANCH   1  19
ATOM     19  O   UNL     1       5.520  -8.478  -1.371  1.00  0.00    -0.374 OA
BRANCH  19  20
ATOM     20  C   UNL     1       5.088  -8.417  -2.729  1.00  0.00     0.202 C 
BRANCH  20  21
ATOM     21  C   UNL     1       3.892  -9.294  -3.124  1.00  0.00     0.261 C 
BRANCH  21  22
ATOM     22  O   UNL     1       2.691  -8.936  -2.422  1.00  0.00    -0.460 OA
BRANCH  22  23
ATOM     23  C   UNL     1       2.256  -9.858  -1.533  1.00  0.00     0.338 C 
ATOM     24  O   UNL     1       2.732 -10.971  -1.340  1.00  0.00    -0.246 OA
BRANCH  23  25
ATOM     25  C   UNL     1       1.217  -9.289  -0.653  1.00  0.00     0.060 A 
ATOM     26  C   UNL     1       1.397  -9.446   0.728  1.00  0.00     0.016 A 
ATOM     27  C   UNL     1       0.058  -8.691  -1.151  1.00  0.00     0.016 A 
ATOM     28  C   UNL     1       0.391  -9.068   1.613  1.00  0.00     0.010 A 
ATOM     29  C   UNL     1      -0.958  -8.321  -0.259  1.00  0.00     0.010 A 
ATOM     30  C   UNL     1      -0.813  -8.547   1.123  1.00  0.00    -0.014 A 
BRANCH  30  31
ATOM     31  C   UNL     1      -1.958  -8.374   2.052  1.00  0.00     0.031 A 
ATOM     32  C   UNL     1      -3.038  -9.422   2.091  1.00  0.00     0.074 A 
ATOM     33  C   UNL     1      -2.027  -7.307   2.868  1.00  0.00     0.049 A 
ATOM     34  N   UNL     1      -4.107  -9.480   2.842  1.00  0.00    -0.248 NA
ATOM     35  C   UNL     1      -2.895 -10.556   1.162  1.00  0.00     0.031 C 
ATOM     36  C   UNL     1      -1.050  -6.221   2.921  1.00  0.00     0.029 A 
ATOM     37  N   UNL     1      -2.977  -6.952   3.794  1.00  0.00    -0.354 N 
ATOM     38  C   UNL     1      -4.781 -10.633   2.456  1.00  0.00     0.074 A 
ATOM     39  C   UNL     1      -4.002 -11.245   1.402  1.00  0.00     0.031 C 
ATOM     40  C   UNL     1      -1.470  -5.301   3.807  1.00  0.00     0.029 A 
ATOM     41  C   UNL     1      -2.750  -5.726   4.372  1.00  0.00     0.049 A 
ATOM     42  H   UNL     1      -3.747  -7.522   4.022  1.00  0.00     0.167 HD
ATOM     43  C   UNL     1      -5.936 -11.143   2.944  1.00  0.00     0.034 A 
ATOM     44  C   UNL     1      -3.500  -5.018   5.241  1.00  0.00     0.034 A 
ATOM     45  C   UNL     1      -6.693 -10.555   4.015  1.00  0.00     0.049 A 
ATOM     46  C   UNL     1      -4.780  -5.613   5.771  1.00  0.00     0.074 A 
ATOM     47  C   UNL     1      -7.832 -11.044   4.631  1.00  0.00     0.029 A 
ATOM     48  N   UNL     1      -6.402  -9.342   4.618  1.00  0.00    -0.354 N 
ATOM     49  N   UNL     1      -5.317  -6.780   5.512  1.00  0.00    -0.248 NA
ATOM     50  C   UNL     1      -5.538  -4.809   6.742  1.00  0.00     0.031 C 
ATOM     51  C   UNL     1      -8.247 -10.111   5.587  1.00  0.00     0.029 A 
ATOM     52  C   UNL     1      -7.351  -9.055   5.584  1.00  0.00     0.049 A 
ATOM     53  H   UNL     1      -5.634  -8.769   4.392  1.00  0.00     0.167 HD
ATOM     54  C   UNL     1      -6.453  -6.865   6.311  1.00  0.00     0.074 A 
ATOM     55  C   UNL     1      -6.515  -5.640   7.080  1.00  0.00     0.031 C 
ATOM     56  C   UNL     1      -7.372  -7.860   6.388  1.00  0.00     0.034 A 
BRANCH  43  57
ATOM     57  C   UNL     1      -6.449 -12.424   2.344  1.00  0.00     0.023 A 
ATOM     58  C   UNL     1      -5.824 -13.646   2.664  1.00  0.00     0.012 A 
ATOM     59  C   UNL     1      -7.600 -12.426   1.532  1.00  0.00     0.148 A 
ATOM     60  C   UNL     1      -6.324 -14.849   2.167  1.00  0.00     0.002 A 
ATOM     61  C   UNL     1      -8.117 -13.632   1.073  1.00  0.00     0.091 A 
ATOM     62  F   UNL     1      -8.166 -11.250   1.222  1.00  0.00    -0.205 F 
ATOM     63  C   UNL     1      -7.475 -14.843   1.383  1.00  0.00     0.022 A 
BRANCH  61  64
ATOM     64  S   UNL     1      -9.637 -13.735   0.123  1.00  0.00     0.127 S 
ATOM     65  O   UNL     1      -9.135 -14.110  -1.198  1.00  0.00    -0.237 OA
ATOM     66  O   UNL     1     -10.366 -14.795   0.821  1.00  0.00    -0.237 OA
ATOM     67  O   UNL     1     -10.254 -12.419   0.206  1.00  0.00    -0.744 OA
ENDBRANCH  61  64
ENDBRANCH  43  57
BRANCH  44  68
ATOM     68  C   UNL     1      -3.044  -3.670   5.688  1.00  0.00     0.023 A 
ATOM     69  C   UNL     1      -2.644  -3.473   7.023  1.00  0.00     0.012 A 
ATOM     70  C   UNL     1      -2.996  -2.586   4.790  1.00  0.00     0.148 A 
ATOM     71  C   UNL     1      -2.238  -2.212   7.464  1.00  0.00     0.002 A 
ATOM     72  C   UNL     1      -2.532  -1.348   5.220  1.00  0.00     0.091 A 
ATOM     73  F   UNL     1      -3.403  -2.785   3.528  1.00  0.00    -0.205 F 
ATOM     74  C   UNL     1      -2.171  -1.154   6.561  1.00  0.00     0.022 A 
BRANCH  72  75
ATOM     75  S   UNL     1      -2.282   0.021   4.083  1.00  0.00     0.127 S 
ATOM     76  O   UNL     1      -3.435   0.868   4.374  1.00  0.00    -0.237 OA
ATOM     77  O   UNL     1      -0.995   0.558   4.527  1.00  0.00    -0.237 OA
ATOM     78  O   UNL     1      -2.247  -0.578   2.755  1.00  0.00    -0.744 OA
ENDBRANCH  72  75
ENDBRANCH  44  68
BRANCH  56  79
ATOM     79  C   UNL     1      -8.513  -7.693   7.358  1.00  0.00     0.023 A 
ATOM     80  C   UNL     1      -9.546  -6.777   7.073  1.00  0.00     0.012 A 
ATOM     81  C   UNL     1      -8.605  -8.502   8.508  1.00  0.00     0.148 A 
ATOM     82  C   UNL     1     -10.636  -6.648   7.933  1.00  0.00     0.002 A 
ATOM     83  C   UNL     1      -9.718  -8.401   9.336  1.00  0.00     0.091 A 
ATOM     84  F   UNL     1      -7.605  -9.355   8.773  1.00  0.00    -0.205 F 
ATOM     85  C   UNL     1     -10.729  -7.467   9.056  1.00  0.00     0.022 A 
BRANCH  83  86
ATOM     86  S   UNL     1      -9.967  -9.483  10.749  1.00  0.00     0.127 S 
ATOM     87  O   UNL     1      -9.679  -8.585  11.866  1.00  0.00    -0.237 OA
ATOM     88  O   UNL     1     -11.376  -9.855  10.614  1.00  0.00    -0.237 OA
ATOM     89  O   UNL     1      -9.033 -10.587  10.575  1.00  0.00    -0.744 OA
ENDBRANCH  83  86
ENDBRANCH  56  79
ENDBRANCH  30  31
ENDBRANCH  23  25
ENDBRANCH  22  23
ENDBRANCH  21  22
ENDBRANCH  20  21
ENDBRANCH  19  20
ENDBRANCH   1  19
TORSDOF 21
