REMARK SMILES C[NH2+]C[C@H](C)C(=O)N1CCC[C@@H]1C(=O)OCCOCCOC(=O)c1ccc(-c2c3nc(c(-c4cccc(S(=O)(=O)[O-])c4F)c4ccc([nH]4)c(-c4cccc(S(=O)(=O)[O-])c4F)c4nc(c(-c5cccc(S(=O)(=O)[O-])c5F)c5ccc2[nH]5)C=C4)C=C3)cc1
REMARK SMILES IDX 17 1 16 2 15 3 13 4 14 5 12 6 8 7 9 8 10 9 11 10 6 11 7 12
REMARK SMILES IDX 4 13 5 14 3 15 2 16 1 17 18 20 19 21 20 22 21 23 22 24 23 25
REMARK SMILES IDX 24 26 25 27 86 28 26 29 85 30 27 31 28 32 29 33 79 34 30 35
REMARK SMILES IDX 84 36 78 37 80 38 31 39 83 40 77 41 76 42 32 44 64 45 44 46
REMARK SMILES IDX 63 47 45 48 48 49 62 50 81 51 46 52 47 53 61 55 82 56 49 57
REMARK SMILES IDX 33 58 34 59 42 60 35 61 37 62 43 63 36 64 38 65 39 66 40 67
REMARK SMILES IDX 41 68 65 69 66 70 74 71 67 72 69 73 75 74 68 75 70 76 71 77
REMARK SMILES IDX 72 78 73 79 50 80 51 81 59 82 52 83 54 84 60 85 53 86 55 87
REMARK SMILES IDX 56 88 57 89 58 90
REMARK H PARENT 2 18 2 19 80 43 48 54
REMARK Flexibility Score: inf
ROOT
ATOM      1  C   UNL     1      -5.505  -2.858  -5.846  1.00  0.00     0.202 C 
ENDROOT
BRANCH   1   2
ATOM      2  C   UNL     1      -4.366  -2.370  -4.942  1.00  0.00     0.261 C 
BRANCH   2   3
ATOM      3  O   UNL     1      -4.434  -2.816  -3.576  1.00  0.00    -0.462 OA
BRANCH   3   4
ATOM      4  C   UNL     1      -4.879  -1.876  -2.688  1.00  0.00     0.328 C 
ATOM      5  O   UNL     1      -5.241  -0.749  -3.006  1.00  0.00    -0.250 OA
BRANCH   4   6
ATOM      6  C   UNL     1      -4.770  -2.346  -1.225  1.00  0.00     0.195 C 
ATOM      7  N   UNL     1      -3.407  -2.170  -0.725  1.00  0.00    -0.328 N 
ATOM      8  C   UNL     1      -2.935  -3.369  -0.061  1.00  0.00     0.120 C 
ATOM      9  C   UNL     1      -3.765  -4.485  -0.662  1.00  0.00     0.024 C 
ATOM     10  C   UNL     1      -5.103  -3.822  -0.975  1.00  0.00     0.039 C 
BRANCH   7  11
ATOM     11  C   UNL     1      -2.882  -0.909  -0.572  1.00  0.00     0.231 C 
ATOM     12  O   UNL     1      -3.617   0.077  -0.482  1.00  0.00    -0.274 OA
BRANCH  11  13
ATOM     13  C   UNL     1      -1.367  -0.728  -0.611  1.00  0.00     0.130 C 
ATOM     14  C   UNL     1      -0.713  -1.028   0.734  1.00  0.00     0.024 C 
BRANCH  13  15
ATOM     15  C   UNL     1      -0.667  -1.459  -1.779  1.00  0.00     0.273 C 
BRANCH  15  16
ATOM     16  N   UNL     1      -1.333  -1.432  -3.087  1.00  0.00    -0.348 N 
ATOM     17  C   UNL     1      -1.511  -0.093  -3.625  1.00  0.00     0.330 C 
ATOM     18  H   UNL     1      -0.771  -1.972  -3.746  1.00  0.00     0.346 HD
ATOM     19  H   UNL     1      -2.265  -1.827  -2.956  1.00  0.00     0.346 HD
ENDBRANCH  15  16
ENDBRANCH  13  15
ENDBRANCH  11  13
ENDBRANCH   7  11
ENDBRANCH   4   6
ENDBRANCH   3   4
ENDBRANCH   2   3
ENDBRANCH   1   2
BRANCH   1  20
ATOM     20  O   UNL     1      -6.839  -2.754  -5.363  1.00  0.00    -0.374 OA
BRANCH  20  21
ATOM     21  C   UNL     1      -7.243  -3.640  -4.321  1.00  0.00     0.202 C 
BRANCH  21  22
ATOM     22  C   UNL     1      -7.184  -5.147  -4.597  1.00  0.00     0.261 C 
BRANCH  22  23
ATOM     23  O   UNL     1      -5.838  -5.637  -4.765  1.00  0.00    -0.460 OA
BRANCH  23  24
ATOM     24  C   UNL     1      -5.640  -6.344  -5.906  1.00  0.00     0.338 C 
ATOM     25  O   UNL     1      -6.480  -6.631  -6.748  1.00  0.00    -0.246 OA
BRANCH  24  26
ATOM     26  C   UNL     1      -4.210  -6.626  -6.118  1.00  0.00     0.060 A 
ATOM     27  C   UNL     1      -3.597  -6.086  -7.257  1.00  0.00     0.016 A 
ATOM     28  C   UNL     1      -3.531  -7.541  -5.312  1.00  0.00     0.016 A 
ATOM     29  C   UNL     1      -2.318  -6.503  -7.624  1.00  0.00     0.010 A 
ATOM     30  C   UNL     1      -2.249  -7.962  -5.688  1.00  0.00     0.010 A 
ATOM     31  C   UNL     1      -1.654  -7.477  -6.867  1.00  0.00    -0.014 A 
BRANCH  31  32
ATOM     32  C   UNL     1      -0.399  -8.084  -7.379  1.00  0.00     0.031 A 
ATOM     33  C   UNL     1      -0.452  -9.421  -8.070  1.00  0.00     0.074 A 
ATOM     34  C   UNL     1       0.781  -7.459  -7.216  1.00  0.00     0.049 A 
ATOM     35  N   UNL     1       0.525 -10.135  -8.564  1.00  0.00    -0.248 NA
ATOM     36  C   UNL     1      -1.782 -10.036  -8.220  1.00  0.00     0.031 C 
ATOM     37  C   UNL     1       0.967  -6.169  -6.555  1.00  0.00     0.029 A 
ATOM     38  N   UNL     1       2.050  -7.846  -7.568  1.00  0.00    -0.354 N 
ATOM     39  C   UNL     1      -0.062 -11.296  -9.055  1.00  0.00     0.074 A 
ATOM     40  C   UNL     1      -1.482 -11.192  -8.797  1.00  0.00     0.031 C 
ATOM     41  C   UNL     1       2.281  -5.889  -6.511  1.00  0.00     0.029 A 
ATOM     42  C   UNL     1       3.027  -6.985  -7.127  1.00  0.00     0.049 A 
ATOM     43  H   UNL     1       2.242  -8.660  -8.086  1.00  0.00     0.167 HD
ATOM     44  C   UNL     1       0.525 -12.345  -9.679  1.00  0.00     0.034 A 
ATOM     45  C   UNL     1       4.371  -7.081  -7.192  1.00  0.00     0.034 A 
ATOM     46  C   UNL     1       1.930 -12.433  -9.971  1.00  0.00     0.049 A 
ATOM     47  C   UNL     1       4.997  -8.259  -7.892  1.00  0.00     0.074 A 
ATOM     48  C   UNL     1       2.601 -13.420 -10.673  1.00  0.00     0.029 A 
ATOM     49  N   UNL     1       2.882 -11.512  -9.566  1.00  0.00    -0.354 N 
ATOM     50  N   UNL     1       4.414  -9.269  -8.491  1.00  0.00    -0.248 NA
ATOM     51  C   UNL     1       6.467  -8.293  -7.956  1.00  0.00     0.031 C 
ATOM     52  C   UNL     1       3.964 -13.104 -10.674  1.00  0.00     0.029 A 
ATOM     53  C   UNL     1       4.138 -11.915  -9.986  1.00  0.00     0.049 A 
ATOM     54  H   UNL     1       2.693 -10.692  -9.055  1.00  0.00     0.167 HD
ATOM     55  C   UNL     1       5.441 -10.042  -9.025  1.00  0.00     0.074 A 
ATOM     56  C   UNL     1       6.682  -9.370  -8.700  1.00  0.00     0.031 C 
ATOM     57  C   UNL     1       5.363 -11.212  -9.706  1.00  0.00     0.034 A 
BRANCH  44  58
ATOM     58  C   UNL     1      -0.358 -13.476 -10.131  1.00  0.00     0.023 A 
ATOM     59  C   UNL     1      -1.152 -13.319 -11.284  1.00  0.00     0.012 A 
ATOM     60  C   UNL     1      -0.342 -14.716  -9.463  1.00  0.00     0.148 A 
ATOM     61  C   UNL     1      -1.932 -14.373 -11.756  1.00  0.00     0.002 A 
ATOM     62  C   UNL     1      -1.096 -15.774  -9.960  1.00  0.00     0.091 A 
ATOM     63  F   UNL     1       0.401 -14.836  -8.354  1.00  0.00    -0.205 F 
ATOM     64  C   UNL     1      -1.896 -15.602 -11.101  1.00  0.00     0.022 A 
BRANCH  62  65
ATOM     65  S   UNL     1      -1.063 -17.413  -9.224  1.00  0.00     0.127 S 
ATOM     66  O   UNL     1      -2.370 -17.470  -8.572  1.00  0.00    -0.237 OA
ATOM     67  O   UNL     1      -0.929 -18.276 -10.398  1.00  0.00    -0.237 OA
ATOM     68  O   UNL     1       0.085 -17.426  -8.329  1.00  0.00    -0.744 OA
ENDBRANCH  62  65
ENDBRANCH  44  58
BRANCH  45  69
ATOM     69  C   UNL     1       5.217  -6.008  -6.598  1.00  0.00     0.023 A 
ATOM     70  C   UNL     1       5.945  -5.149  -7.443  1.00  0.00     0.012 A 
ATOM     71  C   UNL     1       5.285  -5.822  -5.204  1.00  0.00     0.148 A 
ATOM     72  C   UNL     1       6.746  -4.138  -6.907  1.00  0.00     0.002 A 
ATOM     73  C   UNL     1       6.042  -4.780  -4.680  1.00  0.00     0.091 A 
ATOM     74  F   UNL     1       4.607  -6.667  -4.414  1.00  0.00    -0.205 F 
ATOM     75  C   UNL     1       6.785  -3.946  -5.528  1.00  0.00     0.022 A 
BRANCH  73  76
ATOM     76  S   UNL     1       6.037  -4.392  -2.925  1.00  0.00     0.127 S 
ATOM     77  O   UNL     1       7.307  -4.963  -2.487  1.00  0.00    -0.237 OA
ATOM     78  O   UNL     1       5.989  -2.929  -2.932  1.00  0.00    -0.237 OA
ATOM     79  O   UNL     1       4.835  -5.022  -2.394  1.00  0.00    -0.744 OA
ENDBRANCH  73  76
ENDBRANCH  45  69
BRANCH  57  80
ATOM     80  C   UNL     1       6.651 -11.845 -10.165  1.00  0.00     0.023 A 
ATOM     81  C   UNL     1       7.483 -12.485  -9.226  1.00  0.00     0.012 A 
ATOM     82  C   UNL     1       6.994 -11.883 -11.531  1.00  0.00     0.148 A 
ATOM     83  C   UNL     1       8.649 -13.131  -9.635  1.00  0.00     0.002 A 
ATOM     84  C   UNL     1       8.136 -12.565 -11.937  1.00  0.00     0.091 A 
ATOM     85  F   UNL     1       6.200 -11.252 -12.409  1.00  0.00    -0.205 F 
ATOM     86  C   UNL     1       8.969 -13.182 -10.990  1.00  0.00     0.022 A 
BRANCH  84  87
ATOM     87  S   UNL     1       8.572 -12.758 -13.670  1.00  0.00     0.127 S 
ATOM     88  O   UNL     1       9.651 -11.782 -13.816  1.00  0.00    -0.237 OA
ATOM     89  O   UNL     1       9.002 -14.155 -13.733  1.00  0.00    -0.237 OA
ATOM     90  O   UNL     1       7.357 -12.469 -14.419  1.00  0.00    -0.744 OA
ENDBRANCH  84  87
ENDBRANCH  57  80
ENDBRANCH  31  32
ENDBRANCH  24  26
ENDBRANCH  23  24
ENDBRANCH  22  23
ENDBRANCH  21  22
ENDBRANCH  20  21
ENDBRANCH   1  20
TORSDOF 21
