REMARK SMILES C[C@H]1SC[C@H](C(=O)OCCOCCOC(=O)c2ccc(-c3c4nc(c(-c5cccc(S(=O)(=O)[O-])c5F)c5ccc([nH]5)c(-c5cccc(S(=O)(=O)[O-])c5F)c5nc(c(-c6cccc(S(=O)(=O)[O-])c6F)c6ccc3[nH]6)C=C5)C=C4)cc2)N1C(=O)[C@@H]1CSc2ccccc21
REMARK SMILES IDX 12 1 11 2 10 3 9 4 8 5 6 6 7 7 5 8 1 9 2 10 3 11 80 12 4 13
REMARK SMILES IDX 81 14 82 15 83 16 84 17 91 18 85 19 86 20 90 21 87 22 89 23
REMARK SMILES IDX 88 24 13 25 14 26 15 27 16 28 17 29 18 30 79 31 19 32 78 33
REMARK SMILES IDX 20 34 21 35 22 36 72 37 23 38 77 39 71 40 73 41 24 42 76 43
REMARK SMILES IDX 70 44 69 45 25 47 57 48 37 49 56 50 38 51 41 52 55 53 74 54
REMARK SMILES IDX 39 55 40 56 54 58 75 59 42 60 26 61 27 62 35 63 28 64 30 65
REMARK SMILES IDX 36 66 29 67 31 68 32 69 33 70 34 71 58 72 59 73 67 74 60 75
REMARK SMILES IDX 62 76 68 77 61 78 63 79 64 80 65 81 66 82 43 83 44 84 52 85
REMARK SMILES IDX 45 86 47 87 53 88 46 89 48 90 49 91 50 92 51 93
REMARK H PARENT 73 46 41 57
REMARK Flexibility Score: inf
ROOT
ATOM      1  C   UNL     1       6.948  -6.287   4.757  1.00  0.00     0.202 C 
ENDROOT
BRANCH   1   2
ATOM      2  O   UNL     1       6.625  -7.459   4.011  1.00  0.00    -0.374 OA
BRANCH   2   3
ATOM      3  C   UNL     1       6.625  -7.366   2.585  1.00  0.00     0.202 C 
BRANCH   3   4
ATOM      4  C   UNL     1       5.435  -6.642   1.953  1.00  0.00     0.261 C 
BRANCH   4   5
ATOM      5  O   UNL     1       5.469  -5.249   2.288  1.00  0.00    -0.462 OA
BRANCH   5   6
ATOM      6  C   UNL     1       4.432  -4.780   3.032  1.00  0.00     0.329 C 
ATOM      7  O   UNL     1       3.470  -5.438   3.417  1.00  0.00    -0.250 OA
BRANCH   6   8
ATOM      8  C   UNL     1       4.614  -3.295   3.359  1.00  0.00     0.206 C 
ATOM      9  C   UNL     1       3.390  -0.597   4.416  1.00  0.00     0.043 C 
ATOM     10  C   UNL     1       4.145  -0.949   3.137  1.00  0.00     0.141 C 
ATOM     11  S   UNL     1       5.934  -0.996   3.535  1.00  0.00    -0.135 SA
ATOM     12  N   UNL     1       3.833  -2.282   2.639  1.00  0.00    -0.316 N 
ATOM     13  C   UNL     1       6.058  -2.808   3.433  1.00  0.00     0.109 C 
BRANCH  12  14
ATOM     14  C   UNL     1       3.212  -2.591   1.439  1.00  0.00     0.232 C 
ATOM     15  O   UNL     1       3.330  -3.715   0.938  1.00  0.00    -0.274 OA
BRANCH  14  16
ATOM     16  C   UNL     1       2.324  -1.586   0.703  1.00  0.00     0.120 C 
ATOM     17  C   UNL     1       3.129  -0.537  -0.074  1.00  0.00     0.093 C 
ATOM     18  C   UNL     1       1.310  -0.906   1.585  1.00  0.00    -0.021 A 
ATOM     19  S   UNL     1       2.502   1.122   0.377  1.00  0.00    -0.125 SA
ATOM     20  C   UNL     1       1.335   0.486   1.537  1.00  0.00     0.011 A 
ATOM     21  C   UNL     1       0.407  -1.569   2.416  1.00  0.00     0.006 A 
ATOM     22  C   UNL     1       0.521   1.238   2.371  1.00  0.00     0.015 A 
ATOM     23  C   UNL     1      -0.421  -0.819   3.251  1.00  0.00     0.000 A 
ATOM     24  C   UNL     1      -0.352   0.579   3.240  1.00  0.00     0.001 A 
ENDBRANCH  14  16
ENDBRANCH  12  14
ENDBRANCH   6   8
ENDBRANCH   5   6
ENDBRANCH   4   5
ENDBRANCH   3   4
ENDBRANCH   2   3
ENDBRANCH   1   2
BRANCH   1  25
ATOM     25  C   UNL     1       8.423  -5.873   4.806  1.00  0.00     0.261 C 
BRANCH  25  26
ATOM     26  O   UNL     1       8.932  -5.481   3.519  1.00  0.00    -0.460 OA
BRANCH  26  27
ATOM     27  C   UNL     1       9.858  -6.324   3.004  1.00  0.00     0.338 C 
ATOM     28  O   UNL     1      10.325  -7.322   3.546  1.00  0.00    -0.246 OA
BRANCH  27  29
ATOM     29  C   UNL     1      10.136  -6.003   1.595  1.00  0.00     0.060 A 
ATOM     30  C   UNL     1       9.991  -7.037   0.661  1.00  0.00     0.016 A 
ATOM     31  C   UNL     1      10.630  -4.757   1.205  1.00  0.00     0.016 A 
ATOM     32  C   UNL     1      10.398  -6.849  -0.657  1.00  0.00     0.010 A 
ATOM     33  C   UNL     1      11.046  -4.573  -0.119  1.00  0.00     0.010 A 
ATOM     34  C   UNL     1      10.972  -5.631  -1.044  1.00  0.00    -0.014 A 
BRANCH  34  35
ATOM     35  C   UNL     1      11.629  -5.529  -2.369  1.00  0.00     0.031 A 
ATOM     36  C   UNL     1      13.124  -5.671  -2.457  1.00  0.00     0.074 A 
ATOM     37  C   UNL     1      10.901  -5.338  -3.484  1.00  0.00     0.049 A 
ATOM     38  N   UNL     1      13.899  -5.629  -3.509  1.00  0.00    -0.248 NA
ATOM     39  C   UNL     1      13.842  -5.891  -1.190  1.00  0.00     0.031 C 
ATOM     40  C   UNL     1       9.448  -5.190  -3.528  1.00  0.00     0.029 A 
ATOM     41  N   UNL     1      11.294  -5.217  -4.793  1.00  0.00    -0.354 N 
ATOM     42  C   UNL     1      15.195  -5.792  -3.033  1.00  0.00     0.074 A 
ATOM     43  C   UNL     1      15.104  -5.920  -1.595  1.00  0.00     0.031 C 
ATOM     44  C   UNL     1       9.071  -4.971  -4.799  1.00  0.00     0.029 A 
ATOM     45  C   UNL     1      10.257  -4.947  -5.654  1.00  0.00     0.049 A 
ATOM     46  H   UNL     1      12.228  -5.314  -5.088  1.00  0.00     0.167 HD
ATOM     47  C   UNL     1      16.354  -5.849  -3.730  1.00  0.00     0.034 A 
ATOM     48  C   UNL     1      10.267  -4.694  -6.979  1.00  0.00     0.034 A 
ATOM     49  C   UNL     1      16.442  -5.746  -5.161  1.00  0.00     0.049 A 
ATOM     50  C   UNL     1      11.573  -4.746  -7.729  1.00  0.00     0.074 A 
ATOM     51  C   UNL     1      17.565  -5.840  -5.963  1.00  0.00     0.029 A 
ATOM     52  N   UNL     1      15.367  -5.515  -6.004  1.00  0.00    -0.354 N 
ATOM     53  N   UNL     1      12.772  -5.028  -7.281  1.00  0.00    -0.248 NA
ATOM     54  C   UNL     1      11.521  -4.481  -9.175  1.00  0.00     0.031 C 
ATOM     55  C   UNL     1      17.171  -5.646  -7.292  1.00  0.00     0.029 A 
ATOM     56  C   UNL     1      15.799  -5.452  -7.318  1.00  0.00     0.049 A 
ATOM     57  H   UNL     1      14.432  -5.410  -5.712  1.00  0.00     0.167 HD
ATOM     58  C   UNL     1      13.610  -5.009  -8.391  1.00  0.00     0.074 A 
ATOM     59  C   UNL     1      12.777  -4.707  -9.537  1.00  0.00     0.031 C 
ATOM     60  C   UNL     1      14.950  -5.207  -8.455  1.00  0.00     0.034 A 
BRANCH  47  61
ATOM     61  C   UNL     1      17.626  -6.066  -2.953  1.00  0.00     0.023 A 
ATOM     62  C   UNL     1      17.906  -7.340  -2.421  1.00  0.00     0.012 A 
ATOM     63  C   UNL     1      18.566  -5.029  -2.798  1.00  0.00     0.148 A 
ATOM     64  C   UNL     1      19.089  -7.574  -1.722  1.00  0.00     0.002 A 
ATOM     65  C   UNL     1      19.762  -5.279  -2.134  1.00  0.00     0.091 A 
ATOM     66  F   UNL     1      18.270  -3.817  -3.289  1.00  0.00    -0.205 F 
ATOM     67  C   UNL     1      20.021  -6.547  -1.587  1.00  0.00     0.022 A 
BRANCH  65  68
ATOM     68  S   UNL     1      21.054  -4.042  -1.972  1.00  0.00     0.127 S 
ATOM     69  O   UNL     1      20.951  -3.691  -0.556  1.00  0.00    -0.237 OA
ATOM     70  O   UNL     1      22.255  -4.800  -2.326  1.00  0.00    -0.237 OA
ATOM     71  O   UNL     1      20.711  -2.981  -2.908  1.00  0.00    -0.744 OA
ENDBRANCH  65  68
ENDBRANCH  47  61
BRANCH  48  72
ATOM     72  C   UNL     1       8.989  -4.408  -7.689  1.00  0.00     0.023 A 
ATOM     73  C   UNL     1       8.474  -5.348  -8.601  1.00  0.00     0.012 A 
ATOM     74  C   UNL     1       8.271  -3.220  -7.448  1.00  0.00     0.148 A 
ATOM     75  C   UNL     1       7.281  -5.100  -9.281  1.00  0.00     0.002 A 
ATOM     76  C   UNL     1       7.056  -3.003  -8.087  1.00  0.00     0.091 A 
ATOM     77  F   UNL     1       8.788  -2.326  -6.593  1.00  0.00    -0.205 F 
ATOM     78  C   UNL     1       6.567  -3.934  -9.016  1.00  0.00     0.022 A 
BRANCH  76  79
ATOM     79  S   UNL     1       6.010  -1.593  -7.707  1.00  0.00     0.127 S 
ATOM     80  O   UNL     1       6.177  -0.766  -8.899  1.00  0.00    -0.237 OA
ATOM     81  O   UNL     1       4.694  -2.219  -7.569  1.00  0.00    -0.237 OA
ATOM     82  O   UNL     1       6.539  -1.038  -6.468  1.00  0.00    -0.744 OA
ENDBRANCH  76  79
ENDBRANCH  48  72
BRANCH  60  83
ATOM     83  C   UNL     1      15.606  -5.137  -9.810  1.00  0.00     0.023 A 
ATOM     84  C   UNL     1      15.779  -3.889 -10.439  1.00  0.00     0.012 A 
ATOM     85  C   UNL     1      16.120  -6.297 -10.423  1.00  0.00     0.148 A 
ATOM     86  C   UNL     1      16.428  -3.798 -11.670  1.00  0.00     0.002 A 
ATOM     87  C   UNL     1      16.806  -6.194 -11.628  1.00  0.00     0.091 A 
ATOM     88  F   UNL     1      15.929  -7.479  -9.819  1.00  0.00    -0.205 F 
ATOM     89  C   UNL     1      16.951  -4.948 -12.258  1.00  0.00     0.022 A 
BRANCH  87  90
ATOM     90  S   UNL     1      17.595  -7.608 -12.408  1.00  0.00     0.127 S 
ATOM     91  O   UNL     1      16.677  -7.891 -13.510  1.00  0.00    -0.237 OA
ATOM     92  O   UNL     1      18.888  -7.059 -12.817  1.00  0.00    -0.237 OA
ATOM     93  O   UNL     1      17.676  -8.636 -11.379  1.00  0.00    -0.744 OA
ENDBRANCH  87  90
ENDBRANCH  60  83
ENDBRANCH  34  35
ENDBRANCH  27  29
ENDBRANCH  26  27
ENDBRANCH  25  26
ENDBRANCH   1  25
TORSDOF 19
