REMARK SMILES Cc1c(CC(=O)OCCOCCOC(=O)c2ccc(-c3c4nc(c(-c5cccc(S(=O)(=O)[O-])c5F)c5ccc([nH]5)c(-c5cccc(S(=O)(=O)[O-])c5F)c5nc(c(-c6cccc(S(=O)(=O)[O-])c6F)c6ccc3[nH]6)C=C5)C=C4)cc2)cc(-c2ccccc2)cc1-c1ccccc1
REMARK SMILES IDX 11 1 10 2 9 3 8 4 7 5 5 6 6 7 4 8 3 9 1 10 2 11 88 12 79 13
REMARK SMILES IDX 87 14 80 15 89 16 90 17 94 18 91 19 93 20 92 21 81 22 82 23
REMARK SMILES IDX 86 24 83 25 85 26 84 27 12 28 13 29 14 30 15 31 16 32 17 33
REMARK SMILES IDX 78 34 18 35 77 36 19 37 20 38 21 39 71 40 22 41 76 42 70 43
REMARK SMILES IDX 72 44 23 45 75 46 69 47 68 48 24 50 56 51 36 52 55 53 37 54
REMARK SMILES IDX 40 55 54 56 73 57 38 58 39 59 53 61 74 62 41 63 25 64 26 65
REMARK SMILES IDX 34 66 27 67 29 68 35 69 28 70 30 71 31 72 32 73 33 74 57 75
REMARK SMILES IDX 58 76 66 77 59 78 61 79 67 80 60 81 62 82 63 83 64 84 65 85
REMARK SMILES IDX 42 86 43 87 51 88 44 89 46 90 52 91 45 92 47 93 48 94 49 95
REMARK SMILES IDX 50 96
REMARK H PARENT 72 49 40 60
REMARK Flexibility Score: inf
ROOT
ATOM      1  C   UNL     1      -3.211  -3.326   0.740  1.00  0.00     0.202 C 
ENDROOT
BRANCH   1   2
ATOM      2  O   UNL     1      -1.883  -3.234   1.213  1.00  0.00    -0.374 OA
BRANCH   2   3
ATOM      3  C   UNL     1      -1.591  -2.197   2.137  1.00  0.00     0.202 C 
BRANCH   3   4
ATOM      4  C   UNL     1      -0.131  -2.294   2.441  1.00  0.00     0.261 C 
BRANCH   4   5
ATOM      5  O   UNL     1       0.680  -1.948   1.305  1.00  0.00    -0.463 OA
BRANCH   5   6
ATOM      6  C   UNL     1       0.807  -2.848   0.275  1.00  0.00     0.310 C 
ATOM      7  O   UNL     1       0.822  -4.054   0.370  1.00  0.00    -0.252 OA
BRANCH   6   8
ATOM      8  C   UNL     1       0.929  -2.108  -1.047  1.00  0.00     0.158 C 
BRANCH   8   9
ATOM      9  C   UNL     1       0.294  -0.731  -0.946  1.00  0.00    -0.033 A 
ATOM     10  C   UNL     1       2.524   0.266  -0.286  1.00  0.00     0.045 C 
ATOM     11  C   UNL     1       1.032   0.396  -0.526  1.00  0.00    -0.039 A 
ATOM     12  C   UNL     1       0.342   1.603  -0.262  1.00  0.00    -0.015 A 
ATOM     13  C   UNL     1      -1.110  -0.663  -1.019  1.00  0.00     0.013 A 
ATOM     14  C   UNL     1      -1.071   1.599  -0.239  1.00  0.00     0.017 A 
ATOM     15  C   UNL     1      -1.812   0.472  -0.600  1.00  0.00    -0.017 A 
BRANCH  12  16
ATOM     16  C   UNL     1       1.050   2.884  -0.122  1.00  0.00    -0.018 A 
ATOM     17  C   UNL     1       0.882   3.726   0.985  1.00  0.00     0.009 A 
ATOM     18  C   UNL     1       1.887   3.312  -1.169  1.00  0.00     0.009 A 
ATOM     19  C   UNL     1       1.529   4.964   1.033  1.00  0.00     0.001 A 
ATOM     20  C   UNL     1       2.543   4.537  -1.115  1.00  0.00     0.001 A 
ATOM     21  C   UNL     1       2.357   5.367  -0.015  1.00  0.00     0.000 A 
ENDBRANCH  12  16
BRANCH  15  22
ATOM     22  C   UNL     1      -3.279   0.455  -0.535  1.00  0.00    -0.018 A 
ATOM     23  C   UNL     1      -3.961   0.174   0.663  1.00  0.00     0.009 A 
ATOM     24  C   UNL     1      -4.040   0.651  -1.692  1.00  0.00     0.009 A 
ATOM     25  C   UNL     1      -5.348   0.013   0.687  1.00  0.00     0.001 A 
ATOM     26  C   UNL     1      -5.432   0.527  -1.664  1.00  0.00     0.001 A 
ATOM     27  C   UNL     1      -6.083   0.187  -0.480  1.00  0.00     0.000 A 
ENDBRANCH  15  22
ENDBRANCH   8   9
ENDBRANCH   6   8
ENDBRANCH   5   6
ENDBRANCH   4   5
ENDBRANCH   3   4
ENDBRANCH   2   3
ENDBRANCH   1   2
BRANCH   1  28
ATOM     28  C   UNL     1      -4.297  -3.295   1.821  1.00  0.00     0.261 C 
BRANCH  28  29
ATOM     29  O   UNL     1      -4.279  -4.520   2.578  1.00  0.00    -0.460 OA
BRANCH  29  30
ATOM     30  C   UNL     1      -3.792  -4.402   3.845  1.00  0.00     0.338 C 
ATOM     31  O   UNL     1      -4.265  -3.656   4.689  1.00  0.00    -0.246 OA
BRANCH  30  32
ATOM     32  C   UNL     1      -2.486  -5.114   3.943  1.00  0.00     0.060 A 
ATOM     33  C   UNL     1      -1.653  -4.921   5.057  1.00  0.00     0.016 A 
ATOM     34  C   UNL     1      -1.973  -5.704   2.789  1.00  0.00     0.016 A 
ATOM     35  C   UNL     1      -0.275  -5.150   4.951  1.00  0.00     0.010 A 
ATOM     36  C   UNL     1      -0.608  -5.805   2.649  1.00  0.00     0.010 A 
ATOM     37  C   UNL     1       0.253  -5.494   3.715  1.00  0.00    -0.014 A 
BRANCH  37  38
ATOM     38  C   UNL     1       1.668  -5.673   3.401  1.00  0.00     0.031 A 
ATOM     39  C   UNL     1       2.101  -7.078   3.288  1.00  0.00     0.074 A 
ATOM     40  C   UNL     1       2.478  -4.667   2.986  1.00  0.00     0.049 A 
ATOM     41  N   UNL     1       3.327  -7.460   3.300  1.00  0.00    -0.248 NA
ATOM     42  C   UNL     1       1.154  -8.193   3.240  1.00  0.00     0.031 C 
ATOM     43  C   UNL     1       3.639  -4.778   2.103  1.00  0.00     0.029 A 
ATOM     44  N   UNL     1       2.416  -3.287   3.226  1.00  0.00    -0.354 N 
ATOM     45  C   UNL     1       3.332  -8.781   2.913  1.00  0.00     0.074 A 
ATOM     46  C   UNL     1       1.979  -9.226   3.087  1.00  0.00     0.031 C 
ATOM     47  C   UNL     1       4.301  -3.606   2.079  1.00  0.00     0.029 A 
ATOM     48  C   UNL     1       3.697  -2.744   3.082  1.00  0.00     0.049 A 
ATOM     49  H   UNL     1       1.603  -2.783   3.459  1.00  0.00     0.167 HD
ATOM     50  C   UNL     1       4.445  -9.266   2.299  1.00  0.00     0.034 A 
ATOM     51  C   UNL     1       4.300  -2.062   4.095  1.00  0.00     0.034 A 
ATOM     52  C   UNL     1       5.514  -8.238   2.309  1.00  0.00     0.049 A 
ATOM     53  C   UNL     1       5.527  -2.814   4.527  1.00  0.00     0.074 A 
ATOM     54  C   UNL     1       5.992  -7.374   1.336  1.00  0.00     0.029 A 
ATOM     55  N   UNL     1       5.993  -7.745   3.527  1.00  0.00    -0.354 N 
ATOM     56  N   UNL     1       5.820  -3.989   4.045  1.00  0.00    -0.248 NA
ATOM     57  C   UNL     1       6.521  -2.356   5.489  1.00  0.00     0.031 C 
ATOM     58  C   UNL     1       6.682  -6.312   1.990  1.00  0.00     0.029 A 
ATOM     59  C   UNL     1       6.663  -6.538   3.358  1.00  0.00     0.049 A 
ATOM     60  H   UNL     1       5.872  -8.196   4.394  1.00  0.00     0.167 HD
ATOM     61  C   UNL     1       6.886  -4.515   4.685  1.00  0.00     0.074 A 
ATOM     62  C   UNL     1       7.343  -3.423   5.533  1.00  0.00     0.031 C 
ATOM     63  C   UNL     1       7.234  -5.823   4.507  1.00  0.00     0.034 A 
BRANCH  50  64
ATOM     64  C   UNL     1       4.498 -10.527   1.434  1.00  0.00     0.023 A 
ATOM     65  C   UNL     1       5.665 -10.708   0.659  1.00  0.00     0.012 A 
ATOM     66  C   UNL     1       3.501 -11.525   1.264  1.00  0.00     0.148 A 
ATOM     67  C   UNL     1       5.819 -11.768  -0.245  1.00  0.00     0.002 A 
ATOM     68  C   UNL     1       3.649 -12.584   0.360  1.00  0.00     0.091 A 
ATOM     69  F   UNL     1       2.386 -11.505   1.986  1.00  0.00    -0.205 F 
ATOM     70  C   UNL     1       4.809 -12.704  -0.402  1.00  0.00     0.022 A 
BRANCH  68  71
ATOM     71  S   UNL     1       2.373 -13.840   0.108  1.00  0.00     0.127 S 
ATOM     72  O   UNL     1       2.174 -13.792  -1.341  1.00  0.00    -0.237 OA
ATOM     73  O   UNL     1       3.034 -15.053   0.590  1.00  0.00    -0.237 OA
ATOM     74  O   UNL     1       1.212 -13.421   0.884  1.00  0.00    -0.744 OA
ENDBRANCH  68  71
ENDBRANCH  50  64
BRANCH  51  75
ATOM     75  C   UNL     1       3.321  -1.312   4.949  1.00  0.00     0.023 A 
ATOM     76  C   UNL     1       2.664  -0.205   4.347  1.00  0.00     0.012 A 
ATOM     77  C   UNL     1       2.728  -1.909   6.076  1.00  0.00     0.148 A 
ATOM     78  C   UNL     1       1.396   0.206   4.771  1.00  0.00     0.002 A 
ATOM     79  C   UNL     1       1.444  -1.522   6.466  1.00  0.00     0.091 A 
ATOM     80  F   UNL     1       3.394  -2.883   6.708  1.00  0.00    -0.205 F 
ATOM     81  C   UNL     1       0.766  -0.486   5.799  1.00  0.00     0.022 A 
BRANCH  79  82
ATOM     82  S   UNL     1       0.507  -2.436   7.700  1.00  0.00     0.127 S 
ATOM     83  O   UNL     1       0.624  -1.566   8.867  1.00  0.00    -0.237 OA
ATOM     84  O   UNL     1      -0.830  -2.479   7.106  1.00  0.00    -0.237 OA
ATOM     85  O   UNL     1       1.159  -3.732   7.806  1.00  0.00    -0.744 OA
ENDBRANCH  79  82
ENDBRANCH  51  75
BRANCH  63  86
ATOM     86  C   UNL     1       8.171  -6.527   5.442  1.00  0.00     0.023 A 
ATOM     87  C   UNL     1       8.308  -6.126   6.787  1.00  0.00     0.012 A 
ATOM     88  C   UNL     1       8.832  -7.707   5.042  1.00  0.00     0.148 A 
ATOM     89  C   UNL     1       9.150  -6.800   7.668  1.00  0.00     0.002 A 
ATOM     90  C   UNL     1       9.563  -8.447   5.958  1.00  0.00     0.091 A 
ATOM     91  F   UNL     1       8.767  -8.108   3.764  1.00  0.00    -0.205 F 
ATOM     92  C   UNL     1       9.765  -7.974   7.258  1.00  0.00     0.022 A 
BRANCH  90  93
ATOM     93  S   UNL     1      10.133 -10.100   5.557  1.00  0.00     0.127 S 
ATOM     94  O   UNL     1      11.515  -9.851   5.154  1.00  0.00    -0.237 OA
ATOM     95  O   UNL     1       9.984 -10.798   6.836  1.00  0.00    -0.237 OA
ATOM     96  O   UNL     1       9.234 -10.573   4.512  1.00  0.00    -0.744 OA
ENDBRANCH  90  93
ENDBRANCH  63  86
ENDBRANCH  37  38
ENDBRANCH  30  32
ENDBRANCH  29  30
ENDBRANCH  28  29
ENDBRANCH   1  28
TORSDOF 20
