REMARK SMILES COc1ccc(C(=O)N2CSC[C@H]2C(=O)OCCOCCOC(=O)c2ccc(-c3c4nc(c(-c5cccc(S(=O)(=O)[O-])c5F)c5ccc([nH]5)c(-c5cccc(S(=O)(=O)[O-])c5F)c5nc(c(-c6cccc(S(=O)(=O)[O-])c6F)c6ccc3[nH]6)C=C5)C=C4)cc2)cc1C#N
REMARK SMILES IDX 19 1 18 2 17 3 16 4 14 5 15 6 13 7 9 8 10 9 11 10 12 11 7 12
REMARK SMILES IDX 8 13 6 14 3 15 4 16 89 17 5 18 88 19 2 20 1 21 90 22 91 23
REMARK SMILES IDX 20 24 21 25 22 26 23 27 24 28 25 29 26 30 87 31 27 32 86 33
REMARK SMILES IDX 28 34 29 35 30 36 80 37 31 38 85 39 79 40 81 41 32 42 84 43
REMARK SMILES IDX 78 44 77 45 33 47 65 48 45 49 64 50 46 51 49 52 63 53 82 54
REMARK SMILES IDX 47 55 48 56 62 58 83 59 50 60 34 61 35 62 43 63 36 64 38 65
REMARK SMILES IDX 44 66 37 67 39 68 40 69 41 70 42 71 66 72 67 73 75 74 68 75
REMARK SMILES IDX 70 76 76 77 69 78 71 79 72 80 73 81 74 82 51 83 52 84 60 85
REMARK SMILES IDX 53 86 55 87 61 88 54 89 56 90 57 91 58 92 59 93
REMARK H PARENT 81 46 49 57
REMARK Flexibility Score: inf
ROOT
ATOM      1  O   UNL     1       1.430  -1.663  11.072  1.00  0.00    -0.374 OA
ENDROOT
BRANCH   1   2
ATOM      2  C   UNL     1       2.568  -1.000  11.609  1.00  0.00     0.202 C 
BRANCH   2   3
ATOM      3  C   UNL     1       3.929  -1.148  10.922  1.00  0.00     0.261 C 
BRANCH   3   4
ATOM      4  O   UNL     1       3.894  -0.904   9.504  1.00  0.00    -0.462 OA
BRANCH   4   5
ATOM      5  C   UNL     1       4.146  -2.002   8.743  1.00  0.00     0.329 C 
ATOM      6  O   UNL     1       4.445  -3.107   9.190  1.00  0.00    -0.250 OA
BRANCH   5   7
ATOM      7  C   UNL     1       4.156  -1.736   7.239  1.00  0.00     0.206 C 
ATOM      8  N   UNL     1       3.517  -0.557   6.631  1.00  0.00    -0.315 N 
ATOM      9  C   UNL     1       4.410   0.568   6.475  1.00  0.00     0.191 C 
ATOM     10  S   UNL     1       5.975  -0.176   5.979  1.00  0.00    -0.138 SA
ATOM     11  C   UNL     1       5.633  -1.750   6.820  1.00  0.00     0.108 C 
BRANCH   8  12
ATOM     12  C   UNL     1       2.261  -0.704   6.061  1.00  0.00     0.255 C 
ATOM     13  O   UNL     1       1.436  -1.507   6.494  1.00  0.00    -0.269 OA
BRANCH  12  14
ATOM     14  C   UNL     1       1.935  -0.040   4.767  1.00  0.00     0.041 A 
ATOM     15  C   UNL     1       1.179   0.680   2.151  1.00  0.00     0.136 A 
ATOM     16  C   UNL     1       0.259   0.759   3.204  1.00  0.00     0.048 A 
ATOM     17  C   UNL     1       2.501   0.303   2.417  1.00  0.00     0.095 A 
ATOM     18  C   UNL     1       0.629   0.387   4.505  1.00  0.00     0.018 A 
ATOM     19  C   UNL     1       2.862  -0.078   3.718  1.00  0.00     0.037 A 
BRANCH  15  20
ATOM     20  O   UNL     1       0.706   1.040   0.915  1.00  0.00    -0.495 OA
ATOM     21  C   UNL     1       0.815   0.005  -0.067  1.00  0.00     0.278 C 
ENDBRANCH  15  20
BRANCH  17  22
ATOM     22  C   UNL     1       3.519   0.267   1.407  1.00  0.00     0.103 C 
ATOM     23  N   UNL     1       4.350   0.192   0.604  1.00  0.00    -0.192 NA
ENDBRANCH  17  22
ENDBRANCH  12  14
ENDBRANCH   8  12
ENDBRANCH   5   7
ENDBRANCH   4   5
ENDBRANCH   3   4
ENDBRANCH   2   3
ENDBRANCH   1   2
BRANCH   1  24
ATOM     24  C   UNL     1       1.030  -1.393   9.732  1.00  0.00     0.202 C 
BRANCH  24  25
ATOM     25  C   UNL     1       0.620   0.030   9.315  1.00  0.00     0.261 C 
BRANCH  25  26
ATOM     26  O   UNL     1       1.490   1.080   9.749  1.00  0.00    -0.460 OA
BRANCH  26  27
ATOM     27  C   UNL     1       1.001   1.782  10.801  1.00  0.00     0.338 C 
ATOM     28  O   UNL     1      -0.050   1.596  11.393  1.00  0.00    -0.246 OA
BRANCH  27  29
ATOM     29  C   UNL     1       2.007   2.744  11.267  1.00  0.00     0.060 A 
ATOM     30  C   UNL     1       2.428   2.648  12.599  1.00  0.00     0.016 A 
ATOM     31  C   UNL     1       2.425   3.795  10.450  1.00  0.00     0.016 A 
ATOM     32  C   UNL     1       3.212   3.654  13.145  1.00  0.00     0.010 A 
ATOM     33  C   UNL     1       3.214   4.804  11.002  1.00  0.00     0.010 A 
ATOM     34  C   UNL     1       3.556   4.765  12.366  1.00  0.00    -0.014 A 
BRANCH  34  35
ATOM     35  C   UNL     1       4.102   5.962  13.042  1.00  0.00     0.031 A 
ATOM     36  C   UNL     1       3.203   7.151  13.252  1.00  0.00     0.074 A 
ATOM     37  C   UNL     1       5.360   5.961  13.513  1.00  0.00     0.049 A 
ATOM     38  N   UNL     1       3.464   8.291  13.835  1.00  0.00    -0.248 NA
ATOM     39  C   UNL     1       1.829   7.044  12.731  1.00  0.00     0.031 C 
ATOM     40  C   UNL     1       6.310   4.857  13.380  1.00  0.00     0.029 A 
ATOM     41  N   UNL     1       6.056   6.928  14.190  1.00  0.00    -0.354 N 
ATOM     42  C   UNL     1       2.303   9.048  13.722  1.00  0.00     0.074 A 
ATOM     43  C   UNL     1       1.344   8.248  12.995  1.00  0.00     0.031 C 
ATOM     44  C   UNL     1       7.473   5.213  13.949  1.00  0.00     0.029 A 
ATOM     45  C   UNL     1       7.359   6.579  14.453  1.00  0.00     0.049 A 
ATOM     46  H   UNL     1       5.661   7.788  14.462  1.00  0.00     0.167 HD
ATOM     47  C   UNL     1       2.055  10.292  14.192  1.00  0.00     0.034 A 
ATOM     48  C   UNL     1       8.351   7.295  15.014  1.00  0.00     0.034 A 
ATOM     49  C   UNL     1       3.014  11.076  14.923  1.00  0.00     0.049 A 
ATOM     50  C   UNL     1       8.057   8.688  15.502  1.00  0.00     0.074 A 
ATOM     51  C   UNL     1       2.855  12.333  15.477  1.00  0.00     0.029 A 
ATOM     52  N   UNL     1       4.319  10.685  15.184  1.00  0.00    -0.354 N 
ATOM     53  N   UNL     1       6.931   9.360  15.461  1.00  0.00    -0.248 NA
ATOM     54  C   UNL     1       9.162   9.407  16.150  1.00  0.00     0.031 C 
ATOM     55  C   UNL     1       4.080  12.725  16.025  1.00  0.00     0.029 A 
ATOM     56  C   UNL     1       4.981  11.683  15.877  1.00  0.00     0.049 A 
ATOM     57  H   UNL     1       4.716   9.825  14.915  1.00  0.00     0.167 HD
ATOM     58  C   UNL     1       7.178  10.558  16.123  1.00  0.00     0.074 A 
ATOM     59  C   UNL     1       8.556  10.510  16.566  1.00  0.00     0.031 C 
ATOM     60  C   UNL     1       6.342  11.603  16.345  1.00  0.00     0.034 A 
BRANCH  47  61
ATOM     61  C   UNL     1       0.697  10.887  13.921  1.00  0.00     0.023 A 
ATOM     62  C   UNL     1      -0.450  10.363  14.552  1.00  0.00     0.012 A 
ATOM     63  C   UNL     1       0.565  12.001  13.068  1.00  0.00     0.148 A 
ATOM     64  C   UNL     1      -1.709  10.911  14.307  1.00  0.00     0.002 A 
ATOM     65  C   UNL     1      -0.684  12.575  12.871  1.00  0.00     0.091 A 
ATOM     66  F   UNL     1       1.663  12.472  12.459  1.00  0.00    -0.205 F 
ATOM     67  C   UNL     1      -1.824  12.022  13.476  1.00  0.00     0.022 A 
BRANCH  65  68
ATOM     68  S   UNL     1      -0.924  14.057  11.886  1.00  0.00     0.127 S 
ATOM     69  O   UNL     1      -1.703  13.540  10.761  1.00  0.00    -0.237 OA
ATOM     70  O   UNL     1      -1.673  14.914  12.804  1.00  0.00    -0.237 OA
ATOM     71  O   UNL     1       0.408  14.540  11.549  1.00  0.00    -0.744 OA
ENDBRANCH  65  68
ENDBRANCH  47  61
BRANCH  48  72
ATOM     72  C   UNL     1       9.708   6.703  15.161  1.00  0.00     0.023 A 
ATOM     73  C   UNL     1      10.220   6.423  16.443  1.00  0.00     0.012 A 
ATOM     74  C   UNL     1      10.493   6.415  14.029  1.00  0.00     0.148 A 
ATOM     75  C   UNL     1      11.508   5.908  16.595  1.00  0.00     0.002 A 
ATOM     76  C   UNL     1      11.750   5.845  14.185  1.00  0.00     0.091 A 
ATOM     77  F   UNL     1       9.988   6.694  12.819  1.00  0.00    -0.205 F 
ATOM     78  C   UNL     1      12.269   5.611  15.467  1.00  0.00     0.022 A 
BRANCH  76  79
ATOM     79  S   UNL     1      12.746   5.316  12.789  1.00  0.00     0.127 S 
ATOM     80  O   UNL     1      13.885   6.227  12.872  1.00  0.00    -0.237 OA
ATOM     81  O   UNL     1      13.039   3.927  13.143  1.00  0.00    -0.237 OA
ATOM     82  O   UNL     1      11.899   5.473  11.614  1.00  0.00    -0.744 OA
ENDBRANCH  76  79
ENDBRANCH  48  72
BRANCH  60  83
ATOM     83  C   UNL     1       6.867  12.748  17.173  1.00  0.00     0.023 A 
ATOM     84  C   UNL     1       7.882  13.591  16.677  1.00  0.00     0.012 A 
ATOM     85  C   UNL     1       6.317  13.006  18.445  1.00  0.00     0.148 A 
ATOM     86  C   UNL     1       8.382  14.632  17.459  1.00  0.00     0.002 A 
ATOM     87  C   UNL     1       6.776  14.083  19.191  1.00  0.00     0.091 A 
ATOM     88  F   UNL     1       5.362  12.186  18.907  1.00  0.00    -0.205 F 
ATOM     89  C   UNL     1       7.823  14.884  18.710  1.00  0.00     0.022 A 
BRANCH  87  90
ATOM     90  S   UNL     1       6.041  14.544  20.763  1.00  0.00     0.127 S 
ATOM     91  O   UNL     1       7.093  14.165  21.705  1.00  0.00    -0.237 OA
ATOM     92  O   UNL     1       5.855  15.987  20.605  1.00  0.00    -0.237 OA
ATOM     93  O   UNL     1       4.804  13.783  20.869  1.00  0.00    -0.744 OA
ENDBRANCH  87  90
ENDBRANCH  60  83
ENDBRANCH  34  35
ENDBRANCH  27  29
ENDBRANCH  26  27
ENDBRANCH  25  26
ENDBRANCH  24  25
ENDBRANCH   1  24
TORSDOF 21
