REMARK SMILES CC(=O)c1cc2c(cc1NC(=O)/C=C/C(=O)OCCOCCOC(=O)c1ccc(-c3c4nc(c(-c5cccc(S(=O)(=O)[O-])c5F)c5ccc([nH]5)c(-c5cccc(S(=O)(=O)[O-])c5F)c5nc(c(-c6cccc(S(=O)(=O)[O-])c6F)c6ccc3[nH]6)C=C5)C=C4)cc1)OCO2
REMARK SMILES IDX 20 1 19 2 18 3 17 4 15 5 16 6 14 7 13 8 11 9 10 10 12 12
REMARK SMILES IDX 9 13 4 14 5 15 6 16 8 17 7 18 91 19 89 20 90 21 2 22 1 23
REMARK SMILES IDX 3 24 21 25 22 26 23 27 24 28 25 29 26 30 27 31 88 32 28 33
REMARK SMILES IDX 87 34 29 35 30 36 31 37 81 38 32 39 86 40 80 41 82 42 33 43
REMARK SMILES IDX 85 44 79 45 78 46 34 48 66 49 46 50 65 51 47 52 50 53 64 54
REMARK SMILES IDX 83 55 48 56 49 57 63 59 84 60 51 61 35 62 36 63 44 64 37 65
REMARK SMILES IDX 39 66 45 67 38 68 40 69 41 70 42 71 43 72 67 73 68 74 76 75
REMARK SMILES IDX 69 76 71 77 77 78 70 79 72 80 73 81 74 82 75 83 52 84 53 85
REMARK SMILES IDX 61 86 54 87 56 88 62 89 55 90 57 91 58 92 59 93 60 94
REMARK H PARENT 10 11 82 47 50 58
REMARK Flexibility Score: inf
ROOT
ATOM      1  O   UNL     1       0.530  -8.820   2.717  1.00  0.00    -0.374 OA
ENDROOT
BRANCH   1   2
ATOM      2  C   UNL     1      -0.399  -9.222   3.726  1.00  0.00     0.202 C 
BRANCH   2   3
ATOM      3  C   UNL     1      -0.578  -8.271   4.917  1.00  0.00     0.261 C 
BRANCH   3   4
ATOM      4  O   UNL     1      -1.181  -7.021   4.524  1.00  0.00    -0.460 OA
BRANCH   4   5
ATOM      5  C   UNL     1      -0.674  -5.921   5.129  1.00  0.00     0.331 C 
ATOM      6  O   UNL     1       0.188  -5.906   5.997  1.00  0.00    -0.247 OA
BRANCH   5   7
ATOM      7  C   UNL     1      -1.171  -4.661   4.539  1.00  0.00     0.099 C 
ATOM      8  C   UNL     1      -2.073  -4.559   3.552  1.00  0.00     0.079 C 
BRANCH   8   9
ATOM      9  C   UNL     1      -2.358  -3.239   2.941  1.00  0.00     0.248 C 
ATOM     10  N   UNL     1      -1.368  -2.497   2.345  1.00  0.00    -0.322 N 
ATOM     11  H   UNL     1      -1.654  -1.587   2.100  1.00  0.00     0.170 HD
ATOM     12  O   UNL     1      -3.507  -2.806   2.984  1.00  0.00    -0.270 OA
BRANCH  10  13
ATOM     13  C   UNL     1      -0.019  -2.773   2.011  1.00  0.00     0.056 A 
ATOM     14  C   UNL     1       0.871  -1.718   1.673  1.00  0.00     0.045 A 
ATOM     15  C   UNL     1       2.256  -1.941   1.559  1.00  0.00     0.064 A 
ATOM     16  C   UNL     1       2.714  -3.226   1.722  1.00  0.00     0.166 A 
ATOM     17  C   UNL     1       0.485  -4.072   1.999  1.00  0.00     0.077 A 
ATOM     18  C   UNL     1       1.845  -4.266   1.902  1.00  0.00     0.167 A 
ATOM     19  O   UNL     1       4.009  -3.636   1.696  1.00  0.00    -0.454 OA
ATOM     20  O   UNL     1       2.476  -5.464   1.992  1.00  0.00    -0.454 OA
ATOM     21  C   UNL     1       3.853  -5.046   1.980  1.00  0.00     0.468 C 
BRANCH  14  22
ATOM     22  C   UNL     1       0.348  -0.361   1.375  1.00  0.00     0.162 C 
ATOM     23  C   UNL     1       0.867   0.320   0.133  1.00  0.00     0.093 C 
ATOM     24  O   UNL     1      -0.540   0.123   2.069  1.00  0.00    -0.294 OA
ENDBRANCH  14  22
ENDBRANCH  10  13
ENDBRANCH   8   9
ENDBRANCH   5   7
ENDBRANCH   4   5
ENDBRANCH   3   4
ENDBRANCH   2   3
ENDBRANCH   1   2
BRANCH   1  25
ATOM     25  C   UNL     1       0.113  -7.767   1.853  1.00  0.00     0.202 C 
BRANCH  25  26
ATOM     26  C   UNL     1      -0.823  -8.128   0.696  1.00  0.00     0.261 C 
BRANCH  26  27
ATOM     27  O   UNL     1      -2.075  -8.659   1.149  1.00  0.00    -0.460 OA
BRANCH  27  28
ATOM     28  C   UNL     1      -2.218  -9.991   0.961  1.00  0.00     0.338 C 
ATOM     29  O   UNL     1      -1.443 -10.745   0.379  1.00  0.00    -0.246 OA
BRANCH  28  30
ATOM     30  C   UNL     1      -3.372 -10.479   1.729  1.00  0.00     0.060 A 
ATOM     31  C   UNL     1      -3.153 -11.532   2.626  1.00  0.00     0.016 A 
ATOM     32  C   UNL     1      -4.652  -9.952   1.542  1.00  0.00     0.016 A 
ATOM     33  C   UNL     1      -4.225 -12.097   3.309  1.00  0.00     0.010 A 
ATOM     34  C   UNL     1      -5.728 -10.529   2.219  1.00  0.00     0.010 A 
ATOM     35  C   UNL     1      -5.523 -11.627   3.075  1.00  0.00    -0.014 A 
BRANCH  35  36
ATOM     36  C   UNL     1      -6.678 -12.385   3.606  1.00  0.00     0.031 A 
ATOM     37  C   UNL     1      -7.406 -13.328   2.687  1.00  0.00     0.074 A 
ATOM     38  C   UNL     1      -7.069 -12.235   4.883  1.00  0.00     0.049 A 
ATOM     39  N   UNL     1      -8.450 -14.074   2.927  1.00  0.00    -0.248 NA
ATOM     40  C   UNL     1      -6.888 -13.442   1.312  1.00  0.00     0.031 C 
ATOM     41  C   UNL     1      -6.436 -11.354   5.864  1.00  0.00     0.029 A 
ATOM     42  N   UNL     1      -8.112 -12.807   5.567  1.00  0.00    -0.354 N 
ATOM     43  C   UNL     1      -8.738 -14.719   1.730  1.00  0.00     0.074 A 
ATOM     44  C   UNL     1      -7.760 -14.274   0.761  1.00  0.00     0.031 C 
ATOM     45  C   UNL     1      -7.122 -11.423   7.018  1.00  0.00     0.029 A 
ATOM     46  C   UNL     1      -8.251 -12.335   6.851  1.00  0.00     0.049 A 
ATOM     47  H   UNL     1      -8.704 -13.490   5.176  1.00  0.00     0.167 HD
ATOM     48  C   UNL     1      -9.720 -15.610   1.465  1.00  0.00     0.034 A 
ATOM     49  C   UNL     1      -9.197 -12.598   7.775  1.00  0.00     0.034 A 
ATOM     50  C   UNL     1     -10.671 -16.070   2.439  1.00  0.00     0.049 A 
ATOM     51  C   UNL     1     -10.287 -13.586   7.446  1.00  0.00     0.074 A 
ATOM     52  C   UNL     1     -11.668 -17.018   2.287  1.00  0.00     0.029 A 
ATOM     53  N   UNL     1     -10.752 -15.608   3.743  1.00  0.00    -0.354 N 
ATOM     54  N   UNL     1     -10.465 -14.287   6.352  1.00  0.00    -0.248 NA
ATOM     55  C   UNL     1     -11.287 -13.845   8.492  1.00  0.00     0.031 C 
ATOM     56  C   UNL     1     -12.369 -17.109   3.493  1.00  0.00     0.029 A 
ATOM     57  C   UNL     1     -11.790 -16.240   4.404  1.00  0.00     0.049 A 
ATOM     58  H   UNL     1     -10.158 -14.930   4.140  1.00  0.00     0.167 HD
ATOM     59  C   UNL     1     -11.566 -15.101   6.594  1.00  0.00     0.074 A 
ATOM     60  C   UNL     1     -12.005 -14.816   7.945  1.00  0.00     0.031 C 
ATOM     61  C   UNL     1     -12.170 -15.993   5.771  1.00  0.00     0.034 A 
BRANCH  48  62
ATOM     62  C   UNL     1      -9.807 -16.169   0.070  1.00  0.00     0.023 A 
ATOM     63  C   UNL     1      -8.862 -17.122  -0.361  1.00  0.00     0.012 A 
ATOM     64  C   UNL     1     -10.865 -15.806  -0.785  1.00  0.00     0.148 A 
ATOM     65  C   UNL     1      -8.956 -17.687  -1.633  1.00  0.00     0.002 A 
ATOM     66  C   UNL     1     -10.976 -16.404  -2.034  1.00  0.00     0.091 A 
ATOM     67  F   UNL     1     -11.738 -14.880  -0.363  1.00  0.00    -0.205 F 
ATOM     68  C   UNL     1     -10.018 -17.337  -2.463  1.00  0.00     0.022 A 
BRANCH  66  69
ATOM     69  S   UNL     1     -12.348 -16.079  -3.146  1.00  0.00     0.127 S 
ATOM     70  O   UNL     1     -11.687 -15.343  -4.223  1.00  0.00    -0.237 OA
ATOM     71  O   UNL     1     -12.778 -17.430  -3.507  1.00  0.00    -0.237 OA
ATOM     72  O   UNL     1     -13.320 -15.316  -2.375  1.00  0.00    -0.744 OA
ENDBRANCH  66  69
ENDBRANCH  48  62
BRANCH  49  73
ATOM     73  C   UNL     1      -9.139 -11.950   9.116  1.00  0.00     0.023 A 
ATOM     74  C   UNL     1      -8.867 -12.735  10.254  1.00  0.00     0.012 A 
ATOM     75  C   UNL     1      -9.355 -10.567   9.272  1.00  0.00     0.148 A 
ATOM     76  C   UNL     1      -8.850 -12.162  11.526  1.00  0.00     0.002 A 
ATOM     77  C   UNL     1      -9.283  -9.993  10.536  1.00  0.00     0.091 A 
ATOM     78  F   UNL     1      -9.632  -9.839   8.181  1.00  0.00    -0.205 F 
ATOM     79  C   UNL     1      -9.048 -10.791  11.666  1.00  0.00     0.022 A 
BRANCH  77  80
ATOM     80  S   UNL     1      -9.402  -8.220  10.792  1.00  0.00     0.127 S 
ATOM     81  O   UNL     1     -10.735  -8.091  11.375  1.00  0.00    -0.237 OA
ATOM     82  O   UNL     1      -8.297  -7.971  11.719  1.00  0.00    -0.237 OA
ATOM     83  O   UNL     1      -9.222  -7.624   9.475  1.00  0.00    -0.744 OA
ENDBRANCH  77  80
ENDBRANCH  49  73
BRANCH  61  84
ATOM     84  C   UNL     1     -13.338 -16.773   6.316  1.00  0.00     0.023 A 
ATOM     85  C   UNL     1     -14.579 -16.136   6.512  1.00  0.00     0.012 A 
ATOM     86  C   UNL     1     -13.225 -18.157   6.555  1.00  0.00     0.148 A 
ATOM     87  C   UNL     1     -15.681 -16.858   6.968  1.00  0.00     0.002 A 
ATOM     88  C   UNL     1     -14.340 -18.880   6.961  1.00  0.00     0.091 A 
ATOM     89  F   UNL     1     -12.030 -18.741   6.380  1.00  0.00    -0.205 F 
ATOM     90  C   UNL     1     -15.565 -18.230   7.180  1.00  0.00     0.022 A 
BRANCH  88  91
ATOM     91  S   UNL     1     -14.306 -20.665   7.159  1.00  0.00     0.127 S 
ATOM     92  O   UNL     1     -14.320 -20.804   8.614  1.00  0.00    -0.237 OA
ATOM     93  O   UNL     1     -15.544 -21.076   6.495  1.00  0.00    -0.237 OA
ATOM     94  O   UNL     1     -13.090 -21.118   6.497  1.00  0.00    -0.744 OA
ENDBRANCH  88  91
ENDBRANCH  61  84
ENDBRANCH  35  36
ENDBRANCH  28  30
ENDBRANCH  27  28
ENDBRANCH  26  27
ENDBRANCH  25  26
ENDBRANCH   1  25
TORSDOF 20
