REMARK SMILES O=C(NCCOCC(=O)OCCOCCOC(=O)c1ccc(-c2c3nc(c(-c4cccc(S(=O)(=O)[O-])c4F)c4ccc([nH]4)c(-c4cccc(S(=O)(=O)[O-])c4F)c4nc(c(-c5cccc(S(=O)(=O)[O-])c5F)c5ccc2[nH]5)C=C4)C=C3)cc1)Nc1cccc(F)c1
REMARK SMILES IDX 12 1 11 2 10 3 8 4 9 5 7 6 6 7 5 8 4 9 3 10 1 11 2 12 82 13
REMARK SMILES IDX 83 16 84 17 89 18 85 19 87 20 86 21 88 22 13 23 14 24 15 25
REMARK SMILES IDX 16 26 17 27 18 28 19 29 20 30 81 31 21 32 80 33 22 34 23 35
REMARK SMILES IDX 24 36 74 37 25 38 79 39 73 40 75 41 26 42 78 43 72 44 71 45
REMARK SMILES IDX 27 47 59 48 39 49 58 50 40 51 43 52 57 53 76 54 41 55 42 56
REMARK SMILES IDX 56 58 77 59 44 60 28 61 29 62 37 63 30 64 32 65 38 66 31 67
REMARK SMILES IDX 33 68 34 69 35 70 36 71 60 72 61 73 69 74 62 75 64 76 70 77
REMARK SMILES IDX 63 78 65 79 66 80 67 81 68 82 45 83 46 84 54 85 47 86 49 87
REMARK SMILES IDX 55 88 48 89 50 90 51 91 52 92 53 93
REMARK H PARENT 3 14 82 15 75 46 43 57
REMARK Flexibility Score: inf
ROOT
ATOM      1  C   UNL     1       2.308  -2.506  -4.461  1.00  0.00     0.202 C 
ENDROOT
BRANCH   1   2
ATOM      2  C   UNL     1       1.723  -1.142  -4.832  1.00  0.00     0.261 C 
BRANCH   2   3
ATOM      3  O   UNL     1       2.593  -0.049  -4.459  1.00  0.00    -0.462 OA
BRANCH   3   4
ATOM      4  C   UNL     1       2.023   0.922  -3.697  1.00  0.00     0.332 C 
ATOM      5  O   UNL     1       0.890   0.878  -3.232  1.00  0.00    -0.250 OA
BRANCH   4   6
ATOM      6  C   UNL     1       2.927   2.158  -3.523  1.00  0.00     0.282 C 
BRANCH   6   7
ATOM      7  O   UNL     1       4.277   2.202  -3.116  1.00  0.00    -0.368 OA
BRANCH   7   8
ATOM      8  C   UNL     1       4.758   1.171  -2.265  1.00  0.00     0.182 C 
BRANCH   8   9
ATOM      9  C   UNL     1       4.358   1.279  -0.780  1.00  0.00     0.146 C 
BRANCH   9  10
ATOM     10  N   UNL     1       2.934   1.121  -0.527  1.00  0.00    -0.336 N 
ATOM     11  O   UNL     1       1.000   0.353   0.213  1.00  0.00    -0.249 OA
ATOM     12  C   UNL     1       2.224   0.286   0.272  1.00  0.00     0.319 C 
ATOM     13  N   UNL     1       2.923  -0.544   1.103  1.00  0.00    -0.308 N 
ATOM     14  H   UNL     1       2.372   1.746  -1.040  1.00  0.00     0.165 HD
ATOM     15  H   UNL     1       3.884  -0.370   1.225  1.00  0.00     0.171 HD
BRANCH  13  16
ATOM     16  C   UNL     1       2.354  -1.638   1.799  1.00  0.00     0.045 A 
ATOM     17  C   UNL     1       2.987  -2.098   2.960  1.00  0.00     0.026 A 
ATOM     18  C   UNL     1       1.198  -2.291   1.355  1.00  0.00     0.065 A 
ATOM     19  C   UNL     1       2.448  -3.166   3.690  1.00  0.00     0.005 A 
ATOM     20  C   UNL     1       0.684  -3.365   2.074  1.00  0.00     0.125 A 
ATOM     21  C   UNL     1       1.292  -3.802   3.243  1.00  0.00     0.039 A 
ATOM     22  F   UNL     1      -0.414  -3.993   1.633  1.00  0.00    -0.207 F 
ENDBRANCH  13  16
ENDBRANCH   9  10
ENDBRANCH   8   9
ENDBRANCH   7   8
ENDBRANCH   6   7
ENDBRANCH   4   6
ENDBRANCH   3   4
ENDBRANCH   2   3
ENDBRANCH   1   2
BRANCH   1  23
ATOM     23  O   UNL     1       2.250  -2.880  -3.084  1.00  0.00    -0.374 OA
BRANCH  23  24
ATOM     24  C   UNL     1       3.123  -2.189  -2.200  1.00  0.00     0.202 C 
BRANCH  24  25
ATOM     25  C   UNL     1       4.581  -2.673  -2.167  1.00  0.00     0.261 C 
BRANCH  25  26
ATOM     26  O   UNL     1       5.210  -2.628  -3.459  1.00  0.00    -0.460 OA
BRANCH  26  27
ATOM     27  C   UNL     1       5.441  -3.849  -4.007  1.00  0.00     0.338 C 
ATOM     28  O   UNL     1       5.319  -4.934  -3.464  1.00  0.00    -0.246 OA
BRANCH  27  29
ATOM     29  C   UNL     1       5.692  -3.720  -5.455  1.00  0.00     0.060 A 
ATOM     30  C   UNL     1       4.853  -4.442  -6.314  1.00  0.00     0.016 A 
ATOM     31  C   UNL     1       6.755  -2.971  -5.965  1.00  0.00     0.016 A 
ATOM     32  C   UNL     1       5.103  -4.461  -7.683  1.00  0.00     0.010 A 
ATOM     33  C   UNL     1       7.010  -3.000  -7.341  1.00  0.00     0.010 A 
ATOM     34  C   UNL     1       6.209  -3.775  -8.200  1.00  0.00    -0.014 A 
BRANCH  34  35
ATOM     35  C   UNL     1       6.605  -3.996  -9.613  1.00  0.00     0.031 A 
ATOM     36  C   UNL     1       7.730  -4.949  -9.914  1.00  0.00     0.074 A 
ATOM     37  C   UNL     1       5.953  -3.382 -10.616  1.00  0.00     0.049 A 
ATOM     38  N   UNL     1       8.243  -5.287 -11.067  1.00  0.00    -0.248 NA
ATOM     39  C   UNL     1       8.360  -5.610  -8.758  1.00  0.00     0.031 C 
ATOM     40  C   UNL     1       4.834  -2.456 -10.453  1.00  0.00     0.029 A 
ATOM     41  N   UNL     1       6.152  -3.436 -11.973  1.00  0.00    -0.354 N 
ATOM     42  C   UNL     1       9.270  -6.179 -10.779  1.00  0.00     0.074 A 
ATOM     43  C   UNL     1       9.317  -6.318  -9.339  1.00  0.00     0.031 C 
ATOM     44  C   UNL     1       4.458  -2.010 -11.664  1.00  0.00     0.029 A 
ATOM     45  C   UNL     1       5.326  -2.598 -12.683  1.00  0.00     0.049 A 
ATOM     46  H   UNL     1       6.823  -4.018 -12.397  1.00  0.00     0.167 HD
ATOM     47  C   UNL     1      10.088  -6.838 -11.634  1.00  0.00     0.034 A 
ATOM     48  C   UNL     1       5.289  -2.321 -14.002  1.00  0.00     0.034 A 
ATOM     49  C   UNL     1      10.028  -6.710 -13.065  1.00  0.00     0.049 A 
ATOM     50  C   UNL     1       6.242  -3.031 -14.930  1.00  0.00     0.074 A 
ATOM     51  C   UNL     1      10.789  -7.362 -14.019  1.00  0.00     0.029 A 
ATOM     52  N   UNL     1       9.168  -5.864 -13.749  1.00  0.00    -0.354 N 
ATOM     53  N   UNL     1       7.135  -3.950 -14.652  1.00  0.00    -0.248 NA
ATOM     54  C   UNL     1       6.163  -2.685 -16.357  1.00  0.00     0.031 C 
ATOM     55  C   UNL     1      10.409  -6.887 -15.279  1.00  0.00     0.029 A 
ATOM     56  C   UNL     1       9.389  -5.964 -15.112  1.00  0.00     0.049 A 
ATOM     57  H   UNL     1       8.498  -5.279 -13.327  1.00  0.00     0.167 HD
ATOM     58  C   UNL     1       7.697  -4.319 -15.870  1.00  0.00     0.074 A 
ATOM     59  C   UNL     1       7.031  -3.535 -16.890  1.00  0.00     0.031 C 
ATOM     60  C   UNL     1       8.683  -5.216 -16.121  1.00  0.00     0.034 A 
BRANCH  47  61
ATOM     61  C   UNL     1      11.107  -7.774 -11.041  1.00  0.00     0.023 A 
ATOM     62  C   UNL     1      10.689  -8.999 -10.482  1.00  0.00     0.012 A 
ATOM     63  C   UNL     1      12.481  -7.464 -11.076  1.00  0.00     0.148 A 
ATOM     64  C   UNL     1      11.617  -9.885  -9.936  1.00  0.00     0.002 A 
ATOM     65  C   UNL     1      13.404  -8.372 -10.569  1.00  0.00     0.091 A 
ATOM     66  F   UNL     1      12.858  -6.285 -11.590  1.00  0.00    -0.205 F 
ATOM     67  C   UNL     1      12.974  -9.576  -9.988  1.00  0.00     0.022 A 
BRANCH  65  68
ATOM     68  S   UNL     1      15.177  -8.098 -10.657  1.00  0.00     0.127 S 
ATOM     69  O   UNL     1      15.502  -7.817  -9.259  1.00  0.00    -0.237 OA
ATOM     70  O   UNL     1      15.665  -9.386 -11.149  1.00  0.00    -0.237 OA
ATOM     71  O   UNL     1      15.366  -6.986 -11.578  1.00  0.00    -0.744 OA
ENDBRANCH  65  68
ENDBRANCH  47  61
BRANCH  48  72
ATOM     72  C   UNL     1       4.293  -1.348 -14.532  1.00  0.00     0.023 A 
ATOM     73  C   UNL     1       3.240  -1.804 -15.348  1.00  0.00     0.012 A 
ATOM     74  C   UNL     1       4.373   0.023 -14.219  1.00  0.00     0.148 A 
ATOM     75  C   UNL     1       2.301  -0.910 -15.865  1.00  0.00     0.002 A 
ATOM     76  C   UNL     1       3.404   0.900 -14.690  1.00  0.00     0.091 A 
ATOM     77  F   UNL     1       5.394   0.441 -13.456  1.00  0.00    -0.205 F 
ATOM     78  C   UNL     1       2.377   0.439 -15.527  1.00  0.00     0.022 A 
BRANCH  76  79
ATOM     79  S   UNL     1       3.349   2.629 -14.204  1.00  0.00     0.127 S 
ATOM     80  O   UNL     1       3.695   3.302 -15.453  1.00  0.00    -0.237 OA
ATOM     81  O   UNL     1       1.955   2.779 -13.786  1.00  0.00    -0.237 OA
ATOM     82  O   UNL     1       4.317   2.765 -13.124  1.00  0.00    -0.744 OA
ENDBRANCH  76  79
ENDBRANCH  48  72
BRANCH  60  83
ATOM     83  C   UNL     1       9.086  -5.434 -17.557  1.00  0.00     0.023 A 
ATOM     84  C   UNL     1       9.826  -4.446 -18.236  1.00  0.00     0.012 A 
ATOM     85  C   UNL     1       8.802  -6.653 -18.205  1.00  0.00     0.148 A 
ATOM     86  C   UNL     1      10.251  -4.656 -19.548  1.00  0.00     0.002 A 
ATOM     87  C   UNL     1       9.272  -6.875 -19.494  1.00  0.00     0.091 A 
ATOM     88  F   UNL     1       8.083  -7.574 -17.547  1.00  0.00    -0.205 F 
ATOM     89  C   UNL     1       9.985  -5.873 -20.171  1.00  0.00     0.022 A 
BRANCH  87  90
ATOM     90  S   UNL     1       9.063  -8.445 -20.341  1.00  0.00     0.127 S 
ATOM     91  O   UNL     1       8.088  -8.098 -21.374  1.00  0.00    -0.237 OA
ATOM     92  O   UNL     1      10.412  -8.709 -20.841  1.00  0.00    -0.237 OA
ATOM     93  O   UNL     1       8.595  -9.387 -19.334  1.00  0.00    -0.744 OA
ENDBRANCH  87  90
ENDBRANCH  60  83
ENDBRANCH  34  35
ENDBRANCH  27  29
ENDBRANCH  26  27
ENDBRANCH  25  26
ENDBRANCH  24  25
ENDBRANCH  23  24
ENDBRANCH   1  23
TORSDOF 22
