REMARK SMILES CSc1nc(O)nc(C)c1C(=O)N1C[C@@H](O)C[C@@H]1C(=O)OCCOCCOC(=O)c1ccc(-c2c3nc(c(-c4cccc(S(=O)(=O)[O-])c4F)c4ccc([nH]4)c(-c4cccc(S(=O)(=O)[O-])c4F)c4nc(c(-c5cccc(S(=O)(=O)[O-])c5F)c5ccc2[nH]5)C=C4)C=C3)cc1
REMARK SMILES IDX 24 1 23 2 22 3 21 4 19 5 20 6 18 7 13 8 14 9 15 10 17 11
REMARK SMILES IDX 11 12 12 13 10 14 3 15 4 16 5 17 8 18 7 19 9 20 2 21 1 22
REMARK SMILES IDX 6 23 16 25 25 27 26 28 27 29 28 30 29 31 30 32 31 33 92 34
REMARK SMILES IDX 32 35 91 36 33 37 34 38 35 39 85 40 36 41 90 42 84 43 86 44
REMARK SMILES IDX 37 45 89 46 83 47 82 48 38 50 70 51 50 52 69 53 51 54 54 55
REMARK SMILES IDX 68 56 87 57 52 58 53 59 67 61 88 62 55 63 39 64 40 65 48 66
REMARK SMILES IDX 41 67 43 68 49 69 42 70 44 71 45 72 46 73 47 74 71 75 72 76
REMARK SMILES IDX 80 77 73 78 75 79 81 80 74 81 76 82 77 83 78 84 79 85 56 86
REMARK SMILES IDX 57 87 65 88 58 89 60 90 66 91 59 92 61 93 62 94 63 95 64 96
REMARK H PARENT 6 24 16 26 86 49 54 60
REMARK Flexibility Score: inf
ROOT
ATOM      1  O   UNL     1       4.401  -3.249   2.223  1.00  0.00    -0.374 OA
ENDROOT
BRANCH   1   2
ATOM      2  C   UNL     1       4.557  -4.614   2.595  1.00  0.00     0.202 C 
BRANCH   2   3
ATOM      3  C   UNL     1       3.415  -5.263   3.384  1.00  0.00     0.261 C 
BRANCH   3   4
ATOM      4  O   UNL     1       2.108  -5.160   2.798  1.00  0.00    -0.462 OA
BRANCH   4   5
ATOM      5  C   UNL     1       1.325  -4.160   3.301  1.00  0.00     0.329 C 
ATOM      6  O   UNL     1       1.736  -3.243   4.004  1.00  0.00    -0.250 OA
BRANCH   5   7
ATOM      7  C   UNL     1      -0.139  -4.326   2.871  1.00  0.00     0.198 C 
ATOM      8  N   UNL     1      -0.475  -3.755   1.546  1.00  0.00    -0.322 N 
ATOM      9  C   UNL     1      -1.677  -2.946   1.685  1.00  0.00     0.152 C 
ATOM     10  C   UNL     1      -1.520  -2.354   3.079  1.00  0.00     0.136 C 
ATOM     11  C   UNL     1      -1.058  -3.581   3.864  1.00  0.00     0.071 C 
BRANCH   8  12
ATOM     12  C   UNL     1      -0.238  -4.502   0.404  1.00  0.00     0.259 C 
ATOM     13  O   UNL     1      -0.346  -5.723   0.490  1.00  0.00    -0.269 OA
BRANCH  12  14
ATOM     14  C   UNL     1       0.206  -3.867  -0.896  1.00  0.00     0.093 A 
ATOM     15  C   UNL     1       0.538  -2.520  -1.121  1.00  0.00     0.116 A 
ATOM     16  N   UNL     1       0.995  -2.062  -2.314  1.00  0.00    -0.188 NA
ATOM     17  C   UNL     1       1.169  -2.952  -3.274  1.00  0.00     0.315 A 
ATOM     18  C   UNL     1       0.442  -4.701  -2.011  1.00  0.00     0.058 A 
ATOM     19  N   UNL     1       0.926  -4.246  -3.198  1.00  0.00    -0.200 NA
ATOM     20  C   UNL     1       0.215  -6.188  -2.035  1.00  0.00     0.068 C 
BRANCH  15  21
ATOM     21  S   UNL     1       0.504  -1.202   0.099  1.00  0.00    -0.109 SA
ATOM     22  C   UNL     1       1.402   0.131  -0.741  1.00  0.00     0.092 C 
ENDBRANCH  15  21
BRANCH  17  23
ATOM     23  O   UNL     1       1.722  -2.530  -4.438  1.00  0.00    -0.479 OA
ATOM     24  H   UNL     1       1.921  -1.623  -4.561  1.00  0.00     0.297 HD
ENDBRANCH  17  23
ENDBRANCH  12  14
ENDBRANCH   8  12
BRANCH  10  25
ATOM     25  O   UNL     1      -2.713  -1.794   3.595  1.00  0.00    -0.391 OA
ATOM     26  H   UNL     1      -3.408  -2.470   3.608  1.00  0.00     0.211 HD
ENDBRANCH  10  25
ENDBRANCH   5   7
ENDBRANCH   4   5
ENDBRANCH   3   4
ENDBRANCH   2   3
ENDBRANCH   1   2
BRANCH   1  27
ATOM     27  C   UNL     1       3.547  -2.972   1.111  1.00  0.00     0.202 C 
BRANCH  27  28
ATOM     28  C   UNL     1       3.962  -3.607  -0.216  1.00  0.00     0.261 C 
BRANCH  28  29
ATOM     29  O   UNL     1       3.684  -5.019  -0.199  1.00  0.00    -0.460 OA
BRANCH  29  30
ATOM     30  C   UNL     1       4.454  -5.726  -1.052  1.00  0.00     0.338 C 
ATOM     31  O   UNL     1       5.159  -5.275  -1.951  1.00  0.00    -0.246 OA
BRANCH  30  32
ATOM     32  C   UNL     1       4.468  -7.142  -0.666  1.00  0.00     0.060 A 
ATOM     33  C   UNL     1       5.468  -7.589   0.206  1.00  0.00     0.016 A 
ATOM     34  C   UNL     1       3.619  -8.048  -1.303  1.00  0.00     0.016 A 
ATOM     35  C   UNL     1       5.658  -8.957   0.399  1.00  0.00     0.010 A 
ATOM     36  C   UNL     1       3.807  -9.418  -1.104  1.00  0.00     0.010 A 
ATOM     37  C   UNL     1       4.861  -9.877  -0.296  1.00  0.00    -0.014 A 
BRANCH  37  38
ATOM     38  C   UNL     1       5.258 -11.305  -0.333  1.00  0.00     0.031 A 
ATOM     39  C   UNL     1       6.087 -11.796  -1.490  1.00  0.00     0.074 A 
ATOM     40  C   UNL     1       4.905 -12.147   0.654  1.00  0.00     0.049 A 
ATOM     41  N   UNL     1       6.560 -12.992  -1.716  1.00  0.00    -0.248 NA
ATOM     42  C   UNL     1       6.432 -10.807  -2.527  1.00  0.00     0.031 C 
ATOM     43  C   UNL     1       4.108 -11.788   1.825  1.00  0.00     0.029 A 
ATOM     44  N   UNL     1       5.165 -13.484   0.817  1.00  0.00    -0.354 N 
ATOM     45  C   UNL     1       7.247 -12.905  -2.921  1.00  0.00     0.074 A 
ATOM     46  C   UNL     1       7.120 -11.543  -3.388  1.00  0.00     0.031 C 
ATOM     47  C   UNL     1       3.929 -12.885   2.581  1.00  0.00     0.029 A 
ATOM     48  C   UNL     1       4.590 -14.023   1.942  1.00  0.00     0.049 A 
ATOM     49  H   UNL     1       5.712 -14.008   0.188  1.00  0.00     0.167 HD
ATOM     50  C   UNL     1       7.944 -13.867  -3.569  1.00  0.00     0.034 A 
ATOM     51  C   UNL     1       4.592 -15.290   2.402  1.00  0.00     0.034 A 
ATOM     52  C   UNL     1       8.091 -15.215  -3.096  1.00  0.00     0.049 A 
ATOM     53  C   UNL     1       5.353 -16.350   1.651  1.00  0.00     0.074 A 
ATOM     54  C   UNL     1       8.808 -16.250  -3.669  1.00  0.00     0.029 A 
ATOM     55  N   UNL     1       7.510 -15.714  -1.943  1.00  0.00    -0.354 N 
ATOM     56  N   UNL     1       6.078 -16.227   0.566  1.00  0.00    -0.248 NA
ATOM     57  C   UNL     1       5.319 -17.715   2.199  1.00  0.00     0.031 C 
ATOM     58  C   UNL     1       8.654 -17.382  -2.862  1.00  0.00     0.029 A 
ATOM     59  C   UNL     1       7.847 -17.046  -1.787  1.00  0.00     0.049 A 
ATOM     60  H   UNL     1       6.941 -15.199  -1.327  1.00  0.00     0.167 HD
ATOM     61  C   UNL     1       6.604 -17.489   0.312  1.00  0.00     0.074 A 
ATOM     62  C   UNL     1       6.124 -18.362   1.364  1.00  0.00     0.031 C 
ATOM     63  C   UNL     1       7.400 -17.889  -0.708  1.00  0.00     0.034 A 
BRANCH  50  64
ATOM     64  C   UNL     1       8.654 -13.486  -4.836  1.00  0.00     0.023 A 
ATOM     65  C   UNL     1       9.892 -12.819  -4.750  1.00  0.00     0.012 A 
ATOM     66  C   UNL     1       8.147 -13.855  -6.096  1.00  0.00     0.148 A 
ATOM     67  C   UNL     1      10.614 -12.516  -5.904  1.00  0.00     0.002 A 
ATOM     68  C   UNL     1       8.884 -13.573  -7.240  1.00  0.00     0.091 A 
ATOM     69  F   UNL     1       6.959 -14.474  -6.149  1.00  0.00    -0.205 F 
ATOM     70  C   UNL     1      10.115 -12.901  -7.146  1.00  0.00     0.022 A 
BRANCH  68  71
ATOM     71  S   UNL     1       8.358 -14.064  -8.885  1.00  0.00     0.127 S 
ATOM     72  O   UNL     1       8.138 -12.767  -9.524  1.00  0.00    -0.237 OA
ATOM     73  O   UNL     1       9.526 -14.795  -9.375  1.00  0.00    -0.237 OA
ATOM     74  O   UNL     1       7.161 -14.873  -8.702  1.00  0.00    -0.744 OA
ENDBRANCH  68  71
ENDBRANCH  50  64
BRANCH  51  75
ATOM     75  C   UNL     1       3.889 -15.603   3.675  1.00  0.00     0.023 A 
ATOM     76  C   UNL     1       4.643 -15.806   4.846  1.00  0.00     0.012 A 
ATOM     77  C   UNL     1       2.483 -15.631   3.743  1.00  0.00     0.148 A 
ATOM     78  C   UNL     1       4.007 -16.037   6.066  1.00  0.00     0.002 A 
ATOM     79  C   UNL     1       1.855 -15.823   4.968  1.00  0.00     0.091 A 
ATOM     80  F   UNL     1       1.791 -15.442   2.611  1.00  0.00    -0.205 F 
ATOM     81  C   UNL     1       2.615 -16.035   6.129  1.00  0.00     0.022 A 
BRANCH  79  82
ATOM     82  S   UNL     1       0.072 -15.736   5.170  1.00  0.00     0.127 S 
ATOM     83  O   UNL     1      -0.245 -17.093   5.610  1.00  0.00    -0.237 OA
ATOM     84  O   UNL     1      -0.059 -14.707   6.202  1.00  0.00    -0.237 OA
ATOM     85  O   UNL     1      -0.458 -15.361   3.867  1.00  0.00    -0.744 OA
ENDBRANCH  79  82
ENDBRANCH  51  75
BRANCH  63  86
ATOM     86  C   UNL     1       7.823 -19.331  -0.758  1.00  0.00     0.023 A 
ATOM     87  C   UNL     1       6.931 -20.290  -1.274  1.00  0.00     0.012 A 
ATOM     88  C   UNL     1       9.142 -19.707  -0.436  1.00  0.00     0.148 A 
ATOM     89  C   UNL     1       7.345 -21.607  -1.466  1.00  0.00     0.002 A 
ATOM     90  C   UNL     1       9.557 -21.014  -0.660  1.00  0.00     0.091 A 
ATOM     91  F   UNL     1       9.968 -18.774   0.059  1.00  0.00    -0.205 F 
ATOM     92  C   UNL     1       8.659 -21.966  -1.172  1.00  0.00     0.022 A 
BRANCH  90  93
ATOM     93  S   UNL     1      11.249 -21.554  -0.388  1.00  0.00     0.127 S 
ATOM     94  O   UNL     1      11.089 -22.473   0.739  1.00  0.00    -0.237 OA
ATOM     95  O   UNL     1      11.576 -22.199  -1.659  1.00  0.00    -0.237 OA
ATOM     96  O   UNL     1      12.017 -20.350  -0.101  1.00  0.00    -0.744 OA
ENDBRANCH  90  93
ENDBRANCH  63  86
ENDBRANCH  37  38
ENDBRANCH  30  32
ENDBRANCH  29  30
ENDBRANCH  28  29
ENDBRANCH  27  28
ENDBRANCH   1  27
TORSDOF 22
