REMARK SMILES CCOc1cncc(N(CC(=O)OCCOCCOC(=O)c2ccc(-c3c4nc(c(-c5cccc(S(=O)(=O)[O-])c5F)c5ccc([nH]5)c(-c5cccc(S(=O)(=O)[O-])c5F)c5nc(c(-c6cccc(S(=O)(=O)[O-])c6F)c6ccc3[nH]6)C=C5)C=C4)cc2)C(C)(C)C)n1
REMARK SMILES IDX 15 1 14 2 13 3 11 4 12 5 10 6 9 7 8 8 4 9 5 10 89 11 6 12
REMARK SMILES IDX 7 13 3 14 2 15 1 16 85 17 86 18 87 19 88 20 16 21 17 22
REMARK SMILES IDX 18 23 19 24 20 25 21 26 22 27 23 28 84 29 24 30 83 31 25 32
REMARK SMILES IDX 26 33 27 34 77 35 28 36 82 37 76 38 78 39 29 40 81 41 75 42
REMARK SMILES IDX 74 43 30 45 62 46 42 47 61 48 43 49 46 50 60 51 79 52 44 53
REMARK SMILES IDX 45 54 59 56 80 57 47 58 31 59 32 60 40 61 33 62 35 63 41 64
REMARK SMILES IDX 34 65 36 66 37 67 38 68 39 69 63 70 64 71 72 72 65 73 67 74
REMARK SMILES IDX 73 75 66 76 68 77 69 78 70 79 71 80 48 81 49 82 57 83 50 84
REMARK SMILES IDX 52 85 58 86 51 87 53 88 54 89 55 90 56 91
REMARK H PARENT 78 44 46 55
REMARK Flexibility Score: inf
ROOT
ATOM      1  C   UNL     1       6.513  -8.643   0.952  1.00  0.00     0.202 C 
ENDROOT
BRANCH   1   2
ATOM      2  C   UNL     1       7.062  -7.214   0.827  1.00  0.00     0.261 C 
BRANCH   2   3
ATOM      3  O   UNL     1       6.329  -6.398  -0.120  1.00  0.00    -0.462 OA
BRANCH   3   4
ATOM      4  C   UNL     1       7.094  -5.604  -0.916  1.00  0.00     0.325 C 
ATOM      5  O   UNL     1       8.324  -5.580  -0.882  1.00  0.00    -0.250 OA
BRANCH   4   6
ATOM      6  C   UNL     1       6.337  -4.755  -1.944  1.00  0.00     0.241 C 
BRANCH   6   7
ATOM      7  N   UNL     1       4.874  -4.602  -1.785  1.00  0.00    -0.339 N 
BRANCH   7   8
ATOM      8  C   UNL     1       4.400  -3.612  -0.909  1.00  0.00     0.152 A 
ATOM      9  C   UNL     1       2.650  -2.333  -0.067  1.00  0.00     0.234 A 
ATOM     10  C   UNL     1       3.495  -1.660   0.791  1.00  0.00     0.179 A 
ATOM     11  N   UNL     1       3.083  -3.297  -0.913  1.00  0.00    -0.193 NA
ATOM     12  N   UNL     1       4.818  -1.902   0.810  1.00  0.00    -0.255 NA
ATOM     13  C   UNL     1       5.228  -2.894  -0.026  1.00  0.00     0.158 A 
BRANCH   9  14
ATOM     14  O   UNL     1       1.296  -2.125  -0.004  1.00  0.00    -0.477 OA
BRANCH  14  15
ATOM     15  C   UNL     1       0.878  -1.109  -0.916  1.00  0.00     0.228 C 
ATOM     16  C   UNL     1       0.784   0.232  -0.204  1.00  0.00     0.049 C 
ENDBRANCH  14  15
ENDBRANCH   9  14
ENDBRANCH   7   8
BRANCH   7  17
ATOM     17  C   UNL     1       3.911  -5.334  -2.677  1.00  0.00     0.034 C 
ATOM     18  C   UNL     1       2.881  -6.109  -1.827  1.00  0.00     0.034 C 
ATOM     19  C   UNL     1       3.211  -4.372  -3.662  1.00  0.00     0.034 C 
ATOM     20  C   UNL     1       4.610  -6.374  -3.586  1.00  0.00     0.034 C 
ENDBRANCH   7  17
ENDBRANCH   6   7
ENDBRANCH   4   6
ENDBRANCH   3   4
ENDBRANCH   2   3
ENDBRANCH   1   2
BRANCH   1  21
ATOM     21  O   UNL     1       6.705  -9.499  -0.180  1.00  0.00    -0.374 OA
BRANCH  21  22
ATOM     22  C   UNL     1       5.954  -9.175  -1.346  1.00  0.00     0.202 C 
BRANCH  22  23
ATOM     23  C   UNL     1       4.480  -9.597  -1.340  1.00  0.00     0.261 C 
BRANCH  23  24
ATOM     24  O   UNL     1       3.771  -9.075  -0.206  1.00  0.00    -0.460 OA
BRANCH  24  25
ATOM     25  C   UNL     1       3.210 -10.014   0.589  1.00  0.00     0.338 C 
ATOM     26  O   UNL     1       3.087 -11.208   0.341  1.00  0.00    -0.246 OA
BRANCH  25  27
ATOM     27  C   UNL     1       2.912  -9.454   1.919  1.00  0.00     0.060 A 
ATOM     28  C   UNL     1       3.472 -10.112   3.021  1.00  0.00     0.016 A 
ATOM     29  C   UNL     1       2.048  -8.371   2.102  1.00  0.00     0.016 A 
ATOM     30  C   UNL     1       3.111  -9.738   4.312  1.00  0.00     0.010 A 
ATOM     31  C   UNL     1       1.684  -8.000   3.403  1.00  0.00     0.010 A 
ATOM     32  C   UNL     1       2.177  -8.713   4.511  1.00  0.00    -0.014 A 
BRANCH  32  33
ATOM     33  C   UNL     1       1.621  -8.512   5.873  1.00  0.00     0.031 A 
ATOM     34  C   UNL     1       0.301  -9.145   6.225  1.00  0.00     0.074 A 
ATOM     35  C   UNL     1       2.309  -7.827   6.803  1.00  0.00     0.049 A 
ATOM     36  N   UNL     1      -0.314  -9.188   7.378  1.00  0.00    -0.248 NA
ATOM     37  C   UNL     1      -0.421  -9.820   5.134  1.00  0.00     0.031 C 
ATOM     38  C   UNL     1       3.590  -7.157   6.582  1.00  0.00     0.029 A 
ATOM     39  N   UNL     1       2.019  -7.574   8.121  1.00  0.00    -0.354 N 
ATOM     40  C   UNL     1      -1.497  -9.881   7.152  1.00  0.00     0.074 A 
ATOM     41  C   UNL     1      -1.526 -10.223   5.746  1.00  0.00     0.031 C 
ATOM     42  C   UNL     1       3.968  -6.554   7.722  1.00  0.00     0.029 A 
ATOM     43  C   UNL     1       2.957  -6.791   8.751  1.00  0.00     0.049 A 
ATOM     44  H   UNL     1       1.216  -7.922   8.572  1.00  0.00     0.167 HD
ATOM     45  C   UNL     1      -2.463 -10.223   8.037  1.00  0.00     0.034 A 
ATOM     46  C   UNL     1       2.993  -6.318  10.014  1.00  0.00     0.034 A 
ATOM     47  C   UNL     1      -2.424  -9.904   9.438  1.00  0.00     0.049 A 
ATOM     48  C   UNL     1       1.906  -6.714  10.980  1.00  0.00     0.074 A 
ATOM     49  C   UNL     1      -3.326 -10.257  10.427  1.00  0.00     0.029 A 
ATOM     50  N   UNL     1      -1.438  -9.145  10.048  1.00  0.00    -0.354 N 
ATOM     51  N   UNL     1       0.875  -7.501  10.786  1.00  0.00    -0.248 NA
ATOM     52  C   UNL     1       2.009  -6.191  12.351  1.00  0.00     0.031 C 
ATOM     53  C   UNL     1      -2.895  -9.694  11.632  1.00  0.00     0.029 A 
ATOM     54  C   UNL     1      -1.716  -9.005  11.397  1.00  0.00     0.049 A 
ATOM     55  H   UNL     1      -0.656  -8.761   9.590  1.00  0.00     0.167 HD
ATOM     56  C   UNL     1       0.225  -7.591  12.012  1.00  0.00     0.074 A 
ATOM     57  C   UNL     1       0.993  -6.798  12.950  1.00  0.00     0.031 C 
ATOM     58  C   UNL     1      -0.913  -8.257  12.331  1.00  0.00     0.034 A 
BRANCH  45  59
ATOM     59  C   UNL     1      -3.630 -11.024   7.523  1.00  0.00     0.023 A 
ATOM     60  C   UNL     1      -3.456 -12.391   7.229  1.00  0.00     0.012 A 
ATOM     61  C   UNL     1      -4.906 -10.443   7.386  1.00  0.00     0.148 A 
ATOM     62  C   UNL     1      -4.527 -13.163   6.781  1.00  0.00     0.002 A 
ATOM     63  C   UNL     1      -5.977 -11.227   6.975  1.00  0.00     0.091 A 
ATOM     64  F   UNL     1      -5.045  -9.135   7.647  1.00  0.00    -0.205 F 
ATOM     65  C   UNL     1      -5.788 -12.584   6.664  1.00  0.00     0.022 A 
BRANCH  63  66
ATOM     66  S   UNL     1      -7.653 -10.590   6.858  1.00  0.00     0.127 S 
ATOM     67  O   UNL     1      -7.837 -10.506   5.410  1.00  0.00    -0.237 OA
ATOM     68  O   UNL     1      -8.431 -11.644   7.510  1.00  0.00    -0.237 OA
ATOM     69  O   UNL     1      -7.647  -9.317   7.565  1.00  0.00    -0.744 OA
ENDBRANCH  63  66
ENDBRANCH  45  59
BRANCH  46  70
ATOM     70  C   UNL     1       4.130  -5.460  10.451  1.00  0.00     0.023 A 
ATOM     71  C   UNL     1       5.072  -5.964  11.368  1.00  0.00     0.012 A 
ATOM     72  C   UNL     1       4.296  -4.157   9.943  1.00  0.00     0.148 A 
ATOM     73  C   UNL     1       6.146  -5.178  11.790  1.00  0.00     0.002 A 
ATOM     74  C   UNL     1       5.396  -3.398  10.326  1.00  0.00     0.091 A 
ATOM     75  F   UNL     1       3.376  -3.685   9.090  1.00  0.00    -0.205 F 
ATOM     76  C   UNL     1       6.314  -3.901  11.261  1.00  0.00     0.022 A 
BRANCH  74  77
ATOM     77  S   UNL     1       5.756  -1.797   9.595  1.00  0.00     0.127 S 
ATOM     78  O   UNL     1       5.382  -0.885  10.672  1.00  0.00    -0.237 OA
ATOM     79  O   UNL     1       7.194  -1.894   9.340  1.00  0.00    -0.237 OA
ATOM     80  O   UNL     1       4.940  -1.729   8.390  1.00  0.00    -0.744 OA
ENDBRANCH  74  77
ENDBRANCH  46  70
BRANCH  58  81
ATOM     81  C   UNL     1      -1.397  -8.178  13.755  1.00  0.00     0.023 A 
ATOM     82  C   UNL     1      -1.993  -6.990  14.222  1.00  0.00     0.012 A 
ATOM     83  C   UNL     1      -1.343  -9.303  14.601  1.00  0.00     0.148 A 
ATOM     84  C   UNL     1      -2.502  -6.913  15.518  1.00  0.00     0.002 A 
ATOM     85  C   UNL     1      -1.892  -9.233  15.877  1.00  0.00     0.091 A 
ATOM     86  F   UNL     1      -0.755 -10.420  14.146  1.00  0.00    -0.205 F 
ATOM     87  C   UNL     1      -2.462  -8.037  16.340  1.00  0.00     0.022 A 
BRANCH  85  88
ATOM     88  S   UNL     1      -1.968 -10.660  16.967  1.00  0.00     0.127 S 
ATOM     89  O   UNL     1      -0.896 -10.367  17.917  1.00  0.00    -0.237 OA
ATOM     90  O   UNL     1      -3.318 -10.559  17.523  1.00  0.00    -0.237 OA
ATOM     91  O   UNL     1      -1.754 -11.823  16.116  1.00  0.00    -0.744 OA
ENDBRANCH  85  88
ENDBRANCH  58  81
ENDBRANCH  32  33
ENDBRANCH  25  27
ENDBRANCH  24  25
ENDBRANCH  23  24
ENDBRANCH  22  23
ENDBRANCH  21  22
ENDBRANCH   1  21
TORSDOF 22
