REMARK SMILES CCc1ccsc1C(=O)N(CC(=O)OCCOCCOC(=O)c1ccc(-c2c3nc(c(-c4cccc(S(=O)(=O)[O-])c4F)c4ccc([nH]4)c(-c4cccc(S(=O)(=O)[O-])c4F)c4nc(c(-c5cccc(S(=O)(=O)[O-])c5F)c5ccc2[nH]5)C=C4)C=C3)cc1)c1ccccc1N
REMARK SMILES IDX 16 1 15 2 14 3 12 4 13 5 11 6 10 7 8 8 9 9 7 10 3 11 4 12
REMARK SMILES IDX 5 13 6 14 2 15 1 16 86 17 87 18 91 19 88 20 90 21 89 22
REMARK SMILES IDX 92 23 17 26 18 27 19 28 20 29 21 30 22 31 23 32 24 33 85 34
REMARK SMILES IDX 25 35 84 36 26 37 27 38 28 39 78 40 29 41 83 42 77 43 79 44
REMARK SMILES IDX 30 45 82 46 76 47 75 48 31 50 63 51 43 52 62 53 44 54 47 55
REMARK SMILES IDX 61 56 80 57 45 58 46 59 60 61 81 62 48 63 32 64 33 65 41 66
REMARK SMILES IDX 34 67 36 68 42 69 35 70 37 71 38 72 39 73 40 74 64 75 65 76
REMARK SMILES IDX 73 77 66 78 68 79 74 80 67 81 69 82 70 83 71 84 72 85 49 86
REMARK SMILES IDX 50 87 58 88 51 89 53 90 59 91 52 92 54 93 55 94 56 95 57 96
REMARK H PARENT 92 24 92 25 79 49 47 60
REMARK Flexibility Score: inf
ROOT
ATOM      1  C   UNL     1       4.186   3.181   1.101  1.00  0.00     0.202 C 
ENDROOT
BRANCH   1   2
ATOM      2  C   UNL     1       3.680   1.807   0.624  1.00  0.00     0.261 C 
BRANCH   2   3
ATOM      3  O   UNL     1       3.291   1.710  -0.762  1.00  0.00    -0.462 OA
BRANCH   3   4
ATOM      4  C   UNL     1       1.954   1.829  -0.979  1.00  0.00     0.326 C 
ATOM      5  O   UNL     1       1.146   2.153  -0.109  1.00  0.00    -0.250 OA
BRANCH   4   6
ATOM      6  C   UNL     1       1.514   1.729  -2.432  1.00  0.00     0.248 C 
BRANCH   6   7
ATOM      7  N   UNL     1       2.254   1.074  -3.509  1.00  0.00    -0.294 N 
BRANCH   7   8
ATOM      8  C   UNL     1       2.090  -0.263  -3.949  1.00  0.00     0.269 C 
ATOM      9  O   UNL     1       2.445  -0.503  -5.115  1.00  0.00    -0.268 OA
BRANCH   8  10
ATOM     10  C   UNL     1       1.572  -1.409  -3.146  1.00  0.00     0.096 A 
ATOM     11  C   UNL     1       0.655  -1.720  -2.128  1.00  0.00    -0.025 A 
ATOM     12  C   UNL     1       0.553  -3.157  -1.924  1.00  0.00     0.016 A 
ATOM     13  C   UNL     1       1.367  -3.903  -2.724  1.00  0.00     0.066 A 
ATOM     14  S   UNL     1       2.310  -2.920  -3.713  1.00  0.00    -0.138 S 
BRANCH  11  15
ATOM     15  C   UNL     1      -0.251  -0.890  -1.264  1.00  0.00     0.034 C 
ATOM     16  C   UNL     1       0.300  -0.749   0.150  1.00  0.00     0.009 C 
ENDBRANCH  11  15
ENDBRANCH   8  10
ENDBRANCH   7   8
BRANCH   7  17
ATOM     17  C   UNL     1       2.827   2.043  -4.427  1.00  0.00     0.068 A 
ATOM     18  C   UNL     1       3.880   2.839  -3.957  1.00  0.00     0.028 A 
ATOM     19  C   UNL     1       2.267   2.322  -5.699  1.00  0.00     0.056 A 
ATOM     20  C   UNL     1       4.339   3.932  -4.694  1.00  0.00     0.002 A 
ATOM     21  C   UNL     1       2.694   3.466  -6.390  1.00  0.00     0.028 A 
ATOM     22  C   UNL     1       3.728   4.261  -5.898  1.00  0.00     0.002 A 
BRANCH  19  23
ATOM     23  N   UNL     1       1.168   1.613  -6.211  1.00  0.00    -0.397 N 
ATOM     24  H   UNL     1       0.844   0.806  -5.749  1.00  0.00     0.156 HD
ATOM     25  H   UNL     1       0.722   1.922  -7.033  1.00  0.00     0.156 HD
ENDBRANCH  19  23
ENDBRANCH   7  17
ENDBRANCH   6   7
ENDBRANCH   4   6
ENDBRANCH   3   4
ENDBRANCH   2   3
ENDBRANCH   1   2
BRANCH   1  26
ATOM     26  O   UNL     1       3.374   4.321   0.835  1.00  0.00    -0.374 OA
BRANCH  26  27
ATOM     27  C   UNL     1       3.353   4.831  -0.499  1.00  0.00     0.202 C 
BRANCH  27  28
ATOM     28  C   UNL     1       4.708   5.206  -1.104  1.00  0.00     0.261 C 
BRANCH  28  29
ATOM     29  O   UNL     1       5.490   4.022  -1.341  1.00  0.00    -0.460 OA
BRANCH  29  30
ATOM     30  C   UNL     1       6.822   4.235  -1.368  1.00  0.00     0.338 C 
ATOM     31  O   UNL     1       7.386   5.321  -1.430  1.00  0.00    -0.246 OA
BRANCH  30  32
ATOM     32  C   UNL     1       7.528   2.969  -1.116  1.00  0.00     0.060 A 
ATOM     33  C   UNL     1       8.057   2.763   0.163  1.00  0.00     0.016 A 
ATOM     34  C   UNL     1       7.777   2.057  -2.143  1.00  0.00     0.016 A 
ATOM     35  C   UNL     1       8.906   1.681   0.398  1.00  0.00     0.010 A 
ATOM     36  C   UNL     1       8.628   0.969  -1.901  1.00  0.00     0.010 A 
ATOM     37  C   UNL     1       9.240   0.805  -0.645  1.00  0.00    -0.014 A 
BRANCH  37  38
ATOM     38  C   UNL     1      10.346  -0.169  -0.441  1.00  0.00     0.031 A 
ATOM     39  C   UNL     1      11.716   0.139  -0.991  1.00  0.00     0.074 A 
ATOM     40  C   UNL     1      10.157  -1.298   0.268  1.00  0.00     0.049 A 
ATOM     41  N   UNL     1      12.835  -0.523  -0.838  1.00  0.00    -0.248 NA
ATOM     42  C   UNL     1      11.846   1.350  -1.818  1.00  0.00     0.031 C 
ATOM     43  C   UNL     1       8.883  -1.735   0.837  1.00  0.00     0.029 A 
ATOM     44  N   UNL     1      11.040  -2.291   0.618  1.00  0.00    -0.354 N 
ATOM     45  C   UNL     1      13.794   0.175  -1.564  1.00  0.00     0.074 A 
ATOM     46  C   UNL     1      13.123   1.305  -2.170  1.00  0.00     0.031 C 
ATOM     47  C   UNL     1       9.063  -2.920   1.447  1.00  0.00     0.029 A 
ATOM     48  C   UNL     1      10.461  -3.329   1.308  1.00  0.00     0.049 A 
ATOM     49  H   UNL     1      11.999  -2.261   0.395  1.00  0.00     0.167 HD
ATOM     50  C   UNL     1      15.116  -0.083  -1.696  1.00  0.00     0.034 A 
ATOM     51  C   UNL     1      10.991  -4.481   1.769  1.00  0.00     0.034 A 
ATOM     52  C   UNL     1      15.801  -1.181  -1.069  1.00  0.00     0.049 A 
ATOM     53  C   UNL     1      12.469  -4.739   1.612  1.00  0.00     0.074 A 
ATOM     54  C   UNL     1      17.156  -1.465  -1.079  1.00  0.00     0.029 A 
ATOM     55  N   UNL     1      15.188  -2.184  -0.338  1.00  0.00    -0.354 N 
ATOM     56  N   UNL     1      13.390  -3.972   1.081  1.00  0.00    -0.248 NA
ATOM     57  C   UNL     1      12.987  -6.005   2.155  1.00  0.00     0.031 C 
ATOM     58  C   UNL     1      17.359  -2.656  -0.375  1.00  0.00     0.029 A 
ATOM     59  C   UNL     1      16.133  -3.100   0.091  1.00  0.00     0.049 A 
ATOM     60  H   UNL     1      14.223  -2.237  -0.150  1.00  0.00     0.167 HD
ATOM     61  C   UNL     1      14.596  -4.646   1.256  1.00  0.00     0.074 A 
ATOM     62  C   UNL     1      14.293  -5.871   1.964  1.00  0.00     0.031 C 
ATOM     63  C   UNL     1      15.839  -4.289   0.848  1.00  0.00     0.034 A 
BRANCH  50  64
ATOM     64  C   UNL     1      15.940   0.867  -2.524  1.00  0.00     0.023 A 
ATOM     65  C   UNL     1      16.296   2.122  -1.990  1.00  0.00     0.012 A 
ATOM     66  C   UNL     1      16.439   0.481  -3.783  1.00  0.00     0.148 A 
ATOM     67  C   UNL     1      17.124   2.986  -2.705  1.00  0.00     0.002 A 
ATOM     68  C   UNL     1      17.294   1.332  -4.473  1.00  0.00     0.091 A 
ATOM     69  F   UNL     1      16.069  -0.708  -4.280  1.00  0.00    -0.205 F 
ATOM     70  C   UNL     1      17.632   2.587  -3.939  1.00  0.00     0.022 A 
BRANCH  68  71
ATOM     71  S   UNL     1      18.061   0.878  -6.032  1.00  0.00     0.127 S 
ATOM     72  O   UNL     1      17.354   1.748  -6.972  1.00  0.00    -0.237 OA
ATOM     73  O   UNL     1      19.460   1.238  -5.804  1.00  0.00    -0.237 OA
ATOM     74  O   UNL     1      17.820  -0.548  -6.198  1.00  0.00    -0.744 OA
ENDBRANCH  68  71
ENDBRANCH  50  64
BRANCH  51  75
ATOM     75  C   UNL     1      10.123  -5.472   2.466  1.00  0.00     0.023 A 
ATOM     76  C   UNL     1      10.289  -5.701   3.845  1.00  0.00     0.012 A 
ATOM     77  C   UNL     1       9.132  -6.187   1.765  1.00  0.00     0.148 A 
ATOM     78  C   UNL     1       9.507  -6.649   4.507  1.00  0.00     0.002 A 
ATOM     79  C   UNL     1       8.318  -7.087   2.443  1.00  0.00     0.091 A 
ATOM     80  F   UNL     1       9.005  -5.975   0.448  1.00  0.00    -0.205 F 
ATOM     81  C   UNL     1       8.515  -7.333   3.809  1.00  0.00     0.022 A 
BRANCH  79  82
ATOM     82  S   UNL     1       6.932  -7.905   1.645  1.00  0.00     0.127 S 
ATOM     83  O   UNL     1       7.456  -9.252   1.440  1.00  0.00    -0.237 OA
ATOM     84  O   UNL     1       5.886  -7.798   2.663  1.00  0.00    -0.237 OA
ATOM     85  O   UNL     1       6.669  -7.131   0.439  1.00  0.00    -0.744 OA
ENDBRANCH  79  82
ENDBRANCH  51  75
BRANCH  63  86
ATOM     86  C   UNL     1      16.984  -5.214   1.173  1.00  0.00     0.023 A 
ATOM     87  C   UNL     1      17.117  -6.430   0.475  1.00  0.00     0.012 A 
ATOM     88  C   UNL     1      17.973  -4.843   2.107  1.00  0.00     0.148 A 
ATOM     89  C   UNL     1      18.199  -7.276   0.721  1.00  0.00     0.002 A 
ATOM     90  C   UNL     1      19.072  -5.670   2.314  1.00  0.00     0.091 A 
ATOM     91  F   UNL     1      17.822  -3.690   2.775  1.00  0.00    -0.205 F 
ATOM     92  C   UNL     1      19.181  -6.891   1.631  1.00  0.00     0.022 A 
BRANCH  90  93
ATOM     93  S   UNL     1      20.430  -5.209   3.397  1.00  0.00     0.127 S 
ATOM     94  O   UNL     1      20.182  -6.053   4.564  1.00  0.00    -0.237 OA
ATOM     95  O   UNL     1      21.603  -5.589   2.608  1.00  0.00    -0.237 OA
ATOM     96  O   UNL     1      20.294  -3.775   3.619  1.00  0.00    -0.744 OA
ENDBRANCH  90  93
ENDBRANCH  63  86
ENDBRANCH  37  38
ENDBRANCH  30  32
ENDBRANCH  29  30
ENDBRANCH  28  29
ENDBRANCH  27  28
ENDBRANCH  26  27
ENDBRANCH   1  26
TORSDOF 23
