REMARK SMILES O=C(Cc1c(C(=O)c2cc3c(cn2)CCCC3)[nH]c2cc(Cl)ccc12)OCCOCCOC(=O)c1ccc(-c2c3nc(c(-c4cccc(S(=O)(=O)[O-])c4F)c4ccc([nH]4)c(-c4cccc(S(=O)(=O)[O-])c4F)c4nc(c(-c5cccc(S(=O)(=O)[O-])c5F)c5ccc2[nH]5)C=C4)C=C3)cc1
REMARK SMILES IDX 29 1 28 2 27 3 26 4 2 5 1 6 3 7 4 8 5 9 25 10 18 11 19 12
REMARK SMILES IDX 24 13 20 15 23 16 21 17 22 18 6 19 7 20 8 21 9 22 13 23
REMARK SMILES IDX 10 24 12 25 11 26 17 27 14 28 16 29 15 30 30 31 31 32 32 33
REMARK SMILES IDX 33 34 34 35 35 36 36 37 97 38 37 39 96 40 38 41 39 42 40 43
REMARK SMILES IDX 90 44 41 45 95 46 89 47 91 48 42 49 94 50 88 51 87 52 43 54
REMARK SMILES IDX 75 55 55 56 74 57 56 58 59 59 73 60 92 61 57 62 58 63 72 65
REMARK SMILES IDX 93 66 60 67 44 68 45 69 53 70 46 71 48 72 54 73 47 74 49 75
REMARK SMILES IDX 50 76 51 77 52 78 76 79 77 80 85 81 78 82 80 83 86 84 79 85
REMARK SMILES IDX 81 86 82 87 83 88 84 89 61 90 62 91 70 92 63 93 65 94 71 95
REMARK SMILES IDX 64 96 66 97 67 98 68 99 69 100
REMARK H PARENT 18 14 91 53 59 64
REMARK Flexibility Score: inf
ROOT
ATOM      1  O   UNL     1       4.193  -1.032   2.256  1.00  0.00    -0.374 OA
ENDROOT
BRANCH   1   2
ATOM      2  C   UNL     1       4.997  -0.065   1.598  1.00  0.00     0.202 C 
BRANCH   2   3
ATOM      3  C   UNL     1       4.457   0.580   0.320  1.00  0.00     0.261 C 
BRANCH   3   4
ATOM      4  O   UNL     1       3.038   0.776   0.263  1.00  0.00    -0.463 OA
BRANCH   4   5
ATOM      5  C   UNL     1       2.148  -0.074  -0.309  1.00  0.00     0.310 C 
ATOM      6  O   UNL     1       0.946   0.204  -0.289  1.00  0.00    -0.252 OA
BRANCH   5   7
ATOM      7  C   UNL     1       2.592  -1.446  -0.749  1.00  0.00     0.161 C 
BRANCH   7   8
ATOM      8  C   UNL     1       3.560  -1.626  -1.884  1.00  0.00     0.000 A 
ATOM      9  C   UNL     1       4.079  -0.707  -2.795  1.00  0.00     0.093 A 
ATOM     10  C   UNL     1       4.104  -2.909  -2.233  1.00  0.00     0.004 A 
ATOM     11  N   UNL     1       5.052  -1.368  -3.517  1.00  0.00    -0.351 N 
ATOM     12  C   UNL     1       5.011  -2.719  -3.270  1.00  0.00     0.048 A 
ATOM     13  C   UNL     1       3.883  -4.221  -1.759  1.00  0.00     0.012 A 
ATOM     14  H   UNL     1       5.689  -0.931  -4.127  1.00  0.00     0.167 HD
ATOM     15  C   UNL     1       5.699  -3.776  -3.879  1.00  0.00     0.047 A 
ATOM     16  C   UNL     1       4.540  -5.295  -2.371  1.00  0.00     0.021 A 
ATOM     17  C   UNL     1       5.428  -5.068  -3.418  1.00  0.00     0.043 A 
ATOM     18  Cl  UNL     1       6.200  -6.412  -4.173  1.00  0.00    -0.084 Cl
BRANCH   9  19
ATOM     19  C   UNL     1       3.715   0.686  -2.998  1.00  0.00     0.227 C 
ATOM     20  O   UNL     1       2.618   1.149  -2.705  1.00  0.00    -0.285 OA
BRANCH  19  21
ATOM     21  C   UNL     1       4.661   1.573  -3.698  1.00  0.00     0.113 A 
ATOM     22  C   UNL     1       4.439   1.775  -5.048  1.00  0.00     0.036 A 
ATOM     23  N   UNL     1       5.685   2.102  -2.983  1.00  0.00    -0.252 NA
ATOM     24  C   UNL     1       5.319   2.600  -5.736  1.00  0.00    -0.041 A 
ATOM     25  C   UNL     1       6.495   2.944  -3.668  1.00  0.00     0.115 A 
ATOM     26  C   UNL     1       6.372   3.208  -5.033  1.00  0.00    -0.026 A 
ATOM     27  C   UNL     1       5.144   2.762  -7.222  1.00  0.00     0.036 C 
ATOM     28  C   UNL     1       7.307   4.175  -5.715  1.00  0.00     0.037 C 
ATOM     29  C   UNL     1       5.925   3.939  -7.789  1.00  0.00     0.005 C 
ATOM     30  C   UNL     1       7.343   3.954  -7.227  1.00  0.00     0.005 C 
ENDBRANCH  19  21
ENDBRANCH   9  19
ENDBRANCH   7   8
ENDBRANCH   5   7
ENDBRANCH   4   5
ENDBRANCH   3   4
ENDBRANCH   2   3
ENDBRANCH   1   2
BRANCH   1  31
ATOM     31  C   UNL     1       2.971  -0.609   2.862  1.00  0.00     0.202 C 
BRANCH  31  32
ATOM     32  C   UNL     1       2.962   0.602   3.803  1.00  0.00     0.261 C 
BRANCH  32  33
ATOM     33  O   UNL     1       3.285   1.841   3.152  1.00  0.00    -0.460 OA
BRANCH  33  34
ATOM     34  C   UNL     1       4.389   2.471   3.614  1.00  0.00     0.338 C 
ATOM     35  O   UNL     1       5.158   2.074   4.484  1.00  0.00    -0.246 OA
BRANCH  34  36
ATOM     36  C   UNL     1       4.646   3.674   2.813  1.00  0.00     0.060 A 
ATOM     37  C   UNL     1       3.750   4.743   2.858  1.00  0.00     0.016 A 
ATOM     38  C   UNL     1       5.844   3.771   2.094  1.00  0.00     0.016 A 
ATOM     39  C   UNL     1       4.073   5.930   2.199  1.00  0.00     0.010 A 
ATOM     40  C   UNL     1       6.160   4.957   1.431  1.00  0.00     0.010 A 
ATOM     41  C   UNL     1       5.287   6.052   1.500  1.00  0.00    -0.014 A 
BRANCH  41  42
ATOM     42  C   UNL     1       5.702   7.372   0.973  1.00  0.00     0.031 A 
ATOM     43  C   UNL     1       5.633   7.690  -0.488  1.00  0.00     0.074 A 
ATOM     44  C   UNL     1       6.164   8.288   1.846  1.00  0.00     0.049 A 
ATOM     45  N   UNL     1       5.891   8.822  -1.088  1.00  0.00    -0.248 NA
ATOM     46  C   UNL     1       5.230   6.603  -1.393  1.00  0.00     0.031 C 
ATOM     47  C   UNL     1       6.329   8.065   3.284  1.00  0.00     0.029 A 
ATOM     48  N   UNL     1       6.579   9.581   1.657  1.00  0.00    -0.354 N 
ATOM     49  C   UNL     1       5.678   8.594  -2.440  1.00  0.00     0.074 A 
ATOM     50  C   UNL     1       5.298   7.202  -2.576  1.00  0.00     0.031 C 
ATOM     51  C   UNL     1       6.793   9.189   3.851  1.00  0.00     0.029 A 
ATOM     52  C   UNL     1       6.973  10.204   2.817  1.00  0.00     0.049 A 
ATOM     53  H   UNL     1       6.594  10.020   0.777  1.00  0.00     0.167 HD
ATOM     54  C   UNL     1       5.765   9.474  -3.465  1.00  0.00     0.034 A 
ATOM     55  C   UNL     1       7.422  11.456   3.030  1.00  0.00     0.034 A 
ATOM     56  C   UNL     1       6.132  10.859  -3.319  1.00  0.00     0.049 A 
ATOM     57  C   UNL     1       7.515  12.410   1.877  1.00  0.00     0.074 A 
ATOM     58  C   UNL     1       6.190  11.839  -4.296  1.00  0.00     0.029 A 
ATOM     59  N   UNL     1       6.514  11.461  -2.130  1.00  0.00    -0.354 N 
ATOM     60  N   UNL     1       7.187  12.214   0.624  1.00  0.00    -0.248 NA
ATOM     61  C   UNL     1       8.014  13.761   2.167  1.00  0.00     0.031 C 
ATOM     62  C   UNL     1       6.627  13.027  -3.700  1.00  0.00     0.029 A 
ATOM     63  C   UNL     1       6.827  12.793  -2.350  1.00  0.00     0.049 A 
ATOM     64  H   UNL     1       6.557  11.008  -1.256  1.00  0.00     0.167 HD
ATOM     65  C   UNL     1       7.433  13.416  -0.027  1.00  0.00     0.074 A 
ATOM     66  C   UNL     1       7.916  14.344   0.978  1.00  0.00     0.031 C 
ATOM     67  C   UNL     1       7.287  13.714  -1.341  1.00  0.00     0.034 A 
BRANCH  54  68
ATOM     68  C   UNL     1       5.397   8.983  -4.838  1.00  0.00     0.023 A 
ATOM     69  C   UNL     1       4.035   8.821  -5.164  1.00  0.00     0.012 A 
ATOM     70  C   UNL     1       6.377   8.768  -5.826  1.00  0.00     0.148 A 
ATOM     71  C   UNL     1       3.654   8.434  -6.447  1.00  0.00     0.002 A 
ATOM     72  C   UNL     1       5.987   8.415  -7.113  1.00  0.00     0.091 A 
ATOM     73  F   UNL     1       7.665   8.917  -5.489  1.00  0.00    -0.205 F 
ATOM     74  C   UNL     1       4.628   8.239  -7.423  1.00  0.00     0.022 A 
BRANCH  72  75
ATOM     75  S   UNL     1       7.154   8.194  -8.461  1.00  0.00     0.127 S 
ATOM     76  O   UNL     1       6.908   6.803  -8.840  1.00  0.00    -0.237 OA
ATOM     77  O   UNL     1       6.687   9.178  -9.435  1.00  0.00    -0.237 OA
ATOM     78  O   UNL     1       8.473   8.447  -7.900  1.00  0.00    -0.744 OA
ENDBRANCH  72  75
ENDBRANCH  54  68
BRANCH  55  79
ATOM     79  C   UNL     1       7.745  11.874   4.420  1.00  0.00     0.023 A 
ATOM     80  C   UNL     1       6.826  12.668   5.130  1.00  0.00     0.012 A 
ATOM     81  C   UNL     1       8.899  11.396   5.071  1.00  0.00     0.148 A 
ATOM     82  C   UNL     1       7.050  12.979   6.471  1.00  0.00     0.002 A 
ATOM     83  C   UNL     1       9.098  11.679   6.416  1.00  0.00     0.091 A 
ATOM     84  F   UNL     1       9.752  10.637   4.369  1.00  0.00    -0.205 F 
ATOM     85  C   UNL     1       8.178  12.476   7.117  1.00  0.00     0.022 A 
BRANCH  83  86
ATOM     86  S   UNL     1      10.465  10.998   7.361  1.00  0.00     0.127 S 
ATOM     87  O   UNL     1      11.145  12.209   7.816  1.00  0.00    -0.237 OA
ATOM     88  O   UNL     1       9.762  10.256   8.406  1.00  0.00    -0.237 OA
ATOM     89  O   UNL     1      11.222  10.175   6.429  1.00  0.00    -0.744 OA
ENDBRANCH  83  86
ENDBRANCH  55  79
BRANCH  67  90
ATOM     90  C   UNL     1       7.675  15.097  -1.792  1.00  0.00     0.023 A 
ATOM     91  C   UNL     1       9.040  15.411  -1.946  1.00  0.00     0.012 A 
ATOM     92  C   UNL     1       6.699  16.045  -2.157  1.00  0.00     0.148 A 
ATOM     93  C   UNL     1       9.429  16.652  -2.447  1.00  0.00     0.002 A 
ATOM     94  C   UNL     1       7.094  17.268  -2.687  1.00  0.00     0.091 A 
ATOM     95  F   UNL     1       5.408  15.726  -1.992  1.00  0.00    -0.205 F 
ATOM     96  C   UNL     1       8.458  17.575  -2.828  1.00  0.00     0.022 A 
BRANCH  94  97
ATOM     97  S   UNL     1       5.921  18.498  -3.270  1.00  0.00     0.127 S 
ATOM     98  O   UNL     1       6.130  19.584  -2.313  1.00  0.00    -0.237 OA
ATOM     99  O   UNL     1       6.410  18.774  -4.621  1.00  0.00    -0.237 OA
ATOM    100  O   UNL     1       4.610  17.866  -3.213  1.00  0.00    -0.744 OA
ENDBRANCH  94  97
ENDBRANCH  67  90
ENDBRANCH  41  42
ENDBRANCH  34  36
ENDBRANCH  33  34
ENDBRANCH  32  33
ENDBRANCH  31  32
ENDBRANCH   1  31
TORSDOF 20
