REMARK SMILES Cc1ccc(S(=O)(=O)n2cc(C(=O)C(=O)N[C@H](Cc3c[nH]c4ccccc34)C(=O)NCC(=O)OCCOCCOC(=O)c3ccc(-c4c5nc(c(-c6cccc(S(=O)(=O)[O-])c6F)c6ccc([nH]6)c(-c6cccc(S(=O)(=O)[O-])c6F)c6nc(c(-c7cccc(S(=O)(=O)[O-])c7F)c7ccc4[nH]7)C=C6)C=C5)cc3)c3ccccc32)cc1
REMARK SMILES IDX 35 1 34 2 32 3 33 4 31 5 30 6 28 7 29 8 17 10 16 11 14 12
REMARK SMILES IDX 15 13 12 15 13 16 11 17 9 18 10 19 111 20 106 21 110 22
REMARK SMILES IDX 107 23 109 24 108 25 6 26 7 27 8 28 5 29 1 30 2 31 3 32
REMARK SMILES IDX 113 33 4 34 112 35 18 36 19 37 20 38 27 39 21 40 22 41 26 42
REMARK SMILES IDX 23 44 25 45 24 46 36 47 37 48 38 49 39 50 40 51 41 52 42 53
REMARK SMILES IDX 43 54 44 55 105 56 45 57 104 58 46 59 47 60 48 61 98 62
REMARK SMILES IDX 49 63 103 64 97 65 99 66 50 67 102 68 96 69 95 70 51 72
REMARK SMILES IDX 83 73 63 74 82 75 64 76 67 77 81 78 100 79 65 80 66 81 80 83
REMARK SMILES IDX 101 84 68 85 52 86 53 87 61 88 54 89 56 90 62 91 55 92 57 93
REMARK SMILES IDX 58 94 59 95 60 96 84 97 85 98 93 99 86 100 88 101 94 102
REMARK SMILES IDX 87 103 89 104 90 105 91 106 92 107 69 108 70 109 78 110
REMARK SMILES IDX 71 111 73 112 79 113 72 114 74 115 75 116 76 117 77 118
REMARK H PARENT 30 9 16 14 21 43 99 71 67 82
REMARK Flexibility Score: inf
ROOT
ATOM      1  C   UNL     1     -11.693   4.948  -2.043  1.00  0.00     0.261 C 
ENDROOT
BRANCH   1   2
ATOM      2  O   UNL     1     -12.336   3.726  -1.662  1.00  0.00    -0.462 OA
BRANCH   2   3
ATOM      3  C   UNL     1     -13.638   3.827  -1.279  1.00  0.00     0.325 C 
ATOM      4  O   UNL     1     -14.315   4.824  -1.206  1.00  0.00    -0.250 OA
BRANCH   3   5
ATOM      5  C   UNL     1     -14.167   2.478  -0.845  1.00  0.00     0.238 C 
BRANCH   5   6
ATOM      6  N   UNL     1     -13.450   1.367  -1.420  1.00  0.00    -0.343 N 
ATOM      7  C   UNL     1     -12.314   0.738  -1.056  1.00  0.00     0.243 C 
ATOM      8  O   UNL     1     -11.987  -0.189  -1.810  1.00  0.00    -0.273 OA
ATOM      9  H   UNL     1     -13.868   0.999  -2.231  1.00  0.00     0.164 HD
BRANCH   7  10
ATOM     10  C   UNL     1     -11.427   1.114   0.166  1.00  0.00     0.176 C 
BRANCH  10  11
ATOM     11  N   UNL     1     -12.114   1.391   1.494  1.00  0.00    -0.337 N 
ATOM     12  C   UNL     1     -12.643   2.425   2.268  1.00  0.00     0.293 C 
ATOM     13  O   UNL     1     -13.195   2.111   3.322  1.00  0.00    -0.265 OA
ATOM     14  H   UNL     1     -12.225   0.541   1.979  1.00  0.00     0.164 HD
BRANCH  12  15
ATOM     15  C   UNL     1     -12.603   3.903   1.880  1.00  0.00     0.252 C 
ATOM     16  O   UNL     1     -11.824   4.148   0.960  1.00  0.00    -0.283 OA
BRANCH  15  17
ATOM     17  C   UNL     1     -13.309   5.027   2.568  1.00  0.00     0.054 A 
ATOM     18  N   UNL     1     -13.428   6.631   4.194  1.00  0.00    -0.240 N 
ATOM     19  C   UNL     1     -13.696   5.244   3.909  1.00  0.00     0.117 A 
ATOM     20  C   UNL     1     -12.751   7.005   3.074  1.00  0.00     0.065 A 
ATOM     21  C   UNL     1     -13.410   6.344   2.042  1.00  0.00     0.012 A 
ATOM     22  C   UNL     1     -11.577   7.608   2.787  1.00  0.00     0.028 A 
ATOM     23  C   UNL     1     -13.528   7.030   0.832  1.00  0.00     0.011 A 
ATOM     24  C   UNL     1     -11.746   8.358   1.634  1.00  0.00     0.002 A 
ATOM     25  C   UNL     1     -12.812   8.210   0.742  1.00  0.00     0.001 A 
BRANCH  18  26
ATOM     26  S   UNL     1     -14.768   7.789   4.650  1.00  0.00     0.268 S 
ATOM     27  O   UNL     1     -15.659   6.936   5.421  1.00  0.00    -0.201 OA
ATOM     28  O   UNL     1     -15.216   8.374   3.399  1.00  0.00    -0.201 OA
BRANCH  26  29
ATOM     29  C   UNL     1     -14.345   9.202   5.740  1.00  0.00     0.088 A 
ATOM     30  C   UNL     1     -14.729  13.305   7.235  1.00  0.00     0.044 C 
ATOM     31  C   UNL     1     -14.487  11.860   6.890  1.00  0.00    -0.051 A 
ATOM     32  C   UNL     1     -13.543  11.560   5.932  1.00  0.00     0.005 A 
ATOM     33  C   UNL     1     -15.300  10.809   7.335  1.00  0.00     0.005 A 
ATOM     34  C   UNL     1     -13.569  10.281   5.339  1.00  0.00     0.022 A 
ATOM     35  C   UNL     1     -15.209   9.498   6.790  1.00  0.00     0.022 A 
ENDBRANCH  26  29
ENDBRANCH  18  26
ENDBRANCH  15  17
ENDBRANCH  12  15
ENDBRANCH  10  11
BRANCH  10  36
ATOM     36  C   UNL     1     -10.084   1.828  -0.173  1.00  0.00     0.072 C 
BRANCH  36  37
ATOM     37  C   UNL     1      -9.433   1.519  -1.524  1.00  0.00    -0.020 A 
ATOM     38  C   UNL     1      -9.168   2.468  -2.496  1.00  0.00     0.087 A 
ATOM     39  C   UNL     1      -8.913   0.279  -2.060  1.00  0.00     0.003 A 
ATOM     40  N   UNL     1      -8.660   1.862  -3.609  1.00  0.00    -0.361 N 
ATOM     41  C   UNL     1      -8.454   0.530  -3.360  1.00  0.00     0.046 A 
ATOM     42  C   UNL     1      -8.794  -1.046  -1.584  1.00  0.00     0.010 A 
ATOM     43  H   UNL     1      -8.471   2.314  -4.463  1.00  0.00     0.166 HD
ATOM     44  C   UNL     1      -7.904  -0.451  -4.197  1.00  0.00     0.026 A 
ATOM     45  C   UNL     1      -8.247  -2.044  -2.410  1.00  0.00     0.001 A 
ATOM     46  C   UNL     1      -7.810  -1.748  -3.698  1.00  0.00     0.002 A 
ENDBRANCH  36  37
ENDBRANCH  10  36
ENDBRANCH   7  10
ENDBRANCH   5   6
ENDBRANCH   3   5
ENDBRANCH   2   3
ENDBRANCH   1   2
BRANCH   1  47
ATOM     47  C   UNL     1     -11.909   5.122  -3.529  1.00  0.00     0.202 C 
BRANCH  47  48
ATOM     48  O   UNL     1     -13.196   5.718  -3.655  1.00  0.00    -0.374 OA
BRANCH  48  49
ATOM     49  C   UNL     1     -14.143   5.074  -4.483  1.00  0.00     0.202 C 
BRANCH  49  50
ATOM     50  C   UNL     1     -13.787   5.176  -5.966  1.00  0.00     0.261 C 
BRANCH  50  51
ATOM     51  O   UNL     1     -13.674   6.565  -6.329  1.00  0.00    -0.460 OA
BRANCH  51  52
ATOM     52  C   UNL     1     -12.408   6.958  -6.639  1.00  0.00     0.338 C 
ATOM     53  O   UNL     1     -11.681   6.374  -7.429  1.00  0.00    -0.246 OA
BRANCH  52  54
ATOM     54  C   UNL     1     -11.950   8.014  -5.693  1.00  0.00     0.060 A 
ATOM     55  C   UNL     1     -10.611   8.425  -5.730  1.00  0.00     0.016 A 
ATOM     56  C   UNL     1     -12.717   8.265  -4.559  1.00  0.00     0.016 A 
ATOM     57  C   UNL     1      -9.989   8.870  -4.566  1.00  0.00     0.010 A 
ATOM     58  C   UNL     1     -12.050   8.509  -3.377  1.00  0.00     0.010 A 
ATOM     59  C   UNL     1     -10.667   8.758  -3.369  1.00  0.00    -0.014 A 
BRANCH  59  60
ATOM     60  C   UNL     1     -10.047   8.966  -2.053  1.00  0.00     0.031 A 
ATOM     61  C   UNL     1     -10.621  10.173  -1.328  1.00  0.00     0.074 A 
ATOM     62  C   UNL     1      -9.605   7.803  -1.495  1.00  0.00     0.049 A 
ATOM     63  N   UNL     1     -10.368  10.581  -0.127  1.00  0.00    -0.248 NA
ATOM     64  C   UNL     1     -11.564  11.087  -2.014  1.00  0.00     0.031 C 
ATOM     65  C   UNL     1     -10.029   7.181  -0.269  1.00  0.00     0.029 A 
ATOM     66  N   UNL     1      -8.557   6.950  -1.853  1.00  0.00    -0.354 N 
ATOM     67  C   UNL     1     -11.348  11.520   0.197  1.00  0.00     0.074 A 
ATOM     68  C   UNL     1     -12.035  11.836  -1.020  1.00  0.00     0.031 C 
ATOM     69  C   UNL     1      -9.109   6.376   0.256  1.00  0.00     0.029 A 
ATOM     70  C   UNL     1      -8.013   6.423  -0.659  1.00  0.00     0.049 A 
ATOM     71  H   UNL     1      -8.254   6.753  -2.769  1.00  0.00     0.167 HD
ATOM     72  C   UNL     1     -11.660  11.833   1.483  1.00  0.00     0.034 A 
ATOM     73  C   UNL     1      -6.728   6.373  -0.241  1.00  0.00     0.034 A 
ATOM     74  C   UNL     1     -10.692  11.227   2.461  1.00  0.00     0.049 A 
ATOM     75  C   UNL     1      -6.525   7.250   0.990  1.00  0.00     0.074 A 
ATOM     76  C   UNL     1     -10.806  10.368   3.535  1.00  0.00     0.029 A 
ATOM     77  N   UNL     1      -9.291  11.179   2.208  1.00  0.00    -0.354 N 
ATOM     78  N   UNL     1      -7.311   8.229   1.381  1.00  0.00    -0.248 NA
ATOM     79  C   UNL     1      -5.406   7.032   1.905  1.00  0.00     0.031 C 
ATOM     80  C   UNL     1      -9.595   9.759   3.882  1.00  0.00     0.029 A 
ATOM     81  C   UNL     1      -8.662  10.212   2.993  1.00  0.00     0.049 A 
ATOM     82  H   UNL     1      -8.825  11.757   1.560  1.00  0.00     0.167 HD
ATOM     83  C   UNL     1      -6.756   8.838   2.492  1.00  0.00     0.074 A 
ATOM     84  C   UNL     1      -5.603   8.006   2.808  1.00  0.00     0.031 C 
ATOM     85  C   UNL     1      -7.245   9.963   3.114  1.00  0.00     0.034 A 
BRANCH  72  86
ATOM     86  C   UNL     1     -13.121  12.353   1.758  1.00  0.00     0.023 A 
ATOM     87  C   UNL     1     -13.995  11.494   2.445  1.00  0.00     0.012 A 
ATOM     88  C   UNL     1     -13.764  13.530   1.274  1.00  0.00     0.148 A 
ATOM     89  C   UNL     1     -15.270  11.869   2.921  1.00  0.00     0.002 A 
ATOM     90  C   UNL     1     -15.107  13.854   1.632  1.00  0.00     0.091 A 
ATOM     91  F   UNL     1     -13.098  14.328   0.426  1.00  0.00    -0.205 F 
ATOM     92  C   UNL     1     -15.815  13.076   2.547  1.00  0.00     0.022 A 
BRANCH  90  93
ATOM     93  S   UNL     1     -16.099  15.118   0.783  1.00  0.00     0.127 S 
ATOM     94  O   UNL     1     -17.470  14.603   0.891  1.00  0.00    -0.237 OA
ATOM     95  O   UNL     1     -15.853  16.317   1.577  1.00  0.00    -0.237 OA
ATOM     96  O   UNL     1     -15.591  15.124  -0.584  1.00  0.00    -0.744 OA
ENDBRANCH  90  93
ENDBRANCH  72  86
BRANCH  73  97
ATOM     97  C   UNL     1      -5.784   6.060  -1.345  1.00  0.00     0.023 A 
ATOM     98  C   UNL     1      -5.832   4.713  -1.797  1.00  0.00     0.012 A 
ATOM     99  C   UNL     1      -5.524   7.082  -2.262  1.00  0.00     0.148 A 
ATOM    100  C   UNL     1      -5.857   4.425  -3.163  1.00  0.00     0.002 A 
ATOM    101  C   UNL     1      -5.686   6.799  -3.615  1.00  0.00     0.091 A 
ATOM    102  F   UNL     1      -5.409   8.333  -1.797  1.00  0.00    -0.205 F 
ATOM    103  C   UNL     1      -5.859   5.477  -4.068  1.00  0.00     0.022 A 
BRANCH 101 104
ATOM    104  S   UNL     1      -6.233   8.094  -4.745  1.00  0.00     0.127 S 
ATOM    105  O   UNL     1      -5.076   8.268  -5.611  1.00  0.00    -0.237 OA
ATOM    106  O   UNL     1      -7.388   7.449  -5.370  1.00  0.00    -0.237 OA
ATOM    107  O   UNL     1      -6.581   9.216  -3.886  1.00  0.00    -0.744 OA
ENDBRANCH 101 104
ENDBRANCH  73  97
BRANCH  85 108
ATOM    108  C   UNL     1      -6.537  10.785   4.192  1.00  0.00     0.023 A 
ATOM    109  C   UNL     1      -5.140  10.799   4.311  1.00  0.00     0.012 A 
ATOM    110  C   UNL     1      -7.254  11.697   5.030  1.00  0.00     0.148 A 
ATOM    111  C   UNL     1      -4.495  11.633   5.233  1.00  0.00     0.002 A 
ATOM    112  C   UNL     1      -6.610  12.575   5.884  1.00  0.00     0.091 A 
ATOM    113  F   UNL     1      -8.589  11.730   5.029  1.00  0.00    -0.205 F 
ATOM    114  C   UNL     1      -5.225  12.534   6.003  1.00  0.00     0.022 A 
BRANCH 112 115
ATOM    115  S   UNL     1      -7.506  13.854   6.784  1.00  0.00     0.127 S 
ATOM    116  O   UNL     1      -7.324  13.421   8.169  1.00  0.00    -0.237 OA
ATOM    117  O   UNL     1      -6.757  15.055   6.413  1.00  0.00    -0.237 OA
ATOM    118  O   UNL     1      -8.881  13.826   6.305  1.00  0.00    -0.744 OA
ENDBRANCH 112 115
ENDBRANCH  85 108
ENDBRANCH  59  60
ENDBRANCH  52  54
ENDBRANCH  51  52
ENDBRANCH  50  51
ENDBRANCH  49  50
ENDBRANCH  48  49
ENDBRANCH  47  48
ENDBRANCH   1  47
TORSDOF 26
