REMARK SMILES C[NH2+][C@]1(C(=O)OCCOCCOC(=O)c2ccc(-c3c4nc(c(-c5cccc(S(=O)(=O)[O-])c5F)c5ccc([nH]5)c(-c5cccc(S(=O)(=O)[O-])c5F)c5nc(c(-c6cccc(S(=O)(=O)[O-])c6F)c6ccc3[nH]6)C=C5)C=C4)cc2)CCC[C@@H]1CC[N@H+]1CCC[C@H]([NH+](C)C)C1
REMARK SMILES IDX 8 1 7 2 6 3 4 4 5 5 3 6 78 7 81 8 79 9 80 10 2 11 1 12 82 15
REMARK SMILES IDX 83 16 84 17 85 18 92 19 86 21 88 22 87 23 89 24 90 25 91 26
REMARK SMILES IDX 9 28 10 29 11 30 12 31 13 32 14 33 15 34 16 35 77 36 17 37
REMARK SMILES IDX 76 38 18 39 19 40 20 41 70 42 21 43 75 44 69 45 71 46 22 47
REMARK SMILES IDX 74 48 68 49 67 50 23 52 55 53 35 54 54 55 36 56 39 57 53 58
REMARK SMILES IDX 72 59 37 60 38 61 52 63 73 64 40 65 24 66 25 67 33 68 26 69
REMARK SMILES IDX 28 70 34 71 27 72 29 73 30 74 31 75 32 76 56 77 57 78 65 79
REMARK SMILES IDX 58 80 60 81 66 82 59 83 61 84 62 85 63 86 64 87 41 88 42 89
REMARK SMILES IDX 50 90 43 91 45 92 51 93 44 94 46 95 47 96 48 97 49 98
REMARK H PARENT 2 13 2 14 84 20 89 27 71 51 39 62
REMARK Flexibility Score: inf
ROOT
ATOM      1  C   UNL     1       3.311   1.386  -1.402  1.00  0.00     0.202 C 
ENDROOT
BRANCH   1   2
ATOM      2  C   UNL     1       2.450   0.144  -1.635  1.00  0.00     0.261 C 
BRANCH   2   3
ATOM      3  O   UNL     1       1.050   0.437  -1.748  1.00  0.00    -0.459 OA
BRANCH   3   4
ATOM      4  C   UNL     1       0.282   0.024  -0.702  1.00  0.00     0.368 C 
ATOM      5  O   UNL     1       0.720  -0.552   0.292  1.00  0.00    -0.245 OA
BRANCH   4   6
ATOM      6  C   UNL     1      -1.227   0.300  -0.917  1.00  0.00     0.197 C 
ATOM      7  C   UNL     1      -1.585   1.454  -1.871  1.00  0.00     0.081 C 
ATOM      8  C   UNL     1      -1.827  -0.896  -1.719  1.00  0.00     0.068 C 
ATOM      9  C   UNL     1      -3.016   1.153  -2.324  1.00  0.00     0.008 C 
ATOM     10  C   UNL     1      -3.186  -0.367  -2.206  1.00  0.00     0.011 C 
BRANCH   6  11
ATOM     11  N   UNL     1      -1.932   0.464   0.398  1.00  0.00    -0.334 N 
ATOM     12  C   UNL     1      -1.374   1.510   1.250  1.00  0.00     0.331 C 
ATOM     13  H   UNL     1      -2.909   0.690   0.212  1.00  0.00     0.347 HD
ATOM     14  H   UNL     1      -1.820  -0.416   0.902  1.00  0.00     0.347 HD
ENDBRANCH   6  11
BRANCH   8  15
ATOM     15  C   UNL     1      -1.903  -2.215  -0.925  1.00  0.00     0.072 C 
BRANCH  15  16
ATOM     16  C   UNL     1      -1.766  -3.510  -1.741  1.00  0.00     0.262 C 
BRANCH  16  17
ATOM     17  N   UNL     1      -0.577  -3.682  -2.588  1.00  0.00    -0.330 N 
ATOM     18  C   UNL     1       0.689  -3.196  -2.042  1.00  0.00     0.262 C 
ATOM     19  C   UNL     1      -0.419  -5.106  -2.948  1.00  0.00     0.327 C 
ATOM     20  H   UNL     1      -0.765  -3.091  -3.398  1.00  0.00     0.348 HD
ATOM     21  C   UNL     1       1.806  -3.262  -3.083  1.00  0.00     0.068 C 
ATOM     22  C   UNL     1       0.664  -5.366  -4.031  1.00  0.00     0.239 C 
ATOM     23  C   UNL     1       1.986  -4.663  -3.655  1.00  0.00     0.077 C 
BRANCH  22  24
ATOM     24  N   UNL     1       0.258  -5.155  -5.434  1.00  0.00    -0.333 N 
ATOM     25  C   UNL     1      -0.832  -6.040  -5.845  1.00  0.00     0.332 C 
ATOM     26  C   UNL     1      -0.056  -3.782  -5.817  1.00  0.00     0.332 C 
ATOM     27  H   UNL     1       1.109  -5.395  -5.942  1.00  0.00     0.348 HD
ENDBRANCH  22  24
ENDBRANCH  16  17
ENDBRANCH  15  16
ENDBRANCH   8  15
ENDBRANCH   4   6
ENDBRANCH   3   4
ENDBRANCH   2   3
ENDBRANCH   1   2
BRANCH   1  28
ATOM     28  O   UNL     1       3.011   2.208  -0.277  1.00  0.00    -0.374 OA
BRANCH  28  29
ATOM     29  C   UNL     1       1.806   2.969  -0.300  1.00  0.00     0.202 C 
BRANCH  29  30
ATOM     30  C   UNL     1       1.699   4.149  -1.273  1.00  0.00     0.261 C 
BRANCH  30  31
ATOM     31  O   UNL     1       1.891   3.782  -2.648  1.00  0.00    -0.460 OA
BRANCH  31  32
ATOM     32  C   UNL     1       3.032   4.265  -3.196  1.00  0.00     0.338 C 
ATOM     33  O   UNL     1       3.855   4.996  -2.658  1.00  0.00    -0.246 OA
BRANCH  32  34
ATOM     34  C   UNL     1       3.277   3.654  -4.513  1.00  0.00     0.060 A 
ATOM     35  C   UNL     1       4.512   3.022  -4.710  1.00  0.00     0.016 A 
ATOM     36  C   UNL     1       2.371   3.789  -5.566  1.00  0.00     0.016 A 
ATOM     37  C   UNL     1       4.874   2.578  -5.978  1.00  0.00     0.010 A 
ATOM     38  C   UNL     1       2.741   3.353  -6.843  1.00  0.00     0.010 A 
ATOM     39  C   UNL     1       4.011   2.787  -7.061  1.00  0.00    -0.014 A 
BRANCH  39  40
ATOM     40  C   UNL     1       4.513   2.567  -8.437  1.00  0.00     0.031 A 
ATOM     41  C   UNL     1       5.033   3.745  -9.216  1.00  0.00     0.074 A 
ATOM     42  C   UNL     1       4.524   1.336  -8.976  1.00  0.00     0.049 A 
ATOM     43  N   UNL     1       5.528   3.784 -10.425  1.00  0.00    -0.248 NA
ATOM     44  C   UNL     1       4.989   5.054  -8.542  1.00  0.00     0.031 C 
ATOM     45  C   UNL     1       4.049   0.121  -8.316  1.00  0.00     0.029 A 
ATOM     46  N   UNL     1       4.934   0.911 -10.214  1.00  0.00    -0.354 N 
ATOM     47  C   UNL     1       5.834   5.118 -10.667  1.00  0.00     0.074 A 
ATOM     48  C   UNL     1       5.458   5.860  -9.484  1.00  0.00     0.031 C 
ATOM     49  C   UNL     1       4.168  -0.911  -9.169  1.00  0.00     0.029 A 
ATOM     50  C   UNL     1       4.713  -0.427 -10.436  1.00  0.00     0.049 A 
ATOM     51  H   UNL     1       5.348   1.507 -10.880  1.00  0.00     0.167 HD
ATOM     52  C   UNL     1       6.396   5.673 -11.766  1.00  0.00     0.034 A 
ATOM     53  C   UNL     1       4.917  -1.171 -11.542  1.00  0.00     0.034 A 
ATOM     54  C   UNL     1       6.788   4.930 -12.932  1.00  0.00     0.049 A 
ATOM     55  C   UNL     1       5.528  -0.526 -12.759  1.00  0.00     0.074 A 
ATOM     56  C   UNL     1       7.406   5.393 -14.081  1.00  0.00     0.029 A 
ATOM     57  N   UNL     1       6.590   3.568 -13.104  1.00  0.00    -0.354 N 
ATOM     58  N   UNL     1       5.931   0.711 -12.924  1.00  0.00    -0.248 NA
ATOM     59  C   UNL     1       5.746  -1.388 -13.930  1.00  0.00     0.031 C 
ATOM     60  C   UNL     1       7.566   4.312 -14.955  1.00  0.00     0.029 A 
ATOM     61  C   UNL     1       7.064   3.174 -14.344  1.00  0.00     0.049 A 
ATOM     62  H   UNL     1       6.175   2.970 -12.442  1.00  0.00     0.167 HD
ATOM     63  C   UNL     1       6.477   0.769 -14.202  1.00  0.00     0.074 A 
ATOM     64  C   UNL     1       6.372  -0.564 -14.760  1.00  0.00     0.031 C 
ATOM     65  C   UNL     1       7.002   1.831 -14.862  1.00  0.00     0.034 A 
BRANCH  52  66
ATOM     66  C   UNL     1       6.653   7.156 -11.745  1.00  0.00     0.023 A 
ATOM     67  C   UNL     1       7.720   7.663 -10.976  1.00  0.00     0.012 A 
ATOM     68  C   UNL     1       5.876   8.039 -12.519  1.00  0.00     0.148 A 
ATOM     69  C   UNL     1       7.993   9.030 -10.957  1.00  0.00     0.002 A 
ATOM     70  C   UNL     1       6.178   9.396 -12.524  1.00  0.00     0.091 A 
ATOM     71  F   UNL     1       4.849   7.540 -13.222  1.00  0.00    -0.205 F 
ATOM     72  C   UNL     1       7.229   9.894 -11.738  1.00  0.00     0.022 A 
BRANCH  70  73
ATOM     73  S   UNL     1       5.295  10.577 -13.550  1.00  0.00     0.127 S 
ATOM     74  O   UNL     1       4.487  11.284 -12.556  1.00  0.00    -0.237 OA
ATOM     75  O   UNL     1       6.385  11.368 -14.122  1.00  0.00    -0.237 OA
ATOM     76  O   UNL     1       4.548   9.786 -14.518  1.00  0.00    -0.744 OA
ENDBRANCH  70  73
ENDBRANCH  52  66
BRANCH  53  77
ATOM     77  C   UNL     1       4.577  -2.621 -11.533  1.00  0.00     0.023 A 
ATOM     78  C   UNL     1       5.610  -3.577 -11.552  1.00  0.00     0.012 A 
ATOM     79  C   UNL     1       3.238  -3.057 -11.485  1.00  0.00     0.148 A 
ATOM     80  C   UNL     1       5.316  -4.941 -11.546  1.00  0.00     0.002 A 
ATOM     81  C   UNL     1       2.954  -4.417 -11.431  1.00  0.00     0.091 A 
ATOM     82  F   UNL     1       2.267  -2.133 -11.493  1.00  0.00    -0.205 F 
ATOM     83  C   UNL     1       3.990  -5.361 -11.473  1.00  0.00     0.022 A 
BRANCH  81  84
ATOM     84  S   UNL     1       1.277  -5.030 -11.227  1.00  0.00     0.127 S 
ATOM     85  O   UNL     1       0.941  -5.440 -12.588  1.00  0.00    -0.237 OA
ATOM     86  O   UNL     1       1.462  -6.133 -10.283  1.00  0.00    -0.237 OA
ATOM     87  O   UNL     1       0.518  -3.907 -10.693  1.00  0.00    -0.744 OA
ENDBRANCH  81  84
ENDBRANCH  53  77
BRANCH  65  88
ATOM     88  C   UNL     1       7.531   1.601 -16.253  1.00  0.00     0.023 A 
ATOM     89  C   UNL     1       6.628   1.423 -17.320  1.00  0.00     0.012 A 
ATOM     90  C   UNL     1       8.914   1.648 -16.517  1.00  0.00     0.148 A 
ATOM     91  C   UNL     1       7.095   1.268 -18.625  1.00  0.00     0.002 A 
ATOM     92  C   UNL     1       9.370   1.537 -17.826  1.00  0.00     0.091 A 
ATOM     93  F   UNL     1       9.758   1.799 -15.487  1.00  0.00    -0.205 F 
ATOM     94  C   UNL     1       8.463   1.337 -18.879  1.00  0.00     0.022 A 
BRANCH  92  95
ATOM     95  S   UNL     1      11.106   1.708 -18.255  1.00  0.00     0.127 S 
ATOM     96  O   UNL     1      11.491   0.321 -18.505  1.00  0.00    -0.237 OA
ATOM     97  O   UNL     1      11.052   2.551 -19.450  1.00  0.00    -0.237 OA
ATOM     98  O   UNL     1      11.739   2.339 -17.104  1.00  0.00    -0.744 OA
ENDBRANCH  92  95
ENDBRANCH  65  88
ENDBRANCH  39  40
ENDBRANCH  32  34
ENDBRANCH  31  32
ENDBRANCH  30  31
ENDBRANCH  29  30
ENDBRANCH  28  29
ENDBRANCH   1  28
TORSDOF 22
