REMARK SMILES C/C(=C(\C#N)C(=O)OCCOCCOC(=O)c1ccc(-c2c3nc(c(-c4cccc(S(=O)(=O)[O-])c4F)c4ccc([nH]4)c(-c4cccc(S(=O)(=O)[O-])c4F)c4nc(c(-c5cccc(S(=O)(=O)[O-])c5F)c5ccc2[nH]5)C=C4)C=C3)cc1)c1cccc2ccccc12
REMARK SMILES IDX 12 1 11 2 10 3 9 4 8 5 6 6 7 7 3 8 1 9 2 10 80 11 81 12
REMARK SMILES IDX 89 13 82 14 84 15 88 16 83 17 85 18 87 19 86 20 4 21 5 22
REMARK SMILES IDX 13 23 14 24 15 25 16 26 17 27 18 28 79 29 19 30 78 31 20 32
REMARK SMILES IDX 21 33 22 34 72 35 23 36 77 37 71 38 73 39 24 40 76 41 70 42
REMARK SMILES IDX 69 43 25 45 57 46 37 47 56 48 38 49 41 50 55 51 74 52 39 53
REMARK SMILES IDX 40 54 54 56 75 57 42 58 26 59 27 60 35 61 28 62 30 63 36 64
REMARK SMILES IDX 29 65 31 66 32 67 33 68 34 69 58 70 59 71 67 72 60 73 62 74
REMARK SMILES IDX 68 75 61 76 63 77 64 78 65 79 66 80 43 81 44 82 52 83 45 84
REMARK SMILES IDX 47 85 53 86 46 87 48 88 49 89 50 90 51 91
REMARK H PARENT 73 44 41 55
REMARK Flexibility Score: inf
ROOT
ATOM      1  C   UNL     1      -2.502   1.016  -4.520  1.00  0.00     0.202 C 
ENDROOT
BRANCH   1   2
ATOM      2  O   UNL     1      -2.604   0.440  -5.811  1.00  0.00    -0.374 OA
BRANCH   2   3
ATOM      3  C   UNL     1      -2.484  -0.979  -5.928  1.00  0.00     0.202 C 
BRANCH   3   4
ATOM      4  C   UNL     1      -1.231  -1.667  -5.388  1.00  0.00     0.261 C 
BRANCH   4   5
ATOM      5  O   UNL     1      -1.211  -1.603  -3.949  1.00  0.00    -0.459 OA
BRANCH   5   6
ATOM      6  C   UNL     1      -0.056  -1.133  -3.425  1.00  0.00     0.349 C 
ATOM      7  O   UNL     1       0.972  -0.908  -4.047  1.00  0.00    -0.245 OA
BRANCH   6   8
ATOM      8  C   UNL     1      -0.220  -0.869  -1.978  1.00  0.00     0.140 C 
ATOM      9  C   UNL     1       0.772   0.262   0.071  1.00  0.00     0.047 C 
ATOM     10  C   UNL     1       0.461   0.191  -1.407  1.00  0.00    -0.018 C 
BRANCH  10  11
ATOM     11  C   UNL     1       0.937   1.399  -2.187  1.00  0.00    -0.013 A 
ATOM     12  C   UNL     1      -0.094   2.174  -2.730  1.00  0.00     0.009 A 
ATOM     13  C   UNL     1       2.280   1.844  -2.435  1.00  0.00    -0.011 A 
ATOM     14  C   UNL     1       0.138   3.095  -3.748  1.00  0.00     0.001 A 
ATOM     15  C   UNL     1       2.499   2.739  -3.526  1.00  0.00    -0.018 A 
ATOM     16  C   UNL     1       3.428   1.548  -1.657  1.00  0.00     0.009 A 
ATOM     17  C   UNL     1       1.423   3.288  -4.219  1.00  0.00     0.009 A 
ATOM     18  C   UNL     1       3.786   3.158  -3.891  1.00  0.00     0.009 A 
ATOM     19  C   UNL     1       4.686   2.107  -1.940  1.00  0.00     0.001 A 
ATOM     20  C   UNL     1       4.875   2.873  -3.081  1.00  0.00     0.001 A 
ENDBRANCH  10  11
BRANCH   8  21
ATOM     21  C   UNL     1      -0.588  -2.056  -1.102  1.00  0.00     0.107 C 
ATOM     22  N   UNL     1      -0.892  -3.040  -0.375  1.00  0.00    -0.192 NA
ENDBRANCH   8  21
ENDBRANCH   6   8
ENDBRANCH   5   6
ENDBRANCH   4   5
ENDBRANCH   3   4
ENDBRANCH   2   3
ENDBRANCH   1   2
BRANCH   1  23
ATOM     23  C   UNL     1      -3.661   0.917  -3.519  1.00  0.00     0.261 C 
BRANCH  23  24
ATOM     24  O   UNL     1      -4.338  -0.331  -3.540  1.00  0.00    -0.460 OA
BRANCH  24  25
ATOM     25  C   UNL     1      -5.370  -0.348  -4.421  1.00  0.00     0.338 C 
ATOM     26  O   UNL     1      -5.781   0.569  -5.104  1.00  0.00    -0.246 OA
BRANCH  25  27
ATOM     27  C   UNL     1      -5.811  -1.739  -4.566  1.00  0.00     0.060 A 
ATOM     28  C   UNL     1      -5.781  -2.298  -5.851  1.00  0.00     0.016 A 
ATOM     29  C   UNL     1      -6.253  -2.468  -3.462  1.00  0.00     0.016 A 
ATOM     30  C   UNL     1      -6.234  -3.593  -6.046  1.00  0.00     0.010 A 
ATOM     31  C   UNL     1      -6.730  -3.757  -3.664  1.00  0.00     0.010 A 
ATOM     32  C   UNL     1      -6.757  -4.303  -4.960  1.00  0.00    -0.014 A 
BRANCH  32  33
ATOM     33  C   UNL     1      -7.533  -5.531  -5.204  1.00  0.00     0.031 A 
ATOM     34  C   UNL     1      -9.029  -5.419  -5.218  1.00  0.00     0.074 A 
ATOM     35  C   UNL     1      -6.915  -6.710  -5.374  1.00  0.00     0.049 A 
ATOM     36  N   UNL     1      -9.927  -6.362  -5.286  1.00  0.00    -0.248 NA
ATOM     37  C   UNL     1      -9.588  -4.057  -5.130  1.00  0.00     0.031 C 
ATOM     38  C   UNL     1      -5.466  -6.909  -5.397  1.00  0.00     0.029 A 
ATOM     39  N   UNL     1      -7.435  -7.968  -5.520  1.00  0.00    -0.354 N 
ATOM     40  C   UNL     1     -11.154  -5.716  -5.203  1.00  0.00     0.074 A 
ATOM     41  C   UNL     1     -10.888  -4.301  -5.078  1.00  0.00     0.031 C 
ATOM     42  C   UNL     1      -5.213  -8.224  -5.506  1.00  0.00     0.029 A 
ATOM     43  C   UNL     1      -6.479  -8.954  -5.521  1.00  0.00     0.049 A 
ATOM     44  H   UNL     1      -8.399  -8.148  -5.615  1.00  0.00     0.167 HD
ATOM     45  C   UNL     1     -12.391  -6.260  -5.234  1.00  0.00     0.034 A 
ATOM     46  C   UNL     1      -6.620 -10.293  -5.495  1.00  0.00     0.034 A 
ATOM     47  C   UNL     1     -12.633  -7.668  -5.373  1.00  0.00     0.049 A 
ATOM     48  C   UNL     1      -8.010 -10.875  -5.499  1.00  0.00     0.074 A 
ATOM     49  C   UNL     1     -13.844  -8.327  -5.461  1.00  0.00     0.029 A 
ATOM     50  N   UNL     1     -11.641  -8.635  -5.429  1.00  0.00    -0.354 N 
ATOM     51  N   UNL     1      -9.165 -10.254  -5.517  1.00  0.00    -0.248 NA
ATOM     52  C   UNL     1      -8.118 -12.341  -5.509  1.00  0.00     0.031 C 
ATOM     53  C   UNL     1     -13.585  -9.698  -5.533  1.00  0.00     0.029 A 
ATOM     54  C   UNL     1     -12.211  -9.888  -5.539  1.00  0.00     0.049 A 
ATOM     55  H   UNL     1     -10.673  -8.455  -5.395  1.00  0.00     0.167 HD
ATOM     56  C   UNL     1     -10.134 -11.248  -5.590  1.00  0.00     0.074 A 
ATOM     57  C   UNL     1      -9.429 -12.514  -5.616  1.00  0.00     0.031 C 
ATOM     58  C   UNL     1     -11.483 -11.128  -5.630  1.00  0.00     0.034 A 
BRANCH  45  59
ATOM     59  C   UNL     1     -13.569  -5.332  -5.116  1.00  0.00     0.023 A 
ATOM     60  C   UNL     1     -13.895  -4.469  -6.182  1.00  0.00     0.012 A 
ATOM     61  C   UNL     1     -14.381  -5.348  -3.966  1.00  0.00     0.148 A 
ATOM     62  C   UNL     1     -14.993  -3.614  -6.091  1.00  0.00     0.002 A 
ATOM     63  C   UNL     1     -15.501  -4.529  -3.903  1.00  0.00     0.091 A 
ATOM     64  F   UNL     1     -14.038  -6.156  -2.953  1.00  0.00    -0.205 F 
ATOM     65  C   UNL     1     -15.801  -3.653  -4.958  1.00  0.00     0.022 A 
BRANCH  63  66
ATOM     66  S   UNL     1     -16.649  -4.565  -2.523  1.00  0.00     0.127 S 
ATOM     67  O   UNL     1     -16.412  -3.259  -1.908  1.00  0.00    -0.237 OA
ATOM     68  O   UNL     1     -17.939  -4.694  -3.201  1.00  0.00    -0.237 OA
ATOM     69  O   UNL     1     -16.271  -5.713  -1.712  1.00  0.00    -0.744 OA
ENDBRANCH  63  66
ENDBRANCH  45  59
BRANCH  46  70
ATOM     70  C   UNL     1      -5.417 -11.169  -5.483  1.00  0.00     0.023 A 
ATOM     71  C   UNL     1      -5.119 -11.954  -6.613  1.00  0.00     0.012 A 
ATOM     72  C   UNL     1      -4.556 -11.214  -4.369  1.00  0.00     0.148 A 
ATOM     73  C   UNL     1      -4.005 -12.794  -6.622  1.00  0.00     0.002 A 
ATOM     74  C   UNL     1      -3.418 -12.011  -4.405  1.00  0.00     0.091 A 
ATOM     75  F   UNL     1      -4.863 -10.466  -3.300  1.00  0.00    -0.205 F 
ATOM     76  C   UNL     1      -3.150 -12.816  -5.523  1.00  0.00     0.022 A 
BRANCH  74  77
ATOM     77  S   UNL     1      -2.197 -12.012  -3.088  1.00  0.00     0.127 S 
ATOM     78  O   UNL     1      -2.351 -13.357  -2.540  1.00  0.00    -0.237 OA
ATOM     79  O   UNL     1      -0.956 -11.788  -3.831  1.00  0.00    -0.237 OA
ATOM     80  O   UNL     1      -2.573 -10.922  -2.199  1.00  0.00    -0.744 OA
ENDBRANCH  74  77
ENDBRANCH  46  70
BRANCH  58  81
ATOM     81  C   UNL     1     -12.302 -12.382  -5.785  1.00  0.00     0.023 A 
ATOM     82  C   UNL     1     -12.466 -13.260  -4.697  1.00  0.00     0.012 A 
ATOM     83  C   UNL     1     -13.009 -12.615  -6.981  1.00  0.00     0.148 A 
ATOM     84  C   UNL     1     -13.311 -14.365  -4.806  1.00  0.00     0.002 A 
ATOM     85  C   UNL     1     -13.889 -13.685  -7.064  1.00  0.00     0.091 A 
ATOM     86  F   UNL     1     -12.823 -11.771  -8.007  1.00  0.00    -0.205 F 
ATOM     87  C   UNL     1     -14.033 -14.568  -5.981  1.00  0.00     0.022 A 
BRANCH  85  88
ATOM     88  S   UNL     1     -14.940 -13.962  -8.493  1.00  0.00     0.127 S 
ATOM     89  O   UNL     1     -14.389 -15.205  -9.031  1.00  0.00    -0.237 OA
ATOM     90  O   UNL     1     -16.262 -14.094  -7.882  1.00  0.00    -0.237 OA
ATOM     91  O   UNL     1     -14.779 -12.793  -9.348  1.00  0.00    -0.744 OA
ENDBRANCH  85  88
ENDBRANCH  58  81
ENDBRANCH  32  33
ENDBRANCH  25  27
ENDBRANCH  24  25
ENDBRANCH  23  24
ENDBRANCH   1  23
TORSDOF 19
