REMARK SMILES CCN(C=O)[C@](C)(C(=O)OCCOCCOC(=O)c1ccc(-c2c3nc(c(-c4cccc(S(=O)(=O)[O-])c4F)c4ccc([nH]4)c(-c4cccc(S(=O)(=O)[O-])c4F)c4nc(c(-c5cccc(S(=O)(=O)[O-])c5F)c5ccc2[nH]5)C=C4)C=C3)cc1)c1cc(F)c(C)cc1F
REMARK SMILES IDX 14 1 13 2 12 3 11 4 10 5 8 6 9 7 6 8 7 9 3 10 2 11 1 12 4 13
REMARK SMILES IDX 5 14 82 15 83 16 89 17 84 18 88 19 90 20 85 21 86 22 87 23
REMARK SMILES IDX 15 24 16 25 17 26 18 27 19 28 20 29 81 30 21 31 80 32 22 33
REMARK SMILES IDX 23 34 24 35 74 36 25 37 79 38 73 39 75 40 26 41 78 42 72 43
REMARK SMILES IDX 71 44 27 46 59 47 39 48 58 49 40 50 43 51 57 52 76 53 41 54
REMARK SMILES IDX 42 55 56 57 77 58 44 59 28 60 29 61 37 62 30 63 32 64 38 65
REMARK SMILES IDX 31 66 33 67 34 68 35 69 36 70 60 71 61 72 69 73 62 74 64 75
REMARK SMILES IDX 70 76 63 77 65 78 66 79 67 80 68 81 45 82 46 83 54 84 47 85
REMARK SMILES IDX 49 86 55 87 48 88 50 89 51 90 52 91 53 92
REMARK H PARENT 75 45 43 56
REMARK Flexibility Score: inf
ROOT
ATOM      1  C   UNL     1       2.192  -0.514   3.367  1.00  0.00     0.202 C 
ENDROOT
BRANCH   1   2
ATOM      2  O   UNL     1       3.262   0.423   3.450  1.00  0.00    -0.374 OA
BRANCH   2   3
ATOM      3  C   UNL     1       3.626   1.112   2.252  1.00  0.00     0.202 C 
BRANCH   3   4
ATOM      4  C   UNL     1       4.334   0.308   1.160  1.00  0.00     0.261 C 
BRANCH   4   5
ATOM      5  O   UNL     1       3.452  -0.653   0.558  1.00  0.00    -0.461 OA
BRANCH   5   6
ATOM      6  C   UNL     1       3.804  -1.964   0.721  1.00  0.00     0.336 C 
ATOM      7  O   UNL     1       4.771  -2.346   1.378  1.00  0.00    -0.249 OA
BRANCH   6   8
ATOM      8  C   UNL     1       2.815  -2.937  -0.048  1.00  0.00     0.166 C 
ATOM      9  C   UNL     1       1.420  -2.268  -0.180  1.00  0.00     0.053 C 
BRANCH   8  10
ATOM     10  N   UNL     1       3.289  -3.282  -1.460  1.00  0.00    -0.326 N 
BRANCH  10  11
ATOM     11  C   UNL     1       2.409  -3.990  -2.407  1.00  0.00     0.117 C 
ATOM     12  C   UNL     1       2.194  -5.467  -2.136  1.00  0.00     0.027 C 
ENDBRANCH  10  11
BRANCH  10  13
ATOM     13  C   UNL     1       4.384  -2.624  -2.018  1.00  0.00     0.341 C 
ATOM     14  O   UNL     1       5.124  -1.817  -1.477  1.00  0.00    -0.279 OA
ENDBRANCH  10  13
ENDBRANCH   8  10
BRANCH   8  15
ATOM     15  C   UNL     1       2.758  -4.197   0.866  1.00  0.00     0.027 A 
ATOM     16  C   UNL     1       3.652  -5.269   0.679  1.00  0.00     0.049 A 
ATOM     17  C   UNL     1       1.951  -4.254   2.016  1.00  0.00     0.129 A 
ATOM     18  C   UNL     1       3.654  -6.371   1.538  1.00  0.00     0.126 A 
ATOM     19  C   UNL     1       1.977  -5.340   2.896  1.00  0.00     0.046 A 
ATOM     20  F   UNL     1       1.139  -3.241   2.340  1.00  0.00    -0.207 F 
ATOM     21  F   UNL     1       4.476  -7.396   1.272  1.00  0.00    -0.207 F 
ATOM     22  C   UNL     1       2.827  -6.420   2.659  1.00  0.00    -0.012 A 
ATOM     23  C   UNL     1       2.813  -7.617   3.559  1.00  0.00     0.047 C 
ENDBRANCH   8  15
ENDBRANCH   6   8
ENDBRANCH   5   6
ENDBRANCH   4   5
ENDBRANCH   3   4
ENDBRANCH   2   3
ENDBRANCH   1   2
BRANCH   1  24
ATOM     24  C   UNL     1       0.761   0.042   3.343  1.00  0.00     0.261 C 
BRANCH  24  25
ATOM     25  O   UNL     1       0.539   0.987   2.285  1.00  0.00    -0.460 OA
BRANCH  25  26
ATOM     26  C   UNL     1       0.455   2.275   2.694  1.00  0.00     0.338 C 
ATOM     27  O   UNL     1       0.457   2.689   3.849  1.00  0.00    -0.246 OA
BRANCH  26  28
ATOM     28  C   UNL     1       0.539   3.175   1.534  1.00  0.00     0.060 A 
ATOM     29  C   UNL     1       1.579   4.114   1.517  1.00  0.00     0.016 A 
ATOM     30  C   UNL     1      -0.412   3.145   0.512  1.00  0.00     0.016 A 
ATOM     31  C   UNL     1       1.654   5.052   0.492  1.00  0.00     0.010 A 
ATOM     32  C   UNL     1      -0.343   4.097  -0.509  1.00  0.00     0.010 A 
ATOM     33  C   UNL     1       0.672   5.072  -0.505  1.00  0.00    -0.014 A 
BRANCH  33  34
ATOM     34  C   UNL     1       0.630   6.199  -1.464  1.00  0.00     0.031 A 
ATOM     35  C   UNL     1      -0.328   7.330  -1.216  1.00  0.00     0.074 A 
ATOM     36  C   UNL     1       1.440   6.214  -2.537  1.00  0.00     0.049 A 
ATOM     37  N   UNL     1      -0.550   8.399  -1.934  1.00  0.00    -0.248 NA
ATOM     38  C   UNL     1      -1.145   7.243   0.005  1.00  0.00     0.031 C 
ATOM     39  C   UNL     1       2.420   5.181  -2.868  1.00  0.00     0.029 A 
ATOM     40  N   UNL     1       1.549   7.124  -3.558  1.00  0.00    -0.354 N 
ATOM     41  C   UNL     1      -1.547   9.101  -1.268  1.00  0.00     0.074 A 
ATOM     42  C   UNL     1      -1.898   8.329  -0.095  1.00  0.00     0.031 C 
ATOM     43  C   UNL     1       3.014   5.501  -4.030  1.00  0.00     0.029 A 
ATOM     44  C   UNL     1       2.438   6.746  -4.536  1.00  0.00     0.049 A 
ATOM     45  H   UNL     1       1.041   7.966  -3.587  1.00  0.00     0.167 HD
ATOM     46  C   UNL     1      -2.109  10.289  -1.594  1.00  0.00     0.034 A 
ATOM     47  C   UNL     1       2.732   7.327  -5.715  1.00  0.00     0.034 A 
ATOM     48  C   UNL     1      -1.748  11.056  -2.756  1.00  0.00     0.049 A 
ATOM     49  C   UNL     1       2.054   8.621  -6.083  1.00  0.00     0.074 A 
ATOM     50  C   UNL     1      -2.224  12.292  -3.153  1.00  0.00     0.029 A 
ATOM     51  N   UNL     1      -0.837  10.649  -3.719  1.00  0.00    -0.354 N 
ATOM     52  N   UNL     1       1.199   9.333  -5.388  1.00  0.00    -0.248 NA
ATOM     53  C   UNL     1       2.398   9.205  -7.388  1.00  0.00     0.031 C 
ATOM     54  C   UNL     1      -1.624  12.618  -4.375  1.00  0.00     0.029 A 
ATOM     55  C   UNL     1      -0.752  11.598  -4.723  1.00  0.00     0.049 A 
ATOM     56  H   UNL     1      -0.324   9.809  -3.691  1.00  0.00     0.167 HD
ATOM     57  C   UNL     1       0.924  10.460  -6.156  1.00  0.00     0.074 A 
ATOM     58  C   UNL     1       1.722  10.346  -7.360  1.00  0.00     0.031 C 
ATOM     59  C   UNL     1       0.076  11.487  -5.898  1.00  0.00     0.034 A 
BRANCH  46  60
ATOM     60  C   UNL     1      -3.163  10.836  -0.667  1.00  0.00     0.023 A 
ATOM     61  C   UNL     1      -2.790  11.339   0.596  1.00  0.00     0.012 A 
ATOM     62  C   UNL     1      -4.516  10.881  -1.056  1.00  0.00     0.148 A 
ATOM     63  C   UNL     1      -3.750  11.843   1.472  1.00  0.00     0.002 A 
ATOM     64  C   UNL     1      -5.462  11.424  -0.194  1.00  0.00     0.091 A 
ATOM     65  F   UNL     1      -4.856  10.375  -2.250  1.00  0.00    -0.205 F 
ATOM     66  C   UNL     1      -5.083  11.893   1.074  1.00  0.00     0.022 A 
BRANCH  64  67
ATOM     67  S   UNL     1      -7.192  11.598  -0.644  1.00  0.00     0.127 S 
ATOM     68  O   UNL     1      -7.816  10.561   0.176  1.00  0.00    -0.237 OA
ATOM     69  O   UNL     1      -7.484  12.968  -0.222  1.00  0.00    -0.237 OA
ATOM     70  O   UNL     1      -7.255  11.381  -2.083  1.00  0.00    -0.744 OA
ENDBRANCH  64  67
ENDBRANCH  46  60
BRANCH  47  71
ATOM     71  C   UNL     1       3.736   6.702  -6.622  1.00  0.00     0.023 A 
ATOM     72  C   UNL     1       4.977   7.335  -6.824  1.00  0.00     0.012 A 
ATOM     73  C   UNL     1       3.480   5.472  -7.260  1.00  0.00     0.148 A 
ATOM     74  C   UNL     1       5.936   6.766  -7.663  1.00  0.00     0.002 A 
ATOM     75  C   UNL     1       4.460   4.884  -8.051  1.00  0.00     0.091 A 
ATOM     76  F   UNL     1       2.285   4.894  -7.068  1.00  0.00    -0.205 F 
ATOM     77  C   UNL     1       5.683   5.537  -8.267  1.00  0.00     0.022 A 
BRANCH  75  78
ATOM     78  S   UNL     1       4.268   3.249  -8.769  1.00  0.00     0.127 S 
ATOM     79  O   UNL     1       4.182   3.555 -10.195  1.00  0.00    -0.237 OA
ATOM     80  O   UNL     1       5.507   2.590  -8.354  1.00  0.00    -0.237 OA
ATOM     81  O   UNL     1       3.063   2.692  -8.170  1.00  0.00    -0.744 OA
ENDBRANCH  75  78
ENDBRANCH  47  71
BRANCH  59  82
ATOM     82  C   UNL     1      -0.029  12.583  -6.928  1.00  0.00     0.023 A 
ATOM     83  C   UNL     1      -0.703  12.336  -8.140  1.00  0.00     0.012 A 
ATOM     84  C   UNL     1       0.468  13.875  -6.663  1.00  0.00     0.148 A 
ATOM     85  C   UNL     1      -0.857  13.350  -9.085  1.00  0.00     0.002 A 
ATOM     86  C   UNL     1       0.268  14.893  -7.588  1.00  0.00     0.091 A 
ATOM     87  F   UNL     1       1.119  14.085  -5.510  1.00  0.00    -0.205 F 
ATOM     88  C   UNL     1      -0.383  14.630  -8.804  1.00  0.00     0.022 A 
BRANCH  86  89
ATOM     89  S   UNL     1       0.757  16.593  -7.276  1.00  0.00     0.127 S 
ATOM     90  O   UNL     1       1.865  16.761  -8.216  1.00  0.00    -0.237 OA
ATOM     91  O   UNL     1      -0.456  17.333  -7.623  1.00  0.00    -0.237 OA
ATOM     92  O   UNL     1       1.122  16.655  -5.867  1.00  0.00    -0.744 OA
ENDBRANCH  86  89
ENDBRANCH  59  82
ENDBRANCH  33  34
ENDBRANCH  26  28
ENDBRANCH  25  26
ENDBRANCH  24  25
ENDBRANCH   1  24
TORSDOF 21
