REMARK SMILES NS(=O)(=O)c1ccc(-n2nc(C(F)(F)F)cc2-c2ccc(CC(=O)OCCOCCOC(=O)c3ccc(-c4c5nc(c(-c6cccc(S(=O)(=O)[O-])c6F)c6ccc([nH]6)c(-c6cccc(S(=O)(=O)[O-])c6F)c6nc(c(-c7cccc(S(=O)(=O)[O-])c7F)c7ccc4[nH]7)C=C6)C=C5)cc3)cc2)cc1
REMARK SMILES IDX 27 1 26 2 25 3 23 4 24 5 22 6 21 7 18 8 19 9 98 10 20 11
REMARK SMILES IDX 97 12 17 13 9 14 10 15 11 16 16 17 8 18 5 19 6 20 100 21
REMARK SMILES IDX 7 22 99 23 2 24 3 25 4 26 1 27 12 30 13 31 14 32 15 33 28 34
REMARK SMILES IDX 29 35 30 36 31 37 32 38 33 39 34 40 35 41 96 42 36 43 95 44
REMARK SMILES IDX 37 45 38 46 39 47 89 48 40 49 94 50 88 51 90 52 41 53 93 54
REMARK SMILES IDX 87 55 86 56 42 58 74 59 54 60 73 61 55 62 58 63 72 64 91 65
REMARK SMILES IDX 56 66 57 67 71 69 92 70 59 71 43 72 44 73 52 74 45 75 47 76
REMARK SMILES IDX 53 77 46 78 48 79 49 80 50 81 51 82 75 83 76 84 84 85 77 86
REMARK SMILES IDX 79 87 85 88 78 89 80 90 81 91 82 92 83 93 60 94 61 95 69 96
REMARK SMILES IDX 62 97 64 98 70 99 63 100 65 101 66 102 67 103 68 104
REMARK H PARENT 1 28 1 29 90 57 58 68
REMARK Flexibility Score: inf
ROOT
ATOM      1  C   UNL     1      -1.267  -4.643  -6.926  1.00  0.00     0.202 C 
ENDROOT
BRANCH   1   2
ATOM      2  C   UNL     1      -0.431  -4.497  -8.202  1.00  0.00     0.261 C 
BRANCH   2   3
ATOM      3  O   UNL     1      -0.296  -3.156  -8.699  1.00  0.00    -0.463 OA
BRANCH   3   4
ATOM      4  C   UNL     1      -1.055  -2.877  -9.791  1.00  0.00     0.310 C 
ATOM      5  O   UNL     1      -1.786  -3.689 -10.354  1.00  0.00    -0.252 OA
BRANCH   4   6
ATOM      6  C   UNL     1      -0.915  -1.474 -10.322  1.00  0.00     0.158 C 
BRANCH   6   7
ATOM      7  C   UNL     1      -0.294  -0.404  -9.460  1.00  0.00    -0.037 A 
ATOM      8  C   UNL     1       0.804   1.809  -8.129  1.00  0.00     0.000 A 
ATOM      9  C   UNL     1      -0.550   1.507  -7.980  1.00  0.00     0.010 A 
ATOM     10  C   UNL     1       1.615   0.982  -8.916  1.00  0.00     0.010 A 
ATOM     11  C   UNL     1      -1.094   0.404  -8.636  1.00  0.00     0.005 A 
ATOM     12  C   UNL     1       1.072  -0.121  -9.571  1.00  0.00     0.005 A 
BRANCH   8  13
ATOM     13  C   UNL     1       1.377   3.022  -7.564  1.00  0.00     0.075 A 
ATOM     14  N   UNL     1       1.354   3.466  -6.239  1.00  0.00    -0.233 N 
ATOM     15  N   UNL     1       1.973   4.667  -6.119  1.00  0.00    -0.163 NA
ATOM     16  C   UNL     1       2.377   5.003  -7.363  1.00  0.00     0.167 A 
ATOM     17  C   UNL     1       1.946   4.038  -8.292  1.00  0.00     0.064 A 
BRANCH  14  18
ATOM     18  C   UNL     1       0.768   2.793  -5.120  1.00  0.00     0.065 A 
ATOM     19  C   UNL     1      -0.501   1.354  -3.024  1.00  0.00     0.082 A 
ATOM     20  C   UNL     1       0.141   0.708  -4.066  1.00  0.00     0.024 A 
ATOM     21  C   UNL     1      -0.544   2.752  -3.040  1.00  0.00     0.024 A 
ATOM     22  C   UNL     1       0.772   1.404  -5.094  1.00  0.00     0.030 A 
ATOM     23  C   UNL     1       0.134   3.473  -4.068  1.00  0.00     0.030 A 
BRANCH  19  24
ATOM     24  S   UNL     1      -1.077   0.328  -1.672  1.00  0.00     0.238 S 
ATOM     25  O   UNL     1      -1.079  -1.055  -2.120  1.00  0.00    -0.207 OA
ATOM     26  O   UNL     1      -2.248   0.931  -1.102  1.00  0.00    -0.207 OA
BRANCH  24  27
ATOM     27  N   UNL     1       0.131   0.398  -0.511  1.00  0.00    -0.225 NA
ATOM     28  H   UNL     1      -0.137  -0.170   0.292  1.00  0.00     0.137 HD
ATOM     29  H   UNL     1       0.262   1.365  -0.215  1.00  0.00     0.137 HD
ENDBRANCH  24  27
ENDBRANCH  19  24
ENDBRANCH  14  18
BRANCH  16  30
ATOM     30  C   UNL     1       3.187   6.212  -7.785  1.00  0.00     0.435 C 
ATOM     31  F   UNL     1       2.579   7.401  -7.588  1.00  0.00    -0.164 F 
ATOM     32  F   UNL     1       4.450   6.209  -7.299  1.00  0.00    -0.164 F 
ATOM     33  F   UNL     1       3.361   6.158  -9.157  1.00  0.00    -0.164 F 
ENDBRANCH  16  30
ENDBRANCH   8  13
ENDBRANCH   6   7
ENDBRANCH   4   6
ENDBRANCH   3   4
ENDBRANCH   2   3
ENDBRANCH   1   2
BRANCH   1  34
ATOM     34  O   UNL     1      -2.466  -3.893  -6.797  1.00  0.00    -0.374 OA
BRANCH  34  35
ATOM     35  C   UNL     1      -2.363  -2.479  -6.690  1.00  0.00     0.202 C 
BRANCH  35  36
ATOM     36  C   UNL     1      -1.521  -1.881  -5.569  1.00  0.00     0.261 C 
BRANCH  36  37
ATOM     37  O   UNL     1      -0.136  -2.262  -5.579  1.00  0.00    -0.460 OA
BRANCH  37  38
ATOM     38  C   UNL     1       0.262  -3.026  -4.518  1.00  0.00     0.338 C 
ATOM     39  O   UNL     1      -0.434  -3.807  -3.891  1.00  0.00    -0.246 OA
BRANCH  38  40
ATOM     40  C   UNL     1       1.584  -2.546  -4.052  1.00  0.00     0.060 A 
ATOM     41  C   UNL     1       1.786  -2.597  -2.670  1.00  0.00     0.016 A 
ATOM     42  C   UNL     1       2.348  -1.692  -4.848  1.00  0.00     0.016 A 
ATOM     43  C   UNL     1       2.514  -1.583  -2.058  1.00  0.00     0.010 A 
ATOM     44  C   UNL     1       3.035  -0.658  -4.220  1.00  0.00     0.010 A 
ATOM     45  C   UNL     1       3.004  -0.519  -2.822  1.00  0.00    -0.014 A 
BRANCH  45  46
ATOM     46  C   UNL     1       3.812   0.535  -2.186  1.00  0.00     0.031 A 
ATOM     47  C   UNL     1       5.181   0.027  -2.089  1.00  0.00     0.074 A 
ATOM     48  C   UNL     1       3.517   1.774  -1.723  1.00  0.00     0.049 A 
ATOM     49  N   UNL     1       5.627  -0.618  -1.062  1.00  0.00    -0.248 NA
ATOM     50  C   UNL     1       5.992  -0.106  -3.302  1.00  0.00     0.031 C 
ATOM     51  C   UNL     1       2.249   2.455  -1.720  1.00  0.00     0.029 A 
ATOM     52  N   UNL     1       4.313   2.745  -1.176  1.00  0.00    -0.354 N 
ATOM     53  C   UNL     1       6.923  -0.920  -1.418  1.00  0.00     0.074 A 
ATOM     54  C   UNL     1       6.945  -0.928  -2.857  1.00  0.00     0.031 C 
ATOM     55  C   UNL     1       2.372   3.779  -1.503  1.00  0.00     0.029 A 
ATOM     56  C   UNL     1       3.746   4.031  -1.164  1.00  0.00     0.049 A 
ATOM     57  H   UNL     1       5.211   2.557  -0.819  1.00  0.00     0.167 HD
ATOM     58  C   UNL     1       7.921  -0.652  -0.537  1.00  0.00     0.034 A 
ATOM     59  C   UNL     1       4.286   5.225  -0.804  1.00  0.00     0.034 A 
ATOM     60  C   UNL     1       7.413  -0.505   0.812  1.00  0.00     0.049 A 
ATOM     61  C   UNL     1       5.367   4.898   0.141  1.00  0.00     0.074 A 
ATOM     62  C   UNL     1       6.589  -1.250   1.637  1.00  0.00     0.029 A 
ATOM     63  N   UNL     1       7.434   0.758   1.352  1.00  0.00    -0.354 N 
ATOM     64  N   UNL     1       5.136   4.453   1.343  1.00  0.00    -0.248 NA
ATOM     65  C   UNL     1       6.670   4.591  -0.418  1.00  0.00     0.031 C 
ATOM     66  C   UNL     1       5.816  -0.298   2.365  1.00  0.00     0.029 A 
ATOM     67  C   UNL     1       6.256   0.977   2.013  1.00  0.00     0.049 A 
ATOM     68  H   UNL     1       8.175   1.401   1.276  1.00  0.00     0.167 HD
ATOM     69  C   UNL     1       6.015   3.389   1.463  1.00  0.00     0.074 A 
ATOM     70  C   UNL     1       7.003   3.588   0.399  1.00  0.00     0.031 C 
ATOM     71  C   UNL     1       5.682   2.290   2.200  1.00  0.00     0.034 A 
BRANCH  58  72
ATOM     72  C   UNL     1       9.248  -0.071  -0.969  1.00  0.00     0.023 A 
ATOM     73  C   UNL     1      10.261  -0.018   0.005  1.00  0.00     0.012 A 
ATOM     74  C   UNL     1       9.481   0.643  -2.172  1.00  0.00     0.148 A 
ATOM     75  C   UNL     1      11.420   0.739  -0.194  1.00  0.00     0.002 A 
ATOM     76  C   UNL     1      10.674   1.306  -2.408  1.00  0.00     0.091 A 
ATOM     77  F   UNL     1       8.504   0.833  -3.058  1.00  0.00    -0.205 F 
ATOM     78  C   UNL     1      11.635   1.389  -1.405  1.00  0.00     0.022 A 
BRANCH  76  79
ATOM     79  S   UNL     1      10.996   2.109  -3.985  1.00  0.00     0.127 S 
ATOM     80  O   UNL     1      10.925   3.519  -3.614  1.00  0.00    -0.237 OA
ATOM     81  O   UNL     1      12.335   1.611  -4.299  1.00  0.00    -0.237 OA
ATOM     82  O   UNL     1       9.958   1.636  -4.894  1.00  0.00    -0.744 OA
ENDBRANCH  76  79
ENDBRANCH  58  72
BRANCH  59  83
ATOM     83  C   UNL     1       4.048   6.619  -1.272  1.00  0.00     0.023 A 
ATOM     84  C   UNL     1       4.727   7.681  -0.629  1.00  0.00     0.012 A 
ATOM     85  C   UNL     1       3.440   6.898  -2.514  1.00  0.00     0.148 A 
ATOM     86  C   UNL     1       4.887   8.932  -1.240  1.00  0.00     0.002 A 
ATOM     87  C   UNL     1       3.592   8.152  -3.109  1.00  0.00     0.091 A 
ATOM     88  F   UNL     1       2.796   5.920  -3.162  1.00  0.00    -0.205 F 
ATOM     89  C   UNL     1       4.339   9.159  -2.493  1.00  0.00     0.022 A 
BRANCH  87  90
ATOM     90  S   UNL     1       2.947   8.497  -4.743  1.00  0.00     0.127 S 
ATOM     91  O   UNL     1       2.658   9.931  -4.689  1.00  0.00    -0.237 OA
ATOM     92  O   UNL     1       4.093   8.144  -5.573  1.00  0.00    -0.237 OA
ATOM     93  O   UNL     1       1.758   7.663  -4.860  1.00  0.00    -0.744 OA
ENDBRANCH  87  90
ENDBRANCH  59  83
BRANCH  71  94
ATOM     94  C   UNL     1       4.509   2.387   3.144  1.00  0.00     0.023 A 
ATOM     95  C   UNL     1       3.175   2.560   2.720  1.00  0.00     0.012 A 
ATOM     96  C   UNL     1       4.762   2.134   4.503  1.00  0.00     0.148 A 
ATOM     97  C   UNL     1       2.120   2.492   3.639  1.00  0.00     0.002 A 
ATOM     98  C   UNL     1       3.712   2.020   5.402  1.00  0.00     0.091 A 
ATOM     99  F   UNL     1       6.039   1.983   4.887  1.00  0.00    -0.205 F 
ATOM    100  C   UNL     1       2.388   2.206   4.978  1.00  0.00     0.022 A 
BRANCH  98 101
ATOM    101  S   UNL     1       3.996   1.533   7.106  1.00  0.00     0.127 S 
ATOM    102  O   UNL     1       3.776   2.787   7.822  1.00  0.00    -0.237 OA
ATOM    103  O   UNL     1       2.963   0.517   7.315  1.00  0.00    -0.237 OA
ATOM    104  O   UNL     1       5.357   1.014   7.153  1.00  0.00    -0.744 OA
ENDBRANCH  98 101
ENDBRANCH  71  94
ENDBRANCH  45  46
ENDBRANCH  38  40
ENDBRANCH  37  38
ENDBRANCH  36  37
ENDBRANCH  35  36
ENDBRANCH  34  35
ENDBRANCH   1  34
TORSDOF 23
