REMARK SMILES O=C(OCCOCCOC(=O)c1ccc(-c2c3nc(c(-c4cccc(S(=O)(=O)[O-])c4F)c4ccc([nH]4)c(-c4cccc(S(=O)(=O)[O-])c4F)c4nc(c(-c5cccc(S(=O)(=O)[O-])c5F)c5ccc2[nH]5)C=C4)C=C3)cc1)C1=Cc2cc(OC(F)(F)F)ccc2O[C@@H]1C(F)(F)F
REMARK SMILES IDX 7 1 6 2 5 3 4 4 3 5 2 6 1 7 75 8 76 9 89 10 77 11 88 12
REMARK SMILES IDX 78 13 87 14 79 15 86 16 85 17 90 18 91 19 92 20 93 21 80 22
REMARK SMILES IDX 81 23 82 24 83 25 84 26 8 27 9 28 10 29 11 30 12 31 13 32
REMARK SMILES IDX 74 33 14 34 73 35 15 36 16 37 17 38 67 39 18 40 72 41 66 42
REMARK SMILES IDX 68 43 19 44 71 45 65 46 64 47 20 49 52 50 32 51 51 52 33 53
REMARK SMILES IDX 36 54 50 55 69 56 34 57 35 58 49 60 70 61 37 62 21 63 22 64
REMARK SMILES IDX 30 65 23 66 25 67 31 68 24 69 26 70 27 71 28 72 29 73 53 74
REMARK SMILES IDX 54 75 62 76 55 77 57 78 63 79 56 80 58 81 59 82 60 83 61 84
REMARK SMILES IDX 38 85 39 86 47 87 40 88 42 89 48 90 41 91 43 92 44 93 45 94
REMARK SMILES IDX 46 95
REMARK H PARENT 68 48 36 59
REMARK Flexibility Score: inf
ROOT
ATOM      1  C   UNL     1       2.832  -2.917  -0.780  1.00  0.00     0.202 C 
ENDROOT
BRANCH   1   2
ATOM      2  O   UNL     1       4.005  -2.174  -1.167  1.00  0.00    -0.374 OA
BRANCH   2   3
ATOM      3  C   UNL     1       4.409  -0.607  -1.097  1.00  0.00     0.202 C 
BRANCH   3   4
ATOM      4  C   UNL     1       3.514   1.073  -0.027  1.00  0.00     0.261 C 
BRANCH   4   5
ATOM      5  O   UNL     1       2.514   2.092  -0.602  1.00  0.00    -0.460 OA
BRANCH   5   6
ATOM      6  C   UNL     1       2.669   2.282  -1.915  1.00  0.00     0.338 C 
ATOM      7  O   UNL     1       2.016   2.943  -2.681  1.00  0.00    -0.246 OA
BRANCH   6   8
ATOM      8  C   UNL     1       3.578   1.177  -2.118  1.00  0.00     0.087 C 
ATOM      9  C   UNL     1       4.957   1.523  -1.708  1.00  0.00     0.027 C 
ATOM     10  C   UNL     1       2.474  -0.161  -1.258  1.00  0.00     0.316 C 
ATOM     11  C   UNL     1       5.734   0.906  -0.196  1.00  0.00     0.021 A 
ATOM     12  O   UNL     1       3.263  -0.784   0.395  1.00  0.00    -0.475 OA
ATOM     13  C   UNL     1       6.943   1.414   0.187  1.00  0.00     0.058 A 
ATOM     14  C   UNL     1       4.899  -0.143   0.898  1.00  0.00     0.128 A 
ATOM     15  C   UNL     1       7.387   1.052   1.474  1.00  0.00     0.130 A 
ATOM     16  C   UNL     1       5.335  -0.340   2.173  1.00  0.00     0.051 A 
ATOM     17  C   UNL     1       6.604   0.266   2.424  1.00  0.00     0.050 A 
BRANCH  10  18
ATOM     18  C   UNL     1       2.039  -0.932  -2.586  1.00  0.00     0.430 C 
ATOM     19  F   UNL     1       1.167  -1.943  -2.425  1.00  0.00    -0.167 F 
ATOM     20  F   UNL     1       1.371  -0.030  -3.370  1.00  0.00    -0.167 F 
ATOM     21  F   UNL     1       3.060  -1.356  -3.365  1.00  0.00    -0.167 F 
ENDBRANCH  10  18
BRANCH  15  22
ATOM     22  O   UNL     1       8.621   1.603   1.742  1.00  0.00    -0.406 OA
BRANCH  22  23
ATOM     23  C   UNL     1       9.449   0.974   2.704  1.00  0.00     0.573 C 
ATOM     24  F   UNL     1       9.059   1.306   3.948  1.00  0.00    -0.132 F 
ATOM     25  F   UNL     1       9.449  -0.367   2.562  1.00  0.00    -0.132 F 
ATOM     26  F   UNL     1      10.716   1.415   2.521  1.00  0.00    -0.132 F 
ENDBRANCH  22  23
ENDBRANCH  15  22
ENDBRANCH   6   8
ENDBRANCH   5   6
ENDBRANCH   4   5
ENDBRANCH   3   4
ENDBRANCH   2   3
ENDBRANCH   1   2
BRANCH   1  27
ATOM     27  C   UNL     1       2.986  -4.059   0.215  1.00  0.00     0.261 C 
BRANCH  27  28
ATOM     28  O   UNL     1       3.510  -3.634   1.458  1.00  0.00    -0.460 OA
BRANCH  28  29
ATOM     29  C   UNL     1       4.840  -3.832   1.575  1.00  0.00     0.338 C 
ATOM     30  O   UNL     1       5.623  -4.178   0.708  1.00  0.00    -0.246 OA
BRANCH  29  31
ATOM     31  C   UNL     1       5.218  -3.549   2.967  1.00  0.00     0.060 A 
ATOM     32  C   UNL     1       6.516  -3.086   3.200  1.00  0.00     0.016 A 
ATOM     33  C   UNL     1       4.302  -3.699   4.018  1.00  0.00     0.016 A 
ATOM     34  C   UNL     1       6.893  -2.737   4.488  1.00  0.00     0.010 A 
ATOM     35  C   UNL     1       4.687  -3.372   5.311  1.00  0.00     0.010 A 
ATOM     36  C   UNL     1       5.987  -2.902   5.542  1.00  0.00    -0.014 A 
BRANCH  36  37
ATOM     37  C   UNL     1       6.482  -2.792   6.920  1.00  0.00     0.031 A 
ATOM     38  C   UNL     1       6.993  -4.040   7.567  1.00  0.00     0.074 A 
ATOM     39  C   UNL     1       6.486  -1.610   7.556  1.00  0.00     0.049 A 
ATOM     40  N   UNL     1       7.507  -4.201   8.753  1.00  0.00    -0.248 NA
ATOM     41  C   UNL     1       6.919  -5.274   6.762  1.00  0.00     0.031 C 
ATOM     42  C   UNL     1       6.014  -0.345   6.996  1.00  0.00     0.029 A 
ATOM     43  N   UNL     1       6.888  -1.293   8.825  1.00  0.00    -0.354 N 
ATOM     44  C   UNL     1       7.803  -5.552   8.846  1.00  0.00     0.074 A 
ATOM     45  C   UNL     1       7.404  -6.172   7.604  1.00  0.00     0.031 C 
ATOM     46  C   UNL     1       6.135   0.614   7.931  1.00  0.00     0.029 A 
ATOM     47  C   UNL     1       6.662   0.020   9.158  1.00  0.00     0.049 A 
ATOM     48  H   UNL     1       7.300  -1.943   9.439  1.00  0.00     0.167 HD
ATOM     49  C   UNL     1       8.364  -6.215   9.881  1.00  0.00     0.034 A 
ATOM     50  C   UNL     1       6.839   0.650  10.334  1.00  0.00     0.034 A 
ATOM     51  C   UNL     1       8.722  -5.588  11.121  1.00  0.00     0.049 A 
ATOM     52  C   UNL     1       7.409  -0.128  11.493  1.00  0.00     0.074 A 
ATOM     53  C   UNL     1       9.315  -6.159  12.231  1.00  0.00     0.029 A 
ATOM     54  N   UNL     1       8.483  -4.257  11.428  1.00  0.00    -0.354 N 
ATOM     55  N   UNL     1       7.787  -1.383  11.539  1.00  0.00    -0.248 NA
ATOM     56  C   UNL     1       7.606   0.604  12.751  1.00  0.00     0.031 C 
ATOM     57  C   UNL     1       9.377  -5.186  13.233  1.00  0.00     0.029 A 
ATOM     58  C   UNL     1       8.893  -3.992  12.721  1.00  0.00     0.049 A 
ATOM     59  H   UNL     1       8.082  -3.599  10.816  1.00  0.00     0.167 HD
ATOM     60  C   UNL     1       8.304  -1.581  12.815  1.00  0.00     0.074 A 
ATOM     61  C   UNL     1       8.204  -0.309  13.503  1.00  0.00     0.031 C 
ATOM     62  C   UNL     1       8.814  -2.708  13.371  1.00  0.00     0.034 A 
BRANCH  49  63
ATOM     63  C   UNL     1       8.585  -7.692   9.718  1.00  0.00     0.023 A 
ATOM     64  C   UNL     1       9.560  -8.171   8.819  1.00  0.00     0.012 A 
ATOM     65  C   UNL     1       7.831  -8.607  10.477  1.00  0.00     0.148 A 
ATOM     66  C   UNL     1       9.756  -9.541   8.654  1.00  0.00     0.002 A 
ATOM     67  C   UNL     1       8.070  -9.967  10.346  1.00  0.00     0.091 A 
ATOM     68  F   UNL     1       6.888  -8.128  11.300  1.00  0.00    -0.205 F 
ATOM     69  C   UNL     1       9.021 -10.438   9.426  1.00  0.00     0.022 A 
BRANCH  67  70
ATOM     70  S   UNL     1       7.229 -11.194  11.350  1.00  0.00     0.127 S 
ATOM     71  O   UNL     1       6.454 -11.917  10.342  1.00  0.00    -0.237 OA
ATOM     72  O   UNL     1       8.351 -11.945  11.912  1.00  0.00    -0.237 OA
ATOM     73  O   UNL     1       6.440 -10.452  12.322  1.00  0.00    -0.744 OA
ENDBRANCH  67  70
ENDBRANCH  49  63
BRANCH  50  74
ATOM     74  C   UNL     1       6.476   2.087  10.479  1.00  0.00     0.023 A 
ATOM     75  C   UNL     1       7.479   3.050  10.704  1.00  0.00     0.012 A 
ATOM     76  C   UNL     1       5.132   2.502  10.399  1.00  0.00     0.148 A 
ATOM     77  C   UNL     1       7.146   4.393  10.888  1.00  0.00     0.002 A 
ATOM     78  C   UNL     1       4.813   3.847  10.525  1.00  0.00     0.091 A 
ATOM     79  F   UNL     1       4.193   1.568  10.191  1.00  0.00    -0.205 F 
ATOM     80  C   UNL     1       5.815   4.792  10.791  1.00  0.00     0.022 A 
BRANCH  78  81
ATOM     81  S   UNL     1       3.143   4.467  10.301  1.00  0.00     0.127 S 
ATOM     82  O   UNL     1       2.832   4.977  11.634  1.00  0.00    -0.237 OA
ATOM     83  O   UNL     1       3.343   5.494   9.278  1.00  0.00    -0.237 OA
ATOM     84  O   UNL     1       2.351   3.325   9.865  1.00  0.00    -0.744 OA
ENDBRANCH  78  81
ENDBRANCH  50  74
BRANCH  62  85
ATOM     85  C   UNL     1       9.361  -2.613  14.772  1.00  0.00     0.023 A 
ATOM     86  C   UNL     1       8.495  -2.437  15.868  1.00  0.00     0.012 A 
ATOM     87  C   UNL     1      10.742  -2.782  15.000  1.00  0.00     0.148 A 
ATOM     88  C   UNL     1       9.000  -2.390  17.167  1.00  0.00     0.002 A 
ATOM     89  C   UNL     1      11.229  -2.795  16.299  1.00  0.00     0.091 A 
ATOM     90  F   UNL     1      11.550  -2.937  13.941  1.00  0.00    -0.205 F 
ATOM     91  C   UNL     1      10.363  -2.582  17.383  1.00  0.00     0.022 A 
BRANCH  89  92
ATOM     92  S   UNL     1      12.950  -3.139  16.678  1.00  0.00     0.127 S 
ATOM     93  O   UNL     1      13.405  -1.848  17.192  1.00  0.00    -0.237 OA
ATOM     94  O   UNL     1      12.837  -4.192  17.687  1.00  0.00    -0.237 OA
ATOM     95  O   UNL     1      13.566  -3.560  15.427  1.00  0.00    -0.744 OA
ENDBRANCH  89  92
ENDBRANCH  62  85
ENDBRANCH  36  37
ENDBRANCH  29  31
ENDBRANCH  28  29
ENDBRANCH  27  28
ENDBRANCH   1  27
TORSDOF 20
