REMARK SMILES CC(=O)c1c[nH]c(C(=O)N[C@H]2C=C[C@H](C(=O)OCCOCCOC(=O)c3ccc(-c4c5nc(c(-c6cccc(S(=O)(=O)[O-])c6F)c6ccc([nH]6)c(-c6cccc(S(=O)(=O)[O-])c6F)c6nc(c(-c7cccc(S(=O)(=O)[O-])c7F)c7ccc4[nH]7)C=C6)C=C5)cc3)C2)c1
REMARK SMILES IDX 20 1 19 2 18 3 17 4 15 5 16 6 14 7 11 8 12 9 89 10 13 11
REMARK SMILES IDX 10 12 8 13 9 14 7 16 4 17 5 18 90 19 6 20 2 22 1 23 3 24
REMARK SMILES IDX 21 25 22 26 23 27 24 28 25 29 26 30 27 31 88 32 28 33 87 34
REMARK SMILES IDX 29 35 30 36 31 37 81 38 32 39 86 40 80 41 82 42 33 43 85 44
REMARK SMILES IDX 79 45 78 46 34 48 66 49 46 50 65 51 47 52 50 53 64 54 83 55
REMARK SMILES IDX 48 56 49 57 63 59 84 60 51 61 35 62 36 63 44 64 37 65 39 66
REMARK SMILES IDX 45 67 38 68 40 69 41 70 42 71 43 72 67 73 68 74 76 75 69 76
REMARK SMILES IDX 71 77 77 78 70 79 72 80 73 81 74 82 75 83 52 84 53 85 61 86
REMARK SMILES IDX 54 87 56 88 62 89 55 90 57 91 58 92 59 93 60 94
REMARK H PARENT 10 15 6 21 82 47 50 58
REMARK Flexibility Score: inf
ROOT
ATOM      1  O   UNL     1      -5.201   5.260   0.403  1.00  0.00    -0.374 OA
ENDROOT
BRANCH   1   2
ATOM      2  C   UNL     1      -6.316   4.376   0.286  1.00  0.00     0.202 C 
BRANCH   2   3
ATOM      3  C   UNL     1      -6.222   2.983   0.900  1.00  0.00     0.261 C 
BRANCH   3   4
ATOM      4  O   UNL     1      -6.100   3.009   2.334  1.00  0.00    -0.463 OA
BRANCH   4   5
ATOM      5  C   UNL     1      -4.928   2.512   2.807  1.00  0.00     0.312 C 
ATOM      6  O   UNL     1      -4.013   2.112   2.092  1.00  0.00    -0.252 OA
BRANCH   5   7
ATOM      7  C   UNL     1      -4.849   2.565   4.338  1.00  0.00     0.124 C 
ATOM      8  C   UNL     1      -2.467   2.749   4.604  1.00  0.00     0.106 C 
ATOM      9  C   UNL     1      -2.923   1.347   4.876  1.00  0.00    -0.006 C 
ATOM     10  C   UNL     1      -3.760   3.534   4.843  1.00  0.00     0.048 C 
ATOM     11  C   UNL     1      -4.256   1.249   4.770  1.00  0.00    -0.014 C 
BRANCH   8  12
ATOM     12  N   UNL     1      -1.346   3.047   5.442  1.00  0.00    -0.345 N 
ATOM     13  C   UNL     1      -0.015   2.783   5.211  1.00  0.00     0.268 C 
ATOM     14  O   UNL     1       0.766   2.992   6.143  1.00  0.00    -0.268 OA
ATOM     15  H   UNL     1      -1.553   3.499   6.292  1.00  0.00     0.164 HD
BRANCH  13  16
ATOM     16  C   UNL     1       0.483   2.271   3.938  1.00  0.00     0.105 A 
ATOM     17  C   UNL     1       0.943   1.552   1.804  1.00  0.00     0.035 A 
ATOM     18  C   UNL     1       2.118   1.550   2.524  1.00  0.00     0.094 A 
ATOM     19  C   UNL     1      -0.074   1.968   2.706  1.00  0.00     0.045 A 
ATOM     20  N   UNL     1       1.835   1.999   3.790  1.00  0.00    -0.356 N 
ATOM     21  H   UNL     1       2.505   2.112   4.502  1.00  0.00     0.166 HD
BRANCH  17  22
ATOM     22  C   UNL     1       0.737   1.218   0.400  1.00  0.00     0.161 C 
ATOM     23  C   UNL     1       1.338  -0.057  -0.121  1.00  0.00     0.093 C 
ATOM     24  O   UNL     1       0.044   1.926  -0.327  1.00  0.00    -0.294 OA
ENDBRANCH  17  22
ENDBRANCH  13  16
ENDBRANCH   8  12
ENDBRANCH   5   7
ENDBRANCH   4   5
ENDBRANCH   3   4
ENDBRANCH   2   3
ENDBRANCH   1   2
BRANCH   1  25
ATOM     25  C   UNL     1      -4.690   5.622   1.679  1.00  0.00     0.202 C 
BRANCH  25  26
ATOM     26  C   UNL     1      -5.532   6.475   2.624  1.00  0.00     0.261 C 
BRANCH  26  27
ATOM     27  O   UNL     1      -6.873   6.039   2.725  1.00  0.00    -0.460 OA
BRANCH  27  28
ATOM     28  C   UNL     1      -7.650   6.680   1.820  1.00  0.00     0.338 C 
ATOM     29  O   UNL     1      -7.284   7.277   0.822  1.00  0.00    -0.246 OA
BRANCH  28  30
ATOM     30  C   UNL     1      -9.028   6.716   2.285  1.00  0.00     0.060 A 
ATOM     31  C   UNL     1      -9.950   7.150   1.327  1.00  0.00     0.016 A 
ATOM     32  C   UNL     1      -9.197   6.903   3.657  1.00  0.00     0.016 A 
ATOM     33  C   UNL     1     -10.933   8.012   1.737  1.00  0.00     0.010 A 
ATOM     34  C   UNL     1     -10.128   7.824   4.051  1.00  0.00     0.010 A 
ATOM     35  C   UNL     1     -10.963   8.391   3.084  1.00  0.00    -0.014 A 
BRANCH  35  36
ATOM     36  C   UNL     1     -12.064   9.242   3.518  1.00  0.00     0.031 A 
ATOM     37  C   UNL     1     -13.292   8.324   3.767  1.00  0.00     0.074 A 
ATOM     38  C   UNL     1     -11.780  10.585   3.535  1.00  0.00     0.049 A 
ATOM     39  N   UNL     1     -14.553   8.524   3.533  1.00  0.00    -0.248 NA
ATOM     40  C   UNL     1     -13.072   6.904   4.199  1.00  0.00     0.031 C 
ATOM     41  C   UNL     1     -10.451  11.207   3.272  1.00  0.00     0.029 A 
ATOM     42  N   UNL     1     -12.531  11.711   3.776  1.00  0.00    -0.354 N 
ATOM     43  C   UNL     1     -15.252   7.406   4.060  1.00  0.00     0.074 A 
ATOM     44  C   UNL     1     -14.293   6.375   4.262  1.00  0.00     0.031 C 
ATOM     45  C   UNL     1     -10.529  12.562   3.272  1.00  0.00     0.029 A 
ATOM     46  C   UNL     1     -11.893  12.964   3.560  1.00  0.00     0.049 A 
ATOM     47  H   UNL     1     -13.465  11.652   4.082  1.00  0.00     0.167 HD
ATOM     48  C   UNL     1     -16.541   7.477   4.503  1.00  0.00     0.034 A 
ATOM     49  C   UNL     1     -12.462  14.216   3.572  1.00  0.00     0.034 A 
ATOM     50  C   UNL     1     -17.007   8.813   4.337  1.00  0.00     0.049 A 
ATOM     51  C   UNL     1     -13.833  13.974   4.038  1.00  0.00     0.074 A 
ATOM     52  C   UNL     1     -17.345   9.536   3.225  1.00  0.00     0.029 A 
ATOM     53  N   UNL     1     -16.713   9.661   5.380  1.00  0.00    -0.354 N 
ATOM     54  N   UNL     1     -14.143  13.630   5.253  1.00  0.00    -0.248 NA
ATOM     55  C   UNL     1     -14.915  13.945   3.049  1.00  0.00     0.031 C 
ATOM     56  C   UNL     1     -16.756  10.789   3.488  1.00  0.00     0.029 A 
ATOM     57  C   UNL     1     -16.354  10.862   4.830  1.00  0.00     0.049 A 
ATOM     58  H   UNL     1     -16.753   9.445   6.340  1.00  0.00     0.167 HD
ATOM     59  C   UNL     1     -15.343  12.992   5.069  1.00  0.00     0.074 A 
ATOM     60  C   UNL     1     -15.895  13.506   3.832  1.00  0.00     0.031 C 
ATOM     61  C   UNL     1     -15.552  11.765   5.618  1.00  0.00     0.034 A 
BRANCH  48  62
ATOM     62  C   UNL     1     -17.406   6.585   5.359  1.00  0.00     0.023 A 
ATOM     63  C   UNL     1     -18.795   6.897   5.325  1.00  0.00     0.012 A 
ATOM     64  C   UNL     1     -16.955   5.750   6.395  1.00  0.00     0.148 A 
ATOM     65  C   UNL     1     -19.664   6.540   6.352  1.00  0.00     0.002 A 
ATOM     66  C   UNL     1     -17.846   5.345   7.394  1.00  0.00     0.091 A 
ATOM     67  F   UNL     1     -15.661   5.423   6.465  1.00  0.00    -0.205 F 
ATOM     68  C   UNL     1     -19.182   5.777   7.398  1.00  0.00     0.022 A 
BRANCH  66  69
ATOM     69  S   UNL     1     -17.372   4.275   8.757  1.00  0.00     0.127 S 
ATOM     70  O   UNL     1     -17.369   5.204   9.884  1.00  0.00    -0.237 OA
ATOM     71  O   UNL     1     -18.472   3.308   8.774  1.00  0.00    -0.237 OA
ATOM     72  O   UNL     1     -16.087   3.703   8.382  1.00  0.00    -0.744 OA
ENDBRANCH  66  69
ENDBRANCH  48  62
BRANCH  49  73
ATOM     73  C   UNL     1     -12.142  15.640   3.148  1.00  0.00     0.023 A 
ATOM     74  C   UNL     1     -10.868  16.106   2.797  1.00  0.00     0.012 A 
ATOM     75  C   UNL     1     -13.209  16.584   2.974  1.00  0.00     0.148 A 
ATOM     76  C   UNL     1     -10.691  17.384   2.214  1.00  0.00     0.002 A 
ATOM     77  C   UNL     1     -13.056  17.777   2.276  1.00  0.00     0.091 A 
ATOM     78  F   UNL     1     -14.403  16.345   3.527  1.00  0.00    -0.205 F 
ATOM     79  C   UNL     1     -11.785  18.194   1.902  1.00  0.00     0.022 A 
BRANCH  77  80
ATOM     80  S   UNL     1     -14.476  18.728   1.687  1.00  0.00     0.127 S 
ATOM     81  O   UNL     1     -14.200  20.064   2.210  1.00  0.00    -0.237 OA
ATOM     82  O   UNL     1     -14.334  18.596   0.236  1.00  0.00    -0.237 OA
ATOM     83  O   UNL     1     -15.661  18.081   2.236  1.00  0.00    -0.744 OA
ENDBRANCH  77  80
ENDBRANCH  49  73
BRANCH  61  84
ATOM     84  C   UNL     1     -14.678  11.428   6.839  1.00  0.00     0.023 A 
ATOM     85  C   UNL     1     -14.738  12.324   7.925  1.00  0.00     0.012 A 
ATOM     86  C   UNL     1     -13.741  10.368   6.949  1.00  0.00     0.148 A 
ATOM     87  C   UNL     1     -13.903  12.201   9.042  1.00  0.00     0.002 A 
ATOM     88  C   UNL     1     -12.884  10.256   8.056  1.00  0.00     0.091 A 
ATOM     89  F   UNL     1     -13.687   9.461   5.979  1.00  0.00    -0.205 F 
ATOM     90  C   UNL     1     -12.973  11.173   9.106  1.00  0.00     0.022 A 
BRANCH  88  91
ATOM     91  S   UNL     1     -11.582   9.011   8.221  1.00  0.00     0.127 S 
ATOM     92  O   UNL     1     -10.380   9.830   8.398  1.00  0.00    -0.237 OA
ATOM     93  O   UNL     1     -11.989   8.286   9.421  1.00  0.00    -0.237 OA
ATOM     94  O   UNL     1     -11.596   8.234   6.989  1.00  0.00    -0.744 OA
ENDBRANCH  88  91
ENDBRANCH  61  84
ENDBRANCH  35  36
ENDBRANCH  28  30
ENDBRANCH  27  28
ENDBRANCH  26  27
ENDBRANCH  25  26
ENDBRANCH   1  25
TORSDOF 20
