REMARK SMILES NS(=O)(=O)c1ccc(-n2nc(C(=O)OCCOCCOC(=O)c3ccc(-c4c5nc(c(-c6cccc(S(=O)(=O)[O-])c6F)c6ccc([nH]6)c(-c6cccc(S(=O)(=O)[O-])c6F)c6nc(c(-c7cccc(S(=O)(=O)[O-])c7F)c7ccc4[nH]7)C=C6)C=C5)cc3)cc2-c2cc3ccccc3s2)cc1
REMARK SMILES IDX 17 1 16 2 15 3 14 4 12 5 13 6 11 7 9 8 10 9 87 10 86 11 8 12
REMARK SMILES IDX 5 13 6 14 98 15 7 16 97 17 2 18 3 19 4 20 1 21 88 24 89 25
REMARK SMILES IDX 96 26 90 27 95 28 91 29 94 30 92 31 93 32 18 33 19 34 20 35
REMARK SMILES IDX 21 36 22 37 23 38 24 39 85 40 25 41 84 42 26 43 27 44 28 45
REMARK SMILES IDX 78 46 29 47 83 48 77 49 79 50 30 51 82 52 76 53 75 54 31 56
REMARK SMILES IDX 63 57 43 58 62 59 44 60 47 61 61 62 80 63 45 64 46 65 60 67
REMARK SMILES IDX 81 68 48 69 32 70 33 71 41 72 34 73 36 74 42 75 35 76 37 77
REMARK SMILES IDX 38 78 39 79 40 80 64 81 65 82 73 83 66 84 68 85 74 86 67 87
REMARK SMILES IDX 69 88 70 89 71 90 72 91 49 92 50 93 58 94 51 95 53 96 59 97
REMARK SMILES IDX 52 98 54 99 55 100 56 101 57 102
REMARK H PARENT 1 22 1 23 79 55 47 66
REMARK Flexibility Score: inf
ROOT
ATOM      1  O   UNL     1       1.823  11.283  -0.192  1.00  0.00    -0.374 OA
ENDROOT
BRANCH   1   2
ATOM      2  C   UNL     1       2.657  11.937  -1.149  1.00  0.00     0.202 C 
BRANCH   2   3
ATOM      3  C   UNL     1       3.872  11.183  -1.688  1.00  0.00     0.261 C 
BRANCH   3   4
ATOM      4  O   UNL     1       3.479  10.020  -2.421  1.00  0.00    -0.458 OA
BRANCH   4   5
ATOM      5  C   UNL     1       3.626   8.833  -1.758  1.00  0.00     0.358 C 
ATOM      6  O   UNL     1       4.234   8.698  -0.702  1.00  0.00    -0.244 OA
BRANCH   5   7
ATOM      7  C   UNL     1       2.914   7.750  -2.445  1.00  0.00     0.171 A 
ATOM      8  N   UNL     1       2.308   5.765  -2.913  1.00  0.00    -0.231 N 
ATOM      9  N   UNL     1       2.586   6.582  -1.863  1.00  0.00    -0.160 NA
ATOM     10  C   UNL     1       2.530   6.402  -4.111  1.00  0.00     0.085 A 
ATOM     11  C   UNL     1       2.504   7.750  -3.793  1.00  0.00     0.068 A 
BRANCH   8  12
ATOM     12  C   UNL     1       1.880   4.453  -2.669  1.00  0.00     0.065 A 
ATOM     13  C   UNL     1       1.027   1.894  -2.062  1.00  0.00     0.082 A 
ATOM     14  C   UNL     1       2.258   2.085  -2.708  1.00  0.00     0.024 A 
ATOM     15  C   UNL     1       0.211   2.979  -1.729  1.00  0.00     0.024 A 
ATOM     16  C   UNL     1       2.683   3.373  -3.030  1.00  0.00     0.030 A 
ATOM     17  C   UNL     1       0.655   4.270  -2.008  1.00  0.00     0.030 A 
BRANCH  13  18
ATOM     18  S   UNL     1       0.500   0.248  -1.698  1.00  0.00     0.238 S 
ATOM     19  O   UNL     1       1.189  -0.681  -2.554  1.00  0.00    -0.207 OA
ATOM     20  O   UNL     1      -0.939   0.224  -1.519  1.00  0.00    -0.207 OA
BRANCH  18  21
ATOM     21  N   UNL     1       1.145   0.014  -0.164  1.00  0.00    -0.225 NA
ATOM     22  H   UNL     1       0.906  -0.921   0.167  1.00  0.00     0.137 HD
ATOM     23  H   UNL     1       0.762   0.709   0.476  1.00  0.00     0.137 HD
ENDBRANCH  18  21
ENDBRANCH  13  18
ENDBRANCH   8  12
BRANCH  10  24
ATOM     24  C   UNL     1       3.008   5.879  -5.366  1.00  0.00     0.054 A 
ATOM     25  C   UNL     1       2.452   6.091  -6.624  1.00  0.00     0.031 A 
ATOM     26  S   UNL     1       4.732   6.107  -5.631  1.00  0.00    -0.134 S 
ATOM     27  C   UNL     1       3.073   7.303  -7.146  1.00  0.00    -0.007 A 
ATOM     28  C   UNL     1       4.293   7.552  -6.498  1.00  0.00     0.035 A 
ATOM     29  C   UNL     1       2.574   8.290  -8.022  1.00  0.00     0.009 A 
ATOM     30  C   UNL     1       4.940   8.795  -6.556  1.00  0.00     0.019 A 
ATOM     31  C   UNL     1       3.195   9.545  -8.065  1.00  0.00     0.001 A 
ATOM     32  C   UNL     1       4.334   9.805  -7.307  1.00  0.00     0.001 A 
ENDBRANCH  10  24
ENDBRANCH   5   7
ENDBRANCH   4   5
ENDBRANCH   3   4
ENDBRANCH   2   3
ENDBRANCH   1   2
BRANCH   1  33
ATOM     33  C   UNL     1       0.984  10.197  -0.574  1.00  0.00     0.202 C 
BRANCH  33  34
ATOM     34  C   UNL     1      -0.176  10.440  -1.524  1.00  0.00     0.261 C 
BRANCH  34  35
ATOM     35  O   UNL     1       0.228  11.092  -2.714  1.00  0.00    -0.460 OA
BRANCH  35  36
ATOM     36  C   UNL     1      -0.059  12.414  -2.718  1.00  0.00     0.338 C 
ATOM     37  O   UNL     1      -0.240  13.134  -1.751  1.00  0.00    -0.246 OA
BRANCH  36  38
ATOM     38  C   UNL     1      -0.307  12.823  -4.100  1.00  0.00     0.060 A 
ATOM     39  C   UNL     1      -0.691  14.153  -4.291  1.00  0.00     0.016 A 
ATOM     40  C   UNL     1      -0.524  11.827  -5.061  1.00  0.00     0.016 A 
ATOM     41  C   UNL     1      -1.522  14.436  -5.347  1.00  0.00     0.010 A 
ATOM     42  C   UNL     1      -1.388  12.101  -6.083  1.00  0.00     0.010 A 
ATOM     43  C   UNL     1      -1.939  13.378  -6.157  1.00  0.00    -0.014 A 
BRANCH  43  44
ATOM     44  C   UNL     1      -2.874  13.640  -7.222  1.00  0.00     0.031 A 
ATOM     45  C   UNL     1      -2.185  14.217  -8.393  1.00  0.00     0.074 A 
ATOM     46  C   UNL     1      -4.158  13.244  -7.151  1.00  0.00     0.049 A 
ATOM     47  N   UNL     1      -2.210  15.450  -8.775  1.00  0.00    -0.248 NA
ATOM     48  C   UNL     1      -1.138  13.410  -9.048  1.00  0.00     0.031 C 
ATOM     49  C   UNL     1      -4.801  12.438  -6.109  1.00  0.00     0.029 A 
ATOM     50  N   UNL     1      -5.134  13.361  -8.088  1.00  0.00    -0.354 N 
ATOM     51  C   UNL     1      -1.408  15.474  -9.908  1.00  0.00     0.074 A 
ATOM     52  C   UNL     1      -0.552  14.326  -9.821  1.00  0.00     0.031 C 
ATOM     53  C   UNL     1      -5.959  11.931  -6.595  1.00  0.00     0.029 A 
ATOM     54  C   UNL     1      -6.184  12.460  -7.930  1.00  0.00     0.049 A 
ATOM     55  H   UNL     1      -5.103  14.024  -8.815  1.00  0.00     0.167 HD
ATOM     56  C   UNL     1      -1.780  16.197 -10.999  1.00  0.00     0.034 A 
ATOM     57  C   UNL     1      -7.101  12.118  -8.873  1.00  0.00     0.034 A 
ATOM     58  C   UNL     1      -2.811  17.149 -10.661  1.00  0.00     0.049 A 
ATOM     59  C   UNL     1      -7.076  13.176  -9.914  1.00  0.00     0.074 A 
ATOM     60  C   UNL     1      -2.925  18.171  -9.739  1.00  0.00     0.029 A 
ATOM     61  N   UNL     1      -4.093  16.823 -11.035  1.00  0.00    -0.354 N 
ATOM     62  N   UNL     1      -7.483  14.394  -9.695  1.00  0.00    -0.248 NA
ATOM     63  C   UNL     1      -6.155  13.016 -11.029  1.00  0.00     0.031 C 
ATOM     64  C   UNL     1      -4.268  18.095  -9.268  1.00  0.00     0.029 A 
ATOM     65  C   UNL     1      -4.930  17.097  -9.986  1.00  0.00     0.049 A 
ATOM     66  H   UNL     1      -4.364  16.456 -11.908  1.00  0.00     0.167 HD
ATOM     67  C   UNL     1      -6.509  15.187 -10.287  1.00  0.00     0.074 A 
ATOM     68  C   UNL     1      -5.787  14.292 -11.193  1.00  0.00     0.031 C 
ATOM     69  C   UNL     1      -6.174  16.398  -9.750  1.00  0.00     0.034 A 
BRANCH  56  70
ATOM     70  C   UNL     1      -1.540  15.761 -12.427  1.00  0.00     0.023 A 
ATOM     71  C   UNL     1      -1.835  16.701 -13.435  1.00  0.00     0.012 A 
ATOM     72  C   UNL     1      -1.306  14.428 -12.847  1.00  0.00     0.148 A 
ATOM     73  C   UNL     1      -1.943  16.326 -14.778  1.00  0.00     0.002 A 
ATOM     74  C   UNL     1      -1.327  14.077 -14.189  1.00  0.00     0.091 A 
ATOM     75  F   UNL     1      -1.198  13.444 -11.954  1.00  0.00    -0.205 F 
ATOM     76  C   UNL     1      -1.679  15.015 -15.158  1.00  0.00     0.022 A 
BRANCH  74  77
ATOM     77  S   UNL     1      -0.947  12.403 -14.727  1.00  0.00     0.127 S 
ATOM     78  O   UNL     1      -2.262  11.924 -15.142  1.00  0.00    -0.237 OA
ATOM     79  O   UNL     1      -0.001  12.649 -15.816  1.00  0.00    -0.237 OA
ATOM     80  O   UNL     1      -0.362  11.738 -13.569  1.00  0.00    -0.744 OA
ENDBRANCH  74  77
ENDBRANCH  56  70
BRANCH  57  81
ATOM     81  C   UNL     1      -7.811  10.834  -9.098  1.00  0.00     0.023 A 
ATOM     82  C   UNL     1      -8.965  10.800  -9.908  1.00  0.00     0.012 A 
ATOM     83  C   UNL     1      -7.204   9.604  -8.760  1.00  0.00     0.148 A 
ATOM     84  C   UNL     1      -9.478   9.587 -10.390  1.00  0.00     0.002 A 
ATOM     85  C   UNL     1      -7.719   8.402  -9.237  1.00  0.00     0.091 A 
ATOM     86  F   UNL     1      -6.067   9.618  -8.054  1.00  0.00    -0.205 F 
ATOM     87  C   UNL     1      -8.850   8.389 -10.062  1.00  0.00     0.022 A 
BRANCH  85  88
ATOM     88  S   UNL     1      -6.932   6.823  -8.887  1.00  0.00     0.127 S 
ATOM     89  O   UNL     1      -8.064   6.013  -8.436  1.00  0.00    -0.237 OA
ATOM     90  O   UNL     1      -6.397   6.456 -10.196  1.00  0.00    -0.237 OA
ATOM     91  O   UNL     1      -5.938   7.092  -7.855  1.00  0.00    -0.744 OA
ENDBRANCH  85  88
ENDBRANCH  57  81
BRANCH  69  92
ATOM     92  C   UNL     1      -7.058  16.946  -8.654  1.00  0.00     0.023 A 
ATOM     93  C   UNL     1      -7.239  16.293  -7.415  1.00  0.00     0.012 A 
ATOM     94  C   UNL     1      -7.608  18.225  -8.828  1.00  0.00     0.148 A 
ATOM     95  C   UNL     1      -7.982  16.887  -6.390  1.00  0.00     0.002 A 
ATOM     96  C   UNL     1      -8.306  18.832  -7.791  1.00  0.00     0.091 A 
ATOM     97  F   UNL     1      -7.423  18.840 -10.006  1.00  0.00    -0.205 F 
ATOM     98  C   UNL     1      -8.507  18.162  -6.575  1.00  0.00     0.022 A 
BRANCH  96  99
ATOM     99  S   UNL     1      -8.897  20.518  -7.935  1.00  0.00     0.127 S 
ATOM    100  O   UNL     1     -10.321  20.321  -8.193  1.00  0.00    -0.237 OA
ATOM    101  O   UNL     1      -8.584  21.077  -6.618  1.00  0.00    -0.237 OA
ATOM    102  O   UNL     1      -8.135  21.115  -9.026  1.00  0.00    -0.744 OA
ENDBRANCH  96  99
ENDBRANCH  69  92
ENDBRANCH  43  44
ENDBRANCH  36  38
ENDBRANCH  35  36
ENDBRANCH  34  35
ENDBRANCH  33  34
ENDBRANCH   1  33
TORSDOF 21
