REMARK SMILES O=C(/C=C/[C@@]12C=C(O)C(=O)C=C1C(=O)C1=Cc3cc(O)c(O)cc3O[C@@H](c3ccc(O)c(O)c3)[C@@H]12)OCCOCCOC(=O)c1ccc(-c2c3nc(c(-c4cccc(S(=O)(=O)[O-])c4F)c4ccc([nH]4)c(-c4cccc(S(=O)(=O)[O-])c4F)c4nc(c(-c5cccc(S(=O)(=O)[O-])c5F)c5ccc2[nH]5)C=C4)C=C3)cc1
REMARK SMILES IDX 37 1 36 2 2 3 1 4 3 5 4 6 5 7 6 8 12 9 35 10 7 11 11 12
REMARK SMILES IDX 13 13 15 14 9 16 14 17 16 18 10 19 8 20 17 22 18 23 24 24
REMARK SMILES IDX 19 25 23 26 21 27 25 28 26 29 27 31 28 32 34 33 29 34 32 35
REMARK SMILES IDX 30 36 33 37 31 39 20 41 22 43 38 45 39 46 40 47 41 48 42 49
REMARK SMILES IDX 43 50 44 51 45 52 46 53 107 54 47 55 106 56 48 57 49 58
REMARK SMILES IDX 50 59 100 60 51 61 105 62 99 63 101 64 52 65 104 66 98 67
REMARK SMILES IDX 97 68 53 70 85 71 65 72 84 73 66 74 69 75 83 76 102 77 67 78
REMARK SMILES IDX 68 79 82 81 103 82 70 83 54 84 55 85 63 86 56 87 58 88 64 89
REMARK SMILES IDX 57 90 59 91 60 92 61 93 62 94 86 95 87 96 95 97 88 98 90 99
REMARK SMILES IDX 96 100 89 101 91 102 92 103 93 104 94 105 71 106 72 107
REMARK SMILES IDX 80 108 73 109 75 110 81 111 74 112 76 113 77 114 78 115
REMARK SMILES IDX 79 116
REMARK H PARENT 8 21 33 38 31 40 20 42 22 44 101 69 69 80
REMARK Flexibility Score: 80.00
ROOT
ATOM      1  C   UNL     1       4.034  -0.913   0.707  1.00  0.00     0.261 C 
ENDROOT
BRANCH   1   2
ATOM      2  O   UNL     1       2.777  -0.418   1.222  1.00  0.00    -0.460 OA
BRANCH   2   3
ATOM      3  C   UNL     1       2.346   0.861   1.169  1.00  0.00     0.330 C 
ATOM      4  O   UNL     1       1.203   1.170   1.492  1.00  0.00    -0.247 OA
BRANCH   3   5
ATOM      5  C   UNL     1       3.214   1.898   0.585  1.00  0.00     0.090 C 
ATOM      6  C   UNL     1       4.450   2.201   1.006  1.00  0.00    -0.003 C 
BRANCH   6   7
ATOM      7  C   UNL     1       5.422   3.224   0.395  1.00  0.00     0.051 C 
ATOM      8  C   UNL     1       5.175   4.529   1.129  1.00  0.00     0.040 C 
ATOM      9  C   UNL     1       6.819   2.734   0.698  1.00  0.00     0.018 C 
ATOM     10  C   UNL     1       5.451   3.268  -1.208  1.00  0.00     0.087 CG0
ATOM     11  C   UNL     1       5.973   5.024   2.090  1.00  0.00     0.160 C 
ATOM     12  C   UNL     1       7.638   3.146   1.669  1.00  0.00     0.065 C 
ATOM     13  C   UNL     1       7.276   1.840  -0.374  1.00  0.00     0.186 C 
ATOM     14  C   UNL     1       6.531   2.263  -1.576  1.00  0.00     0.009 C 
ATOM     15  G   UNL     1       5.712   4.681  -1.831  1.00  0.00     0.000 G0
ATOM     16  C   UNL     1       7.205   4.274   2.523  1.00  0.00     0.220 C 
ATOM     17  O   UNL     1       8.143   0.997  -0.290  1.00  0.00    -0.289 OA
ATOM     18  C   UNL     1       6.942   1.880  -2.790  1.00  0.00     0.020 C 
ATOM     19  O   UNL     1       7.870   4.604   3.497  1.00  0.00    -0.286 OA
BRANCH  11  20
ATOM     20  O   UNL     1       5.690   6.224   2.713  1.00  0.00    -0.504 OA
ATOM     21  H   UNL     1       4.930   6.713   2.465  1.00  0.00     0.293 HD
ENDBRANCH  11  20
BRANCH  18  22
ATOM     22  C   UNL     1       6.442   2.520  -4.010  1.00  0.00     0.021 A 
ATOM     23  C   UNL     1       6.357   1.772  -5.194  1.00  0.00     0.062 A 
ATOM     24  C   UNL     1       6.217   3.906  -4.062  1.00  0.00     0.131 A 
ATOM     25  C   UNL     1       6.026   2.401  -6.389  1.00  0.00     0.158 A 
ATOM     26  C   UNL     1       5.917   4.536  -5.273  1.00  0.00     0.097 A 
ATOM     27  C   UNL     1       5.811   3.774  -6.425  1.00  0.00     0.161 A 
BRANCH  24  28
ATOM     28  O   UNL     1       6.539   4.725  -3.014  1.00  0.00    -0.484 OA
BRANCH  28  29
ATOM     29  C   UNL     1       5.712   4.681  -1.831  1.00  0.00     0.213 CG0
ATOM     30  G   UNL     1       5.451   3.268  -1.208  1.00  0.00     0.000 G0
BRANCH  29  31
ATOM     31  C   UNL     1       4.504   5.618  -2.015  1.00  0.00    -0.003 A 
ATOM     32  C   UNL     1       3.242   5.381  -1.448  1.00  0.00     0.011 A 
ATOM     33  C   UNL     1       4.688   6.845  -2.683  1.00  0.00     0.057 A 
ATOM     34  C   UNL     1       2.251   6.370  -1.421  1.00  0.00     0.050 A 
ATOM     35  C   UNL     1       3.675   7.804  -2.712  1.00  0.00     0.157 A 
ATOM     36  C   UNL     1       2.484   7.593  -2.034  1.00  0.00     0.157 A 
BRANCH  35  37
ATOM     37  O   UNL     1       3.877   8.970  -3.391  1.00  0.00    -0.504 OA
ATOM     38  H   UNL     1       3.203   9.620  -3.417  1.00  0.00     0.293 HD
ENDBRANCH  35  37
BRANCH  36  39
ATOM     39  O   UNL     1       1.549   8.585  -1.979  1.00  0.00    -0.504 OA
ATOM     40  H   UNL     1       0.744   8.445  -1.521  1.00  0.00     0.293 HD
ENDBRANCH  36  39
ENDBRANCH  29  31
ENDBRANCH  28  29
ENDBRANCH  24  28
BRANCH  25  41
ATOM     41  O   UNL     1       5.936   1.712  -7.567  1.00  0.00    -0.504 OA
ATOM     42  H   UNL     1       6.074   0.785  -7.580  1.00  0.00     0.293 HD
ENDBRANCH  25  41
BRANCH  27  43
ATOM     43  O   UNL     1       5.542   4.391  -7.614  1.00  0.00    -0.504 OA
ATOM     44  H   UNL     1       5.468   3.885  -8.398  1.00  0.00     0.293 HD
ENDBRANCH  27  43
ENDBRANCH  18  22
ENDBRANCH   6   7
ENDBRANCH   3   5
ENDBRANCH   2   3
ENDBRANCH   1   2
BRANCH   1  45
ATOM     45  C   UNL     1       4.052  -1.064  -0.813  1.00  0.00     0.202 C 
BRANCH  45  46
ATOM     46  O   UNL     1       3.808   0.170  -1.496  1.00  0.00    -0.374 OA
BRANCH  46  47
ATOM     47  C   UNL     1       2.581   0.197  -2.236  1.00  0.00     0.202 C 
BRANCH  47  48
ATOM     48  C   UNL     1       2.778  -0.208  -3.696  1.00  0.00     0.261 C 
BRANCH  48  49
ATOM     49  O   UNL     1       3.131  -1.595  -3.756  1.00  0.00    -0.460 OA
BRANCH  49  50
ATOM     50  C   UNL     1       4.453  -1.853  -3.921  1.00  0.00     0.338 C 
ATOM     51  O   UNL     1       5.318  -1.067  -4.249  1.00  0.00    -0.246 OA
BRANCH  50  52
ATOM     52  C   UNL     1       4.727  -3.224  -3.443  1.00  0.00     0.060 A 
ATOM     53  C   UNL     1       3.762  -4.231  -3.528  1.00  0.00     0.016 A 
ATOM     54  C   UNL     1       5.974  -3.480  -2.855  1.00  0.00     0.016 A 
ATOM     55  C   UNL     1       4.054  -5.503  -3.046  1.00  0.00     0.010 A 
ATOM     56  C   UNL     1       6.268  -4.755  -2.376  1.00  0.00     0.010 A 
ATOM     57  C   UNL     1       5.316  -5.776  -2.490  1.00  0.00    -0.014 A 
BRANCH  57  58
ATOM     58  C   UNL     1       5.696  -7.181  -2.236  1.00  0.00     0.031 A 
ATOM     59  C   UNL     1       5.672  -7.774  -0.866  1.00  0.00     0.074 A 
ATOM     60  C   UNL     1       6.063  -7.915  -3.303  1.00  0.00     0.049 A 
ATOM     61  N   UNL     1       5.821  -9.025  -0.522  1.00  0.00    -0.248 NA
ATOM     62  C   UNL     1       5.459  -6.856   0.263  1.00  0.00     0.031 C 
ATOM     63  C   UNL     1       6.177  -7.398  -4.670  1.00  0.00     0.029 A 
ATOM     64  N   UNL     1       6.399  -9.236  -3.414  1.00  0.00    -0.354 N 
ATOM     65  C   UNL     1       5.711  -9.055   0.861  1.00  0.00     0.074 A 
ATOM     66  C   UNL     1       5.514  -7.688   1.298  1.00  0.00     0.031 C 
ATOM     67  C   UNL     1       6.537  -8.398  -5.487  1.00  0.00     0.029 A 
ATOM     68  C   UNL     1       6.685  -9.620  -4.703  1.00  0.00     0.049 A 
ATOM     69  H   UNL     1       6.434  -9.852  -2.647  1.00  0.00     0.167 HD
ATOM     70  C   UNL     1       5.745 -10.135   1.678  1.00  0.00     0.034 A 
ATOM     71  C   UNL     1       7.006 -10.828  -5.202  1.00  0.00     0.034 A 
ATOM     72  C   UNL     1       5.946 -11.485   1.217  1.00  0.00     0.049 A 
ATOM     73  C   UNL     1       7.022 -12.007  -4.272  1.00  0.00     0.074 A 
ATOM     74  C   UNL     1       5.936 -12.654   1.956  1.00  0.00     0.029 A 
ATOM     75  N   UNL     1       6.207 -11.845  -0.097  1.00  0.00    -0.354 N 
ATOM     76  N   UNL     1       6.738 -12.047  -2.993  1.00  0.00    -0.248 NA
ATOM     77  C   UNL     1       7.363 -13.310  -4.857  1.00  0.00     0.031 C 
ATOM     78  C   UNL     1       6.212 -13.719   1.093  1.00  0.00     0.029 A 
ATOM     79  C   UNL     1       6.376 -13.217  -0.188  1.00  0.00     0.049 A 
ATOM     80  H   UNL     1       6.264 -11.218  -0.853  1.00  0.00     0.167 HD
ATOM     81  C   UNL     1       6.843 -13.381  -2.621  1.00  0.00     0.074 A 
ATOM     82  C   UNL     1       7.190 -14.120  -3.819  1.00  0.00     0.031 C 
ATOM     83  C   UNL     1       6.683 -13.940  -1.397  1.00  0.00     0.034 A 
BRANCH  70  84
ATOM     84  C   UNL     1       5.489  -9.924   3.147  1.00  0.00     0.023 A 
ATOM     85  C   UNL     1       4.172  -9.668   3.579  1.00  0.00     0.012 A 
ATOM     86  C   UNL     1       6.509 -10.098   4.104  1.00  0.00     0.148 A 
ATOM     87  C   UNL     1       3.874  -9.575   4.938  1.00  0.00     0.002 A 
ATOM     88  C   UNL     1       6.197 -10.040   5.458  1.00  0.00     0.091 A 
ATOM     89  F   UNL     1       7.758 -10.323   3.673  1.00  0.00    -0.205 F 
ATOM     90  C   UNL     1       4.882  -9.773   5.876  1.00  0.00     0.022 A 
BRANCH  88  91
ATOM     91  S   UNL     1       7.407 -10.355   6.749  1.00  0.00     0.127 S 
ATOM     92  O   UNL     1       7.573  -9.023   7.328  1.00  0.00    -0.237 OA
ATOM     93  O   UNL     1       6.702 -11.309   7.606  1.00  0.00    -0.237 OA
ATOM     94  O   UNL     1       8.580 -10.894   6.076  1.00  0.00    -0.744 OA
ENDBRANCH  88  91
ENDBRANCH  70  84
BRANCH  71  95
ATOM     95  C   UNL     1       7.219 -10.976  -6.667  1.00  0.00     0.023 A 
ATOM     96  C   UNL     1       6.250 -11.645  -7.438  1.00  0.00     0.012 A 
ATOM     97  C   UNL     1       8.317 -10.375  -7.313  1.00  0.00     0.148 A 
ATOM     98  C   UNL     1       6.378 -11.726  -8.825  1.00  0.00     0.002 A 
ATOM     99  C   UNL     1       8.408 -10.408  -8.699  1.00  0.00     0.091 A 
ATOM    100  F   UNL     1       9.235  -9.752  -6.559  1.00  0.00    -0.205 F 
ATOM    101  C   UNL     1       7.447 -11.096  -9.456  1.00  0.00     0.022 A 
BRANCH  99 102
ATOM    102  S   UNL     1       9.662  -9.489  -9.599  1.00  0.00     0.127 S 
ATOM    103  O   UNL     1      10.558 -10.555 -10.037  1.00  0.00    -0.237 OA
ATOM    104  O   UNL     1       8.877  -8.865 -10.665  1.00  0.00    -0.237 OA
ATOM    105  O   UNL     1      10.216  -8.544  -8.638  1.00  0.00    -0.744 OA
ENDBRANCH  99 102
ENDBRANCH  71  95
BRANCH  83 106
ATOM    106  C   UNL     1       6.889 -15.426  -1.276  1.00  0.00     0.023 A 
ATOM    107  C   UNL     1       8.197 -15.946  -1.318  1.00  0.00     0.012 A 
ATOM    108  C   UNL     1       5.807 -16.290  -1.014  1.00  0.00     0.148 A 
ATOM    109  C   UNL     1       8.426 -17.307  -1.119  1.00  0.00     0.002 A 
ATOM    110  C   UNL     1       6.047 -17.637  -0.770  1.00  0.00     0.091 A 
ATOM    111  F   UNL     1       4.569 -15.776  -0.997  1.00  0.00    -0.205 F 
ATOM    112  C   UNL     1       7.354 -18.148  -0.831  1.00  0.00     0.022 A 
BRANCH 110 113
ATOM    113  S   UNL     1       4.743 -18.778  -0.296  1.00  0.00     0.127 S 
ATOM    114  O   UNL     1       4.611 -19.596  -1.501  1.00  0.00    -0.237 OA
ATOM    115  O   UNL     1       5.336 -19.469   0.849  1.00  0.00    -0.237 OA
ATOM    116  O   UNL     1       3.586 -17.954   0.028  1.00  0.00    -0.744 OA
ENDBRANCH 110 113
ENDBRANCH  83 106
ENDBRANCH  57  58
ENDBRANCH  50  52
ENDBRANCH  49  50
ENDBRANCH  48  49
ENDBRANCH  47  48
ENDBRANCH  46  47
ENDBRANCH  45  46
ENDBRANCH   1  45
TORSDOF 24
