REMARK SMILES O=C(OCCOCCOC(=O)c1ccc(-c2c3nc(c(-c4cccc(S(=O)(=O)[O-])c4F)c4ccc([nH]4)c(-c4cccc(S(=O)(=O)[O-])c4F)c4nc(c(-c5cccc(S(=O)(=O)[O-])c5F)c5ccc2[nH]5)C=C4)C=C3)cc1)C1=Cc2cc(Cl)c(Cl)cc2O[C@@H]1C(F)(F)F
REMARK SMILES IDX 7 1 6 2 5 3 4 4 3 5 2 6 1 7 75 8 76 9 86 10 77 11 85 12
REMARK SMILES IDX 78 13 84 14 79 15 83 16 80 17 81 18 82 19 87 20 88 21 89 22
REMARK SMILES IDX 90 23 8 24 9 25 10 26 11 27 12 28 13 29 74 30 14 31 73 32
REMARK SMILES IDX 15 33 16 34 17 35 67 36 18 37 72 38 66 39 68 40 19 41 71 42
REMARK SMILES IDX 65 43 64 44 20 46 52 47 32 48 51 49 33 50 36 51 50 52 69 53
REMARK SMILES IDX 34 54 35 55 49 57 70 58 37 59 21 60 22 61 30 62 23 63 25 64
REMARK SMILES IDX 31 65 24 66 26 67 27 68 28 69 29 70 53 71 54 72 62 73 55 74
REMARK SMILES IDX 57 75 63 76 56 77 58 78 59 79 60 80 61 81 38 82 39 83 47 84
REMARK SMILES IDX 40 85 42 86 48 87 41 88 43 89 44 90 45 91 46 92
REMARK H PARENT 68 45 36 56
REMARK Flexibility Score: inf
ROOT
ATOM      1  C   UNL     1       2.797  -2.178  -2.260  1.00  0.00     0.202 C 
ENDROOT
BRANCH   1   2
ATOM      2  O   UNL     1       4.044  -1.486  -2.030  1.00  0.00    -0.374 OA
BRANCH   2   3
ATOM      3  C   UNL     1       4.343  -0.035  -1.335  1.00  0.00     0.202 C 
BRANCH   3   4
ATOM      4  C   UNL     1       3.562   0.800   0.508  1.00  0.00     0.261 C 
BRANCH   4   5
ATOM      5  O   UNL     1       2.555   1.974   0.627  1.00  0.00    -0.460 OA
BRANCH   5   6
ATOM      6  C   UNL     1       2.621   2.821  -0.404  1.00  0.00     0.338 C 
ATOM      7  O   UNL     1       1.948   3.784  -0.668  1.00  0.00    -0.246 OA
BRANCH   6   8
ATOM      8  C   UNL     1       3.487   1.993  -1.206  1.00  0.00     0.087 C 
ATOM      9  C   UNL     1       4.892   2.104  -0.761  1.00  0.00     0.027 C 
ATOM     10  C   UNL     1       2.415   0.382  -1.110  1.00  0.00     0.316 C 
ATOM     11  C   UNL     1       5.755   0.800   0.143  1.00  0.00     0.019 A 
ATOM     12  O   UNL     1       3.295  -0.999  -0.084  1.00  0.00    -0.475 OA
ATOM     13  C   UNL     1       6.999   1.065   0.643  1.00  0.00     0.034 A 
ATOM     14  C   UNL     1       4.981  -0.697   0.553  1.00  0.00     0.129 A 
ATOM     15  C   UNL     1       7.513   0.090   1.513  1.00  0.00     0.060 A 
ATOM     16  C   UNL     1       5.511  -1.544   1.486  1.00  0.00     0.069 A 
ATOM     17  Cl  UNL     1       9.123   0.436   2.096  1.00  0.00    -0.083 Cl
ATOM     18  C   UNL     1       6.794  -1.113   1.945  1.00  0.00     0.063 A 
ATOM     19  Cl  UNL     1       7.549  -2.069   3.183  1.00  0.00    -0.083 Cl
BRANCH  10  20
ATOM     20  C   UNL     1       1.871   0.401  -2.610  1.00  0.00     0.430 C 
ATOM     21  F   UNL     1       0.938  -0.524  -2.900  1.00  0.00    -0.167 F 
ATOM     22  F   UNL     1       1.244   1.601  -2.801  1.00  0.00    -0.167 F 
ATOM     23  F   UNL     1       2.824   0.362  -3.569  1.00  0.00    -0.167 F 
ENDBRANCH  10  20
ENDBRANCH   6   8
ENDBRANCH   5   6
ENDBRANCH   4   5
ENDBRANCH   3   4
ENDBRANCH   2   3
ENDBRANCH   1   2
BRANCH   1  24
ATOM     24  C   UNL     1       2.831  -3.698  -2.100  1.00  0.00     0.261 C 
BRANCH  24  25
ATOM     25  O   UNL     1       3.345  -4.082  -0.834  1.00  0.00    -0.460 OA
BRANCH  25  26
ATOM     26  C   UNL     1       4.683  -4.263  -0.852  1.00  0.00     0.338 C 
ATOM     27  O   UNL     1       5.444  -4.059  -1.784  1.00  0.00    -0.246 OA
BRANCH  26  28
ATOM     28  C   UNL     1       5.123  -4.776   0.452  1.00  0.00     0.060 A 
ATOM     29  C   UNL     1       6.474  -4.609   0.761  1.00  0.00     0.016 A 
ATOM     30  C   UNL     1       4.251  -5.418   1.345  1.00  0.00     0.016 A 
ATOM     31  C   UNL     1       6.960  -5.093   1.962  1.00  0.00     0.010 A 
ATOM     32  C   UNL     1       4.741  -5.903   2.553  1.00  0.00     0.010 A 
ATOM     33  C   UNL     1       6.100  -5.749   2.850  1.00  0.00    -0.014 A 
BRANCH  33  34
ATOM     34  C   UNL     1       6.713  -6.419   4.005  1.00  0.00     0.031 A 
ATOM     35  C   UNL     1       7.194  -7.820   3.818  1.00  0.00     0.074 A 
ATOM     36  C   UNL     1       6.938  -5.738   5.139  1.00  0.00     0.049 A 
ATOM     37  N   UNL     1       7.912  -8.554   4.619  1.00  0.00    -0.248 NA
ATOM     38  C   UNL     1       6.823  -8.478   2.552  1.00  0.00     0.031 C 
ATOM     39  C   UNL     1       6.489  -4.374   5.404  1.00  0.00     0.029 A 
ATOM     40  N   UNL     1       7.615  -6.097   6.271  1.00  0.00    -0.354 N 
ATOM     41  C   UNL     1       8.088  -9.759   3.956  1.00  0.00     0.074 A 
ATOM     42  C   UNL     1       7.379  -9.670   2.699  1.00  0.00     0.031 C 
ATOM     43  C   UNL     1       6.928  -3.996   6.615  1.00  0.00     0.029 A 
ATOM     44  C   UNL     1       7.640  -5.113   7.228  1.00  0.00     0.049 A 
ATOM     45  H   UNL     1       8.042  -6.976   6.389  1.00  0.00     0.167 HD
ATOM     46  C   UNL     1       8.795 -10.836   4.360  1.00  0.00     0.034 A 
ATOM     47  C   UNL     1       8.160  -5.133   8.469  1.00  0.00     0.034 A 
ATOM     48  C   UNL     1       9.458 -10.918   5.631  1.00  0.00     0.049 A 
ATOM     49  C   UNL     1       8.891  -6.371   8.914  1.00  0.00     0.074 A 
ATOM     50  C   UNL     1      10.187 -11.968   6.155  1.00  0.00     0.029 A 
ATOM     51  N   UNL     1       9.450  -9.915   6.590  1.00  0.00    -0.354 N 
ATOM     52  N   UNL     1       9.131  -7.475   8.246  1.00  0.00    -0.248 NA
ATOM     53  C   UNL     1       9.452  -6.354  10.270  1.00  0.00     0.031 C 
ATOM     54  C   UNL     1      10.582 -11.617   7.450  1.00  0.00     0.029 A 
ATOM     55  C   UNL     1      10.151 -10.325   7.710  1.00  0.00     0.049 A 
ATOM     56  H   UNL     1       9.010  -9.040   6.488  1.00  0.00     0.167 HD
ATOM     57  C   UNL     1       9.895  -8.273   9.089  1.00  0.00     0.074 A 
ATOM     58  C   UNL     1      10.106  -7.507  10.302  1.00  0.00     0.031 C 
ATOM     59  C   UNL     1      10.369  -9.529   8.891  1.00  0.00     0.034 A 
BRANCH  46  60
ATOM     60  C   UNL     1       8.866 -12.004   3.417  1.00  0.00     0.023 A 
ATOM     61  C   UNL     1       9.616 -11.901   2.226  1.00  0.00     0.012 A 
ATOM     62  C   UNL     1       8.204 -13.208   3.717  1.00  0.00     0.148 A 
ATOM     63  C   UNL     1       9.680 -12.970   1.335  1.00  0.00     0.002 A 
ATOM     64  C   UNL     1       8.313 -14.285   2.849  1.00  0.00     0.091 A 
ATOM     65  F   UNL     1       7.471 -13.271   4.838  1.00  0.00    -0.205 F 
ATOM     66  C   UNL     1       9.039 -14.165   1.652  1.00  0.00     0.022 A 
BRANCH  64  67
ATOM     67  S   UNL     1       7.584 -15.887   3.198  1.00  0.00     0.127 S 
ATOM     68  O   UNL     1       6.598 -16.003   2.125  1.00  0.00    -0.237 OA
ATOM     69  O   UNL     1       8.736 -16.779   3.068  1.00  0.00    -0.237 OA
ATOM     70  O   UNL     1       7.029 -15.796   4.541  1.00  0.00    -0.744 OA
ENDBRANCH  64  67
ENDBRANCH  46  60
BRANCH  47  71
ATOM     71  C   UNL     1       7.989  -3.965   9.377  1.00  0.00     0.023 A 
ATOM     72  C   UNL     1       9.107  -3.232   9.819  1.00  0.00     0.012 A 
ATOM     73  C   UNL     1       6.705  -3.592   9.822  1.00  0.00     0.148 A 
ATOM     74  C   UNL     1       8.953  -2.181  10.725  1.00  0.00     0.002 A 
ATOM     75  C   UNL     1       6.553  -2.506  10.673  1.00  0.00     0.091 A 
ATOM     76  F   UNL     1       5.654  -4.310   9.401  1.00  0.00    -0.205 F 
ATOM     77  C   UNL     1       7.677  -1.813  11.146  1.00  0.00     0.022 A 
BRANCH  75  78
ATOM     78  S   UNL     1       4.939  -1.890  11.162  1.00  0.00     0.127 S 
ATOM     79  O   UNL     1       4.914  -2.215  12.585  1.00  0.00    -0.237 OA
ATOM     80  O   UNL     1       5.057  -0.465  10.855  1.00  0.00    -0.237 OA
ATOM     81  O   UNL     1       3.975  -2.604  10.335  1.00  0.00    -0.744 OA
ENDBRANCH  75  78
ENDBRANCH  47  71
BRANCH  59  82
ATOM     82  C   UNL     1      11.199 -10.130   9.996  1.00  0.00     0.023 A 
ATOM     83  C   UNL     1      10.603 -10.473  11.227  1.00  0.00     0.012 A 
ATOM     84  C   UNL     1      12.569 -10.387   9.796  1.00  0.00     0.148 A 
ATOM     85  C   UNL     1      11.372 -11.004  12.261  1.00  0.00     0.002 A 
ATOM     86  C   UNL     1      13.315 -10.975  10.809  1.00  0.00     0.091 A 
ATOM     87  F   UNL     1      13.121 -10.045   8.623  1.00  0.00    -0.205 F 
ATOM     88  C   UNL     1      12.723 -11.264  12.049  1.00  0.00     0.022 A 
BRANCH  86  89
ATOM     89  S   UNL     1      15.034 -11.443  10.589  1.00  0.00     0.127 S 
ATOM     90  O   UNL     1      15.718 -10.461  11.428  1.00  0.00    -0.237 OA
ATOM     91  O   UNL     1      15.050 -12.809  11.112  1.00  0.00    -0.237 OA
ATOM     92  O   UNL     1      15.301 -11.339   9.161  1.00  0.00    -0.744 OA
ENDBRANCH  86  89
ENDBRANCH  59  82
ENDBRANCH  33  34
ENDBRANCH  26  28
ENDBRANCH  25  26
ENDBRANCH  24  25
ENDBRANCH   1  24
TORSDOF 18
