REMARK SMILES CCCOC(=O)c1c(NC(=O)[C@@H]2CC=CC[C@H]2C(=O)OCCOCCOC(=O)c2ccc(-c3c4nc(c(-c5cccc(S(=O)(=O)[O-])c5F)c5ccc([nH]5)c(-c5cccc(S(=O)(=O)[O-])c5F)c5nc(c(-c6cccc(S(=O)(=O)[O-])c6F)c6ccc3[nH]6)C=C5)C=C4)cc2)sc2c1CCCC2
REMARK SMILES IDX 21 1 20 2 18 3 19 4 17 5 12 6 13 7 14 8 16 9 15 10 10 11
REMARK SMILES IDX 9 12 11 14 8 15 7 16 94 17 92 18 93 19 95 20 98 21 96 22
REMARK SMILES IDX 97 23 5 24 6 25 4 26 3 27 2 28 1 29 22 30 23 31 24 32 25 33
REMARK SMILES IDX 26 34 27 35 28 36 29 37 30 38 91 39 31 40 90 41 32 42 33 43
REMARK SMILES IDX 34 44 84 45 35 46 89 47 83 48 85 49 36 50 88 51 82 52 81 53
REMARK SMILES IDX 37 55 69 56 49 57 68 58 50 59 53 60 67 61 86 62 51 63 52 64
REMARK SMILES IDX 66 66 87 67 54 68 38 69 39 70 47 71 40 72 42 73 48 74 41 75
REMARK SMILES IDX 43 76 44 77 45 78 46 79 70 80 71 81 79 82 72 83 74 84 80 85
REMARK SMILES IDX 73 86 75 87 76 88 77 89 78 90 55 91 56 92 64 93 57 94 59 95
REMARK SMILES IDX 65 96 58 97 60 98 61 99 62 100 63 101
REMARK H PARENT 9 13 85 54 53 65
REMARK Flexibility Score: inf
ROOT
ATOM      1  C   UNL     1       2.923  -2.512  -1.621  1.00  0.00     0.261 C 
ENDROOT
BRANCH   1   2
ATOM      2  O   UNL     1       2.012  -1.376  -1.465  1.00  0.00    -0.463 OA
BRANCH   2   3
ATOM      3  C   UNL     1       2.402  -0.338  -0.676  1.00  0.00     0.310 C 
ATOM      4  O   UNL     1       3.572  -0.175  -0.339  1.00  0.00    -0.252 OA
BRANCH   3   5
ATOM      5  C   UNL     1       1.287   0.642  -0.205  1.00  0.00     0.116 C 
ATOM      6  C   UNL     1       0.019   0.805  -1.033  1.00  0.00     0.097 C 
ATOM      7  C   UNL     1      -0.567   2.204  -0.763  1.00  0.00     0.041 C 
ATOM      8  C   UNL     1      -0.923   2.302   0.693  1.00  0.00    -0.030 C 
ATOM      9  C   UNL     1       0.787   0.547   1.259  1.00  0.00     0.043 C 
ATOM     10  C   UNL     1      -0.334   1.510   1.605  1.00  0.00    -0.030 C 
BRANCH   6  11
ATOM     11  C   UNL     1       0.231   0.599  -2.480  1.00  0.00     0.229 C 
ATOM     12  N   UNL     1      -0.306  -0.507  -3.038  1.00  0.00    -0.317 N 
ATOM     13  H   UNL     1      -0.430  -0.427  -4.012  1.00  0.00     0.170 HD
ATOM     14  O   UNL     1       0.822   1.424  -3.177  1.00  0.00    -0.274 OA
BRANCH  12  15
ATOM     15  C   UNL     1      -0.720  -1.726  -2.539  1.00  0.00     0.110 A 
ATOM     16  C   UNL     1      -0.754  -2.546  -1.401  1.00  0.00     0.098 A 
ATOM     17  C   UNL     1      -1.024  -3.903  -1.828  1.00  0.00    -0.017 A 
ATOM     18  S   UNL     1      -1.392  -2.496  -3.918  1.00  0.00    -0.122 S 
ATOM     19  C   UNL     1      -1.307  -3.986  -3.167  1.00  0.00     0.011 A 
ATOM     20  C   UNL     1      -0.907  -5.159  -1.014  1.00  0.00     0.038 C 
ATOM     21  C   UNL     1      -1.381  -5.228  -3.958  1.00  0.00     0.047 C 
ATOM     22  C   UNL     1      -0.269  -6.242  -1.878  1.00  0.00     0.005 C 
ATOM     23  C   UNL     1      -1.104  -6.470  -3.130  1.00  0.00     0.006 C 
BRANCH  16  24
ATOM     24  C   UNL     1      -0.490  -2.329   0.040  1.00  0.00     0.341 C 
ATOM     25  O   UNL     1      -1.375  -2.111   0.835  1.00  0.00    -0.246 OA
BRANCH  24  26
ATOM     26  O   UNL     1       0.810  -2.625   0.420  1.00  0.00    -0.462 OA
BRANCH  26  27
ATOM     27  C   UNL     1       1.080  -2.899   1.819  1.00  0.00     0.233 C 
BRANCH  27  28
ATOM     28  C   UNL     1       2.579  -2.781   2.184  1.00  0.00     0.038 C 
ATOM     29  C   UNL     1       3.069  -1.414   2.652  1.00  0.00     0.007 C 
ENDBRANCH  27  28
ENDBRANCH  26  27
ENDBRANCH  24  26
ENDBRANCH  16  24
ENDBRANCH  12  15
ENDBRANCH   6  11
ENDBRANCH   3   5
ENDBRANCH   2   3
ENDBRANCH   1   2
BRANCH   1  30
ATOM     30  C   UNL     1       2.838  -3.189  -3.000  1.00  0.00     0.202 C 
BRANCH  30  31
ATOM     31  O   UNL     1       3.823  -2.687  -3.908  1.00  0.00    -0.374 OA
BRANCH  31  32
ATOM     32  C   UNL     1       3.480  -1.418  -4.450  1.00  0.00     0.202 C 
BRANCH  32  33
ATOM     33  C   UNL     1       2.834  -1.500  -5.838  1.00  0.00     0.261 C 
BRANCH  33  34
ATOM     34  O   UNL     1       1.860  -2.552  -5.978  1.00  0.00    -0.460 OA
BRANCH  34  35
ATOM     35  C   UNL     1       2.267  -3.648  -6.679  1.00  0.00     0.338 C 
ATOM     36  O   UNL     1       3.383  -3.854  -7.129  1.00  0.00    -0.246 OA
BRANCH  35  37
ATOM     37  C   UNL     1       1.147  -4.615  -6.833  1.00  0.00     0.060 A 
ATOM     38  C   UNL     1       1.394  -5.995  -6.754  1.00  0.00     0.016 A 
ATOM     39  C   UNL     1      -0.151  -4.173  -7.079  1.00  0.00     0.016 A 
ATOM     40  C   UNL     1       0.344  -6.933  -6.886  1.00  0.00     0.010 A 
ATOM     41  C   UNL     1      -1.195  -5.107  -7.170  1.00  0.00     0.010 A 
ATOM     42  C   UNL     1      -0.975  -6.507  -7.087  1.00  0.00    -0.014 A 
BRANCH  42  43
ATOM     43  C   UNL     1      -2.155  -7.425  -7.289  1.00  0.00     0.031 A 
ATOM     44  C   UNL     1      -2.975  -7.249  -8.543  1.00  0.00     0.074 A 
ATOM     45  C   UNL     1      -2.628  -8.297  -6.365  1.00  0.00     0.049 A 
ATOM     46  N   UNL     1      -4.123  -7.786  -8.860  1.00  0.00    -0.248 NA
ATOM     47  C   UNL     1      -2.427  -6.350  -9.574  1.00  0.00     0.031 C 
ATOM     48  C   UNL     1      -1.961  -8.718  -5.145  1.00  0.00     0.029 A 
ATOM     49  N   UNL     1      -3.852  -8.932  -6.272  1.00  0.00    -0.354 N 
ATOM     50  C   UNL     1      -4.424  -7.297 -10.121  1.00  0.00     0.074 A 
ATOM     51  C   UNL     1      -3.420  -6.307 -10.445  1.00  0.00     0.031 C 
ATOM     52  C   UNL     1      -2.837  -9.332  -4.327  1.00  0.00     0.029 A 
ATOM     53  C   UNL     1      -4.106  -9.478  -5.027  1.00  0.00     0.049 A 
ATOM     54  H   UNL     1      -4.486  -8.990  -7.024  1.00  0.00     0.167 HD
ATOM     55  C   UNL     1      -5.364  -7.720 -10.996  1.00  0.00     0.034 A 
ATOM     56  C   UNL     1      -5.203 -10.077  -4.517  1.00  0.00     0.034 A 
ATOM     57  C   UNL     1      -6.290  -8.782 -10.735  1.00  0.00     0.049 A 
ATOM     58  C   UNL     1      -6.297 -10.484  -5.471  1.00  0.00     0.074 A 
ATOM     59  C   UNL     1      -7.162  -9.399 -11.612  1.00  0.00     0.029 A 
ATOM     60  N   UNL     1      -6.459  -9.389  -9.504  1.00  0.00    -0.354 N 
ATOM     61  N   UNL     1      -6.410 -10.216  -6.747  1.00  0.00    -0.248 NA
ATOM     62  C   UNL     1      -7.325 -11.406  -4.959  1.00  0.00     0.031 C 
ATOM     63  C   UNL     1      -7.865 -10.381 -10.906  1.00  0.00     0.029 A 
ATOM     64  C   UNL     1      -7.426 -10.373  -9.593  1.00  0.00     0.049 A 
ATOM     65  H   UNL     1      -5.964  -9.155  -8.685  1.00  0.00     0.167 HD
ATOM     66  C   UNL     1      -7.430 -11.037  -7.216  1.00  0.00     0.074 A 
ATOM     67  C   UNL     1      -7.939 -11.771  -6.078  1.00  0.00     0.031 C 
ATOM     68  C   UNL     1      -7.869 -11.184  -8.489  1.00  0.00     0.034 A 
BRANCH  55  69
ATOM     69  C   UNL     1      -5.314  -7.114 -12.368  1.00  0.00     0.023 A 
ATOM     70  C   UNL     1      -4.233  -7.442 -13.215  1.00  0.00     0.012 A 
ATOM     71  C   UNL     1      -6.296  -6.213 -12.808  1.00  0.00     0.148 A 
ATOM     72  C   UNL     1      -4.092  -6.828 -14.455  1.00  0.00     0.002 A 
ATOM     73  C   UNL     1      -6.174  -5.641 -14.068  1.00  0.00     0.091 A 
ATOM     74  F   UNL     1      -7.303  -5.905 -11.979  1.00  0.00    -0.205 F 
ATOM     75  C   UNL     1      -5.065  -5.931 -14.883  1.00  0.00     0.022 A 
BRANCH  73  76
ATOM     76  S   UNL     1      -7.404  -4.524 -14.746  1.00  0.00     0.127 S 
ATOM     77  O   UNL     1      -6.683  -3.252 -14.738  1.00  0.00    -0.237 OA
ATOM     78  O   UNL     1      -7.628  -5.090 -16.076  1.00  0.00    -0.237 OA
ATOM     79  O   UNL     1      -8.550  -4.599 -13.852  1.00  0.00    -0.744 OA
ENDBRANCH  73  76
ENDBRANCH  55  69
BRANCH  56  80
ATOM     80  C   UNL     1      -5.251 -10.557  -3.101  1.00  0.00     0.023 A 
ATOM     81  C   UNL     1      -4.963 -11.911  -2.835  1.00  0.00     0.012 A 
ATOM     82  C   UNL     1      -5.652  -9.721  -2.039  1.00  0.00     0.148 A 
ATOM     83  C   UNL     1      -5.117 -12.437  -1.552  1.00  0.00     0.002 A 
ATOM     84  C   UNL     1      -5.780 -10.248  -0.754  1.00  0.00     0.091 A 
ATOM     85  F   UNL     1      -5.937  -8.440  -2.310  1.00  0.00    -0.205 F 
ATOM     86  C   UNL     1      -5.526 -11.607  -0.512  1.00  0.00     0.022 A 
BRANCH  84  87
ATOM     87  S   UNL     1      -6.250  -9.259   0.675  1.00  0.00     0.127 S 
ATOM     88  O   UNL     1      -7.585  -9.774   0.969  1.00  0.00    -0.237 OA
ATOM     89  O   UNL     1      -5.221  -9.628   1.648  1.00  0.00    -0.237 OA
ATOM     90  O   UNL     1      -6.190  -7.874   0.230  1.00  0.00    -0.744 OA
ENDBRANCH  84  87
ENDBRANCH  56  80
BRANCH  68  91
ATOM     91  C   UNL     1      -8.892 -12.246  -8.781  1.00  0.00     0.023 A 
ATOM     92  C   UNL     1     -10.232 -12.061  -8.399  1.00  0.00     0.012 A 
ATOM     93  C   UNL     1      -8.539 -13.372  -9.555  1.00  0.00     0.148 A 
ATOM     94  C   UNL     1     -11.207 -12.985  -8.773  1.00  0.00     0.002 A 
ATOM     95  C   UNL     1      -9.524 -14.261  -9.968  1.00  0.00     0.091 A 
ATOM     96  F   UNL     1      -7.251 -13.544  -9.886  1.00  0.00    -0.205 F 
ATOM     97  C   UNL     1     -10.857 -14.073  -9.571  1.00  0.00     0.022 A 
BRANCH  95  98
ATOM     98  S   UNL     1      -9.181 -15.622 -11.090  1.00  0.00     0.127 S 
ATOM     99  O   UNL     1      -9.267 -16.775 -10.196  1.00  0.00    -0.237 OA
ATOM    100  O   UNL     1     -10.278 -15.514 -12.053  1.00  0.00    -0.237 OA
ATOM    101  O   UNL     1      -7.862 -15.359 -11.648  1.00  0.00    -0.744 OA
ENDBRANCH  95  98
ENDBRANCH  68  91
ENDBRANCH  42  43
ENDBRANCH  35  37
ENDBRANCH  34  35
ENDBRANCH  33  34
ENDBRANCH  32  33
ENDBRANCH  31  32
ENDBRANCH  30  31
ENDBRANCH   1  30
TORSDOF 23
