REMARK SMILES O=C(OCCOCCOC(=O)C1CC2(CCCC2)C1)c1ccc(-c2c3nc(c(-c4cccc(S(=O)(=O)[O-])c4F)c4ccc([nH]4)c(-c4cccc(S(=O)(=O)[O-])c4F)c4nc(c(-c5cccc(S(=O)(=O)[O-])c5F)c5ccc2[nH]5)C=C4)C=C3)cc1
REMARK SMILES IDX 4 1 3 2 2 3 1 4 20 5 21 6 82 7 22 8 81 9 23 10 24 11 25 12
REMARK SMILES IDX 75 13 26 14 80 15 74 16 76 17 27 18 79 19 73 20 72 21 28 23
REMARK SMILES IDX 60 24 40 25 59 26 41 27 44 28 58 29 77 30 42 31 43 32 57 34
REMARK SMILES IDX 78 35 45 36 29 37 30 38 38 39 31 40 33 41 39 42 32 43 34 44
REMARK SMILES IDX 35 45 36 46 37 47 61 48 62 49 70 50 63 51 65 52 71 53 64 54
REMARK SMILES IDX 66 55 67 56 68 57 69 58 46 59 47 60 55 61 48 62 50 63 56 64
REMARK SMILES IDX 49 65 51 66 52 67 53 68 54 69 5 70 6 71 7 72 8 73 9 74 10 75
REMARK SMILES IDX 11 76 12 77 13 78 19 79 14 80 15 81 18 82 16 83 17 84
REMARK H PARENT 76 22 44 33
REMARK Flexibility Score: inf
ROOT
ATOM      1  C   UNL     1       3.972  -1.236   0.855  1.00  0.00     0.261 C 
ENDROOT
BRANCH   1   2
ATOM      2  O   UNL     1       2.655  -0.979   1.360  1.00  0.00    -0.460 OA
BRANCH   2   3
ATOM      3  C   UNL     1       2.075   0.229   1.556  1.00  0.00     0.338 C 
ATOM      4  O   UNL     1       0.852   0.272   1.681  1.00  0.00    -0.246 OA
BRANCH   3   5
ATOM      5  C   UNL     1       2.840   1.512   1.664  1.00  0.00     0.060 A 
ATOM      6  C   UNL     1       4.062   1.787   1.044  1.00  0.00     0.016 A 
ATOM      7  C   UNL     1       2.222   2.549   2.385  1.00  0.00     0.016 A 
ATOM      8  C   UNL     1       4.674   3.017   1.144  1.00  0.00     0.010 A 
ATOM      9  C   UNL     1       2.837   3.795   2.511  1.00  0.00     0.010 A 
ATOM     10  C   UNL     1       4.079   4.009   1.906  1.00  0.00    -0.014 A 
BRANCH  10  11
ATOM     11  C   UNL     1       4.936   5.148   2.234  1.00  0.00     0.031 A 
ATOM     12  C   UNL     1       5.650   5.096   3.546  1.00  0.00     0.074 A 
ATOM     13  C   UNL     1       5.208   6.062   1.290  1.00  0.00     0.049 A 
ATOM     14  N   UNL     1       6.467   5.957   4.077  1.00  0.00    -0.248 NA
ATOM     15  C   UNL     1       5.431   3.886   4.364  1.00  0.00     0.031 C 
ATOM     16  C   UNL     1       4.677   6.048  -0.076  1.00  0.00     0.029 A 
ATOM     17  N   UNL     1       6.020   7.157   1.325  1.00  0.00    -0.354 N 
ATOM     18  C   UNL     1       6.799   5.434   5.318  1.00  0.00     0.074 A 
ATOM     19  C   UNL     1       6.129   4.163   5.451  1.00  0.00     0.031 C 
ATOM     20  C   UNL     1       5.178   7.096  -0.749  1.00  0.00     0.029 A 
ATOM     21  C   UNL     1       6.003   7.882   0.159  1.00  0.00     0.049 A 
ATOM     22  H   UNL     1       6.565   7.403   2.108  1.00  0.00     0.167 HD
ATOM     23  C   UNL     1       7.580   5.992   6.268  1.00  0.00     0.034 A 
ATOM     24  C   UNL     1       6.565   9.075  -0.107  1.00  0.00     0.034 A 
ATOM     25  C   UNL     1       8.221   7.261   6.083  1.00  0.00     0.049 A 
ATOM     26  C   UNL     1       7.360   9.717   0.997  1.00  0.00     0.074 A 
ATOM     27  C   UNL     1       8.992   7.982   6.971  1.00  0.00     0.029 A 
ATOM     28  N   UNL     1       8.143   8.007   4.911  1.00  0.00    -0.354 N 
ATOM     29  N   UNL     1       7.646   9.245   2.189  1.00  0.00    -0.248 NA
ATOM     30  C   UNL     1       7.918  11.045   0.723  1.00  0.00     0.031 C 
ATOM     31  C   UNL     1       9.343   9.186   6.350  1.00  0.00     0.029 A 
ATOM     32  C   UNL     1       8.839   9.190   5.055  1.00  0.00     0.049 A 
ATOM     33  H   UNL     1       7.662   7.732   4.098  1.00  0.00     0.167 HD
ATOM     34  C   UNL     1       8.448  10.198   2.798  1.00  0.00     0.074 A 
ATOM     35  C   UNL     1       8.611  11.271   1.832  1.00  0.00     0.031 C 
ATOM     36  C   UNL     1       8.999  10.201   4.038  1.00  0.00     0.034 A 
BRANCH  23  37
ATOM     37  C   UNL     1       7.669   5.272   7.585  1.00  0.00     0.023 A 
ATOM     38  C   UNL     1       8.360   4.047   7.696  1.00  0.00     0.012 A 
ATOM     39  C   UNL     1       6.990   5.785   8.708  1.00  0.00     0.148 A 
ATOM     40  C   UNL     1       8.325   3.319   8.886  1.00  0.00     0.002 A 
ATOM     41  C   UNL     1       7.003   5.079   9.904  1.00  0.00     0.091 A 
ATOM     42  F   UNL     1       6.307   6.930   8.573  1.00  0.00    -0.205 F 
ATOM     43  C   UNL     1       7.653   3.837   9.990  1.00  0.00     0.022 A 
BRANCH  41  44
ATOM     44  S   UNL     1       6.218   5.696  11.396  1.00  0.00     0.127 S 
ATOM     45  O   UNL     1       5.103   4.764  11.551  1.00  0.00    -0.237 OA
ATOM     46  O   UNL     1       7.285   5.543  12.385  1.00  0.00    -0.237 OA
ATOM     47  O   UNL     1       5.844   7.076  11.113  1.00  0.00    -0.744 OA
ENDBRANCH  41  44
ENDBRANCH  23  37
BRANCH  24  48
ATOM     48  C   UNL     1       6.382   9.717  -1.438  1.00  0.00     0.023 A 
ATOM     49  C   UNL     1       7.491   9.901  -2.285  1.00  0.00     0.012 A 
ATOM     50  C   UNL     1       5.106  10.123  -1.884  1.00  0.00     0.148 A 
ATOM     51  C   UNL     1       7.338  10.498  -3.538  1.00  0.00     0.002 A 
ATOM     52  C   UNL     1       4.953  10.670  -3.152  1.00  0.00     0.091 A 
ATOM     53  F   UNL     1       4.062   9.951  -1.060  1.00  0.00    -0.205 F 
ATOM     54  C   UNL     1       6.070  10.874  -3.975  1.00  0.00     0.022 A 
BRANCH  52  55
ATOM     55  S   UNL     1       3.346  11.081  -3.843  1.00  0.00     0.127 S 
ATOM     56  O   UNL     1       3.428  12.536  -3.943  1.00  0.00    -0.237 OA
ATOM     57  O   UNL     1       3.378  10.372  -5.122  1.00  0.00    -0.237 OA
ATOM     58  O   UNL     1       2.364  10.571  -2.894  1.00  0.00    -0.744 OA
ENDBRANCH  52  55
ENDBRANCH  24  48
BRANCH  36  59
ATOM     59  C   UNL     1       9.878  11.367   4.389  1.00  0.00     0.023 A 
ATOM     60  C   UNL     1       9.313  12.629   4.651  1.00  0.00     0.012 A 
ATOM     61  C   UNL     1      11.264  11.173   4.547  1.00  0.00     0.148 A 
ATOM     62  C   UNL     1      10.125  13.694   5.035  1.00  0.00     0.002 A 
ATOM     63  C   UNL     1      12.055  12.221   4.990  1.00  0.00     0.091 A 
ATOM     64  F   UNL     1      11.777   9.965   4.270  1.00  0.00    -0.205 F 
ATOM     65  C   UNL     1      11.491  13.486   5.219  1.00  0.00     0.022 A 
BRANCH  63  66
ATOM     66  S   UNL     1      13.796  12.006   5.370  1.00  0.00     0.127 S 
ATOM     67  O   UNL     1      14.431  12.713   4.260  1.00  0.00    -0.237 OA
ATOM     68  O   UNL     1      13.913  12.672   6.667  1.00  0.00    -0.237 OA
ATOM     69  O   UNL     1      14.024  10.567   5.408  1.00  0.00    -0.744 OA
ENDBRANCH  63  66
ENDBRANCH  36  59
ENDBRANCH  10  11
ENDBRANCH   3   5
ENDBRANCH   2   3
ENDBRANCH   1   2
BRANCH   1  70
ATOM     70  C   UNL     1       3.991  -1.140  -0.673  1.00  0.00     0.202 C 
BRANCH  70  71
ATOM     71  O   UNL     1       3.626   0.143  -1.176  1.00  0.00    -0.374 OA
BRANCH  71  72
ATOM     72  C   UNL     1       2.257   0.371  -1.529  1.00  0.00     0.202 C 
BRANCH  72  73
ATOM     73  C   UNL     1       2.174   0.822  -2.986  1.00  0.00     0.261 C 
BRANCH  73  74
ATOM     74  O   UNL     1       2.528  -0.314  -3.781  1.00  0.00    -0.463 OA
BRANCH  74  75
ATOM     75  C   UNL     1       3.873  -0.502  -3.823  1.00  0.00     0.309 C 
ATOM     76  O   UNL     1       4.699   0.401  -3.641  1.00  0.00    -0.252 OA
BRANCH  75  77
ATOM     77  C   UNL     1       4.249  -1.981  -4.109  1.00  0.00     0.100 C 
ATOM     78  C   UNL     1       4.064  -2.598  -5.544  1.00  0.00     0.022 C 
ATOM     79  C   UNL     1       5.736  -2.084  -4.433  1.00  0.00     0.022 C 
ATOM     80  C   UNL     1       5.315  -1.708  -5.940  1.00  0.00    -0.028 C 
ATOM     81  C   UNL     1       4.660  -0.489  -6.641  1.00  0.00     0.007 C 
ATOM     82  C   UNL     1       6.690  -1.691  -6.595  1.00  0.00     0.007 C 
ATOM     83  C   UNL     1       5.758   0.542  -6.819  1.00  0.00     0.001 C 
ATOM     84  C   UNL     1       7.037  -0.191  -6.440  1.00  0.00     0.001 C 
ENDBRANCH  75  77
ENDBRANCH  74  75
ENDBRANCH  73  74
ENDBRANCH  72  73
ENDBRANCH  71  72
ENDBRANCH  70  71
ENDBRANCH   1  70
TORSDOF 17
