REMARK SMILES Cc1cc(=O)c(Oc2ccc(C(=O)OCCOCCOC(=O)c3ccc(-c4c5nc(c(-c6cccc(S(=O)(=O)[O-])c6F)c6ccc([nH]6)c(-c6cccc(S(=O)(=O)[O-])c6F)c6nc(c(-c7cccc(S(=O)(=O)[O-])c7F)c7ccc4[nH]7)C=C6)C=C5)cc3)cc2)c(-c2ccc(S(C)(=O)=O)cc2)o1
REMARK SMILES IDX 16 1 15 2 14 3 12 4 13 5 11 6 8 7 9 8 87 9 10 10 86 11 7 12
REMARK SMILES IDX 6 13 1 14 2 15 3 16 99 17 4 18 88 19 5 20 89 21 90 22 98 23
REMARK SMILES IDX 91 24 97 25 92 26 93 27 94 28 95 29 96 30 17 31 18 32 19 33
REMARK SMILES IDX 20 34 21 35 22 36 23 37 24 38 85 39 25 40 84 41 26 42 27 43
REMARK SMILES IDX 28 44 78 45 29 46 83 47 77 48 79 49 30 50 82 51 76 52 75 53
REMARK SMILES IDX 31 55 63 56 43 57 62 58 44 59 47 60 61 61 80 62 45 63 46 64
REMARK SMILES IDX 60 66 81 67 48 68 32 69 33 70 41 71 34 72 36 73 42 74 35 75
REMARK SMILES IDX 37 76 38 77 39 78 40 79 64 80 65 81 73 82 66 83 68 84 74 85
REMARK SMILES IDX 67 86 69 87 70 88 71 89 72 90 49 91 50 92 58 93 51 94 53 95
REMARK SMILES IDX 59 96 52 97 54 98 55 99 56 100 57 101
REMARK H PARENT 79 54 47 65
REMARK Flexibility Score: inf
ROOT
ATOM      1  C   UNL     1       4.476  11.538   0.536  1.00  0.00     0.202 C 
ENDROOT
BRANCH   1   2
ATOM      2  C   UNL     1       3.099  12.025   0.065  1.00  0.00     0.261 C 
BRANCH   2   3
ATOM      3  O   UNL     1       2.093  11.027   0.314  1.00  0.00    -0.460 OA
BRANCH   3   4
ATOM      4  C   UNL     1       1.557  10.440  -0.785  1.00  0.00     0.338 C 
ATOM      5  O   UNL     1       1.661  10.820  -1.940  1.00  0.00    -0.246 OA
BRANCH   4   6
ATOM      6  C   UNL     1       0.894   9.158  -0.415  1.00  0.00     0.060 A 
ATOM      7  C   UNL     1      -0.193   6.640   0.171  1.00  0.00     0.127 A 
ATOM      8  C   UNL     1       0.013   7.011  -1.153  1.00  0.00     0.048 A 
ATOM      9  C   UNL     1       0.071   7.551   1.199  1.00  0.00     0.048 A 
ATOM     10  C   UNL     1       0.584   8.254  -1.444  1.00  0.00     0.019 A 
ATOM     11  C   UNL     1       0.615   8.807   0.911  1.00  0.00     0.019 A 
BRANCH   7  12
ATOM     12  O   UNL     1      -0.829   5.487   0.527  1.00  0.00    -0.449 OA
BRANCH  12  13
ATOM     13  C   UNL     1      -0.391   4.204   0.252  1.00  0.00     0.217 A 
ATOM     14  C   UNL     1       0.724   0.035   0.006  1.00  0.00     0.088 C 
ATOM     15  C   UNL     1       0.192   1.429   0.094  1.00  0.00     0.105 A 
ATOM     16  C   UNL     1      -0.962   1.747   0.682  1.00  0.00     0.098 A 
ATOM     17  O   UNL     1       1.012   2.374  -0.474  1.00  0.00    -0.457 OA
ATOM     18  C   UNL     1      -1.364   3.161   0.727  1.00  0.00     0.228 A 
ATOM     19  C   UNL     1       0.744   3.730  -0.321  1.00  0.00     0.180 A 
ATOM     20  O   UNL     1      -2.474   3.448   1.168  1.00  0.00    -0.285 OA
BRANCH  19  21
ATOM     21  C   UNL     1       1.880   4.481  -0.871  1.00  0.00     0.021 A 
ATOM     22  C   UNL     1       2.111   4.460  -2.260  1.00  0.00     0.013 A 
ATOM     23  C   UNL     1       2.828   5.066  -0.031  1.00  0.00     0.013 A 
ATOM     24  C   UNL     1       3.237   5.073  -2.812  1.00  0.00     0.021 A 
ATOM     25  C   UNL     1       3.978   5.631  -0.584  1.00  0.00     0.021 A 
ATOM     26  C   UNL     1       4.166   5.666  -1.966  1.00  0.00     0.067 A 
BRANCH  26  27
ATOM     27  S   UNL     1       5.546   6.566  -2.637  1.00  0.00     0.175 S 
ATOM     28  C   UNL     1       6.973   5.640  -2.148  1.00  0.00     0.163 C 
ATOM     29  O   UNL     1       5.449   6.502  -4.083  1.00  0.00    -0.224 OA
ATOM     30  O   UNL     1       5.574   7.837  -1.948  1.00  0.00    -0.224 OA
ENDBRANCH  26  27
ENDBRANCH  19  21
ENDBRANCH  12  13
ENDBRANCH   7  12
ENDBRANCH   4   6
ENDBRANCH   3   4
ENDBRANCH   2   3
ENDBRANCH   1   2
BRANCH   1  31
ATOM     31  O   UNL     1       4.851  10.270   0.001  1.00  0.00    -0.374 OA
BRANCH  31  32
ATOM     32  C   UNL     1       4.284   9.150   0.681  1.00  0.00     0.202 C 
BRANCH  32  33
ATOM     33  C   UNL     1       5.365   8.229   1.239  1.00  0.00     0.261 C 
BRANCH  33  34
ATOM     34  O   UNL     1       5.868   8.764   2.450  1.00  0.00    -0.460 OA
BRANCH  34  35
ATOM     35  C   UNL     1       6.924   9.602   2.358  1.00  0.00     0.338 C 
ATOM     36  O   UNL     1       7.719   9.720   1.458  1.00  0.00    -0.246 OA
BRANCH  35  37
ATOM     37  C   UNL     1       6.747  10.497   3.517  1.00  0.00     0.060 A 
ATOM     38  C   UNL     1       6.063  10.031   4.650  1.00  0.00     0.016 A 
ATOM     39  C   UNL     1       7.127  11.835   3.399  1.00  0.00     0.016 A 
ATOM     40  C   UNL     1       5.702  10.917   5.640  1.00  0.00     0.010 A 
ATOM     41  C   UNL     1       6.823  12.716   4.431  1.00  0.00     0.010 A 
ATOM     42  C   UNL     1       6.115  12.253   5.549  1.00  0.00    -0.014 A 
BRANCH  42  43
ATOM     43  C   UNL     1       5.941  13.088   6.744  1.00  0.00     0.031 A 
ATOM     44  C   UNL     1       4.914  14.164   6.792  1.00  0.00     0.074 A 
ATOM     45  C   UNL     1       6.716  12.775   7.799  1.00  0.00     0.049 A 
ATOM     46  N   UNL     1       4.569  14.902   7.809  1.00  0.00    -0.248 NA
ATOM     47  C   UNL     1       4.178  14.458   5.551  1.00  0.00     0.031 C 
ATOM     48  C   UNL     1       7.755  11.736   7.790  1.00  0.00     0.029 A 
ATOM     49  N   UNL     1       6.741  13.260   9.073  1.00  0.00    -0.354 N 
ATOM     50  C   UNL     1       3.605  15.775   7.330  1.00  0.00     0.074 A 
ATOM     51  C   UNL     1       3.408  15.471   5.930  1.00  0.00     0.031 C 
ATOM     52  C   UNL     1       8.282  11.631   9.015  1.00  0.00     0.029 A 
ATOM     53  C   UNL     1       7.657  12.625   9.876  1.00  0.00     0.049 A 
ATOM     54  H   UNL     1       6.161  13.991   9.387  1.00  0.00     0.167 HD
ATOM     55  C   UNL     1       2.950  16.735   8.019  1.00  0.00     0.034 A 
ATOM     56  C   UNL     1       7.965  12.830  11.168  1.00  0.00     0.034 A 
ATOM     57  C   UNL     1       3.158  16.983   9.419  1.00  0.00     0.049 A 
ATOM     58  C   UNL     1       7.206  13.887  11.906  1.00  0.00     0.074 A 
ATOM     59  C   UNL     1       2.507  17.889  10.235  1.00  0.00     0.029 A 
ATOM     60  N   UNL     1       4.098  16.331  10.205  1.00  0.00    -0.354 N 
ATOM     61  N   UNL     1       6.220  14.633  11.469  1.00  0.00    -0.248 NA
ATOM     62  C   UNL     1       7.584  14.131  13.301  1.00  0.00     0.031 C 
ATOM     63  C   UNL     1       3.069  17.798  11.511  1.00  0.00     0.029 A 
ATOM     64  C   UNL     1       4.060  16.826  11.494  1.00  0.00     0.049 A 
ATOM     65  H   UNL     1       4.702  15.620   9.890  1.00  0.00     0.167 HD
ATOM     66  C   UNL     1       5.856  15.441  12.534  1.00  0.00     0.074 A 
ATOM     67  C   UNL     1       6.713  15.073  13.646  1.00  0.00     0.031 C 
ATOM     68  C   UNL     1       4.912  16.411  12.580  1.00  0.00     0.034 A 
BRANCH  55  69
ATOM     69  C   UNL     1       1.938  17.570   7.288  1.00  0.00     0.023 A 
ATOM     70  C   UNL     1       0.659  17.041   7.028  1.00  0.00     0.012 A 
ATOM     71  C   UNL     1       2.223  18.904   6.941  1.00  0.00     0.148 A 
ATOM     72  C   UNL     1      -0.322  17.828   6.425  1.00  0.00     0.002 A 
ATOM     73  C   UNL     1       1.233  19.691   6.366  1.00  0.00     0.091 A 
ATOM     74  F   UNL     1       3.454  19.377   7.185  1.00  0.00    -0.205 F 
ATOM     75  C   UNL     1      -0.039  19.153   6.104  1.00  0.00     0.022 A 
BRANCH  73  76
ATOM     76  S   UNL     1       1.478  21.422   5.956  1.00  0.00     0.127 S 
ATOM     77  O   UNL     1       1.336  21.402   4.500  1.00  0.00    -0.237 OA
ATOM     78  O   UNL     1       0.374  22.064   6.669  1.00  0.00    -0.237 OA
ATOM     79  O   UNL     1       2.807  21.768   6.441  1.00  0.00    -0.744 OA
ENDBRANCH  73  76
ENDBRANCH  55  69
BRANCH  56  80
ATOM     80  C   UNL     1       9.003  11.978  11.801  1.00  0.00     0.023 A 
ATOM     81  C   UNL     1       8.611  10.934  12.659  1.00  0.00     0.012 A 
ATOM     82  C   UNL     1      10.358  12.100  11.433  1.00  0.00     0.148 A 
ATOM     83  C   UNL     1       9.554  10.023  13.138  1.00  0.00     0.002 A 
ATOM     84  C   UNL     1      11.283  11.165  11.878  1.00  0.00     0.091 A 
ATOM     85  F   UNL     1      10.700  13.097  10.604  1.00  0.00    -0.205 F 
ATOM     86  C   UNL     1      10.884  10.130  12.738  1.00  0.00     0.022 A 
BRANCH  84  87
ATOM     87  S   UNL     1      12.989  11.145  11.316  1.00  0.00     0.127 S 
ATOM     88  O   UNL     1      13.714  11.415  12.555  1.00  0.00    -0.237 OA
ATOM     89  O   UNL     1      13.121   9.778  10.810  1.00  0.00    -0.237 OA
ATOM     90  O   UNL     1      13.084  12.180  10.296  1.00  0.00    -0.744 OA
ENDBRANCH  84  87
ENDBRANCH  56  80
BRANCH  68  91
ATOM     91  C   UNL     1       4.757  17.163  13.868  1.00  0.00     0.023 A 
ATOM     92  C   UNL     1       5.640  18.222  14.150  1.00  0.00     0.012 A 
ATOM     93  C   UNL     1       3.648  16.928  14.702  1.00  0.00     0.148 A 
ATOM     94  C   UNL     1       5.415  19.047  15.249  1.00  0.00     0.002 A 
ATOM     95  C   UNL     1       3.411  17.776  15.773  1.00  0.00     0.091 A 
ATOM     96  F   UNL     1       2.832  15.907  14.403  1.00  0.00    -0.205 F 
ATOM     97  C   UNL     1       4.295  18.834  16.050  1.00  0.00     0.022 A 
BRANCH  95  98
ATOM     98  S   UNL     1       1.954  17.636  16.812  1.00  0.00     0.127 S 
ATOM     99  O   UNL     1       2.547  17.353  18.119  1.00  0.00    -0.237 OA
ATOM    100  O   UNL     1       1.359  18.966  16.685  1.00  0.00    -0.237 OA
ATOM    101  O   UNL     1       1.158  16.552  16.251  1.00  0.00    -0.744 OA
ENDBRANCH  95  98
ENDBRANCH  68  91
ENDBRANCH  42  43
ENDBRANCH  35  37
ENDBRANCH  34  35
ENDBRANCH  33  34
ENDBRANCH  32  33
ENDBRANCH  31  32
ENDBRANCH   1  31
TORSDOF 21
