REMARK SMILES O=C(OCCOCCOC(=O)[C@H]1C=C[C@@H](NS(=O)(=O)c2ccc(Br)cc2)C1)c1ccc(-c2c3nc(c(-c4cccc(S(=O)(=O)[O-])c4F)c4ccc([nH]4)c(-c4cccc(S(=O)(=O)[O-])c4F)c4nc(c(-c5cccc(S(=O)(=O)[O-])c5F)c5ccc2[nH]5)C=C4)C=C3)cc1
REMARK SMILES IDX 6 1 5 2 4 3 3 4 2 5 1 6 28 7 29 8 90 9 30 10 89 11 31 12
REMARK SMILES IDX 32 13 33 14 83 15 34 16 88 17 82 18 84 19 35 20 87 21 81 22
REMARK SMILES IDX 80 23 36 25 68 26 48 27 67 28 49 29 52 30 66 31 85 32 50 33
REMARK SMILES IDX 51 34 65 36 86 37 53 38 37 39 38 40 46 41 39 42 41 43 47 44
REMARK SMILES IDX 40 45 42 46 43 47 44 48 45 49 69 50 70 51 78 52 71 53 73 54
REMARK SMILES IDX 79 55 72 56 74 57 75 58 76 59 77 60 54 61 55 62 63 63 56 64
REMARK SMILES IDX 58 65 64 66 57 67 59 68 60 69 61 70 62 71 7 72 8 73 9 74
REMARK SMILES IDX 10 75 11 76 12 77 13 78 27 79 14 80 15 81 16 82 17 84 18 85
REMARK SMILES IDX 19 86 20 87 21 88 26 89 22 90 25 91 23 92 24 93
REMARK H PARENT 84 24 52 35 16 83
REMARK Flexibility Score: inf
ROOT
ATOM      1  O   UNL     1       4.062  -0.767   1.494  1.00  0.00    -0.374 OA
ENDROOT
BRANCH   1   2
ATOM      2  C   UNL     1       4.167   0.654   1.562  1.00  0.00     0.202 C 
BRANCH   2   3
ATOM      3  C   UNL     1       3.841   1.404   0.274  1.00  0.00     0.261 C 
BRANCH   3   4
ATOM      4  O   UNL     1       2.460   1.201  -0.061  1.00  0.00    -0.460 OA
BRANCH   4   5
ATOM      5  C   UNL     1       1.962   0.553  -1.138  1.00  0.00     0.338 C 
ATOM      6  O   UNL     1       0.759   0.636  -1.375  1.00  0.00    -0.246 OA
BRANCH   5   7
ATOM      7  C   UNL     1       2.814  -0.268  -2.047  1.00  0.00     0.060 A 
ATOM      8  C   UNL     1       3.955  -0.961  -1.637  1.00  0.00     0.016 A 
ATOM      9  C   UNL     1       2.368  -0.444  -3.364  1.00  0.00     0.016 A 
ATOM     10  C   UNL     1       4.672  -1.764  -2.507  1.00  0.00     0.010 A 
ATOM     11  C   UNL     1       3.050  -1.297  -4.235  1.00  0.00     0.010 A 
ATOM     12  C   UNL     1       4.204  -1.960  -3.800  1.00  0.00    -0.014 A 
BRANCH  12  13
ATOM     13  C   UNL     1       4.939  -2.890  -4.669  1.00  0.00     0.031 A 
ATOM     14  C   UNL     1       5.796  -2.339  -5.758  1.00  0.00     0.074 A 
ATOM     15  C   UNL     1       4.852  -4.209  -4.417  1.00  0.00     0.049 A 
ATOM     16  N   UNL     1       6.459  -2.978  -6.679  1.00  0.00    -0.248 NA
ATOM     17  C   UNL     1       5.937  -0.873  -5.813  1.00  0.00     0.031 C 
ATOM     18  C   UNL     1       4.089  -4.807  -3.316  1.00  0.00     0.029 A 
ATOM     19  N   UNL     1       5.397  -5.284  -5.064  1.00  0.00    -0.354 N 
ATOM     20  C   UNL     1       7.042  -1.996  -7.466  1.00  0.00     0.074 A 
ATOM     21  C   UNL     1       6.693  -0.717  -6.891  1.00  0.00     0.031 C 
ATOM     22  C   UNL     1       4.203  -6.142  -3.375  1.00  0.00     0.029 A 
ATOM     23  C   UNL     1       4.986  -6.493  -4.552  1.00  0.00     0.049 A 
ATOM     24  H   UNL     1       6.022  -5.201  -5.821  1.00  0.00     0.167 HD
ATOM     25  C   UNL     1       7.786  -2.164  -8.581  1.00  0.00     0.034 A 
ATOM     26  C   UNL     1       5.179  -7.739  -5.024  1.00  0.00     0.034 A 
ATOM     27  C   UNL     1       8.126  -3.454  -9.111  1.00  0.00     0.049 A 
ATOM     28  C   UNL     1       5.978  -7.887  -6.290  1.00  0.00     0.074 A 
ATOM     29  C   UNL     1       8.887  -3.755 -10.224  1.00  0.00     0.029 A 
ATOM     30  N   UNL     1       7.707  -4.660  -8.566  1.00  0.00    -0.354 N 
ATOM     31  N   UNL     1       6.588  -6.959  -6.990  1.00  0.00    -0.248 NA
ATOM     32  C   UNL     1       6.116  -9.243  -6.835  1.00  0.00     0.031 C 
ATOM     33  C   UNL     1       8.900  -5.146 -10.369  1.00  0.00     0.029 A 
ATOM     34  C   UNL     1       8.165  -5.711  -9.336  1.00  0.00     0.049 A 
ATOM     35  H   UNL     1       7.162  -4.752  -7.751  1.00  0.00     0.167 HD
ATOM     36  C   UNL     1       7.186  -7.616  -8.056  1.00  0.00     0.074 A 
ATOM     37  C   UNL     1       6.896  -9.027  -7.887  1.00  0.00     0.031 C 
ATOM     38  C   UNL     1       7.884  -7.105  -9.099  1.00  0.00     0.034 A 
BRANCH  25  39
ATOM     39  C   UNL     1       8.233  -0.930  -9.309  1.00  0.00     0.023 A 
ATOM     40  C   UNL     1       9.315  -0.172  -8.822  1.00  0.00     0.012 A 
ATOM     41  C   UNL     1       7.580  -0.531 -10.492  1.00  0.00     0.148 A 
ATOM     42  C   UNL     1       9.728   0.980  -9.492  1.00  0.00     0.002 A 
ATOM     43  C   UNL     1       8.016   0.599 -11.170  1.00  0.00     0.091 A 
ATOM     44  F   UNL     1       6.536  -1.255 -10.918  1.00  0.00    -0.205 F 
ATOM     45  C   UNL     1       9.085   1.361 -10.668  1.00  0.00     0.022 A 
BRANCH  43  46
ATOM     46  S   UNL     1       7.281   1.150 -12.713  1.00  0.00     0.127 S 
ATOM     47  O   UNL     1       6.691   2.429 -12.318  1.00  0.00    -0.237 OA
ATOM     48  O   UNL     1       8.450   1.261 -13.585  1.00  0.00    -0.237 OA
ATOM     49  O   UNL     1       6.326   0.120 -13.097  1.00  0.00    -0.744 OA
ENDBRANCH  43  46
ENDBRANCH  25  39
BRANCH  26  50
ATOM     50  C   UNL     1       4.581  -8.914  -4.326  1.00  0.00     0.023 A 
ATOM     51  C   UNL     1       5.419  -9.878  -3.734  1.00  0.00     0.012 A 
ATOM     52  C   UNL     1       3.184  -9.071  -4.221  1.00  0.00     0.148 A 
ATOM     53  C   UNL     1       4.878 -10.984  -3.075  1.00  0.00     0.002 A 
ATOM     54  C   UNL     1       2.652 -10.142  -3.510  1.00  0.00     0.091 A 
ATOM     55  F   UNL     1       2.392  -8.165  -4.814  1.00  0.00    -0.205 F 
ATOM     56  C   UNL     1       3.496 -11.110  -2.951  1.00  0.00     0.022 A 
BRANCH  54  57
ATOM     57  S   UNL     1       0.888 -10.275  -3.191  1.00  0.00     0.127 S 
ATOM     58  O   UNL     1       0.459 -11.189  -4.245  1.00  0.00    -0.237 OA
ATOM     59  O   UNL     1       0.855 -10.835  -1.839  1.00  0.00    -0.237 OA
ATOM     60  O   UNL     1       0.385  -8.910  -3.276  1.00  0.00    -0.744 OA
ENDBRANCH  54  57
ENDBRANCH  26  50
BRANCH  38  61
ATOM     61  C   UNL     1       8.375  -8.075 -10.134  1.00  0.00     0.023 A 
ATOM     62  C   UNL     1       7.465  -8.597 -11.074  1.00  0.00     0.012 A 
ATOM     63  C   UNL     1       9.745  -8.377 -10.242  1.00  0.00     0.148 A 
ATOM     64  C   UNL     1       7.913  -9.421 -12.104  1.00  0.00     0.002 A 
ATOM     65  C   UNL     1      10.190  -9.159 -11.299  1.00  0.00     0.091 A 
ATOM     66  F   UNL     1      10.583  -7.881  -9.321  1.00  0.00    -0.205 F 
ATOM     67  C   UNL     1       9.275  -9.689 -12.224  1.00  0.00     0.022 A 
BRANCH  65  68
ATOM     68  S   UNL     1      11.933  -9.468 -11.593  1.00  0.00     0.127 S 
ATOM     69  O   UNL     1      12.050 -10.881 -11.235  1.00  0.00    -0.237 OA
ATOM     70  O   UNL     1      12.061  -9.188 -13.023  1.00  0.00    -0.237 OA
ATOM     71  O   UNL     1      12.657  -8.544 -10.730  1.00  0.00    -0.744 OA
ENDBRANCH  65  68
ENDBRANCH  38  61
ENDBRANCH  12  13
ENDBRANCH   5   7
ENDBRANCH   4   5
ENDBRANCH   3   4
ENDBRANCH   2   3
ENDBRANCH   1   2
BRANCH   1  72
ATOM     72  C   UNL     1       2.756  -1.314   1.717  1.00  0.00     0.202 C 
BRANCH  72  73
ATOM     73  C   UNL     1       2.882  -2.518   2.657  1.00  0.00     0.261 C 
BRANCH  73  74
ATOM     74  O   UNL     1       3.304  -2.028   3.944  1.00  0.00    -0.463 OA
BRANCH  74  75
ATOM     75  C   UNL     1       4.648  -1.943   4.135  1.00  0.00     0.312 C 
ATOM     76  O   UNL     1       5.492  -2.566   3.502  1.00  0.00    -0.252 OA
BRANCH  75  77
ATOM     77  C   UNL     1       5.013  -0.885   5.174  1.00  0.00     0.123 C 
ATOM     78  C   UNL     1       5.585   0.308   4.460  1.00  0.00    -0.015 C 
ATOM     79  C   UNL     1       3.852  -0.270   5.968  1.00  0.00     0.043 C 
ATOM     80  C   UNL     1       5.006   1.457   4.826  1.00  0.00    -0.011 C 
ATOM     81  C   UNL     1       4.079   1.248   5.961  1.00  0.00     0.093 C 
BRANCH  81  82
ATOM     82  N   UNL     1       2.805   1.922   5.813  1.00  0.00    -0.204 NA
ATOM     83  H   UNL     1       2.146   1.409   6.399  1.00  0.00     0.142 HD
BRANCH  82  84
ATOM     84  S   UNL     1       2.586   3.535   6.177  1.00  0.00     0.241 S 
ATOM     85  O   UNL     1       3.500   4.294   5.347  1.00  0.00    -0.207 OA
ATOM     86  O   UNL     1       1.165   3.775   6.157  1.00  0.00    -0.207 OA
BRANCH  84  87
ATOM     87  C   UNL     1       3.123   3.714   7.864  1.00  0.00     0.082 A 
ATOM     88  C   UNL     1       3.692   4.936   8.239  1.00  0.00     0.023 A 
ATOM     89  C   UNL     1       3.138   2.624   8.740  1.00  0.00     0.023 A 
ATOM     90  C   UNL     1       4.324   5.054   9.476  1.00  0.00     0.017 A 
ATOM     91  C   UNL     1       3.805   2.735   9.962  1.00  0.00     0.017 A 
ATOM     92  C   UNL     1       4.402   3.945  10.319  1.00  0.00     0.018 A 
ATOM     93  Br  UNL     1       5.358   4.074  11.945  1.00  0.00    -0.051 Br
ENDBRANCH  84  87
ENDBRANCH  82  84
ENDBRANCH  81  82
ENDBRANCH  75  77
ENDBRANCH  74  75
ENDBRANCH  73  74
ENDBRANCH  72  73
ENDBRANCH   1  72
TORSDOF 20
