REMARK SMILES O=C(OCCOCCOC(=O)c1ccccc1-c1ccc(/C=C2/SC(=S)N(Cc3ccccc3)C2=O)o1)c1ccc(-c2c3nc(c(-c4cccc(S(=O)(=O)[O-])c4F)c4ccc([nH]4)c(-c4cccc(S(=O)(=O)[O-])c4F)c4nc(c(-c5cccc(S(=O)(=O)[O-])c5F)c5ccc2[nH]5)C=C4)C=C3)cc1
REMARK SMILES IDX 7 1 6 2 5 3 4 4 3 5 2 6 1 7 38 8 39 9 100 10 40 11 99 12
REMARK SMILES IDX 41 13 42 14 43 15 93 16 44 17 98 18 92 19 94 20 45 21 97 22
REMARK SMILES IDX 91 23 90 24 46 26 78 27 58 28 77 29 59 30 62 31 76 32 95 33
REMARK SMILES IDX 60 34 61 35 75 37 96 38 63 39 47 40 48 41 56 42 49 43 51 44
REMARK SMILES IDX 57 45 50 46 52 47 53 48 54 49 55 50 79 51 80 52 88 53 81 54
REMARK SMILES IDX 83 55 89 56 82 57 84 58 85 59 86 60 87 61 64 62 65 63 73 64
REMARK SMILES IDX 66 65 68 66 74 67 67 68 69 69 70 70 71 71 72 72 8 73 9 74
REMARK SMILES IDX 10 75 11 76 12 77 13 78 17 79 14 80 16 81 15 82 18 83 19 84
REMARK SMILES IDX 37 85 20 86 21 87 22 88 23 89 24 90 35 91 25 92 27 93 36 94
REMARK SMILES IDX 26 95 28 96 29 97 30 98 34 99 31 100 33 101 32 102
REMARK H PARENT 94 25 62 36
REMARK Flexibility Score: inf
ROOT
ATOM      1  C   UNL     1       2.831   1.930   0.151  1.00  0.00     0.202 C 
ENDROOT
BRANCH   1   2
ATOM      2  O   UNL     1       4.137   1.405  -0.106  1.00  0.00    -0.374 OA
BRANCH   2   3
ATOM      3  C   UNL     1       4.325   0.790  -1.379  1.00  0.00     0.202 C 
BRANCH   3   4
ATOM      4  C   UNL     1       4.037  -0.714  -1.365  1.00  0.00     0.261 C 
BRANCH   4   5
ATOM      5  O   UNL     1       2.668  -0.968  -1.002  1.00  0.00    -0.460 OA
BRANCH   5   6
ATOM      6  C   UNL     1       2.150  -1.262   0.214  1.00  0.00     0.338 C 
ATOM      7  O   UNL     1       0.933  -1.434   0.293  1.00  0.00    -0.246 OA
BRANCH   6   8
ATOM      8  C   UNL     1       2.955  -1.381   1.472  1.00  0.00     0.060 A 
ATOM      9  C   UNL     1       4.210  -0.810   1.680  1.00  0.00     0.016 A 
ATOM     10  C   UNL     1       2.356  -2.043   2.560  1.00  0.00     0.016 A 
ATOM     11  C   UNL     1       4.851  -0.861   2.900  1.00  0.00     0.010 A 
ATOM     12  C   UNL     1       3.000  -2.118   3.800  1.00  0.00     0.010 A 
ATOM     13  C   UNL     1       4.253  -1.521   3.962  1.00  0.00    -0.014 A 
BRANCH  13  14
ATOM     14  C   UNL     1       5.085  -1.679   5.159  1.00  0.00     0.031 A 
ATOM     15  C   UNL     1       5.832  -2.964   5.314  1.00  0.00     0.074 A 
ATOM     16  C   UNL     1       5.316  -0.609   5.939  1.00  0.00     0.049 A 
ATOM     17  N   UNL     1       6.656  -3.329   6.254  1.00  0.00    -0.248 NA
ATOM     18  C   UNL     1       5.649  -3.965   4.245  1.00  0.00     0.031 C 
ATOM     19  C   UNL     1       4.734   0.722   5.738  1.00  0.00     0.029 A 
ATOM     20  N   UNL     1       6.122  -0.460   7.032  1.00  0.00    -0.354 N 
ATOM     21  C   UNL     1       7.058  -4.613   5.915  1.00  0.00     0.074 A 
ATOM     22  C   UNL     1       6.404  -4.962   4.676  1.00  0.00     0.031 C 
ATOM     23  C   UNL     1       5.198   1.551   6.687  1.00  0.00     0.029 A 
ATOM     24  C   UNL     1       6.056   0.795   7.591  1.00  0.00     0.049 A 
ATOM     25  H   UNL     1       6.694  -1.179   7.385  1.00  0.00     0.167 HD
ATOM     26  C   UNL     1       7.901  -5.423   6.592  1.00  0.00     0.034 A 
ATOM     27  C   UNL     1       6.600   1.251   8.734  1.00  0.00     0.034 A 
ATOM     28  C   UNL     1       8.525  -5.036   7.824  1.00  0.00     0.049 A 
ATOM     29  C   UNL     1       7.455   0.293   9.520  1.00  0.00     0.074 A 
ATOM     30  C   UNL     1       9.325  -5.785   8.663  1.00  0.00     0.029 A 
ATOM     31  N   UNL     1       8.406  -3.774   8.395  1.00  0.00    -0.354 N 
ATOM     32  N   UNL     1       7.811  -0.934   9.215  1.00  0.00    -0.248 NA
ATOM     33  C   UNL     1       7.995   0.777  10.795  1.00  0.00     0.031 C 
ATOM     34  C   UNL     1       9.670  -4.981   9.755  1.00  0.00     0.029 A 
ATOM     35  C   UNL     1       9.116  -3.720   9.577  1.00  0.00     0.049 A 
ATOM     36  H   UNL     1       7.891  -3.028   8.011  1.00  0.00     0.167 HD
ATOM     37  C   UNL     1       8.636  -1.361  10.245  1.00  0.00     0.074 A 
ATOM     38  C   UNL     1       8.750  -0.247  11.168  1.00  0.00     0.031 C 
ATOM     39  C   UNL     1       9.233  -2.565  10.432  1.00  0.00     0.034 A 
BRANCH  26  40
ATOM     40  C   UNL     1       8.131  -6.796   6.027  1.00  0.00     0.023 A 
ATOM     41  C   UNL     1       8.920  -6.964   4.871  1.00  0.00     0.012 A 
ATOM     42  C   UNL     1       7.530  -7.921   6.624  1.00  0.00     0.148 A 
ATOM     43  C   UNL     1       9.076  -8.226   4.296  1.00  0.00     0.002 A 
ATOM     44  C   UNL     1       7.724  -9.181   6.070  1.00  0.00     0.091 A 
ATOM     45  F   UNL     1       6.758  -7.734   7.704  1.00  0.00    -0.205 F 
ATOM     46  C   UNL     1       8.485  -9.333   4.899  1.00  0.00     0.022 A 
BRANCH  44  47
ATOM     47  S   UNL     1       7.045 -10.675   6.797  1.00  0.00     0.127 S 
ATOM     48  O   UNL     1       6.097 -11.100   5.768  1.00  0.00    -0.237 OA
ATOM     49  O   UNL     1       8.233 -11.520   6.917  1.00  0.00    -0.237 OA
ATOM     50  O   UNL     1       6.448 -10.275   8.063  1.00  0.00    -0.744 OA
ENDBRANCH  44  47
ENDBRANCH  26  40
BRANCH  27  51
ATOM     51  C   UNL     1       6.326   2.638   9.212  1.00  0.00     0.023 A 
ATOM     52  C   UNL     1       7.379   3.563   9.343  1.00  0.00     0.012 A 
ATOM     53  C   UNL     1       5.018   3.044   9.548  1.00  0.00     0.148 A 
ATOM     54  C   UNL     1       7.141   4.848   9.837  1.00  0.00     0.002 A 
ATOM     55  C   UNL     1       4.779   4.342   9.983  1.00  0.00     0.091 A 
ATOM     56  F   UNL     1       4.026   2.148   9.443  1.00  0.00    -0.205 F 
ATOM     57  C   UNL     1       5.842   5.241  10.148  1.00  0.00     0.022 A 
BRANCH  55  58
ATOM     58  S   UNL     1       3.118   4.960  10.283  1.00  0.00     0.127 S 
ATOM     59  O   UNL     1       3.071   4.994  11.742  1.00  0.00    -0.237 OA
ATOM     60  O   UNL     1       3.159   6.273   9.637  1.00  0.00    -0.237 OA
ATOM     61  O   UNL     1       2.225   4.007   9.638  1.00  0.00    -0.744 OA
ENDBRANCH  55  58
ENDBRANCH  27  51
BRANCH  39  62
ATOM     62  C   UNL     1      10.092  -2.715  11.656  1.00  0.00     0.023 A 
ATOM     63  C   UNL     1       9.492  -2.826  12.925  1.00  0.00     0.012 A 
ATOM     64  C   UNL     1      11.489  -2.829  11.529  1.00  0.00     0.148 A 
ATOM     65  C   UNL     1      10.278  -3.017  14.059  1.00  0.00     0.002 A 
ATOM     66  C   UNL     1      12.259  -3.077  12.655  1.00  0.00     0.091 A 
ATOM     67  F   UNL     1      12.034  -2.698  10.311  1.00  0.00    -0.205 F 
ATOM     68  C   UNL     1      11.658  -3.157  13.922  1.00  0.00     0.022 A 
BRANCH  66  69
ATOM     69  S   UNL     1      14.025  -3.382  12.556  1.00  0.00     0.127 S 
ATOM     70  O   UNL     1      14.572  -2.144  13.107  1.00  0.00    -0.237 OA
ATOM     71  O   UNL     1      14.184  -4.556  13.414  1.00  0.00    -0.237 OA
ATOM     72  O   UNL     1      14.312  -3.621  11.148  1.00  0.00    -0.744 OA
ENDBRANCH  66  69
ENDBRANCH  39  62
ENDBRANCH  13  14
ENDBRANCH   6   8
ENDBRANCH   5   6
ENDBRANCH   4   5
ENDBRANCH   3   4
ENDBRANCH   2   3
ENDBRANCH   1   2
BRANCH   1  73
ATOM     73  C   UNL     1       2.951   3.437   0.250  1.00  0.00     0.261 C 
BRANCH  73  74
ATOM     74  O   UNL     1       3.500   3.859  -0.999  1.00  0.00    -0.460 OA
BRANCH  74  75
ATOM     75  C   UNL     1       4.829   4.099  -1.069  1.00  0.00     0.338 C 
ATOM     76  O   UNL     1       5.647   4.116  -0.167  1.00  0.00    -0.246 OA
BRANCH  75  77
ATOM     77  C   UNL     1       5.155   4.234  -2.507  1.00  0.00     0.071 A 
ATOM     78  C   UNL     1       6.229   3.482  -2.995  1.00  0.00     0.016 A 
ATOM     79  C   UNL     1       4.348   5.001  -3.373  1.00  0.00     0.032 A 
ATOM     80  C   UNL     1       6.476   3.448  -4.365  1.00  0.00     0.001 A 
ATOM     81  C   UNL     1       4.609   4.956  -4.745  1.00  0.00     0.013 A 
ATOM     82  C   UNL     1       5.665   4.178  -5.237  1.00  0.00     0.001 A 
BRANCH  79  83
ATOM     83  C   UNL     1       3.255   5.794  -2.830  1.00  0.00     0.135 A 
ATOM     84  C   UNL     1       3.166   6.578  -1.698  1.00  0.00     0.051 A 
ATOM     85  O   UNL     1       2.017   5.587  -3.363  1.00  0.00    -0.457 OA
ATOM     86  C   UNL     1       1.792   6.706  -1.434  1.00  0.00     0.051 A 
ATOM     87  C   UNL     1       1.107   6.195  -2.532  1.00  0.00     0.128 A 
BRANCH  87  88
ATOM     88  C   UNL     1      -0.275   6.357  -2.806  1.00  0.00     0.068 C 
ATOM     89  C   UNL     1      -0.725   7.604  -3.008  1.00  0.00     0.084 C 
ATOM     90  S   UNL     1      -2.353   8.125  -2.873  1.00  0.00    -0.054 SA
ATOM     91  C   UNL     1       0.152   8.797  -3.159  1.00  0.00     0.266 C 
ATOM     92  C   UNL     1      -1.850   9.790  -2.516  1.00  0.00     0.148 C 
ATOM     93  N   UNL     1      -0.488   9.911  -2.669  1.00  0.00    -0.288 N 
ATOM     94  O   UNL     1       1.249   8.791  -3.700  1.00  0.00    -0.268 OA
ATOM     95  S   UNL     1      -2.947  10.974  -2.097  1.00  0.00    -0.052 S 
BRANCH  93  96
ATOM     96  C   UNL     1       0.312  11.117  -2.463  1.00  0.00     0.163 C 
BRANCH  96  97
ATOM     97  C   UNL     1       0.980  11.162  -1.100  1.00  0.00    -0.028 A 
ATOM     98  C   UNL     1       0.629  12.149  -0.169  1.00  0.00     0.005 A 
ATOM     99  C   UNL     1       2.001  10.260  -0.755  1.00  0.00     0.005 A 
ATOM    100  C   UNL     1       1.277  12.228   1.068  1.00  0.00     0.000 A 
ATOM    101  C   UNL     1       2.631  10.322   0.491  1.00  0.00     0.000 A 
ATOM    102  C   UNL     1       2.272  11.312   1.401  1.00  0.00     0.000 A 
ENDBRANCH  96  97
ENDBRANCH  93  96
ENDBRANCH  87  88
ENDBRANCH  79  83
ENDBRANCH  75  77
ENDBRANCH  74  75
ENDBRANCH  73  74
ENDBRANCH   1  73
TORSDOF 21
