REMARK SMILES C[C@H](c1ccc(Br)s1)[NH+]1CCC(CC(=O)OCCOCCOC(=O)c2ccc(-c3c4nc(c(-c5cccc(S(=O)(=O)[O-])c5F)c5ccc([nH]5)c(-c5cccc(S(=O)(=O)[O-])c5F)c5nc(c(-c6cccc(S(=O)(=O)[O-])c6F)c6ccc3[nH]6)C=C5)C=C4)cc2)CC1
REMARK SMILES IDX 19 1 18 2 17 3 16 4 14 5 15 6 13 7 12 8 9 9 10 10 89 11
REMARK SMILES IDX 11 13 88 14 2 15 1 16 3 17 4 18 8 19 5 20 6 21 7 22 20 23
REMARK SMILES IDX 21 24 22 25 23 26 24 27 25 28 26 29 87 30 27 31 86 32 28 33
REMARK SMILES IDX 29 34 30 35 80 36 31 37 85 38 79 39 81 40 32 41 84 42 78 43
REMARK SMILES IDX 77 44 33 46 65 47 45 48 64 49 46 50 49 51 63 52 82 53 47 54
REMARK SMILES IDX 48 55 62 57 83 58 50 59 34 60 35 61 43 62 36 63 38 64 44 65
REMARK SMILES IDX 37 66 39 67 40 68 41 69 42 70 66 71 67 72 75 73 68 74 70 75
REMARK SMILES IDX 76 76 69 77 71 78 72 79 73 80 74 81 51 82 52 83 60 84 53 85
REMARK SMILES IDX 55 86 61 87 54 88 56 89 57 90 58 91 59 92
REMARK H PARENT 9 12 81 45 49 56
REMARK Flexibility Score: inf
ROOT
ATOM      1  O   UNL     1      -6.375   1.658  -5.046  1.00  0.00    -0.374 OA
ENDROOT
BRANCH   1   2
ATOM      2  C   UNL     1      -6.292   2.581  -3.956  1.00  0.00     0.202 C 
BRANCH   2   3
ATOM      3  C   UNL     1      -6.828   2.074  -2.615  1.00  0.00     0.261 C 
BRANCH   3   4
ATOM      4  O   UNL     1      -5.911   1.134  -2.022  1.00  0.00    -0.463 OA
BRANCH   4   5
ATOM      5  C   UNL     1      -6.360  -0.132  -1.849  1.00  0.00     0.306 C 
ATOM      6  O   UNL     1      -7.498  -0.516  -2.095  1.00  0.00    -0.252 OA
BRANCH   5   7
ATOM      7  C   UNL     1      -5.306  -1.049  -1.266  1.00  0.00     0.126 C 
BRANCH   7   8
ATOM      8  C   UNL     1      -3.866  -0.939  -1.812  1.00  0.00     0.011 C 
ATOM      9  N   UNL     1      -1.042  -1.037  -0.990  1.00  0.00    -0.328 N 
ATOM     10  C   UNL     1      -1.612   0.224  -1.501  1.00  0.00     0.263 C 
ATOM     11  C   UNL     1      -1.607  -2.158  -1.742  1.00  0.00     0.263 C 
ATOM     12  H   UNL     1      -1.306  -1.185  -0.016  1.00  0.00     0.348 HD
ATOM     13  C   UNL     1      -3.118   0.275  -1.241  1.00  0.00     0.066 C 
ATOM     14  C   UNL     1      -3.112  -2.239  -1.479  1.00  0.00     0.066 C 
BRANCH   9  15
ATOM     15  C   UNL     1       0.439  -0.981  -0.956  1.00  0.00     0.222 C 
ATOM     16  C   UNL     1       1.115  -2.345  -0.716  1.00  0.00     0.082 C 
BRANCH  15  17
ATOM     17  C   UNL     1       0.881  -0.049   0.162  1.00  0.00     0.063 A 
ATOM     18  C   UNL     1       0.483  -0.046   1.490  1.00  0.00     0.023 A 
ATOM     19  S   UNL     1       2.008   1.211  -0.149  1.00  0.00    -0.127 S 
ATOM     20  C   UNL     1       1.089   1.005   2.240  1.00  0.00     0.028 A 
ATOM     21  C   UNL     1       1.929   1.751   1.454  1.00  0.00     0.070 A 
ATOM     22  Br  UNL     1       2.897   3.224   2.086  1.00  0.00    -0.039 Br
ENDBRANCH  15  17
ENDBRANCH   9  15
ENDBRANCH   7   8
ENDBRANCH   5   7
ENDBRANCH   4   5
ENDBRANCH   3   4
ENDBRANCH   2   3
ENDBRANCH   1   2
BRANCH   1  23
ATOM     23  C   UNL     1      -5.410   0.608  -5.075  1.00  0.00     0.202 C 
BRANCH  23  24
ATOM     24  C   UNL     1      -4.035   0.967  -5.651  1.00  0.00     0.261 C 
BRANCH  24  25
ATOM     25  O   UNL     1      -3.356   1.964  -4.867  1.00  0.00    -0.460 OA
BRANCH  25  26
ATOM     26  C   UNL     1      -3.328   3.192  -5.437  1.00  0.00     0.338 C 
ATOM     27  O   UNL     1      -3.734   3.489  -6.555  1.00  0.00    -0.246 OA
BRANCH  26  28
ATOM     28  C   UNL     1      -2.879   4.213  -4.473  1.00  0.00     0.060 A 
ATOM     29  C   UNL     1      -3.624   5.399  -4.413  1.00  0.00     0.016 A 
ATOM     30  C   UNL     1      -1.712   4.071  -3.718  1.00  0.00     0.016 A 
ATOM     31  C   UNL     1      -3.158   6.480  -3.671  1.00  0.00     0.010 A 
ATOM     32  C   UNL     1      -1.245   5.161  -2.971  1.00  0.00     0.010 A 
ATOM     33  C   UNL     1      -1.936   6.387  -2.993  1.00  0.00    -0.014 A 
BRANCH  33  34
ATOM     34  C   UNL     1      -1.302   7.631  -2.488  1.00  0.00     0.031 A 
ATOM     35  C   UNL     1      -0.214   8.274  -3.309  1.00  0.00     0.074 A 
ATOM     36  C   UNL     1      -1.719   8.211  -1.349  1.00  0.00     0.049 A 
ATOM     37  N   UNL     1       0.452   9.376  -3.085  1.00  0.00    -0.248 NA
ATOM     38  C   UNL     1       0.173   7.581  -4.550  1.00  0.00     0.031 C 
ATOM     39  C   UNL     1      -2.767   7.695  -0.471  1.00  0.00     0.029 A 
ATOM     40  N   UNL     1      -1.296   9.361  -0.730  1.00  0.00    -0.354 N 
ATOM     41  C   UNL     1       1.353   9.495  -4.136  1.00  0.00     0.074 A 
ATOM     42  C   UNL     1       1.161   8.345  -4.992  1.00  0.00     0.031 C 
ATOM     43  C   UNL     1      -2.892   8.516   0.586  1.00  0.00     0.029 A 
ATOM     44  C   UNL     1      -1.923   9.605   0.468  1.00  0.00     0.049 A 
ATOM     45  H   UNL     1      -0.608   9.955  -1.109  1.00  0.00     0.167 HD
ATOM     46  C   UNL     1       2.246  10.483  -4.384  1.00  0.00     0.034 A 
ATOM     47  C   UNL     1      -1.730  10.589   1.369  1.00  0.00     0.034 A 
ATOM     48  C   UNL     1       2.417  11.642  -3.552  1.00  0.00     0.049 A 
ATOM     49  C   UNL     1      -0.724  11.672   1.075  1.00  0.00     0.074 A 
ATOM     50  C   UNL     1       3.265  12.719  -3.741  1.00  0.00     0.029 A 
ATOM     51  N   UNL     1       1.731  11.876  -2.371  1.00  0.00    -0.354 N 
ATOM     52  N   UNL     1       0.034  11.832   0.017  1.00  0.00    -0.248 NA
ATOM     53  C   UNL     1      -0.575  12.734   2.083  1.00  0.00     0.031 C 
ATOM     54  C   UNL     1       3.106  13.595  -2.662  1.00  0.00     0.029 A 
ATOM     55  C   UNL     1       2.139  13.075  -1.816  1.00  0.00     0.049 A 
ATOM     56  H   UNL     1       1.053  11.276  -1.984  1.00  0.00     0.167 HD
ATOM     57  C   UNL     1       0.716  13.029   0.211  1.00  0.00     0.074 A 
ATOM     58  C   UNL     1       0.269  13.562   1.482  1.00  0.00     0.031 C 
ATOM     59  C   UNL     1       1.638  13.627  -0.583  1.00  0.00     0.034 A 
BRANCH  46  60
ATOM     60  C   UNL     1       3.089  10.366  -5.626  1.00  0.00     0.023 A 
ATOM     61  C   UNL     1       2.502  10.591  -6.889  1.00  0.00     0.012 A 
ATOM     62  C   UNL     1       4.466  10.086  -5.543  1.00  0.00     0.148 A 
ATOM     63  C   UNL     1       3.267  10.508  -8.051  1.00  0.00     0.002 A 
ATOM     64  C   UNL     1       5.231  10.046  -6.704  1.00  0.00     0.091 A 
ATOM     65  F   UNL     1       5.000   9.851  -4.336  1.00  0.00    -0.205 F 
ATOM     66  C   UNL     1       4.632  10.246  -7.958  1.00  0.00     0.022 A 
BRANCH  64  67
ATOM     67  S   UNL     1       7.009   9.791  -6.681  1.00  0.00     0.127 S 
ATOM     68  O   UNL     1       7.118   8.428  -7.200  1.00  0.00    -0.237 OA
ATOM     69  O   UNL     1       7.482  10.831  -7.595  1.00  0.00    -0.237 OA
ATOM     70  O   UNL     1       7.421   9.968  -5.295  1.00  0.00    -0.744 OA
ENDBRANCH  64  67
ENDBRANCH  46  60
BRANCH  47  71
ATOM     71  C   UNL     1      -2.543  10.624   2.619  1.00  0.00     0.023 A 
ATOM     72  C   UNL     1      -3.504  11.638   2.796  1.00  0.00     0.012 A 
ATOM     73  C   UNL     1      -2.378   9.651   3.624  1.00  0.00     0.148 A 
ATOM     74  C   UNL     1      -4.264  11.701   3.965  1.00  0.00     0.002 A 
ATOM     75  C   UNL     1      -3.175   9.688   4.761  1.00  0.00     0.091 A 
ATOM     76  F   UNL     1      -1.444   8.705   3.445  1.00  0.00    -0.205 F 
ATOM     77  C   UNL     1      -4.107  10.721   4.942  1.00  0.00     0.022 A 
BRANCH  75  78
ATOM     78  S   UNL     1      -3.130   8.397   6.010  1.00  0.00     0.127 S 
ATOM     79  O   UNL     1      -2.480   9.081   7.124  1.00  0.00    -0.237 OA
ATOM     80  O   UNL     1      -4.552   8.114   6.205  1.00  0.00    -0.237 OA
ATOM     81  O   UNL     1      -2.379   7.301   5.413  1.00  0.00    -0.744 OA
ENDBRANCH  75  78
ENDBRANCH  47  71
BRANCH  59  82
ATOM     82  C   UNL     1       2.200  14.952  -0.137  1.00  0.00     0.023 A 
ATOM     83  C   UNL     1       3.116  15.002   0.932  1.00  0.00     0.012 A 
ATOM     84  C   UNL     1       1.885  16.136  -0.833  1.00  0.00     0.148 A 
ATOM     85  C   UNL     1       3.685  16.215   1.322  1.00  0.00     0.002 A 
ATOM     86  C   UNL     1       2.491  17.333  -0.469  1.00  0.00     0.091 A 
ATOM     87  F   UNL     1       0.997  16.072  -1.836  1.00  0.00    -0.205 F 
ATOM     88  C   UNL     1       3.382  17.376   0.615  1.00  0.00     0.022 A 
BRANCH  86  89
ATOM     89  S   UNL     1       2.234  18.856  -1.387  1.00  0.00     0.127 S 
ATOM     90  O   UNL     1       1.340  19.594  -0.497  1.00  0.00    -0.237 OA
ATOM     91  O   UNL     1       3.590  19.400  -1.478  1.00  0.00    -0.237 OA
ATOM     92  O   UNL     1       1.660  18.459  -2.666  1.00  0.00    -0.744 OA
ENDBRANCH  86  89
ENDBRANCH  59  82
ENDBRANCH  33  34
ENDBRANCH  26  28
ENDBRANCH  25  26
ENDBRANCH  24  25
ENDBRANCH  23  24
ENDBRANCH   1  23
TORSDOF 20
