REMARK SMILES C[C@@](NC(=O)c1ccc(C[NH3+])o1)(C(=O)OCCOCCOC(=O)c1ccc(-c2c3nc(c(-c4cccc(S(=O)(=O)[O-])c4F)c4ccc([nH]4)c(-c4cccc(S(=O)(=O)[O-])c4F)c4nc(c(-c5cccc(S(=O)(=O)[O-])c5F)c5ccc2[nH]5)C=C4)C=C3)cc1)C1CC1
REMARK SMILES IDX 17 1 16 2 15 3 13 4 14 5 2 6 1 7 3 8 4 9 5 11 6 12 7 13
REMARK SMILES IDX 12 14 8 15 9 16 10 17 11 18 87 22 88 23 89 24 18 25 19 26
REMARK SMILES IDX 20 27 21 28 22 29 23 30 24 31 25 32 86 33 26 34 85 35 27 36
REMARK SMILES IDX 28 37 29 38 79 39 30 40 84 41 78 42 80 43 31 44 83 45 77 46
REMARK SMILES IDX 76 47 32 49 64 50 44 51 63 52 45 53 48 54 62 55 81 56 46 57
REMARK SMILES IDX 47 58 61 60 82 61 49 62 33 63 34 64 42 65 35 66 37 67 43 68
REMARK SMILES IDX 36 69 38 70 39 71 40 72 41 73 65 74 66 75 74 76 67 77 69 78
REMARK SMILES IDX 75 79 68 80 70 81 71 82 72 83 73 84 50 85 51 86 59 87 52 88
REMARK SMILES IDX 54 89 60 90 53 91 55 92 56 93 57 94 58 95
REMARK H PARENT 3 10 11 19 11 20 11 21 80 48 48 59
REMARK Flexibility Score: inf
ROOT
ATOM      1  C   UNL     1      -3.770   1.130  -0.271  1.00  0.00     0.202 C 
ENDROOT
BRANCH   1   2
ATOM      2  C   UNL     1      -3.123  -0.038  -1.024  1.00  0.00     0.261 C 
BRANCH   2   3
ATOM      3  O   UNL     1      -1.695  -0.103  -0.979  1.00  0.00    -0.461 OA
BRANCH   3   4
ATOM      4  C   UNL     1      -1.046   0.479  -2.034  1.00  0.00     0.331 C 
ATOM      5  O   UNL     1      -1.609   1.125  -2.913  1.00  0.00    -0.249 OA
BRANCH   4   6
ATOM      6  C   UNL     1       0.477   0.116  -2.039  1.00  0.00     0.138 C 
ATOM      7  C   UNL     1       0.928  -0.532  -0.712  1.00  0.00     0.048 C 
BRANCH   6   8
ATOM      8  N   UNL     1       0.818  -0.817  -3.149  1.00  0.00    -0.333 N 
ATOM      9  C   UNL     1       0.177  -2.002  -3.442  1.00  0.00     0.287 C 
ATOM     10  H   UNL     1       1.573  -0.564  -3.728  1.00  0.00     0.165 HD
ATOM     11  O   UNL     1       0.874  -3.012  -3.543  1.00  0.00    -0.266 OA
BRANCH   9  12
ATOM     12  C   UNL     1      -1.227  -1.948  -3.765  1.00  0.00     0.191 A 
ATOM     13  C   UNL     1      -1.912  -1.195  -4.701  1.00  0.00     0.057 A 
ATOM     14  O   UNL     1      -2.106  -2.746  -3.088  1.00  0.00    -0.450 OA
ATOM     15  C   UNL     1      -3.279  -1.534  -4.577  1.00  0.00     0.052 A 
ATOM     16  C   UNL     1      -3.354  -2.487  -3.582  1.00  0.00     0.159 A 
BRANCH  16  17
ATOM     17  C   UNL     1      -4.489  -3.201  -2.941  1.00  0.00     0.335 C 
BRANCH  17  18
ATOM     18  N   UNL     1      -5.239  -3.984  -3.914  1.00  0.00    -0.351 N 
ATOM     19  H   UNL     1      -5.622  -3.364  -4.627  1.00  0.00     0.344 HD
ATOM     20  H   UNL     1      -6.000  -4.472  -3.443  1.00  0.00     0.344 HD
ATOM     21  H   UNL     1      -4.618  -4.664  -4.353  1.00  0.00     0.344 HD
ENDBRANCH  17  18
ENDBRANCH  16  17
ENDBRANCH   9  12
ENDBRANCH   6   8
BRANCH   6  22
ATOM     22  C   UNL     1       1.377   1.353  -2.294  1.00  0.00     0.026 C 
ATOM     23  C   UNL     1       0.859   2.750  -2.581  1.00  0.00     0.007 C 
ATOM     24  C   UNL     1       1.558   2.470  -1.285  1.00  0.00     0.007 C 
ENDBRANCH   6  22
ENDBRANCH   4   6
ENDBRANCH   3   4
ENDBRANCH   2   3
ENDBRANCH   1   2
BRANCH   1  25
ATOM     25  O   UNL     1      -3.040   2.340  -0.138  1.00  0.00    -0.374 OA
BRANCH  25  26
ATOM     26  C   UNL     1      -1.872   2.336   0.681  1.00  0.00     0.202 C 
BRANCH  26  27
ATOM     27  C   UNL     1      -2.005   1.868   2.132  1.00  0.00     0.261 C 
BRANCH  27  28
ATOM     28  O   UNL     1      -2.242   0.449   2.228  1.00  0.00    -0.460 OA
BRANCH  28  29
ATOM     29  C   UNL     1      -3.350   0.114   2.923  1.00  0.00     0.338 C 
ATOM     30  O   UNL     1      -4.138   0.890   3.466  1.00  0.00    -0.246 OA
BRANCH  29  31
ATOM     31  C   UNL     1      -3.628  -1.326   2.846  1.00  0.00     0.060 A 
ATOM     32  C   UNL     1      -4.908  -1.711   2.418  1.00  0.00     0.016 A 
ATOM     33  C   UNL     1      -2.740  -2.264   3.373  1.00  0.00     0.016 A 
ATOM     34  C   UNL     1      -5.340  -3.019   2.614  1.00  0.00     0.010 A 
ATOM     35  C   UNL     1      -3.179  -3.578   3.573  1.00  0.00     0.010 A 
ATOM     36  C   UNL     1      -4.501  -3.939   3.260  1.00  0.00    -0.014 A 
BRANCH  36  37
ATOM     37  C   UNL     1      -5.101  -5.173   3.821  1.00  0.00     0.031 A 
ATOM     38  C   UNL     1      -5.536  -5.168   5.265  1.00  0.00     0.074 A 
ATOM     39  C   UNL     1      -5.295  -6.264   3.059  1.00  0.00     0.049 A 
ATOM     40  N   UNL     1      -6.134  -6.105   5.954  1.00  0.00    -0.248 NA
ATOM     41  C   UNL     1      -5.261  -3.942   6.033  1.00  0.00     0.031 C 
ATOM     42  C   UNL     1      -4.921  -6.391   1.653  1.00  0.00     0.029 A 
ATOM     43  N   UNL     1      -5.852  -7.477   3.374  1.00  0.00    -0.354 N 
ATOM     44  C   UNL     1      -6.282  -5.593   7.239  1.00  0.00     0.074 A 
ATOM     45  C   UNL     1      -5.701  -4.270   7.239  1.00  0.00     0.031 C 
ATOM     46  C   UNL     1      -5.245  -7.624   1.227  1.00  0.00     0.029 A 
ATOM     47  C   UNL     1      -5.843  -8.373   2.332  1.00  0.00     0.049 A 
ATOM     48  H   UNL     1      -6.223  -7.686   4.262  1.00  0.00     0.167 HD
ATOM     49  C   UNL     1      -6.867  -6.163   8.319  1.00  0.00     0.034 A 
ATOM     50  C   UNL     1      -6.269  -9.650   2.281  1.00  0.00     0.034 A 
ATOM     51  C   UNL     1      -7.473  -7.466   8.313  1.00  0.00     0.049 A 
ATOM     52  C   UNL     1      -6.918 -10.262   3.497  1.00  0.00     0.074 A 
ATOM     53  C   UNL     1      -8.136  -8.112   9.341  1.00  0.00     0.029 A 
ATOM     54  N   UNL     1      -7.485  -8.324   7.225  1.00  0.00    -0.354 N 
ATOM     55  N   UNL     1      -7.171  -9.716   4.662  1.00  0.00    -0.248 NA
ATOM     56  C   UNL     1      -7.377 -11.654   3.375  1.00  0.00     0.031 C 
ATOM     57  C   UNL     1      -8.538  -9.370   8.877  1.00  0.00     0.029 A 
ATOM     58  C   UNL     1      -8.138  -9.498   7.556  1.00  0.00     0.049 A 
ATOM     59  H   UNL     1      -7.087  -8.127   6.347  1.00  0.00     0.167 HD
ATOM     60  C   UNL     1      -7.856 -10.681   5.395  1.00  0.00     0.074 A 
ATOM     61  C   UNL     1      -7.988 -11.840   4.537  1.00  0.00     0.031 C 
ATOM     62  C   UNL     1      -8.322 -10.617   6.667  1.00  0.00     0.034 A 
BRANCH  49  63
ATOM     63  C   UNL     1      -6.908  -5.358   9.590  1.00  0.00     0.023 A 
ATOM     64  C   UNL     1      -7.810  -4.280   9.701  1.00  0.00     0.012 A 
ATOM     65  C   UNL     1      -6.081  -5.684  10.682  1.00  0.00     0.148 A 
ATOM     66  C   UNL     1      -7.866  -3.519  10.868  1.00  0.00     0.002 A 
ATOM     67  C   UNL     1      -6.169  -4.943  11.856  1.00  0.00     0.091 A 
ATOM     68  F   UNL     1      -5.208  -6.692  10.548  1.00  0.00    -0.205 F 
ATOM     69  C   UNL     1      -7.053  -3.856  11.947  1.00  0.00     0.022 A 
BRANCH  67  70
ATOM     70  S   UNL     1      -5.207  -5.350  13.317  1.00  0.00     0.127 S 
ATOM     71  O   UNL     1      -4.132  -4.362  13.249  1.00  0.00    -0.237 OA
ATOM     72  O   UNL     1      -6.169  -5.130  14.398  1.00  0.00    -0.237 OA
ATOM     73  O   UNL     1      -4.802  -6.739  13.147  1.00  0.00    -0.744 OA
ENDBRANCH  67  70
ENDBRANCH  49  63
BRANCH  50  74
ATOM     74  C   UNL     1      -6.166 -10.416   1.008  1.00  0.00     0.023 A 
ATOM     75  C   UNL     1      -7.337 -10.710   0.283  1.00  0.00     0.012 A 
ATOM     76  C   UNL     1      -4.920 -10.834   0.502  1.00  0.00     0.148 A 
ATOM     77  C   UNL     1      -7.272 -11.427  -0.912  1.00  0.00     0.002 A 
ATOM     78  C   UNL     1      -4.858 -11.508  -0.712  1.00  0.00     0.091 A 
ATOM     79  F   UNL     1      -3.821 -10.561   1.218  1.00  0.00    -0.205 F 
ATOM     80  C   UNL     1      -6.034 -11.817  -1.414  1.00  0.00     0.022 A 
BRANCH  78  81
ATOM     81  S   UNL     1      -3.301 -11.956  -1.486  1.00  0.00     0.127 S 
ATOM     82  O   UNL     1      -3.282 -13.405  -1.303  1.00  0.00    -0.237 OA
ATOM     83  O   UNL     1      -3.510 -11.512  -2.865  1.00  0.00    -0.237 OA
ATOM     84  O   UNL     1      -2.278 -11.212  -0.763  1.00  0.00    -0.744 OA
ENDBRANCH  78  81
ENDBRANCH  50  74
BRANCH  62  85
ATOM     85  C   UNL     1      -9.062 -11.814   7.205  1.00  0.00     0.023 A 
ATOM     86  C   UNL     1      -8.349 -12.973   7.565  1.00  0.00     0.012 A 
ATOM     87  C   UNL     1     -10.451 -11.758   7.431  1.00  0.00     0.148 A 
ATOM     88  C   UNL     1      -9.011 -14.071   8.114  1.00  0.00     0.002 A 
ATOM     89  C   UNL     1     -11.098 -12.839   8.020  1.00  0.00     0.091 A 
ATOM     90  F   UNL     1     -11.119 -10.655   7.061  1.00  0.00    -0.205 F 
ATOM     91  C   UNL     1     -10.382 -13.999   8.353  1.00  0.00     0.022 A 
BRANCH  89  92
ATOM     92  S   UNL     1     -12.843 -12.781   8.445  1.00  0.00     0.127 S 
ATOM     93  O   UNL     1     -13.451 -13.484   7.317  1.00  0.00    -0.237 OA
ATOM     94  O   UNL     1     -12.886 -13.512   9.713  1.00  0.00    -0.237 OA
ATOM     95  O   UNL     1     -13.171 -11.366   8.562  1.00  0.00    -0.744 OA
ENDBRANCH  89  92
ENDBRANCH  62  85
ENDBRANCH  36  37
ENDBRANCH  29  31
ENDBRANCH  28  29
ENDBRANCH  27  28
ENDBRANCH  26  27
ENDBRANCH  25  26
ENDBRANCH   1  25
TORSDOF 22
