REMARK SMILES NC(=O)c1ccsc1NS(=O)(=O)c1ccc(C(=O)OCCOCCOC(=O)c2ccc(-c3c4nc(c(-c5cccc(S(=O)(=O)[O-])c5F)c5ccc([nH]5)c(-c5cccc(S(=O)(=O)[O-])c5F)c5nc(c(-c6cccc(S(=O)(=O)[O-])c6F)c6ccc3[nH]6)C=C5)C=C4)cc2)cc1
REMARK SMILES IDX 21 1 20 2 19 3 17 4 18 5 16 6 13 7 14 8 92 9 15 10 91 11
REMARK SMILES IDX 10 12 11 13 12 14 9 15 8 17 4 18 5 19 6 20 7 21 2 22 1 23
REMARK SMILES IDX 3 26 22 27 23 28 24 29 25 30 26 31 27 32 28 33 29 34 90 35
REMARK SMILES IDX 30 36 89 37 31 38 32 39 33 40 83 41 34 42 88 43 82 44 84 45
REMARK SMILES IDX 35 46 87 47 81 48 80 49 36 51 68 52 48 53 67 54 49 55 52 56
REMARK SMILES IDX 66 57 85 58 50 59 51 60 65 62 86 63 53 64 37 65 38 66 46 67
REMARK SMILES IDX 39 68 41 69 47 70 40 71 42 72 43 73 44 74 45 75 69 76 70 77
REMARK SMILES IDX 78 78 71 79 73 80 79 81 72 82 74 83 75 84 76 85 77 86 54 87
REMARK SMILES IDX 55 88 63 89 56 90 58 91 64 92 57 93 59 94 60 95 61 96 62 97
REMARK H PARENT 9 16 1 24 1 25 84 50 52 61
REMARK Flexibility Score: inf
ROOT
ATOM      1  C   UNL     1       5.418  -6.309   9.239  1.00  0.00     0.202 C 
ENDROOT
BRANCH   1   2
ATOM      2  C   UNL     1       5.852  -5.877   7.836  1.00  0.00     0.261 C 
BRANCH   2   3
ATOM      3  O   UNL     1       4.728  -5.446   7.054  1.00  0.00    -0.460 OA
BRANCH   3   4
ATOM      4  C   UNL     1       4.420  -6.271   6.026  1.00  0.00     0.338 C 
ATOM      5  O   UNL     1       5.085  -7.217   5.632  1.00  0.00    -0.246 OA
BRANCH   4   6
ATOM      6  C   UNL     1       3.079  -5.960   5.466  1.00  0.00     0.060 A 
ATOM      7  C   UNL     1       0.780  -5.399   4.009  1.00  0.00     0.087 A 
ATOM      8  C   UNL     1       1.386  -6.654   3.891  1.00  0.00     0.023 A 
ATOM      9  C   UNL     1       1.202  -4.492   4.987  1.00  0.00     0.023 A 
ATOM     10  C   UNL     1       2.530  -6.934   4.624  1.00  0.00     0.017 A 
ATOM     11  C   UNL     1       2.378  -4.767   5.705  1.00  0.00     0.017 A 
BRANCH   7  12
ATOM     12  S   UNL     1      -0.344  -4.942   2.708  1.00  0.00     0.262 S 
ATOM     13  O   UNL     1      -1.663  -4.939   3.312  1.00  0.00    -0.201 OA
ATOM     14  O   UNL     1      -0.065  -5.798   1.574  1.00  0.00    -0.201 OA
BRANCH  12  15
ATOM     15  N   UNL     1      -0.045  -3.382   2.222  1.00  0.00    -0.270 N 
ATOM     16  H   UNL     1      -0.832  -2.868   1.928  1.00  0.00     0.181 HD
BRANCH  15  17
ATOM     17  C   UNL     1       1.199  -2.691   2.174  1.00  0.00     0.115 A 
ATOM     18  C   UNL     1       1.264  -1.360   1.781  1.00  0.00     0.074 A 
ATOM     19  C   UNL     1       2.490  -0.763   2.242  1.00  0.00     0.028 A 
ATOM     20  C   UNL     1       3.365  -1.697   2.748  1.00  0.00     0.068 A 
ATOM     21  S   UNL     1       2.766  -3.277   2.495  1.00  0.00    -0.125 S 
BRANCH  18  22
ATOM     22  C   UNL     1       0.203  -0.681   1.058  1.00  0.00     0.251 C 
ATOM     23  N   UNL     1       0.627   0.279   0.191  1.00  0.00    -0.366 N 
ATOM     24  H   UNL     1      -0.029   0.787  -0.340  1.00  0.00     0.159 HD
ATOM     25  H   UNL     1       1.589   0.465   0.094  1.00  0.00     0.159 HD
ATOM     26  O   UNL     1      -0.988  -0.997   1.139  1.00  0.00    -0.269 OA
ENDBRANCH  18  22
ENDBRANCH  15  17
ENDBRANCH  12  15
ENDBRANCH   7  12
ENDBRANCH   4   6
ENDBRANCH   3   4
ENDBRANCH   2   3
ENDBRANCH   1   2
BRANCH   1  27
ATOM     27  O   UNL     1       4.485  -7.384   9.341  1.00  0.00    -0.374 OA
BRANCH  27  28
ATOM     28  C   UNL     1       3.120  -7.130   9.012  1.00  0.00     0.202 C 
BRANCH  28  29
ATOM     29  C   UNL     1       2.277  -6.298   9.987  1.00  0.00     0.261 C 
BRANCH  29  30
ATOM     30  O   UNL     1       2.780  -4.966  10.176  1.00  0.00    -0.460 OA
BRANCH  30  31
ATOM     31  C   UNL     1       3.362  -4.761  11.384  1.00  0.00     0.338 C 
ATOM     32  O   UNL     1       3.449  -5.561  12.303  1.00  0.00    -0.246 OA
BRANCH  31  33
ATOM     33  C   UNL     1       4.069  -3.468  11.399  1.00  0.00     0.060 A 
ATOM     34  C   UNL     1       5.413  -3.476  11.797  1.00  0.00     0.016 A 
ATOM     35  C   UNL     1       3.412  -2.266  11.133  1.00  0.00     0.016 A 
ATOM     36  C   UNL     1       6.086  -2.276  12.003  1.00  0.00     0.010 A 
ATOM     37  C   UNL     1       4.088  -1.060  11.346  1.00  0.00     0.010 A 
ATOM     38  C   UNL     1       5.409  -1.062  11.832  1.00  0.00    -0.014 A 
BRANCH  38  39
ATOM     39  C   UNL     1       6.026   0.186  12.341  1.00  0.00     0.031 A 
ATOM     40  C   UNL     1       5.564   0.734  13.665  1.00  0.00     0.074 A 
ATOM     41  C   UNL     1       6.999   0.808  11.653  1.00  0.00     0.049 A 
ATOM     42  N   UNL     1       5.956   1.807  14.300  1.00  0.00    -0.248 NA
ATOM     43  C   UNL     1       4.515  -0.028  14.364  1.00  0.00     0.031 C 
ATOM     44  C   UNL     1       7.536   0.370  10.366  1.00  0.00     0.029 A 
ATOM     45  N   UNL     1       7.695   1.956  11.937  1.00  0.00    -0.354 N 
ATOM     46  C   UNL     1       5.184   1.867  15.455  1.00  0.00     0.074 A 
ATOM     47  C   UNL     1       4.288   0.732  15.425  1.00  0.00     0.031 C 
ATOM     48  C   UNL     1       8.462   1.255   9.957  1.00  0.00     0.029 A 
ATOM     49  C   UNL     1       8.568   2.329  10.943  1.00  0.00     0.049 A 
ATOM     50  H   UNL     1       7.579   2.464  12.772  1.00  0.00     0.167 HD
ATOM     51  C   UNL     1       5.227   2.775  16.459  1.00  0.00     0.034 A 
ATOM     52  C   UNL     1       9.351   3.421  10.837  1.00  0.00     0.034 A 
ATOM     53  C   UNL     1       6.135   3.888  16.498  1.00  0.00     0.049 A 
ATOM     54  C   UNL     1       9.379   4.419  11.966  1.00  0.00     0.074 A 
ATOM     55  C   UNL     1       6.285   4.842  17.489  1.00  0.00     0.029 A 
ATOM     56  N   UNL     1       7.044   4.202  15.500  1.00  0.00    -0.354 N 
ATOM     57  N   UNL     1       8.720   4.403  13.100  1.00  0.00    -0.248 NA
ATOM     58  C   UNL     1      10.290   5.563  11.819  1.00  0.00     0.031 C 
ATOM     59  C   UNL     1       7.269   5.748  17.078  1.00  0.00     0.029 A 
ATOM     60  C   UNL     1       7.756   5.337  15.848  1.00  0.00     0.049 A 
ATOM     61  H   UNL     1       7.165   3.693  14.666  1.00  0.00     0.167 HD
ATOM     62  C   UNL     1       9.171   5.504  13.820  1.00  0.00     0.074 A 
ATOM     63  C   UNL     1      10.169   6.158  12.999  1.00  0.00     0.031 C 
ATOM     64  C   UNL     1       8.790   5.941  15.046  1.00  0.00     0.034 A 
BRANCH  51  65
ATOM     65  C   UNL     1       4.275   2.586  17.611  1.00  0.00     0.023 A 
ATOM     66  C   UNL     1       4.485   1.538  18.530  1.00  0.00     0.012 A 
ATOM     67  C   UNL     1       3.199   3.474  17.810  1.00  0.00     0.148 A 
ATOM     68  C   UNL     1       3.621   1.355  19.609  1.00  0.00     0.002 A 
ATOM     69  C   UNL     1       2.370   3.313  18.914  1.00  0.00     0.091 A 
ATOM     70  F   UNL     1       3.000   4.449  16.912  1.00  0.00    -0.205 F 
ATOM     71  C   UNL     1       2.571   2.248  19.806  1.00  0.00     0.022 A 
BRANCH  69  72
ATOM     72  S   UNL     1       1.040   4.458  19.298  1.00  0.00     0.127 S 
ATOM     73  O   UNL     1      -0.141   3.650  18.995  1.00  0.00    -0.237 OA
ATOM     74  O   UNL     1       1.255   4.713  20.722  1.00  0.00    -0.237 OA
ATOM     75  O   UNL     1       1.245   5.614  18.437  1.00  0.00    -0.744 OA
ENDBRANCH  69  72
ENDBRANCH  51  65
BRANCH  52  76
ATOM     76  C   UNL     1      10.209   3.606   9.633  1.00  0.00     0.023 A 
ATOM     77  C   UNL     1      11.609   3.507   9.753  1.00  0.00     0.012 A 
ATOM     78  C   UNL     1       9.644   3.865   8.369  1.00  0.00     0.148 A 
ATOM     79  C   UNL     1      12.432   3.697   8.642  1.00  0.00     0.002 A 
ATOM     80  C   UNL     1      10.467   3.996   7.256  1.00  0.00     0.091 A 
ATOM     81  F   UNL     1       8.311   3.970   8.278  1.00  0.00    -0.205 F 
ATOM     82  C   UNL     1      11.862   3.931   7.394  1.00  0.00     0.022 A 
BRANCH  80  83
ATOM     83  S   UNL     1       9.813   4.167   5.592  1.00  0.00     0.127 S 
ATOM     84  O   UNL     1      10.156   5.551   5.276  1.00  0.00    -0.237 OA
ATOM     85  O   UNL     1      10.580   3.158   4.861  1.00  0.00    -0.237 OA
ATOM     86  O   UNL     1       8.389   3.876   5.695  1.00  0.00    -0.744 OA
ENDBRANCH  80  83
ENDBRANCH  52  76
BRANCH  64  87
ATOM     87  C   UNL     1       9.491   7.150  15.611  1.00  0.00     0.023 A 
ATOM     88  C   UNL     1       9.242   8.428  15.075  1.00  0.00     0.012 A 
ATOM     89  C   UNL     1      10.350   7.022  16.721  1.00  0.00     0.148 A 
ATOM     90  C   UNL     1       9.866   9.555  15.609  1.00  0.00     0.002 A 
ATOM     91  C   UNL     1      10.928   8.155  17.281  1.00  0.00     0.091 A 
ATOM     92  F   UNL     1      10.592   5.796  17.207  1.00  0.00    -0.205 F 
ATOM     93  C   UNL     1      10.699   9.421  16.718  1.00  0.00     0.022 A 
BRANCH  91  94
ATOM     94  S   UNL     1      11.932   8.082  18.769  1.00  0.00     0.127 S 
ATOM     95  O   UNL     1      13.280   8.238  18.227  1.00  0.00    -0.237 OA
ATOM     96  O   UNL     1      11.444   9.233  19.532  1.00  0.00    -0.237 OA
ATOM     97  O   UNL     1      11.645   6.791  19.380  1.00  0.00    -0.744 OA
ENDBRANCH  91  94
ENDBRANCH  64  87
ENDBRANCH  38  39
ENDBRANCH  31  33
ENDBRANCH  30  31
ENDBRANCH  29  30
ENDBRANCH  28  29
ENDBRANCH  27  28
ENDBRANCH   1  27
TORSDOF 21
