REMARK SMILES C=CCN1C(=O)/C(=C/c2ccc(OCc3cccc(C(=O)OCCOCCOC(=O)c4ccc(-c5c6nc(c(-c7cccc(S(=O)(=O)[O-])c7F)c7ccc([nH]7)c(-c7cccc(S(=O)(=O)[O-])c7F)c7nc(c(-c8cccc(S(=O)(=O)[O-])c8F)c8ccc5[nH]8)C=C7)C=C6)cc4)c3)cc2)C(=O)NC1=S
REMARK SMILES IDX 23 1 22 2 20 3 21 4 19 5 15 6 16 7 94 8 17 9 18 10 14 11
REMARK SMILES IDX 13 12 12 13 9 14 10 15 96 16 11 17 95 18 8 19 4 20 5 21
REMARK SMILES IDX 100 22 6 23 7 24 99 25 101 26 97 27 98 29 3 30 2 31 1 32
REMARK SMILES IDX 24 33 25 34 26 35 27 36 28 37 29 38 30 39 31 40 32 41 93 42
REMARK SMILES IDX 33 43 92 44 34 45 35 46 36 47 86 48 37 49 91 50 85 51 87 52
REMARK SMILES IDX 38 53 90 54 84 55 83 56 39 58 71 59 51 60 70 61 52 62 55 63
REMARK SMILES IDX 69 64 88 65 53 66 54 67 68 69 89 70 56 71 40 72 41 73 49 74
REMARK SMILES IDX 42 75 44 76 50 77 43 78 45 79 46 80 47 81 48 82 72 83 73 84
REMARK SMILES IDX 81 85 74 86 76 87 82 88 75 89 77 90 78 91 79 92 80 93 57 94
REMARK SMILES IDX 58 95 66 96 59 97 61 98 67 99 60 100 62 101 63 102 64 103
REMARK SMILES IDX 65 104
REMARK H PARENT 99 28 87 57 55 68
REMARK Flexibility Score: inf
ROOT
ATOM      1  C   UNL     1      -4.220   2.041  -9.007  1.00  0.00     0.261 C 
ENDROOT
BRANCH   1   2
ATOM      2  O   UNL     1      -2.831   2.393  -9.066  1.00  0.00    -0.460 OA
BRANCH   2   3
ATOM      3  C   UNL     1      -1.966   1.361  -9.236  1.00  0.00     0.338 C 
ATOM      4  O   UNL     1      -2.248   0.170  -9.250  1.00  0.00    -0.246 OA
BRANCH   3   5
ATOM      5  C   UNL     1      -0.618   1.880  -9.592  1.00  0.00     0.060 A 
ATOM      6  C   UNL     1       1.084   3.630  -9.575  1.00  0.00    -0.010 A 
ATOM      7  C   UNL     1       1.972   2.746 -10.203  1.00  0.00     0.007 A 
ATOM      8  C   UNL     1      -0.230   3.197  -9.326  1.00  0.00     0.023 A 
ATOM      9  C   UNL     1       1.562   1.457 -10.554  1.00  0.00     0.001 A 
ATOM     10  C   UNL     1       0.278   1.018 -10.230  1.00  0.00     0.016 A 
BRANCH   6  11
ATOM     11  C   UNL     1       1.552   4.987  -9.083  1.00  0.00     0.265 C 
BRANCH  11  12
ATOM     12  O   UNL     1       2.226   4.926  -7.814  1.00  0.00    -0.489 OA
BRANCH  12  13
ATOM     13  C   UNL     1       1.477   4.554  -6.728  1.00  0.00     0.119 A 
ATOM     14  C   UNL     1       0.077   3.438  -4.576  1.00  0.00    -0.024 A 
ATOM     15  C   UNL     1       1.470   3.328  -4.642  1.00  0.00     0.012 A 
ATOM     16  C   UNL     1      -0.599   4.192  -5.532  1.00  0.00     0.012 A 
ATOM     17  C   UNL     1       2.167   3.882  -5.719  1.00  0.00     0.047 A 
ATOM     18  C   UNL     1       0.108   4.781  -6.582  1.00  0.00     0.047 A 
BRANCH  14  19
ATOM     19  C   UNL     1      -0.650   2.758  -3.508  1.00  0.00     0.027 C 
ATOM     20  N   UNL     1      -1.445  -0.434  -2.196  1.00  0.00    -0.281 N 
ATOM     21  C   UNL     1      -1.625   0.945  -2.297  1.00  0.00     0.265 C 
ATOM     22  C   UNL     1      -1.414  -1.271  -3.302  1.00  0.00     0.183 C 
ATOM     23  O   UNL     1      -2.055   1.645  -1.384  1.00  0.00    -0.268 OA
ATOM     24  C   UNL     1      -1.187   1.525  -3.586  1.00  0.00     0.106 C 
ATOM     25  N   UNL     1      -1.387  -0.659  -4.529  1.00  0.00    -0.298 N 
ATOM     26  S   UNL     1      -1.397  -2.950  -3.297  1.00  0.00    -0.040 S 
ATOM     27  C   UNL     1      -1.223   0.676  -4.793  1.00  0.00     0.263 C 
ATOM     28  H   UNL     1      -1.499  -1.246  -5.311  1.00  0.00     0.172 HD
ATOM     29  O   UNL     1      -1.111   1.075  -5.944  1.00  0.00    -0.269 OA
BRANCH  20  30
ATOM     30  C   UNL     1      -1.269  -0.922  -0.827  1.00  0.00     0.155 C 
BRANCH  30  31
ATOM     31  C   UNL     1       0.216  -0.905  -0.552  1.00  0.00    -0.013 C 
ATOM     32  C   UNL     1       0.846   0.035   0.166  1.00  0.00     0.006 C 
ENDBRANCH  30  31
ENDBRANCH  20  30
ENDBRANCH  14  19
ENDBRANCH  12  13
ENDBRANCH  11  12
ENDBRANCH   6  11
ENDBRANCH   3   5
ENDBRANCH   2   3
ENDBRANCH   1   2
BRANCH   1  33
ATOM     33  C   UNL     1      -4.955   2.462 -10.285  1.00  0.00     0.202 C 
BRANCH  33  34
ATOM     34  O   UNL     1      -4.560   1.820 -11.499  1.00  0.00    -0.374 OA
BRANCH  34  35
ATOM     35  C   UNL     1      -3.362   2.283 -12.123  1.00  0.00     0.202 C 
BRANCH  35  36
ATOM     36  C   UNL     1      -3.454   3.570 -12.953  1.00  0.00     0.261 C 
BRANCH  36  37
ATOM     37  O   UNL     1      -3.835   4.711 -12.168  1.00  0.00    -0.460 OA
BRANCH  37  38
ATOM     38  C   UNL     1      -5.114   5.112 -12.347  1.00  0.00     0.338 C 
ATOM     39  O   UNL     1      -5.930   4.651 -13.139  1.00  0.00    -0.246 OA
BRANCH  38  40
ATOM     40  C   UNL     1      -5.483   6.104 -11.324  1.00  0.00     0.060 A 
ATOM     41  C   UNL     1      -6.642   5.862 -10.576  1.00  0.00     0.016 A 
ATOM     42  C   UNL     1      -4.755   7.282 -11.146  1.00  0.00     0.016 A 
ATOM     43  C   UNL     1      -7.111   6.824  -9.685  1.00  0.00     0.010 A 
ATOM     44  C   UNL     1      -5.230   8.248 -10.254  1.00  0.00     0.010 A 
ATOM     45  C   UNL     1      -6.430   8.040  -9.550  1.00  0.00    -0.014 A 
BRANCH  45  46
ATOM     46  C   UNL     1      -7.044   9.143  -8.771  1.00  0.00     0.031 A 
ATOM     47  C   UNL     1      -7.705  10.278  -9.504  1.00  0.00     0.074 A 
ATOM     48  C   UNL     1      -7.014   9.131  -7.427  1.00  0.00     0.049 A 
ATOM     49  N   UNL     1      -8.275  11.352  -9.025  1.00  0.00    -0.248 NA
ATOM     50  C   UNL     1      -7.721  10.193 -10.974  1.00  0.00     0.031 C 
ATOM     51  C   UNL     1      -6.407   8.085  -6.606  1.00  0.00     0.029 A 
ATOM     52  N   UNL     1      -7.487  10.044  -6.518  1.00  0.00    -0.354 N 
ATOM     53  C   UNL     1      -8.689  12.087 -10.130  1.00  0.00     0.074 A 
ATOM     54  C   UNL     1      -8.292  11.342 -11.305  1.00  0.00     0.031 C 
ATOM     55  C   UNL     1      -6.520   8.428  -5.311  1.00  0.00     0.029 A 
ATOM     56  C   UNL     1      -7.183   9.727  -5.215  1.00  0.00     0.049 A 
ATOM     57  H   UNL     1      -7.995  10.847  -6.774  1.00  0.00     0.167 HD
ATOM     58  C   UNL     1      -9.353  13.267 -10.164  1.00  0.00     0.034 A 
ATOM     59  C   UNL     1      -7.395  10.419  -4.078  1.00  0.00     0.034 A 
ATOM     60  C   UNL     1      -9.762  13.995  -8.993  1.00  0.00     0.049 A 
ATOM     61  C   UNL     1      -8.112  11.742  -4.143  1.00  0.00     0.074 A 
ATOM     62  C   UNL     1     -10.485  15.173  -8.921  1.00  0.00     0.029 A 
ATOM     63  N   UNL     1      -9.471  13.626  -7.689  1.00  0.00    -0.354 N 
ATOM     64  N   UNL     1      -8.602  12.366  -5.187  1.00  0.00    -0.248 NA
ATOM     65  C   UNL     1      -8.336  12.440  -2.869  1.00  0.00     0.031 C 
ATOM     66  C   UNL     1     -10.601  15.533  -7.574  1.00  0.00     0.029 A 
ATOM     67  C   UNL     1      -9.984  14.560  -6.805  1.00  0.00     0.049 A 
ATOM     68  H   UNL     1      -8.972  12.818  -7.429  1.00  0.00     0.167 HD
ATOM     69  C   UNL     1      -9.223  13.509  -4.693  1.00  0.00     0.074 A 
ATOM     70  C   UNL     1      -9.062  13.480  -3.254  1.00  0.00     0.031 C 
ATOM     71  C   UNL     1      -9.860  14.497  -5.370  1.00  0.00     0.034 A 
BRANCH  58  72
ATOM     72  C   UNL     1      -9.693  13.838 -11.516  1.00  0.00     0.023 A 
ATOM     73  C   UNL     1     -10.689  13.227 -12.305  1.00  0.00     0.012 A 
ATOM     74  C   UNL     1      -9.059  15.005 -11.987  1.00  0.00     0.148 A 
ATOM     75  C   UNL     1     -11.023  13.746 -13.555  1.00  0.00     0.002 A 
ATOM     76  C   UNL     1      -9.430  15.543 -13.214  1.00  0.00     0.091 A 
ATOM     77  F   UNL     1      -8.098  15.559 -11.234  1.00  0.00    -0.205 F 
ATOM     78  C   UNL     1     -10.401  14.908 -14.005  1.00  0.00     0.022 A 
BRANCH  76  79
ATOM     79  S   UNL     1      -8.744  17.079 -13.843  1.00  0.00     0.127 S 
ATOM     80  O   UNL     1      -7.899  16.599 -14.936  1.00  0.00    -0.237 OA
ATOM     81  O   UNL     1      -9.943  17.799 -14.271  1.00  0.00    -0.237 OA
ATOM     82  O   UNL     1      -8.036  17.690 -12.727  1.00  0.00    -0.744 OA
ENDBRANCH  76  79
ENDBRANCH  58  72
BRANCH  59  83
ATOM     83  C   UNL     1      -6.947   9.855  -2.774  1.00  0.00     0.023 A 
ATOM     84  C   UNL     1      -7.905   9.421  -1.838  1.00  0.00     0.012 A 
ATOM     85  C   UNL     1      -5.579   9.728  -2.468  1.00  0.00     0.148 A 
ATOM     86  C   UNL     1      -7.508   8.895  -0.608  1.00  0.00     0.002 A 
ATOM     87  C   UNL     1      -5.189   9.153  -1.264  1.00  0.00     0.091 A 
ATOM     88  F   UNL     1      -4.684  10.161  -3.368  1.00  0.00    -0.205 F 
ATOM     89  C   UNL     1      -6.152   8.751  -0.326  1.00  0.00     0.022 A 
BRANCH  87  90
ATOM     90  S   UNL     1      -3.470   8.815  -0.869  1.00  0.00     0.127 S 
ATOM     91  O   UNL     1      -3.225   9.753   0.224  1.00  0.00    -0.237 OA
ATOM     92  O   UNL     1      -3.526   7.407  -0.474  1.00  0.00    -0.237 OA
ATOM     93  O   UNL     1      -2.727   9.067  -2.096  1.00  0.00    -0.744 OA
ENDBRANCH  87  90
ENDBRANCH  59  83
BRANCH  71  94
ATOM     94  C   UNL     1     -10.472  15.616  -4.567  1.00  0.00     0.023 A 
ATOM     95  C   UNL     1      -9.646  16.572  -3.944  1.00  0.00     0.012 A 
ATOM     96  C   UNL     1     -11.873  15.762  -4.494  1.00  0.00     0.148 A 
ATOM     97  C   UNL     1     -10.202  17.634  -3.233  1.00  0.00     0.002 A 
ATOM     98  C   UNL     1     -12.419  16.852  -3.828  1.00  0.00     0.091 A 
ATOM     99  F   UNL     1     -12.643  14.834  -5.079  1.00  0.00    -0.205 F 
ATOM    100  C   UNL     1     -11.586  17.782  -3.185  1.00  0.00     0.022 A 
BRANCH  98 101
ATOM    101  S   UNL     1     -14.186  17.177  -3.797  1.00  0.00     0.127 S 
ATOM    102  O   UNL     1     -14.521  16.874  -2.406  1.00  0.00    -0.237 OA
ATOM    103  O   UNL     1     -14.246  18.597  -4.144  1.00  0.00    -0.237 OA
ATOM    104  O   UNL     1     -14.776  16.288  -4.789  1.00  0.00    -0.744 OA
ENDBRANCH  98 101
ENDBRANCH  71  94
ENDBRANCH  45  46
ENDBRANCH  38  40
ENDBRANCH  37  38
ENDBRANCH  36  37
ENDBRANCH  35  36
ENDBRANCH  34  35
ENDBRANCH  33  34
ENDBRANCH   1  33
TORSDOF 23
