REMARK SMILES O=C(OCCOCCOC(=O)c1ccc(COc2cccc(Cl)c2Cl)o1)c1ccc(-c2c3nc(c(-c4cccc(S(=O)(=O)[O-])c4F)c4ccc([nH]4)c(-c4cccc(S(=O)(=O)[O-])c4F)c4nc(c(-c5cccc(S(=O)(=O)[O-])c5F)c5ccc2[nH]5)C=C4)C=C3)cc1
REMARK SMILES IDX 6 1 5 2 4 3 3 4 2 5 1 6 27 7 28 8 89 9 29 10 88 11 30 12
REMARK SMILES IDX 31 13 32 14 82 15 33 16 87 17 81 18 83 19 34 20 86 21 80 22
REMARK SMILES IDX 79 23 35 25 67 26 47 27 66 28 48 29 51 30 65 31 84 32 49 33
REMARK SMILES IDX 50 34 64 36 85 37 52 38 36 39 37 40 45 41 38 42 40 43 46 44
REMARK SMILES IDX 39 45 41 46 42 47 43 48 44 49 68 50 69 51 77 52 70 53 72 54
REMARK SMILES IDX 78 55 71 56 73 57 74 58 75 59 76 60 53 61 54 62 62 63 55 64
REMARK SMILES IDX 57 65 63 66 56 67 58 68 59 69 60 70 61 71 7 72 8 73 9 74
REMARK SMILES IDX 10 75 11 76 12 77 13 78 26 79 14 80 15 81 16 82 17 83 18 84
REMARK SMILES IDX 19 85 24 86 20 87 22 88 25 89 21 90 23 91
REMARK H PARENT 83 24 51 35
REMARK Flexibility Score: inf
ROOT
ATOM      1  O   UNL     1       3.987   1.802   0.563  1.00  0.00    -0.374 OA
ENDROOT
BRANCH   1   2
ATOM      2  C   UNL     1       4.131   1.808  -0.859  1.00  0.00     0.202 C 
BRANCH   2   3
ATOM      3  C   UNL     1       3.864   0.454  -1.526  1.00  0.00     0.261 C 
BRANCH   3   4
ATOM      4  O   UNL     1       2.521   0.016  -1.250  1.00  0.00    -0.460 OA
BRANCH   4   5
ATOM      5  C   UNL     1       2.094  -0.946  -0.397  1.00  0.00     0.338 C 
ATOM      6  O   UNL     1       0.891  -1.204  -0.376  1.00  0.00    -0.246 OA
BRANCH   5   7
ATOM      7  C   UNL     1       2.995  -1.717   0.516  1.00  0.00     0.060 A 
ATOM      8  C   UNL     1       4.236  -1.278   0.977  1.00  0.00     0.016 A 
ATOM      9  C   UNL     1       2.508  -2.940   1.015  1.00  0.00     0.016 A 
ATOM     10  C   UNL     1       5.010  -2.055   1.830  1.00  0.00     0.010 A 
ATOM     11  C   UNL     1       3.254  -3.701   1.924  1.00  0.00     0.010 A 
ATOM     12  C   UNL     1       4.522  -3.267   2.317  1.00  0.00    -0.014 A 
BRANCH  12  13
ATOM     13  C   UNL     1       5.398  -4.045   3.216  1.00  0.00     0.031 A 
ATOM     14  C   UNL     1       6.101  -5.258   2.690  1.00  0.00     0.074 A 
ATOM     15  C   UNL     1       5.655  -3.565   4.448  1.00  0.00     0.049 A 
ATOM     16  N   UNL     1       7.003  -6.001   3.271  1.00  0.00    -0.248 NA
ATOM     17  C   UNL     1       5.760  -5.682   1.321  1.00  0.00     0.031 C 
ATOM     18  C   UNL     1       5.041  -2.366   5.026  1.00  0.00     0.029 A 
ATOM     19  N   UNL     1       6.517  -3.999   5.420  1.00  0.00    -0.354 N 
ATOM     20  C   UNL     1       7.328  -6.987   2.350  1.00  0.00     0.074 A 
ATOM     21  C   UNL     1       6.521  -6.756   1.173  1.00  0.00     0.031 C 
ATOM     22  C   UNL     1       5.568  -2.145   6.240  1.00  0.00     0.029 A 
ATOM     23  C   UNL     1       6.526  -3.203   6.542  1.00  0.00     0.049 A 
ATOM     24  H   UNL     1       7.077  -4.803   5.325  1.00  0.00     0.167 HD
ATOM     25  C   UNL     1       8.232  -7.986   2.473  1.00  0.00     0.034 A 
ATOM     26  C   UNL     1       7.229  -3.321   7.685  1.00  0.00     0.034 A 
ATOM     27  C   UNL     1       9.026  -8.200   3.651  1.00  0.00     0.049 A 
ATOM     28  C   UNL     1       8.212  -4.454   7.798  1.00  0.00     0.074 A 
ATOM     29  C   UNL     1       9.928  -9.215   3.912  1.00  0.00     0.029 A 
ATOM     30  N   UNL     1       9.011  -7.377   4.768  1.00  0.00    -0.354 N 
ATOM     31  N   UNL     1       8.541  -5.352   6.899  1.00  0.00    -0.248 NA
ATOM     32  C   UNL     1       8.936  -4.582   9.069  1.00  0.00     0.031 C 
ATOM     33  C   UNL     1      10.453  -9.009   5.193  1.00  0.00     0.029 A 
ATOM     34  C   UNL     1       9.888  -7.859   5.723  1.00  0.00     0.049 A 
ATOM     35  H   UNL     1       8.457  -6.569   4.867  1.00  0.00     0.167 HD
ATOM     36  C   UNL     1       9.513  -6.148   7.492  1.00  0.00     0.074 A 
ATOM     37  C   UNL     1       9.752  -5.595   8.811  1.00  0.00     0.031 C 
ATOM     38  C   UNL     1      10.129  -7.255   7.009  1.00  0.00     0.034 A 
BRANCH  25  39
ATOM     39  C   UNL     1       8.404  -8.902   1.294  1.00  0.00     0.023 A 
ATOM     40  C   UNL     1       9.142  -8.460   0.177  1.00  0.00     0.012 A 
ATOM     41  C   UNL     1       7.836 -10.190   1.285  1.00  0.00     0.148 A 
ATOM     42  C   UNL     1       9.290  -9.278  -0.943  1.00  0.00     0.002 A 
ATOM     43  C   UNL     1       8.012 -11.010   0.176  1.00  0.00     0.091 A 
ATOM     44  F   UNL     1       7.115 -10.577   2.347  1.00  0.00    -0.205 F 
ATOM     45  C   UNL     1       8.731 -10.553  -0.941  1.00  0.00     0.022 A 
BRANCH  43  46
ATOM     46  S   UNL     1       7.362 -12.682   0.092  1.00  0.00     0.127 S 
ATOM     47  O   UNL     1       6.317 -12.541  -0.921  1.00  0.00    -0.237 OA
ATOM     48  O   UNL     1       8.532 -13.445  -0.340  1.00  0.00    -0.237 OA
ATOM     49  O   UNL     1       6.890 -12.998   1.433  1.00  0.00    -0.744 OA
ENDBRANCH  43  46
ENDBRANCH  25  39
BRANCH  26  50
ATOM     50  C   UNL     1       7.045  -2.332   8.787  1.00  0.00     0.023 A 
ATOM     51  C   UNL     1       8.102  -1.474   9.146  1.00  0.00     0.012 A 
ATOM     52  C   UNL     1       5.815  -2.216   9.464  1.00  0.00     0.148 A 
ATOM     53  C   UNL     1       7.945  -0.541  10.175  1.00  0.00     0.002 A 
ATOM     54  C   UNL     1       5.645  -1.244  10.444  1.00  0.00     0.091 A 
ATOM     55  F   UNL     1       4.823  -3.058   9.137  1.00  0.00    -0.205 F 
ATOM     56  C   UNL     1       6.714  -0.416  10.814  1.00  0.00     0.022 A 
BRANCH  54  57
ATOM     57  S   UNL     1       4.039  -0.942  11.191  1.00  0.00     0.127 S 
ATOM     58  O   UNL     1       4.115  -1.745  12.407  1.00  0.00    -0.237 OA
ATOM     59  O   UNL     1       4.059   0.506  11.408  1.00  0.00    -0.237 OA
ATOM     60  O   UNL     1       3.073  -1.375  10.189  1.00  0.00    -0.744 OA
ENDBRANCH  54  57
ENDBRANCH  26  50
BRANCH  38  61
ATOM     61  C   UNL     1      11.109  -7.942   7.920  1.00  0.00     0.023 A 
ATOM     62  C   UNL     1      10.624  -8.707   9.000  1.00  0.00     0.012 A 
ATOM     63  C   UNL     1      12.492  -7.891   7.670  1.00  0.00     0.148 A 
ATOM     64  C   UNL     1      11.506  -9.389   9.835  1.00  0.00     0.002 A 
ATOM     65  C   UNL     1      13.363  -8.608   8.481  1.00  0.00     0.091 A 
ATOM     66  F   UNL     1      12.934  -7.136   6.653  1.00  0.00    -0.205 F 
ATOM     67  C   UNL     1      12.873  -9.350   9.569  1.00  0.00     0.022 A 
BRANCH  65  68
ATOM     68  S   UNL     1      15.125  -8.681   8.146  1.00  0.00     0.127 S 
ATOM     69  O   UNL     1      15.649  -7.687   9.080  1.00  0.00    -0.237 OA
ATOM     70  O   UNL     1      15.455 -10.068   8.482  1.00  0.00    -0.237 OA
ATOM     71  O   UNL     1      15.268  -8.360   6.732  1.00  0.00    -0.744 OA
ENDBRANCH  65  68
ENDBRANCH  38  61
ENDBRANCH  12  13
ENDBRANCH   5   7
ENDBRANCH   4   5
ENDBRANCH   3   4
ENDBRANCH   2   3
ENDBRANCH   1   2
BRANCH   1  72
ATOM     72  C   UNL     1       2.658   2.015   1.056  1.00  0.00     0.202 C 
BRANCH  72  73
ATOM     73  C   UNL     1       2.648   3.200   2.028  1.00  0.00     0.261 C 
BRANCH  73  74
ATOM     74  O   UNL     1       2.914   4.401   1.281  1.00  0.00    -0.457 OA
BRANCH  74  75
ATOM     75  C   UNL     1       4.243   4.646   1.105  1.00  0.00     0.374 C 
ATOM     76  O   UNL     1       5.139   4.290   1.861  1.00  0.00    -0.242 OA
BRANCH  75  77
ATOM     77  C   UNL     1       4.434   5.269  -0.178  1.00  0.00     0.211 A 
ATOM     78  C   UNL     1       3.718   6.191  -0.915  1.00  0.00     0.058 A 
ATOM     79  O   UNL     1       5.507   4.853  -0.908  1.00  0.00    -0.450 OA
ATOM     80  C   UNL     1       4.437   6.391  -2.125  1.00  0.00     0.050 A 
ATOM     81  C   UNL     1       5.534   5.555  -2.070  1.00  0.00     0.142 A 
BRANCH  81  82
ATOM     82  C   UNL     1       6.686   5.295  -2.982  1.00  0.00     0.304 C 
BRANCH  82  83
ATOM     83  O   UNL     1       7.786   4.721  -2.249  1.00  0.00    -0.484 OA
BRANCH  83  84
ATOM     84  C   UNL     1       8.572   5.672  -1.645  1.00  0.00     0.140 A 
ATOM     85  C   UNL     1       8.313   5.979  -0.305  1.00  0.00     0.048 A 
ATOM     86  C   UNL     1       9.665   6.251  -2.302  1.00  0.00     0.101 A 
ATOM     87  C   UNL     1       9.080   6.927   0.364  1.00  0.00     0.005 A 
ATOM     88  C   UNL     1      10.451   7.188  -1.615  1.00  0.00     0.063 A 
ATOM     89  Cl  UNL     1      10.027   5.791  -3.934  1.00  0.00    -0.079 Cl
ATOM     90  C   UNL     1      10.147   7.535  -0.292  1.00  0.00     0.022 A 
ATOM     91  Cl  UNL     1      11.820   7.959  -2.338  1.00  0.00    -0.083 Cl
ENDBRANCH  83  84
ENDBRANCH  82  83
ENDBRANCH  81  82
ENDBRANCH  75  77
ENDBRANCH  74  75
ENDBRANCH  73  74
ENDBRANCH  72  73
ENDBRANCH   1  72
TORSDOF 20
