REMARK SMILES Cc1cc(Br)cc([N+](=O)[O-])c1OCCC(=O)OCCOCCOC(=O)c1ccc(-c2c3nc(c(-c4cccc(S(=O)(=O)[O-])c4F)c4ccc([nH]4)c(-c4cccc(S(=O)(=O)[O-])c4F)c4nc(c(-c5cccc(S(=O)(=O)[O-])c5F)c5ccc2[nH]5)C=C4)C=C3)cc1
REMARK SMILES IDX 19 1 18 2 17 3 15 4 16 5 14 6 13 7 12 8 11 9 1 10 2 11 3 12
REMARK SMILES IDX 4 13 7 14 5 15 6 16 8 17 9 18 10 19 20 20 21 21 22 22 23 23
REMARK SMILES IDX 24 24 25 25 26 26 27 27 88 28 28 29 87 30 29 31 30 32 31 33
REMARK SMILES IDX 81 34 32 35 86 36 80 37 82 38 33 39 85 40 79 41 78 42 34 44
REMARK SMILES IDX 66 45 46 46 65 47 47 48 50 49 64 50 83 51 48 52 49 53 63 55
REMARK SMILES IDX 84 56 51 57 35 58 36 59 44 60 37 61 39 62 45 63 38 64 40 65
REMARK SMILES IDX 41 66 42 67 43 68 67 69 68 70 76 71 69 72 71 73 77 74 70 75
REMARK SMILES IDX 72 76 73 77 74 78 75 79 52 80 53 81 61 82 54 83 56 84 62 85
REMARK SMILES IDX 55 86 57 87 58 88 59 89 60 90
REMARK H PARENT 82 43 50 54
REMARK Flexibility Score: inf
ROOT
ATOM      1  C   UNL     1      -0.835  -3.135  -1.012  1.00  0.00     0.202 C 
ENDROOT
BRANCH   1   2
ATOM      2  C   UNL     1      -1.902  -2.867  -2.107  1.00  0.00     0.261 C 
BRANCH   2   3
ATOM      3  O   UNL     1      -2.685  -1.653  -1.925  1.00  0.00    -0.463 OA
BRANCH   3   4
ATOM      4  C   UNL     1      -3.985  -1.656  -2.343  1.00  0.00     0.309 C 
ATOM      5  O   UNL     1      -4.620  -2.675  -2.591  1.00  0.00    -0.252 OA
BRANCH   4   6
ATOM      6  C   UNL     1      -4.553  -0.252  -2.586  1.00  0.00     0.164 C 
BRANCH   6   7
ATOM      7  C   UNL     1      -5.410   0.381  -1.470  1.00  0.00     0.241 C 
BRANCH   7   8
ATOM      8  O   UNL     1      -4.930   1.602  -0.836  1.00  0.00    -0.486 OA
BRANCH   8   9
ATOM      9  C   UNL     1      -3.630   1.602  -0.416  1.00  0.00     0.200 A 
ATOM     10  C   UNL     1      -3.926  -0.406   1.059  1.00  0.00     0.049 C 
ATOM     11  C   UNL     1      -3.088   0.496   0.206  1.00  0.00    -0.001 A 
ATOM     12  C   UNL     1      -1.750   0.231  -0.071  1.00  0.00     0.023 A 
ATOM     13  C   UNL     1      -0.968   1.102  -0.824  1.00  0.00     0.025 A 
ATOM     14  C   UNL     1      -2.767   2.649  -0.765  1.00  0.00     0.312 A 
ATOM     15  Br  UNL     1       0.638   0.471  -1.589  1.00  0.00    -0.051 Br
ATOM     16  C   UNL     1      -1.419   2.389  -1.033  1.00  0.00     0.105 A 
BRANCH  14  17
ATOM     17  N   UNL     1      -3.200   4.038  -0.610  1.00  0.00     0.066 N 
ATOM     18  O   UNL     1      -2.313   4.876  -0.395  1.00  0.00    -0.258 OA
ATOM     19  O   UNL     1      -4.412   4.285  -0.598  1.00  0.00    -0.258 OA
ENDBRANCH  14  17
ENDBRANCH   8   9
ENDBRANCH   7   8
ENDBRANCH   6   7
ENDBRANCH   4   6
ENDBRANCH   3   4
ENDBRANCH   2   3
ENDBRANCH   1   2
BRANCH   1  20
ATOM     20  O   UNL     1      -1.248  -3.977   0.074  1.00  0.00    -0.374 OA
BRANCH  20  21
ATOM     21  C   UNL     1      -2.227  -3.430   0.952  1.00  0.00     0.202 C 
BRANCH  21  22
ATOM     22  C   UNL     1      -1.674  -2.999   2.324  1.00  0.00     0.261 C 
BRANCH  22  23
ATOM     23  O   UNL     1      -1.068  -1.687   2.263  1.00  0.00    -0.460 OA
BRANCH  23  24
ATOM     24  C   UNL     1       0.216  -1.578   2.676  1.00  0.00     0.338 C 
ATOM     25  O   UNL     1       0.893  -2.471   3.162  1.00  0.00    -0.246 OA
BRANCH  24  26
ATOM     26  C   UNL     1       0.777  -0.246   2.320  1.00  0.00     0.060 A 
ATOM     27  C   UNL     1       2.040  -0.241   1.720  1.00  0.00     0.016 A 
ATOM     28  C   UNL     1       0.130   0.972   2.573  1.00  0.00     0.016 A 
ATOM     29  C   UNL     1       2.670   0.965   1.398  1.00  0.00     0.010 A 
ATOM     30  C   UNL     1       0.763   2.188   2.240  1.00  0.00     0.010 A 
ATOM     31  C   UNL     1       2.054   2.193   1.677  1.00  0.00    -0.014 A 
BRANCH  31  32
ATOM     32  C   UNL     1       2.877   3.432   1.558  1.00  0.00     0.031 A 
ATOM     33  C   UNL     1       3.591   3.929   2.785  1.00  0.00     0.074 A 
ATOM     34  C   UNL     1       3.096   4.052   0.382  1.00  0.00     0.049 A 
ATOM     35  N   UNL     1       4.506   4.857   2.890  1.00  0.00    -0.248 NA
ATOM     36  C   UNL     1       3.240   3.280   4.058  1.00  0.00     0.031 C 
ATOM     37  C   UNL     1       2.485   3.684  -0.886  1.00  0.00     0.029 A 
ATOM     38  N   UNL     1       3.901   5.120   0.056  1.00  0.00    -0.354 N 
ATOM     39  C   UNL     1       4.843   4.902   4.236  1.00  0.00     0.074 A 
ATOM     40  C   UNL     1       4.014   3.929   4.913  1.00  0.00     0.031 C 
ATOM     41  C   UNL     1       2.926   4.502  -1.856  1.00  0.00     0.029 A 
ATOM     42  C   UNL     1       3.849   5.472  -1.275  1.00  0.00     0.049 A 
ATOM     43  H   UNL     1       4.462   5.590   0.715  1.00  0.00     0.167 HD
ATOM     44  C   UNL     1       5.774   5.665   4.854  1.00  0.00     0.034 A 
ATOM     45  C   UNL     1       4.469   6.460  -1.953  1.00  0.00     0.034 A 
ATOM     46  C   UNL     1       6.589   6.646   4.194  1.00  0.00     0.049 A 
ATOM     47  C   UNL     1       5.455   7.339  -1.229  1.00  0.00     0.074 A 
ATOM     48  C   UNL     1       7.575   7.450   4.738  1.00  0.00     0.029 A 
ATOM     49  N   UNL     1       6.495   6.982   2.852  1.00  0.00    -0.354 N 
ATOM     50  N   UNL     1       5.867   7.267   0.014  1.00  0.00    -0.248 NA
ATOM     51  C   UNL     1       6.093   8.411  -2.009  1.00  0.00     0.031 C 
ATOM     52  C   UNL     1       8.049   8.300   3.733  1.00  0.00     0.029 A 
ATOM     53  C   UNL     1       7.387   7.997   2.554  1.00  0.00     0.049 A 
ATOM     54  H   UNL     1       5.883   6.560   2.206  1.00  0.00     0.167 HD
ATOM     55  C   UNL     1       6.836   8.255   0.154  1.00  0.00     0.074 A 
ATOM     56  C   UNL     1       6.965   8.900  -1.136  1.00  0.00     0.031 C 
ATOM     57  C   UNL     1       7.546   8.602   1.256  1.00  0.00     0.034 A 
BRANCH  44  58
ATOM     58  C   UNL     1       5.956   5.454   6.332  1.00  0.00     0.023 A 
ATOM     59  C   UNL     1       6.582   4.280   6.798  1.00  0.00     0.012 A 
ATOM     60  C   UNL     1       5.520   6.422   7.256  1.00  0.00     0.148 A 
ATOM     61  C   UNL     1       6.736   4.053   8.165  1.00  0.00     0.002 A 
ATOM     62  C   UNL     1       5.716   6.209   8.615  1.00  0.00     0.091 A 
ATOM     63  F   UNL     1       4.904   7.518   6.792  1.00  0.00    -0.205 F 
ATOM     64  C   UNL     1       6.311   5.021   9.071  1.00  0.00     0.022 A 
BRANCH  62  65
ATOM     65  S   UNL     1       5.265   7.424   9.857  1.00  0.00     0.127 S 
ATOM     66  O   UNL     1       4.119   6.780  10.496  1.00  0.00    -0.237 OA
ATOM     67  O   UNL     1       6.472   7.481  10.682  1.00  0.00    -0.237 OA
ATOM     68  O   UNL     1       4.969   8.650   9.130  1.00  0.00    -0.744 OA
ENDBRANCH  62  65
ENDBRANCH  44  58
BRANCH  45  69
ATOM     69  C   UNL     1       4.211   6.654  -3.412  1.00  0.00     0.023 A 
ATOM     70  C   UNL     1       5.238   6.410  -4.345  1.00  0.00     0.012 A 
ATOM     71  C   UNL     1       2.954   7.090  -3.877  1.00  0.00     0.148 A 
ATOM     72  C   UNL     1       5.029   6.630  -5.708  1.00  0.00     0.002 A 
ATOM     73  C   UNL     1       2.737   7.255  -5.240  1.00  0.00     0.091 A 
ATOM     74  F   UNL     1       1.994   7.332  -2.974  1.00  0.00    -0.205 F 
ATOM     75  C   UNL     1       3.778   7.044  -6.157  1.00  0.00     0.022 A 
BRANCH  73  76
ATOM     76  S   UNL     1       1.127   7.670  -5.921  1.00  0.00     0.127 S 
ATOM     77  O   UNL     1       1.361   9.012  -6.448  1.00  0.00    -0.237 OA
ATOM     78  O   UNL     1       0.955   6.630  -6.936  1.00  0.00    -0.237 OA
ATOM     79  O   UNL     1       0.193   7.583  -4.807  1.00  0.00    -0.744 OA
ENDBRANCH  73  76
ENDBRANCH  45  69
BRANCH  57  80
ATOM     80  C   UNL     1       8.562   9.709   1.121  1.00  0.00     0.023 A 
ATOM     81  C   UNL     1       8.134  11.042   0.970  1.00  0.00     0.012 A 
ATOM     82  C   UNL     1       9.940   9.434   1.233  1.00  0.00     0.148 A 
ATOM     83  C   UNL     1       9.063  12.081   0.900  1.00  0.00     0.002 A 
ATOM     84  C   UNL     1      10.856  10.478   1.216  1.00  0.00     0.091 A 
ATOM     85  F   UNL     1      10.329   8.156   1.358  1.00  0.00    -0.205 F 
ATOM     86  C   UNL     1      10.420  11.801   1.037  1.00  0.00     0.022 A 
BRANCH  84  87
ATOM     87  S   UNL     1      12.614  10.224   1.486  1.00  0.00     0.127 S 
ATOM     88  O   UNL     1      13.159  10.470   0.153  1.00  0.00    -0.237 OA
ATOM     89  O   UNL     1      12.928  11.256   2.474  1.00  0.00    -0.237 OA
ATOM     90  O   UNL     1      12.752   8.858   1.975  1.00  0.00    -0.744 OA
ENDBRANCH  84  87
ENDBRANCH  57  80
ENDBRANCH  31  32
ENDBRANCH  24  26
ENDBRANCH  23  24
ENDBRANCH  22  23
ENDBRANCH  21  22
ENDBRANCH  20  21
ENDBRANCH   1  20
TORSDOF 21
