REMARK SMILES C[C@@H](NC1=[NH+]CCC1)C(=O)OCCOCCOC(=O)c1ccc(-c2c3nc(c(-c4cccc(S(=O)(=O)[O-])c4F)c4ccc([nH]4)c(-c4cccc(S(=O)(=O)[O-])c4F)c4nc(c(-c5cccc(S(=O)(=O)[O-])c5F)c5ccc2[nH]5)C=C4)C=C3)cc1
REMARK SMILES IDX 15 1 14 2 13 3 12 4 11 5 9 6 10 7 2 8 1 9 3 10 4 11 5 13
REMARK SMILES IDX 8 14 6 15 7 17 16 18 17 19 18 20 19 21 20 22 21 23 82 24
REMARK SMILES IDX 22 25 81 26 23 27 24 28 25 29 75 30 26 31 80 32 74 33 76 34
REMARK SMILES IDX 27 35 79 36 73 37 72 38 28 40 60 41 40 42 59 43 41 44 44 45
REMARK SMILES IDX 58 46 77 47 42 48 43 49 57 51 78 52 45 53 29 54 30 55 38 56
REMARK SMILES IDX 31 57 33 58 39 59 32 60 34 61 35 62 36 63 37 64 61 65 62 66
REMARK SMILES IDX 70 67 63 68 65 69 71 70 64 71 66 72 67 73 68 74 69 75 46 76
REMARK SMILES IDX 47 77 55 78 48 79 50 80 56 81 49 82 51 83 52 84 53 85 54 86
REMARK H PARENT 3 12 5 16 76 39 44 50
REMARK Flexibility Score: inf
ROOT
ATOM      1  C   UNL     1      -2.002   1.097  -1.714  1.00  0.00     0.202 C 
ENDROOT
BRANCH   1   2
ATOM      2  O   UNL     1      -3.224   0.364  -1.786  1.00  0.00    -0.374 OA
BRANCH   2   3
ATOM      3  C   UNL     1      -3.622  -0.336  -0.607  1.00  0.00     0.202 C 
BRANCH   3   4
ATOM      4  C   UNL     1      -2.954  -1.692  -0.386  1.00  0.00     0.261 C 
BRANCH   4   5
ATOM      5  O   UNL     1      -1.560  -1.570  -0.051  1.00  0.00    -0.460 OA
BRANCH   5   6
ATOM      6  C   UNL     1      -0.671  -1.916  -1.026  1.00  0.00     0.350 C 
ATOM      7  O   UNL     1      -0.972  -2.208  -2.179  1.00  0.00    -0.247 OA
BRANCH   6   8
ATOM      8  C   UNL     1       0.766  -1.938  -0.508  1.00  0.00     0.279 C 
ATOM      9  C   UNL     1       1.131  -0.597   0.133  1.00  0.00     0.071 C 
BRANCH   8  10
ATOM     10  N   UNL     1       1.073  -3.012   0.432  1.00  0.00    -0.265 N 
ATOM     11  C   UNL     1       0.232  -3.925   0.991  1.00  0.00     0.243 C 
ATOM     12  H   UNL     1       2.017  -3.086   0.699  1.00  0.00     0.305 HD
ATOM     13  N   UNL     1       0.371  -4.212   2.251  1.00  0.00    -0.279 N 
ATOM     14  C   UNL     1      -0.812  -4.725   0.264  1.00  0.00     0.131 C 
ATOM     15  C   UNL     1      -0.696  -5.184   2.565  1.00  0.00     0.234 C 
ATOM     16  H   UNL     1       1.048  -3.854   2.870  1.00  0.00     0.304 HD
ATOM     17  C   UNL     1      -1.702  -5.052   1.438  1.00  0.00     0.058 C 
ENDBRANCH   8  10
ENDBRANCH   6   8
ENDBRANCH   5   6
ENDBRANCH   4   5
ENDBRANCH   3   4
ENDBRANCH   2   3
ENDBRANCH   1   2
BRANCH   1  18
ATOM     18  C   UNL     1      -2.083   2.471  -1.039  1.00  0.00     0.261 C 
BRANCH  18  19
ATOM     19  O   UNL     1      -2.313   2.359   0.377  1.00  0.00    -0.460 OA
BRANCH  19  20
ATOM     20  C   UNL     1      -3.548   2.737   0.781  1.00  0.00     0.338 C 
ATOM     21  O   UNL     1      -4.433   3.219   0.082  1.00  0.00    -0.246 OA
BRANCH  20  22
ATOM     22  C   UNL     1      -3.785   2.337   2.181  1.00  0.00     0.060 A 
ATOM     23  C   UNL     1      -4.989   1.679   2.465  1.00  0.00     0.016 A 
ATOM     24  C   UNL     1      -2.902   2.674   3.210  1.00  0.00     0.016 A 
ATOM     25  C   UNL     1      -5.351   1.423   3.784  1.00  0.00     0.010 A 
ATOM     26  C   UNL     1      -3.271   2.421   4.536  1.00  0.00     0.010 A 
ATOM     27  C   UNL     1      -4.518   1.839   4.830  1.00  0.00    -0.014 A 
BRANCH  27  28
ATOM     28  C   UNL     1      -5.032   1.817   6.221  1.00  0.00     0.031 A 
ATOM     29  C   UNL     1      -5.555   3.095   6.823  1.00  0.00     0.074 A 
ATOM     30  C   UNL     1      -5.056   0.676   6.931  1.00  0.00     0.049 A 
ATOM     31  N   UNL     1      -6.050   3.307   8.014  1.00  0.00    -0.248 NA
ATOM     32  C   UNL     1      -5.514   4.293   5.968  1.00  0.00     0.031 C 
ATOM     33  C   UNL     1      -4.583  -0.623   6.456  1.00  0.00     0.029 A 
ATOM     34  N   UNL     1      -5.479   0.434   8.213  1.00  0.00    -0.354 N 
ATOM     35  C   UNL     1      -6.352   4.662   8.064  1.00  0.00     0.074 A 
ATOM     36  C   UNL     1      -5.975   5.228   6.787  1.00  0.00     0.031 C 
ATOM     37  C   UNL     1      -4.717  -1.523   7.445  1.00  0.00     0.029 A 
ATOM     38  C   UNL     1      -5.266  -0.860   8.627  1.00  0.00     0.049 A 
ATOM     39  H   UNL     1      -5.894   1.121   8.783  1.00  0.00     0.167 HD
ATOM     40  C   UNL     1      -6.911   5.371   9.073  1.00  0.00     0.034 A 
ATOM     41  C   UNL     1      -5.476  -1.437   9.827  1.00  0.00     0.034 A 
ATOM     42  C   UNL     1      -7.310   4.804  10.332  1.00  0.00     0.049 A 
ATOM     43  C   UNL     1      -6.082  -0.622  10.940  1.00  0.00     0.074 A 
ATOM     44  C   UNL     1      -7.931   5.429  11.399  1.00  0.00     0.029 A 
ATOM     45  N   UNL     1      -7.119   3.481  10.699  1.00  0.00    -0.354 N 
ATOM     46  N   UNL     1      -6.478   0.628  10.928  1.00  0.00    -0.248 NA
ATOM     47  C   UNL     1      -6.303  -1.307  12.222  1.00  0.00     0.031 C 
ATOM     48  C   UNL     1      -8.095   4.487  12.421  1.00  0.00     0.029 A 
ATOM     49  C   UNL     1      -7.598   3.271  11.981  1.00  0.00     0.049 A 
ATOM     50  H   UNL     1      -6.703   2.792  10.132  1.00  0.00     0.167 HD
ATOM     51  C   UNL     1      -7.024   0.869  12.185  1.00  0.00     0.074 A 
ATOM     52  C   UNL     1      -6.928  -0.372  12.926  1.00  0.00     0.031 C 
ATOM     53  C   UNL     1      -7.546   2.016  12.686  1.00  0.00     0.034 A 
BRANCH  40  54
ATOM     54  C   UNL     1      -7.155   6.839   8.845  1.00  0.00     0.023 A 
ATOM     55  C   UNL     1      -8.204   7.247   7.997  1.00  0.00     0.012 A 
ATOM     56  C   UNL     1      -6.384   7.813   9.509  1.00  0.00     0.148 A 
ATOM     57  C   UNL     1      -8.466   8.601   7.791  1.00  0.00     0.002 A 
ATOM     58  C   UNL     1      -6.676   9.160   9.331  1.00  0.00     0.091 A 
ATOM     59  F   UNL     1      -5.374   7.405  10.291  1.00  0.00    -0.205 F 
ATOM     60  C   UNL     1      -7.709   9.556   8.466  1.00  0.00     0.022 A 
BRANCH  58  61
ATOM     61  S   UNL     1      -5.806  10.462  10.211  1.00  0.00     0.127 S 
ATOM     62  O   UNL     1      -4.994  11.047   9.144  1.00  0.00    -0.237 OA
ATOM     63  O   UNL     1      -6.904  11.310  10.675  1.00  0.00    -0.237 OA
ATOM     64  O   UNL     1      -5.061   9.800  11.273  1.00  0.00    -0.744 OA
ENDBRANCH  58  61
ENDBRANCH  40  54
BRANCH  41  65
ATOM     65  C   UNL     1      -5.143  -2.875  10.028  1.00  0.00     0.023 A 
ATOM     66  C   UNL     1      -6.180  -3.811  10.201  1.00  0.00     0.012 A 
ATOM     67  C   UNL     1      -3.807  -3.321  10.029  1.00  0.00     0.148 A 
ATOM     68  C   UNL     1      -5.893  -5.162  10.398  1.00  0.00     0.002 A 
ATOM     69  C   UNL     1      -3.530  -4.676  10.172  1.00  0.00     0.091 A 
ATOM     70  F   UNL     1      -2.833  -2.412   9.883  1.00  0.00    -0.205 F 
ATOM     71  C   UNL     1      -4.570  -5.596  10.373  1.00  0.00     0.022 A 
BRANCH  69  72
ATOM     72  S   UNL     1      -1.867  -5.339  10.027  1.00  0.00     0.127 S 
ATOM     73  O   UNL     1      -1.574  -5.717  11.407  1.00  0.00    -0.237 OA
ATOM     74  O   UNL     1      -2.069  -6.461   9.110  1.00  0.00    -0.237 OA
ATOM     75  O   UNL     1      -1.060  -4.255   9.482  1.00  0.00    -0.744 OA
ENDBRANCH  69  72
ENDBRANCH  41  65
BRANCH  53  76
ATOM     76  C   UNL     1      -8.086   1.987  14.092  1.00  0.00     0.023 A 
ATOM     77  C   UNL     1      -7.194   1.937  15.182  1.00  0.00     0.012 A 
ATOM     78  C   UNL     1      -9.470   2.090  14.335  1.00  0.00     0.148 A 
ATOM     79  C   UNL     1      -7.674   1.960  16.492  1.00  0.00     0.002 A 
ATOM     80  C   UNL     1      -9.938   2.160  15.642  1.00  0.00     0.091 A 
ATOM     81  F   UNL     1     -10.304   2.118  13.285  1.00  0.00    -0.205 F 
ATOM     82  C   UNL     1      -9.043   2.084  16.721  1.00  0.00     0.022 A 
BRANCH  80  83
ATOM     83  S   UNL     1     -11.674   2.416  16.029  1.00  0.00     0.127 S 
ATOM     84  O   UNL     1     -12.076   1.087  16.487  1.00  0.00    -0.237 OA
ATOM     85  O   UNL     1     -11.613   3.431  17.082  1.00  0.00    -0.237 OA
ATOM     86  O   UNL     1     -12.296   2.868  14.792  1.00  0.00    -0.744 OA
ENDBRANCH  80  83
ENDBRANCH  53  76
ENDBRANCH  27  28
ENDBRANCH  20  22
ENDBRANCH  19  20
ENDBRANCH  18  19
ENDBRANCH   1  18
TORSDOF 18
