REMARK SMILES Cc1ccc(-c2cc3cccnc3n2CCC(=O)OCCOCCOC(=O)c2ccc(-c3c4nc(c(-c5cccc(S(=O)(=O)[O-])c5F)c5ccc([nH]5)c(-c5cccc(S(=O)(=O)[O-])c5F)c5nc(c(-c6cccc(S(=O)(=O)[O-])c6F)c6ccc3[nH]6)C=C5)C=C4)cc2)cn1
REMARK SMILES IDX 22 1 21 2 20 3 19 4 17 5 18 6 16 7 15 8 14 9 6 10 7 11 8 12
REMARK SMILES IDX 13 13 9 14 12 15 10 16 11 17 5 18 1 19 2 20 3 21 92 22 4 23
REMARK SMILES IDX 91 24 23 25 24 26 25 27 26 28 27 29 28 30 29 31 90 32 30 33
REMARK SMILES IDX 89 34 31 35 32 36 33 37 83 38 34 39 88 40 82 41 84 42 35 43
REMARK SMILES IDX 87 44 81 45 80 46 36 48 68 49 48 50 67 51 49 52 52 53 66 54
REMARK SMILES IDX 85 55 50 56 51 57 65 59 86 60 53 61 37 62 38 63 46 64 39 65
REMARK SMILES IDX 41 66 47 67 40 68 42 69 43 70 44 71 45 72 69 73 70 74 78 75
REMARK SMILES IDX 71 76 73 77 79 78 72 79 74 80 75 81 76 82 77 83 54 84 55 85
REMARK SMILES IDX 63 86 56 87 58 88 64 89 57 90 59 91 60 92 61 93 62 94
REMARK H PARENT 84 47 52 58
REMARK Flexibility Score: inf
ROOT
ATOM      1  O   UNL     1       0.776  -0.249   1.543  1.00  0.00    -0.374 OA
ENDROOT
BRANCH   1   2
ATOM      2  C   UNL     1       0.011  -0.088   0.109  1.00  0.00     0.202 C 
BRANCH   2   3
ATOM      3  C   UNL     1      -0.768  -1.628  -1.222  1.00  0.00     0.261 C 
BRANCH   3   4
ATOM      4  O   UNL     1      -2.319  -2.352  -1.082  1.00  0.00    -0.463 OA
BRANCH   4   5
ATOM      5  C   UNL     1      -2.626  -3.407  -0.278  1.00  0.00     0.307 C 
ATOM      6  O   UNL     1      -1.987  -4.456  -0.300  1.00  0.00    -0.252 OA
BRANCH   5   7
ATOM      7  C   UNL     1      -3.794  -3.191   0.735  1.00  0.00     0.144 C 
BRANCH   7   8
ATOM      8  C   UNL     1      -4.099  -1.870   1.482  1.00  0.00     0.136 C 
BRANCH   8   9
ATOM      9  N   UNL     1      -4.413  -0.750   0.632  1.00  0.00    -0.325 N 
ATOM     10  C   UNL     1      -3.486  -0.065  -0.110  1.00  0.00     0.052 A 
ATOM     11  C   UNL     1      -4.212   0.749  -0.973  1.00  0.00     0.039 A 
ATOM     12  C   UNL     1      -5.581   0.649  -0.649  1.00  0.00     0.020 A 
ATOM     13  C   UNL     1      -5.673  -0.244   0.411  1.00  0.00     0.140 A 
ATOM     14  C   UNL     1      -6.760   1.216  -1.152  1.00  0.00     0.013 A 
ATOM     15  N   UNL     1      -6.797  -0.592   1.069  1.00  0.00    -0.238 NA
ATOM     16  C   UNL     1      -7.944   0.910  -0.490  1.00  0.00     0.021 A 
ATOM     17  C   UNL     1      -7.898   0.050   0.600  1.00  0.00     0.113 A 
BRANCH  10  18
ATOM     18  C   UNL     1      -2.051  -0.360  -0.163  1.00  0.00     0.017 A 
ATOM     19  C   UNL     1       2.791  -1.021  -1.108  1.00  0.00     0.066 C 
ATOM     20  C   UNL     1       1.301  -1.231  -1.067  1.00  0.00     0.037 A 
ATOM     21  C   UNL     1       0.566  -2.094   0.305  1.00  0.00     0.024 A 
ATOM     22  N   UNL     1       0.411  -0.041  -1.972  1.00  0.00    -0.261 NA
ATOM     23  C   UNL     1      -1.122  -1.628   0.785  1.00  0.00     0.014 A 
ATOM     24  C   UNL     1      -1.207   0.399  -1.524  1.00  0.00     0.121 A 
ENDBRANCH  10  18
ENDBRANCH   8   9
ENDBRANCH   7   8
ENDBRANCH   5   7
ENDBRANCH   4   5
ENDBRANCH   3   4
ENDBRANCH   2   3
ENDBRANCH   1   2
BRANCH   1  25
ATOM     25  C   UNL     1       0.047  -0.095   2.784  1.00  0.00     0.202 C 
BRANCH  25  26
ATOM     26  C   UNL     1      -0.099   1.305   3.357  1.00  0.00     0.261 C 
BRANCH  26  27
ATOM     27  O   UNL     1      -0.681   2.142   2.389  1.00  0.00    -0.460 OA
BRANCH  27  28
ATOM     28  C   UNL     1       0.186   2.636   1.474  1.00  0.00     0.338 C 
ATOM     29  O   UNL     1       1.402   2.628   1.518  1.00  0.00    -0.246 OA
BRANCH  28  30
ATOM     30  C   UNL     1      -0.644   3.240   0.412  1.00  0.00     0.060 A 
ATOM     31  C   UNL     1      -0.005   4.258  -0.277  1.00  0.00     0.016 A 
ATOM     32  C   UNL     1      -2.039   3.196   0.589  1.00  0.00     0.016 A 
ATOM     33  C   UNL     1      -0.664   5.453  -0.281  1.00  0.00     0.010 A 
ATOM     34  C   UNL     1      -2.691   4.386   0.608  1.00  0.00     0.010 A 
ATOM     35  C   UNL     1      -1.928   5.503   0.324  1.00  0.00    -0.014 A 
BRANCH  35  36
ATOM     36  C   UNL     1      -2.470   6.787   0.647  1.00  0.00     0.031 A 
ATOM     37  C   UNL     1      -3.079   7.378  -0.549  1.00  0.00     0.074 A 
ATOM     38  C   UNL     1      -2.388   7.304   1.886  1.00  0.00     0.049 A 
ATOM     39  N   UNL     1      -2.494   8.189  -1.363  1.00  0.00    -0.248 NA
ATOM     40  C   UNL     1      -4.315   6.775  -1.071  1.00  0.00     0.031 C 
ATOM     41  C   UNL     1      -2.029   6.661   3.154  1.00  0.00     0.029 A 
ATOM     42  N   UNL     1      -2.706   8.559   2.276  1.00  0.00    -0.354 N 
ATOM     43  C   UNL     1      -3.440   8.433  -2.341  1.00  0.00     0.074 A 
ATOM     44  C   UNL     1      -4.393   7.356  -2.270  1.00  0.00     0.031 C 
ATOM     45  C   UNL     1      -2.400   7.466   4.181  1.00  0.00     0.029 A 
ATOM     46  C   UNL     1      -2.883   8.727   3.643  1.00  0.00     0.049 A 
ATOM     47  H   UNL     1      -2.805   9.301   1.637  1.00  0.00     0.167 HD
ATOM     48  C   UNL     1      -3.556   9.676  -2.873  1.00  0.00     0.034 A 
ATOM     49  C   UNL     1      -3.465   9.808   4.227  1.00  0.00     0.034 A 
ATOM     50  C   UNL     1      -2.394  10.482  -2.595  1.00  0.00     0.049 A 
ATOM     51  C   UNL     1      -3.362  10.914   3.235  1.00  0.00     0.074 A 
ATOM     52  C   UNL     1      -1.046  10.361  -2.871  1.00  0.00     0.029 A 
ATOM     53  N   UNL     1      -2.495  11.354  -1.536  1.00  0.00    -0.354 N 
ATOM     54  N   UNL     1      -2.225  11.425   2.848  1.00  0.00    -0.248 NA
ATOM     55  C   UNL     1      -4.480  11.104   2.321  1.00  0.00     0.031 C 
ATOM     56  C   UNL     1      -0.385  10.806  -1.689  1.00  0.00     0.029 A 
ATOM     57  C   UNL     1      -1.353  11.248  -0.784  1.00  0.00     0.049 A 
ATOM     58  H   UNL     1      -3.255  11.950  -1.349  1.00  0.00     0.167 HD
ATOM     59  C   UNL     1      -2.370  11.587   1.476  1.00  0.00     0.074 A 
ATOM     60  C   UNL     1      -3.805  11.452   1.222  1.00  0.00     0.031 C 
ATOM     61  C   UNL     1      -1.295  11.498   0.640  1.00  0.00     0.034 A 
BRANCH  48  62
ATOM     62  C   UNL     1      -4.878  10.271  -3.255  1.00  0.00     0.023 A 
ATOM     63  C   UNL     1      -4.866  11.417  -4.068  1.00  0.00     0.012 A 
ATOM     64  C   UNL     1      -6.107   9.911  -2.652  1.00  0.00     0.148 A 
ATOM     65  C   UNL     1      -6.026  12.170  -4.272  1.00  0.00     0.002 A 
ATOM     66  C   UNL     1      -7.272  10.609  -2.925  1.00  0.00     0.091 A 
ATOM     67  F   UNL     1      -6.137   8.978  -1.695  1.00  0.00    -0.205 F 
ATOM     68  C   UNL     1      -7.233  11.756  -3.717  1.00  0.00     0.022 A 
BRANCH  66  69
ATOM     69  S   UNL     1      -8.855  10.091  -2.250  1.00  0.00     0.127 S 
ATOM     70  O   UNL     1      -9.093  11.120  -1.243  1.00  0.00    -0.237 OA
ATOM     71  O   UNL     1      -9.717  10.162  -3.430  1.00  0.00    -0.237 OA
ATOM     72  O   UNL     1      -8.643   8.739  -1.749  1.00  0.00    -0.744 OA
ENDBRANCH  66  69
ENDBRANCH  48  62
BRANCH  49  73
ATOM     73  C   UNL     1      -4.426   9.884   5.364  1.00  0.00     0.023 A 
ATOM     74  C   UNL     1      -4.819  11.158   5.838  1.00  0.00     0.012 A 
ATOM     75  C   UNL     1      -5.196   8.771   5.767  1.00  0.00     0.148 A 
ATOM     76  C   UNL     1      -5.976  11.325   6.612  1.00  0.00     0.002 A 
ATOM     77  C   UNL     1      -6.341   8.941   6.544  1.00  0.00     0.091 A 
ATOM     78  F   UNL     1      -4.866   7.556   5.315  1.00  0.00    -0.205 F 
ATOM     79  C   UNL     1      -6.746  10.218   6.951  1.00  0.00     0.022 A 
BRANCH  77  80
ATOM     80  S   UNL     1      -7.393   7.558   7.013  1.00  0.00     0.127 S 
ATOM     81  O   UNL     1      -7.624   7.818   8.435  1.00  0.00    -0.237 OA
ATOM     82  O   UNL     1      -8.558   7.757   6.157  1.00  0.00    -0.237 OA
ATOM     83  O   UNL     1      -6.610   6.357   6.747  1.00  0.00    -0.744 OA
ENDBRANCH  77  80
ENDBRANCH  49  73
BRANCH  61  84
ATOM     84  C   UNL     1       0.080  11.454   1.257  1.00  0.00     0.023 A 
ATOM     85  C   UNL     1       0.583  10.316   1.925  1.00  0.00     0.012 A 
ATOM     86  C   UNL     1       0.951  12.513   0.960  1.00  0.00     0.148 A 
ATOM     87  C   UNL     1       1.935  10.239   2.280  1.00  0.00     0.002 A 
ATOM     88  C   UNL     1       2.298  12.417   1.282  1.00  0.00     0.091 A 
ATOM     89  F   UNL     1       0.448  13.575   0.315  1.00  0.00    -0.205 F 
ATOM     90  C   UNL     1       2.796  11.283   1.943  1.00  0.00     0.022 A 
BRANCH  88  91
ATOM     91  S   UNL     1       3.472  13.677   0.783  1.00  0.00     0.127 S 
ATOM     92  O   UNL     1       3.892  14.229   2.070  1.00  0.00    -0.237 OA
ATOM     93  O   UNL     1       4.494  12.891   0.091  1.00  0.00    -0.237 OA
ATOM     94  O   UNL     1       2.740  14.600  -0.076  1.00  0.00    -0.744 OA
ENDBRANCH  88  91
ENDBRANCH  61  84
ENDBRANCH  35  36
ENDBRANCH  28  30
ENDBRANCH  27  28
ENDBRANCH  26  27
ENDBRANCH  25  26
ENDBRANCH   1  25
TORSDOF 20
