REMARK SMILES Cc1c(I)cccc1[C@H]([NH3+])C(=O)OCCOCCOC(=O)c1ccc(-c2c3nc(c(-c4cccc(S(=O)(=O)[O-])c4F)c4ccc([nH]4)c(-c4cccc(S(=O)(=O)[O-])c4F)c4nc(c(-c5cccc(S(=O)(=O)[O-])c5F)c5ccc2[nH]5)C=C4)C=C3)cc1
REMARK SMILES IDX 17 1 16 2 15 3 14 4 13 5 11 6 12 7 9 8 8 9 1 10 2 11 3 12
REMARK SMILES IDX 4 13 5 14 7 15 6 16 10 17 18 21 19 22 20 23 21 24 22 25
REMARK SMILES IDX 23 26 84 27 24 28 83 29 25 30 26 31 27 32 77 33 28 34 82 35
REMARK SMILES IDX 76 36 78 37 29 38 81 39 75 40 74 41 30 43 62 44 42 45 61 46
REMARK SMILES IDX 43 47 46 48 60 49 79 50 44 51 45 52 59 54 80 55 47 56 31 57
REMARK SMILES IDX 32 58 40 59 33 60 35 61 41 62 34 63 36 64 37 65 38 66 39 67
REMARK SMILES IDX 63 68 64 69 72 70 65 71 67 72 73 73 66 74 68 75 69 76 70 77
REMARK SMILES IDX 71 78 48 79 49 80 57 81 50 82 52 83 58 84 51 85 53 86 54 87
REMARK SMILES IDX 55 88 56 89
REMARK H PARENT 10 18 10 19 10 20 78 42 46 53
REMARK Flexibility Score: inf
ROOT
ATOM      1  C   UNL     1      -1.427   3.287   0.715  1.00  0.00     0.202 C 
ENDROOT
BRANCH   1   2
ATOM      2  O   UNL     1      -1.305   4.654   1.108  1.00  0.00    -0.374 OA
BRANCH   2   3
ATOM      3  C   UNL     1      -1.030   5.595   0.071  1.00  0.00     0.202 C 
BRANCH   3   4
ATOM      4  C   UNL     1       0.434   5.758  -0.344  1.00  0.00     0.261 C 
BRANCH   4   5
ATOM      5  O   UNL     1       0.967   4.601  -1.009  1.00  0.00    -0.459 OA
BRANCH   5   6
ATOM      6  C   UNL     1       1.646   3.730  -0.213  1.00  0.00     0.369 C 
ATOM      7  O   UNL     1       1.718   3.811   1.011  1.00  0.00    -0.245 OA
BRANCH   6   8
ATOM      8  C   UNL     1       2.308   2.582  -1.004  1.00  0.00     0.323 C 
BRANCH   8   9
ATOM      9  C   UNL     1       3.371   3.058  -2.005  1.00  0.00     0.025 A 
ATOM     10  C   UNL     1       4.400   4.673  -0.305  1.00  0.00     0.046 C 
ATOM     11  C   UNL     1       4.320   4.078  -1.691  1.00  0.00    -0.028 A 
ATOM     12  C   UNL     1       5.173   4.547  -2.716  1.00  0.00     0.016 A 
ATOM     13  I   UNL     1       6.423   6.235  -2.505  1.00  0.00    -0.044 I 
ATOM     14  C   UNL     1       5.206   3.928  -3.969  1.00  0.00     0.015 A 
ATOM     15  C   UNL     1       3.455   2.438  -3.272  1.00  0.00     0.011 A 
ATOM     16  C   UNL     1       4.372   2.853  -4.233  1.00  0.00     0.002 A 
ENDBRANCH   8   9
BRANCH   8  17
ATOM     17  N   UNL     1       1.242   1.732  -1.601  1.00  0.00    -0.342 N 
ATOM     18  H   UNL     1       0.687   2.289  -2.252  1.00  0.00     0.345 HD
ATOM     19  H   UNL     1       0.638   1.373  -0.861  1.00  0.00     0.345 HD
ATOM     20  H   UNL     1       1.669   0.952  -2.100  1.00  0.00     0.345 HD
ENDBRANCH   8  17
ENDBRANCH   6   8
ENDBRANCH   5   6
ENDBRANCH   4   5
ENDBRANCH   3   4
ENDBRANCH   2   3
ENDBRANCH   1   2
BRANCH   1  21
ATOM     21  C   UNL     1      -2.781   2.860   0.141  1.00  0.00     0.261 C 
BRANCH  21  22
ATOM     22  O   UNL     1      -2.974   3.385  -1.183  1.00  0.00    -0.460 OA
BRANCH  22  23
ATOM     23  C   UNL     1      -3.836   4.428  -1.273  1.00  0.00     0.338 C 
ATOM     24  O   UNL     1      -4.532   4.881  -0.379  1.00  0.00    -0.246 OA
BRANCH  23  25
ATOM     25  C   UNL     1      -3.643   5.095  -2.578  1.00  0.00     0.060 A 
ATOM     26  C   UNL     1      -3.596   4.372  -3.771  1.00  0.00     0.016 A 
ATOM     27  C   UNL     1      -3.496   6.489  -2.586  1.00  0.00     0.016 A 
ATOM     28  C   UNL     1      -3.434   5.056  -4.979  1.00  0.00     0.010 A 
ATOM     29  C   UNL     1      -3.329   7.168  -3.792  1.00  0.00     0.010 A 
ATOM     30  C   UNL     1      -3.317   6.458  -5.000  1.00  0.00    -0.014 A 
BRANCH  30  31
ATOM     31  C   UNL     1      -3.341   7.187  -6.290  1.00  0.00     0.031 A 
ATOM     32  C   UNL     1      -2.111   7.827  -6.862  1.00  0.00     0.074 A 
ATOM     33  C   UNL     1      -4.520   7.297  -6.932  1.00  0.00     0.049 A 
ATOM     34  N   UNL     1      -1.971   8.441  -8.009  1.00  0.00    -0.248 NA
ATOM     35  C   UNL     1      -0.885   7.779  -6.051  1.00  0.00     0.031 C 
ATOM     36  C   UNL     1      -5.795   6.774  -6.436  1.00  0.00     0.029 A 
ATOM     37  N   UNL     1      -4.843   7.884  -8.128  1.00  0.00    -0.354 N 
ATOM     38  C   UNL     1      -0.649   8.859  -8.060  1.00  0.00     0.074 A 
ATOM     39  C   UNL     1      -0.029   8.445  -6.818  1.00  0.00     0.031 C 
ATOM     40  C   UNL     1      -6.758   7.047  -7.328  1.00  0.00     0.029 A 
ATOM     41  C   UNL     1      -6.175   7.780  -8.448  1.00  0.00     0.049 A 
ATOM     42  H   UNL     1      -4.184   8.336  -8.703  1.00  0.00     0.167 HD
ATOM     43  C   UNL     1      -0.010   9.507  -9.062  1.00  0.00     0.034 A 
ATOM     44  C   UNL     1      -6.856   8.218  -9.525  1.00  0.00     0.034 A 
ATOM     45  C   UNL     1      -0.629   9.903 -10.300  1.00  0.00     0.049 A 
ATOM     46  C   UNL     1      -6.120   8.922 -10.626  1.00  0.00     0.074 A 
ATOM     47  C   UNL     1      -0.037  10.504 -11.398  1.00  0.00     0.029 A 
ATOM     48  N   UNL     1      -1.973   9.754 -10.602  1.00  0.00    -0.354 N 
ATOM     49  N   UNL     1      -4.839   9.185 -10.716  1.00  0.00    -0.248 NA
ATOM     50  C   UNL     1      -6.910   9.365 -11.784  1.00  0.00     0.031 C 
ATOM     51  C   UNL     1      -1.028  10.737 -12.356  1.00  0.00     0.029 A 
ATOM     52  C   UNL     1      -2.232  10.260 -11.864  1.00  0.00     0.049 A 
ATOM     53  H   UNL     1      -2.644   9.348 -10.007  1.00  0.00     0.167 HD
ATOM     54  C   UNL     1      -4.664   9.804 -11.947  1.00  0.00     0.074 A 
ATOM     55  C   UNL     1      -5.969   9.866 -12.575  1.00  0.00     0.031 C 
ATOM     56  C   UNL     1      -3.524  10.283 -12.499  1.00  0.00     0.034 A 
BRANCH  43  57
ATOM     57  C   UNL     1       1.461   9.784  -8.909  1.00  0.00     0.023 A 
ATOM     58  C   UNL     1       2.378   8.738  -9.126  1.00  0.00     0.012 A 
ATOM     59  C   UNL     1       1.936  11.092  -8.691  1.00  0.00     0.148 A 
ATOM     60  C   UNL     1       3.750   8.987  -9.125  1.00  0.00     0.002 A 
ATOM     61  C   UNL     1       3.304  11.338  -8.719  1.00  0.00     0.091 A 
ATOM     62  F   UNL     1       1.042  12.069  -8.483  1.00  0.00    -0.205 F 
ATOM     63  C   UNL     1       4.211  10.287  -8.932  1.00  0.00     0.022 A 
BRANCH  61  64
ATOM     64  S   UNL     1       4.004  12.982  -8.537  1.00  0.00     0.127 S 
ATOM     65  O   UNL     1       4.756  12.845  -7.290  1.00  0.00    -0.237 OA
ATOM     66  O   UNL     1       4.830  13.098  -9.738  1.00  0.00    -0.237 OA
ATOM     67  O   UNL     1       2.874  13.899  -8.477  1.00  0.00    -0.744 OA
ENDBRANCH  61  64
ENDBRANCH  43  57
BRANCH  44  68
ATOM     68  C   UNL     1      -8.310   7.924  -9.628  1.00  0.00     0.023 A 
ATOM     69  C   UNL     1      -8.745   6.900 -10.490  1.00  0.00     0.012 A 
ATOM     70  C   UNL     1      -9.245   8.594  -8.817  1.00  0.00     0.148 A 
ATOM     71  C   UNL     1     -10.094   6.550 -10.547  1.00  0.00     0.002 A 
ATOM     72  C   UNL     1     -10.581   8.215  -8.851  1.00  0.00     0.091 A 
ATOM     73  F   UNL     1      -8.800   9.562  -8.004  1.00  0.00    -0.205 F 
ATOM     74  C   UNL     1     -11.009   7.199  -9.722  1.00  0.00     0.022 A 
BRANCH  72  75
ATOM     75  S   UNL     1     -11.819   8.924  -7.760  1.00  0.00     0.127 S 
ATOM     76  O   UNL     1     -12.730   9.554  -8.713  1.00  0.00    -0.237 OA
ATOM     77  O   UNL     1     -12.348   7.732  -7.097  1.00  0.00    -0.237 OA
ATOM     78  O   UNL     1     -11.101   9.839  -6.885  1.00  0.00    -0.744 OA
ENDBRANCH  72  75
ENDBRANCH  44  68
BRANCH  56  79
ATOM     79  C   UNL     1      -3.604  10.913 -13.861  1.00  0.00     0.023 A 
ATOM     80  C   UNL     1      -4.088  12.229 -13.988  1.00  0.00     0.012 A 
ATOM     81  C   UNL     1      -3.075  10.253 -14.988  1.00  0.00     0.148 A 
ATOM     82  C   UNL     1      -4.047  12.880 -15.221  1.00  0.00     0.002 A 
ATOM     83  C   UNL     1      -3.007  10.920 -16.205  1.00  0.00     0.091 A 
ATOM     84  F   UNL     1      -2.628   8.998 -14.840  1.00  0.00    -0.205 F 
ATOM     85  C   UNL     1      -3.496  12.232 -16.324  1.00  0.00     0.022 A 
BRANCH  83  86
ATOM     86  S   UNL     1      -2.251  10.197 -17.666  1.00  0.00     0.127 S 
ATOM     87  O   UNL     1      -3.395  10.089 -18.570  1.00  0.00    -0.237 OA
ATOM     88  O   UNL     1      -1.271  11.216 -18.042  1.00  0.00    -0.237 OA
ATOM     89  O   UNL     1      -1.679   8.927 -17.241  1.00  0.00    -0.744 OA
ENDBRANCH  83  86
ENDBRANCH  56  79
ENDBRANCH  30  31
ENDBRANCH  23  25
ENDBRANCH  22  23
ENDBRANCH  21  22
ENDBRANCH   1  21
TORSDOF 19
