REMARK SMILES C#CCNC(=O)C[N@@H+](CC(=O)OCCOCCOC(=O)c1ccc(-c2c3nc(c(-c4cccc(S(=O)(=O)[O-])c4F)c4ccc([nH]4)c(-c4cccc(S(=O)(=O)[O-])c4F)c4nc(c(-c5cccc(S(=O)(=O)[O-])c5F)c5ccc2[nH]5)C=C4)C=C3)cc1)C(C)(C)C
REMARK SMILES IDX 14 1 13 2 12 3 10 4 11 5 9 6 8 7 7 9 5 10 4 11 6 13 3 14
REMARK SMILES IDX 2 15 1 16 84 17 85 18 86 19 87 20 15 21 16 22 17 23 18 24
REMARK SMILES IDX 19 25 20 26 21 27 22 28 83 29 23 30 82 31 24 32 25 33 26 34
REMARK SMILES IDX 76 35 27 36 81 37 75 38 77 39 28 40 80 41 74 42 73 43 29 45
REMARK SMILES IDX 61 46 41 47 60 48 42 49 45 50 59 51 78 52 43 53 44 54 58 56
REMARK SMILES IDX 79 57 46 58 30 59 31 60 39 61 32 62 34 63 40 64 33 65 35 66
REMARK SMILES IDX 36 67 37 68 38 69 62 70 63 71 71 72 64 73 66 74 72 75 65 76
REMARK SMILES IDX 67 77 68 78 69 79 70 80 47 81 48 82 56 83 49 84 51 85 57 86
REMARK SMILES IDX 50 87 52 88 53 89 54 90 55 91
REMARK H PARENT 8 8 4 12 77 44 45 55
REMARK Flexibility Score: inf
ROOT
ATOM      1  C   UNL     1      -5.405  -6.954  -0.665  1.00  0.00     0.202 C 
ENDROOT
BRANCH   1   2
ATOM      2  C   UNL     1      -5.308  -6.102   0.603  1.00  0.00     0.261 C 
BRANCH   2   3
ATOM      3  O   UNL     1      -4.437  -4.963   0.427  1.00  0.00    -0.459 OA
BRANCH   3   4
ATOM      4  C   UNL     1      -3.296  -4.936   1.163  1.00  0.00     0.361 C 
ATOM      5  O   UNL     1      -2.905  -5.861   1.869  1.00  0.00    -0.245 OA
BRANCH   4   6
ATOM      6  C   UNL     1      -2.595  -3.579   1.135  1.00  0.00     0.387 C 
BRANCH   6   7
ATOM      7  N   UNL     1      -2.314  -2.948  -0.183  1.00  0.00    -0.314 N 
ATOM      8  H   UNL     1      -1.668  -2.185   0.016  1.00  0.00     0.349 HD
BRANCH   7   9
ATOM      9  C   UNL     1      -3.547  -2.330  -0.739  1.00  0.00     0.364 C 
BRANCH   9  10
ATOM     10  C   UNL     1      -3.239  -1.195  -1.712  1.00  0.00     0.275 C 
ATOM     11  N   UNL     1      -2.359  -0.224  -1.325  1.00  0.00    -0.340 N 
ATOM     12  H   UNL     1      -2.101   0.442  -2.003  1.00  0.00     0.164 HD
ATOM     13  O   UNL     1      -3.761  -1.135  -2.826  1.00  0.00    -0.268 OA
BRANCH  11  14
ATOM     14  C   UNL     1      -1.776  -0.085  -0.023  1.00  0.00     0.206 C 
BRANCH  14  15
ATOM     15  C   UNL     1      -0.256  -0.085  -0.023  1.00  0.00    -0.085 C 
ATOM     16  C   UNL     1       1.048  -0.085  -0.023  1.00  0.00     0.006 C 
ENDBRANCH  14  15
ENDBRANCH  11  14
ENDBRANCH   9  10
ENDBRANCH   7   9
BRANCH   7  17
ATOM     17  C   UNL     1      -1.391  -3.635  -1.127  1.00  0.00     0.090 C 
ATOM     18  C   UNL     1      -2.171  -4.477  -2.124  1.00  0.00     0.078 C 
ATOM     19  C   UNL     1      -0.535  -2.700  -2.018  1.00  0.00     0.078 C 
ATOM     20  C   UNL     1      -0.348  -4.497  -0.376  1.00  0.00     0.078 C 
ENDBRANCH   7  17
ENDBRANCH   6   7
ENDBRANCH   4   6
ENDBRANCH   3   4
ENDBRANCH   2   3
ENDBRANCH   1   2
BRANCH   1  21
ATOM     21  O   UNL     1      -4.450  -8.016  -0.750  1.00  0.00    -0.374 OA
BRANCH  21  22
ATOM     22  C   UNL     1      -3.170  -7.683  -1.287  1.00  0.00     0.202 C 
BRANCH  22  23
ATOM     23  C   UNL     1      -3.155  -7.537  -2.821  1.00  0.00     0.261 C 
BRANCH  23  24
ATOM     24  O   UNL     1      -3.960  -6.416  -3.239  1.00  0.00    -0.460 OA
BRANCH  24  25
ATOM     25  C   UNL     1      -4.736  -6.612  -4.322  1.00  0.00     0.338 C 
ATOM     26  O   UNL     1      -4.673  -7.554  -5.103  1.00  0.00    -0.246 OA
BRANCH  25  27
ATOM     27  C   UNL     1      -5.846  -5.638  -4.322  1.00  0.00     0.060 A 
ATOM     28  C   UNL     1      -7.134  -6.161  -4.167  1.00  0.00     0.016 A 
ATOM     29  C   UNL     1      -5.667  -4.271  -4.556  1.00  0.00     0.016 A 
ATOM     30  C   UNL     1      -8.248  -5.341  -4.340  1.00  0.00     0.010 A 
ATOM     31  C   UNL     1      -6.794  -3.446  -4.725  1.00  0.00     0.010 A 
ATOM     32  C   UNL     1      -8.092  -3.988  -4.676  1.00  0.00    -0.014 A 
BRANCH  32  33
ATOM     33  C   UNL     1      -9.296  -3.230  -5.121  1.00  0.00     0.031 A 
ATOM     34  C   UNL     1      -9.539  -3.017  -6.595  1.00  0.00     0.074 A 
ATOM     35  C   UNL     1     -10.230  -2.825  -4.238  1.00  0.00     0.049 A 
ATOM     36  N   UNL     1     -10.597  -2.534  -7.198  1.00  0.00    -0.248 NA
ATOM     37  C   UNL     1      -8.456  -3.409  -7.511  1.00  0.00     0.031 C 
ATOM     38  C   UNL     1     -10.136  -2.961  -2.787  1.00  0.00     0.029 A 
ATOM     39  N   UNL     1     -11.449  -2.222  -4.441  1.00  0.00    -0.354 N 
ATOM     40  C   UNL     1     -10.306  -2.557  -8.558  1.00  0.00     0.074 A 
ATOM     41  C   UNL     1      -8.963  -3.078  -8.691  1.00  0.00     0.031 C 
ATOM     42  C   UNL     1     -11.247  -2.451  -2.228  1.00  0.00     0.029 A 
ATOM     43  C   UNL     1     -12.130  -1.944  -3.279  1.00  0.00     0.049 A 
ATOM     44  H   UNL     1     -11.802  -2.008  -5.335  1.00  0.00     0.167 HD
ATOM     45  C   UNL     1     -11.089  -2.204  -9.606  1.00  0.00     0.034 A 
ATOM     46  C   UNL     1     -13.326  -1.352  -3.079  1.00  0.00     0.034 A 
ATOM     47  C   UNL     1     -12.434  -1.706  -9.492  1.00  0.00     0.049 A 
ATOM     48  C   UNL     1     -14.167  -0.943  -4.263  1.00  0.00     0.074 A 
ATOM     49  C   UNL     1     -13.317  -1.378 -10.507  1.00  0.00     0.029 A 
ATOM     50  N   UNL     1     -13.087  -1.447  -8.298  1.00  0.00    -0.354 N 
ATOM     51  N   UNL     1     -13.936  -1.116  -5.541  1.00  0.00    -0.248 NA
ATOM     52  C   UNL     1     -15.454  -0.289  -3.973  1.00  0.00     0.031 C 
ATOM     53  C   UNL     1     -14.494  -0.894  -9.927  1.00  0.00     0.029 A 
ATOM     54  C   UNL     1     -14.353  -0.944  -8.550  1.00  0.00     0.049 A 
ATOM     55  H   UNL     1     -12.707  -1.597  -7.403  1.00  0.00     0.167 HD
ATOM     56  C   UNL     1     -15.058  -0.624  -6.204  1.00  0.00     0.074 A 
ATOM     57  C   UNL     1     -15.980  -0.169  -5.185  1.00  0.00     0.031 C 
ATOM     58  C   UNL     1     -15.293  -0.542  -7.537  1.00  0.00     0.034 A 
BRANCH  45  59
ATOM     59  C   UNL     1     -10.526  -2.385 -10.991  1.00  0.00     0.023 A 
ATOM     60  C   UNL     1     -10.430  -3.681 -11.536  1.00  0.00     0.012 A 
ATOM     61  C   UNL     1     -10.171  -1.274 -11.780  1.00  0.00     0.148 A 
ATOM     62  C   UNL     1      -9.964  -3.872 -12.836  1.00  0.00     0.002 A 
ATOM     63  C   UNL     1      -9.745  -1.469 -13.089  1.00  0.00     0.091 A 
ATOM     64  F   UNL     1     -10.252  -0.051 -11.237  1.00  0.00    -0.205 F 
ATOM     65  C   UNL     1      -9.633  -2.766 -13.615  1.00  0.00     0.022 A 
BRANCH  63  66
ATOM     66  S   UNL     1      -9.370  -0.106 -14.198  1.00  0.00     0.127 S 
ATOM     67  O   UNL     1      -7.914  -0.196 -14.294  1.00  0.00    -0.237 OA
ATOM     68  O   UNL     1     -10.085  -0.491 -15.415  1.00  0.00    -0.237 OA
ATOM     69  O   UNL     1      -9.881   1.093 -13.548  1.00  0.00    -0.744 OA
ENDBRANCH  63  66
ENDBRANCH  45  59
BRANCH  46  70
ATOM     70  C   UNL     1     -13.829  -1.140  -1.691  1.00  0.00     0.023 A 
ATOM     71  C   UNL     1     -14.950  -1.860  -1.234  1.00  0.00     0.012 A 
ATOM     72  C   UNL     1     -13.199  -0.228  -0.823  1.00  0.00     0.148 A 
ATOM     73  C   UNL     1     -15.452  -1.653   0.051  1.00  0.00     0.002 A 
ATOM     74  C   UNL     1     -13.668  -0.068   0.475  1.00  0.00     0.091 A 
ATOM     75  F   UNL     1     -12.150   0.468  -1.285  1.00  0.00    -0.205 F 
ATOM     76  C   UNL     1     -14.805  -0.766   0.909  1.00  0.00     0.022 A 
BRANCH  74  77
ATOM     77  S   UNL     1     -12.816   0.952   1.683  1.00  0.00     0.127 S 
ATOM     78  O   UNL     1     -13.715   2.096   1.797  1.00  0.00    -0.237 OA
ATOM     79  O   UNL     1     -12.784   0.073   2.853  1.00  0.00    -0.237 OA
ATOM     80  O   UNL     1     -11.506   1.227   1.109  1.00  0.00    -0.744 OA
ENDBRANCH  74  77
ENDBRANCH  46  70
BRANCH  58  81
ATOM     81  C   UNL     1     -16.609   0.042  -7.990  1.00  0.00     0.023 A 
ATOM     82  C   UNL     1     -16.836   1.427  -7.868  1.00  0.00     0.012 A 
ATOM     83  C   UNL     1     -17.585  -0.764  -8.609  1.00  0.00     0.148 A 
ATOM     84  C   UNL     1     -18.026   1.996  -8.325  1.00  0.00     0.002 A 
ATOM     85  C   UNL     1     -18.749  -0.184  -9.104  1.00  0.00     0.091 A 
ATOM     86  F   UNL     1     -17.361  -2.083  -8.704  1.00  0.00    -0.205 F 
ATOM     87  C   UNL     1     -18.975   1.193  -8.952  1.00  0.00     0.022 A 
BRANCH  85  88
ATOM     88  S   UNL     1     -19.988  -1.122 -10.007  1.00  0.00     0.127 S 
ATOM     89  O   UNL     1     -21.073  -1.200  -9.030  1.00  0.00    -0.237 OA
ATOM     90  O   UNL     1     -20.261  -0.255 -11.153  1.00  0.00    -0.237 OA
ATOM     91  O   UNL     1     -19.360  -2.392 -10.347  1.00  0.00    -0.744 OA
ENDBRANCH  85  88
ENDBRANCH  58  81
ENDBRANCH  32  33
ENDBRANCH  25  27
ENDBRANCH  24  25
ENDBRANCH  23  24
ENDBRANCH  22  23
ENDBRANCH  21  22
ENDBRANCH   1  21
TORSDOF 23
