REMARK SMILES O=C(OCCOCCOC(=O)c1ccn(-c2cc(-c3ccncc3)nc(-c3ccccc3F)n2)n1)c1ccc(-c2c3nc(c(-c4cccc(S(=O)(=O)[O-])c4F)c4ccc([nH]4)c(-c4cccc(S(=O)(=O)[O-])c4F)c4nc(c(-c5cccc(S(=O)(=O)[O-])c5F)c5ccc2[nH]5)C=C4)C=C3)cc1
REMARK SMILES IDX 5 1 4 2 3 3 2 4 1 5 36 6 37 7 98 8 38 9 97 10 39 11 40 12
REMARK SMILES IDX 41 13 91 14 42 15 96 16 90 17 92 18 43 19 95 20 89 21 88 22
REMARK SMILES IDX 44 24 76 25 56 26 75 27 57 28 60 29 74 30 93 31 58 32 59 33
REMARK SMILES IDX 73 35 94 36 61 37 45 38 46 39 54 40 47 41 49 42 55 43 48 44
REMARK SMILES IDX 50 45 51 46 52 47 53 48 77 49 78 50 86 51 79 52 81 53 87 54
REMARK SMILES IDX 80 55 82 56 83 57 84 58 85 59 62 60 63 61 71 62 64 63 66 64
REMARK SMILES IDX 72 65 65 66 67 67 68 68 69 69 70 70 6 71 7 72 8 73 9 74
REMARK SMILES IDX 10 75 11 76 12 77 13 78 35 79 14 80 15 81 16 82 17 83 34 84
REMARK SMILES IDX 18 85 26 86 25 87 19 88 20 89 24 90 21 91 23 92 22 93 27 94
REMARK SMILES IDX 28 95 32 96 29 97 31 98 33 99 30 100
REMARK H PARENT 92 23 60 34
REMARK Flexibility Score: inf
ROOT
ATOM      1  C   UNL     1       4.743   0.095  -1.125  1.00  0.00     0.202 C 
ENDROOT
BRANCH   1   2
ATOM      2  C   UNL     1       4.641  -1.266  -0.449  1.00  0.00     0.261 C 
BRANCH   2   3
ATOM      3  O   UNL     1       3.312  -1.830  -0.384  1.00  0.00    -0.460 OA
BRANCH   3   4
ATOM      4  C   UNL     1       2.224  -1.062  -0.139  1.00  0.00     0.338 C 
ATOM      5  O   UNL     1       1.325  -0.927  -0.961  1.00  0.00    -0.246 OA
BRANCH   4   6
ATOM      6  C   UNL     1       2.048  -0.679   1.286  1.00  0.00     0.060 A 
ATOM      7  C   UNL     1       3.103  -0.693   2.196  1.00  0.00     0.016 A 
ATOM      8  C   UNL     1       0.744  -0.429   1.740  1.00  0.00     0.016 A 
ATOM      9  C   UNL     1       2.851  -0.707   3.546  1.00  0.00     0.010 A 
ATOM     10  C   UNL     1       0.488  -0.388   3.103  1.00  0.00     0.010 A 
ATOM     11  C   UNL     1       1.536  -0.631   3.988  1.00  0.00    -0.014 A 
BRANCH  11  12
ATOM     12  C   UNL     1       1.351  -0.829   5.413  1.00  0.00     0.031 A 
ATOM     13  C   UNL     1       2.028   0.169   6.280  1.00  0.00     0.074 A 
ATOM     14  C   UNL     1       0.626  -1.855   5.893  1.00  0.00     0.049 A 
ATOM     15  N   UNL     1       2.946  -0.030   7.171  1.00  0.00    -0.248 NA
ATOM     16  C   UNL     1       1.729   1.584   6.018  1.00  0.00     0.031 C 
ATOM     17  C   UNL     1      -0.270  -2.744   5.149  1.00  0.00     0.029 A 
ATOM     18  N   UNL     1       0.423  -2.216   7.189  1.00  0.00    -0.354 N 
ATOM     19  C   UNL     1       3.189   1.222   7.730  1.00  0.00     0.074 A 
ATOM     20  C   UNL     1       2.537   2.190   6.886  1.00  0.00     0.031 C 
ATOM     21  C   UNL     1      -1.123  -3.326   6.018  1.00  0.00     0.029 A 
ATOM     22  C   UNL     1      -0.737  -2.956   7.368  1.00  0.00     0.049 A 
ATOM     23  H   UNL     1       1.035  -1.976   7.922  1.00  0.00     0.167 HD
ATOM     24  C   UNL     1       3.719   1.378   8.972  1.00  0.00     0.034 A 
ATOM     25  C   UNL     1      -1.393  -3.130   8.538  1.00  0.00     0.034 A 
ATOM     26  C   UNL     1       4.395   0.205   9.441  1.00  0.00     0.049 A 
ATOM     27  C   UNL     1      -0.439  -2.843   9.634  1.00  0.00     0.074 A 
ATOM     28  C   UNL     1       5.481  -0.530   9.012  1.00  0.00     0.029 A 
ATOM     29  N   UNL     1       3.738  -0.583  10.351  1.00  0.00    -0.354 N 
ATOM     30  N   UNL     1       0.603  -3.578   9.906  1.00  0.00    -0.248 NA
ATOM     31  C   UNL     1      -0.427  -1.505  10.204  1.00  0.00     0.031 C 
ATOM     32  C   UNL     1       5.160  -1.881   9.330  1.00  0.00     0.029 A 
ATOM     33  C   UNL     1       3.913  -1.884   9.959  1.00  0.00     0.049 A 
ATOM     34  H   UNL     1       3.235  -0.273  11.138  1.00  0.00     0.167 HD
ATOM     35  C   UNL     1       1.577  -2.670  10.302  1.00  0.00     0.074 A 
ATOM     36  C   UNL     1       0.850  -1.436  10.586  1.00  0.00     0.031 C 
ATOM     37  C   UNL     1       2.904  -2.915  10.089  1.00  0.00     0.034 A 
BRANCH  24  38
ATOM     38  C   UNL     1       3.350   2.517   9.881  1.00  0.00     0.023 A 
ATOM     39  C   UNL     1       4.166   2.789  10.996  1.00  0.00     0.012 A 
ATOM     40  C   UNL     1       2.107   3.187   9.810  1.00  0.00     0.148 A 
ATOM     41  C   UNL     1       3.765   3.694  11.987  1.00  0.00     0.002 A 
ATOM     42  C   UNL     1       1.760   4.158  10.739  1.00  0.00     0.091 A 
ATOM     43  F   UNL     1       1.190   2.796   8.917  1.00  0.00    -0.205 F 
ATOM     44  C   UNL     1       2.573   4.398  11.846  1.00  0.00     0.022 A 
BRANCH  42  45
ATOM     45  S   UNL     1       0.281   5.152  10.522  1.00  0.00     0.127 S 
ATOM     46  O   UNL     1      -0.649   4.505  11.441  1.00  0.00    -0.237 OA
ATOM     47  O   UNL     1       0.744   6.477  10.938  1.00  0.00    -0.237 OA
ATOM     48  O   UNL     1      -0.033   5.056   9.102  1.00  0.00    -0.744 OA
ENDBRANCH  42  45
ENDBRANCH  24  38
BRANCH  25  49
ATOM     49  C   UNL     1      -2.855  -3.197   8.763  1.00  0.00     0.023 A 
ATOM     50  C   UNL     1      -3.339  -3.728   9.973  1.00  0.00     0.012 A 
ATOM     51  C   UNL     1      -3.761  -2.499   7.930  1.00  0.00     0.148 A 
ATOM     52  C   UNL     1      -4.670  -3.541  10.360  1.00  0.00     0.002 A 
ATOM     53  C   UNL     1      -5.087  -2.328   8.312  1.00  0.00     0.091 A 
ATOM     54  F   UNL     1      -3.304  -1.918   6.814  1.00  0.00    -0.205 F 
ATOM     55  C   UNL     1      -5.542  -2.836   9.534  1.00  0.00     0.022 A 
BRANCH  53  56
ATOM     56  S   UNL     1      -6.260  -1.411   7.303  1.00  0.00     0.127 S 
ATOM     57  O   UNL     1      -7.431  -2.290   7.325  1.00  0.00    -0.237 OA
ATOM     58  O   UNL     1      -6.409  -0.174   8.063  1.00  0.00    -0.237 OA
ATOM     59  O   UNL     1      -5.638  -1.281   5.991  1.00  0.00    -0.744 OA
ENDBRANCH  53  56
ENDBRANCH  25  49
BRANCH  37  60
ATOM     60  C   UNL     1       3.316  -4.298   9.643  1.00  0.00     0.023 A 
ATOM     61  C   UNL     1       2.883  -4.843   8.415  1.00  0.00     0.012 A 
ATOM     62  C   UNL     1       4.322  -4.968  10.362  1.00  0.00     0.148 A 
ATOM     63  C   UNL     1       3.426  -6.033   7.925  1.00  0.00     0.002 A 
ATOM     64  C   UNL     1       4.899  -6.122   9.845  1.00  0.00     0.091 A 
ATOM     65  F   UNL     1       4.729  -4.438  11.526  1.00  0.00    -0.205 F 
ATOM     66  C   UNL     1       4.447  -6.664   8.632  1.00  0.00     0.022 A 
BRANCH  64  67
ATOM     67  S   UNL     1       6.320  -6.893  10.627  1.00  0.00     0.127 S 
ATOM     68  O   UNL     1       5.722  -8.061  11.269  1.00  0.00    -0.237 OA
ATOM     69  O   UNL     1       7.183  -7.199   9.483  1.00  0.00    -0.237 OA
ATOM     70  O   UNL     1       6.870  -5.891  11.531  1.00  0.00    -0.744 OA
ENDBRANCH  64  67
ENDBRANCH  37  60
ENDBRANCH  11  12
ENDBRANCH   4   6
ENDBRANCH   3   4
ENDBRANCH   2   3
ENDBRANCH   1   2
BRANCH   1  71
ATOM     71  O   UNL     1       4.213   1.218  -0.431  1.00  0.00    -0.374 OA
BRANCH  71  72
ATOM     72  C   UNL     1       3.087   1.880  -1.033  1.00  0.00     0.202 C 
BRANCH  72  73
ATOM     73  C   UNL     1       3.209   2.412  -2.474  1.00  0.00     0.261 C 
BRANCH  73  74
ATOM     74  O   UNL     1       3.344   1.352  -3.443  1.00  0.00    -0.458 OA
BRANCH  74  75
ATOM     75  C   UNL     1       4.562   1.260  -4.060  1.00  0.00     0.358 C 
ATOM     76  O   UNL     1       5.422   2.127  -4.038  1.00  0.00    -0.244 OA
BRANCH  75  77
ATOM     77  C   UNL     1       4.771  -0.042  -4.714  1.00  0.00     0.170 A 
ATOM     78  C   UNL     1       4.513  -0.343  -6.070  1.00  0.00     0.058 A 
ATOM     79  N   UNL     1       5.344  -1.095  -4.082  1.00  0.00    -0.159 NA
ATOM     80  C   UNL     1       5.126  -1.551  -6.286  1.00  0.00     0.118 A 
ATOM     81  N   UNL     1       5.639  -1.966  -5.078  1.00  0.00    -0.222 N 
BRANCH  81  82
ATOM     82  C   UNL     1       6.481  -3.097  -4.889  1.00  0.00     0.158 A 
ATOM     83  C   UNL     1       6.348  -3.876  -3.756  1.00  0.00     0.078 A 
ATOM     84  N   UNL     1       7.366  -3.368  -5.876  1.00  0.00    -0.209 NA
ATOM     85  C   UNL     1       7.145  -5.008  -3.714  1.00  0.00     0.077 A 
ATOM     86  C   UNL     1       8.175  -4.418  -5.677  1.00  0.00     0.165 A 
ATOM     87  N   UNL     1       8.098  -5.261  -4.639  1.00  0.00    -0.228 NA
BRANCH  85  88
ATOM     88  C   UNL     1       6.953  -6.080  -2.728  1.00  0.00     0.003 A 
ATOM     89  C   UNL     1       5.753  -6.804  -2.683  1.00  0.00     0.030 A 
ATOM     90  C   UNL     1       7.980  -6.468  -1.861  1.00  0.00     0.030 A 
ATOM     91  C   UNL     1       5.635  -7.860  -1.793  1.00  0.00     0.111 A 
ATOM     92  C   UNL     1       7.763  -7.532  -0.997  1.00  0.00     0.111 A 
ATOM     93  N   UNL     1       6.615  -8.240  -0.950  1.00  0.00    -0.265 NA
ENDBRANCH  85  88
BRANCH  86  94
ATOM     94  C   UNL     1       9.284  -4.570  -6.607  1.00  0.00     0.055 A 
ATOM     95  C   UNL     1      10.334  -3.633  -6.630  1.00  0.00     0.015 A 
ATOM     96  C   UNL     1       9.329  -5.625  -7.520  1.00  0.00     0.134 A 
ATOM     97  C   UNL     1      11.389  -3.754  -7.540  1.00  0.00     0.001 A 
ATOM     98  C   UNL     1      10.374  -5.750  -8.436  1.00  0.00     0.040 A 
ATOM     99  F   UNL     1       8.341  -6.533  -7.558  1.00  0.00    -0.206 F 
ATOM    100  C   UNL     1      11.406  -4.812  -8.446  1.00  0.00     0.003 A 
ENDBRANCH  86  94
ENDBRANCH  81  82
ENDBRANCH  75  77
ENDBRANCH  74  75
ENDBRANCH  73  74
ENDBRANCH  72  73
ENDBRANCH  71  72
ENDBRANCH   1  71
TORSDOF 20
