REMARK SMILES CC1=Nc2c(c(C)nn2-c2ccc(F)cc2)[C@H](c2ccc(C(=O)OCCOCCOC(=O)c3ccc(-c4c5nc(c(-c6cccc(S(=O)(=O)[O-])c6F)c6ccc([nH]6)c(-c6cccc(S(=O)(=O)[O-])c6F)c6nc(c(-c7cccc(S(=O)(=O)[O-])c7F)c7ccc4[nH]7)C=C6)C=C5)cc3)cc2)S1
REMARK SMILES IDX 28 1 27 2 26 3 25 4 24 5 22 6 23 7 21 8 18 9 19 10 97 11
REMARK SMILES IDX 20 12 96 13 17 14 1 15 2 16 3 17 98 18 4 19 5 20 9 21 6 22
REMARK SMILES IDX 8 23 7 24 10 25 11 26 16 27 12 28 15 29 13 30 14 31 29 32
REMARK SMILES IDX 30 33 31 34 32 35 33 36 34 37 95 38 35 39 94 40 36 41 37 42
REMARK SMILES IDX 38 43 88 44 39 45 93 46 87 47 89 48 40 49 92 50 86 51 85 52
REMARK SMILES IDX 41 54 73 55 53 56 72 57 54 58 57 59 71 60 90 61 55 62 56 63
REMARK SMILES IDX 70 65 91 66 58 67 42 68 43 69 51 70 44 71 46 72 52 73 45 74
REMARK SMILES IDX 47 75 48 76 49 77 50 78 74 79 75 80 83 81 76 82 78 83 84 84
REMARK SMILES IDX 77 85 79 86 80 87 81 88 82 89 59 90 60 91 68 92 61 93 63 94
REMARK SMILES IDX 69 95 62 96 64 97 65 98 66 99 67 100
REMARK H PARENT 89 53 57 64
REMARK Flexibility Score: inf
ROOT
ATOM      1  C   UNL     1       6.271  -6.402   4.473  1.00  0.00     0.202 C 
ENDROOT
BRANCH   1   2
ATOM      2  O   UNL     1       7.563  -6.901   4.145  1.00  0.00    -0.374 OA
BRANCH   2   3
ATOM      3  C   UNL     1       8.459  -6.102   3.371  1.00  0.00     0.202 C 
BRANCH   3   4
ATOM      4  C   UNL     1       8.133  -5.863   1.897  1.00  0.00     0.261 C 
BRANCH   4   5
ATOM      5  O   UNL     1       6.875  -5.197   1.705  1.00  0.00    -0.460 OA
BRANCH   5   6
ATOM      6  C   UNL     1       5.905  -5.995   1.198  1.00  0.00     0.338 C 
ATOM      7  O   UNL     1       6.033  -7.155   0.835  1.00  0.00    -0.246 OA
BRANCH   6   8
ATOM      8  C   UNL     1       4.575  -5.348   1.266  1.00  0.00     0.060 A 
ATOM      9  C   UNL     1       1.938  -4.358   1.067  1.00  0.00    -0.030 A 
ATOM     10  C   UNL     1       2.187  -5.711   1.353  1.00  0.00     0.006 A 
ATOM     11  C   UNL     1       3.049  -3.490   1.002  1.00  0.00     0.006 A 
ATOM     12  C   UNL     1       3.485  -6.199   1.461  1.00  0.00     0.016 A 
ATOM     13  C   UNL     1       4.363  -3.982   1.087  1.00  0.00     0.016 A 
BRANCH   9  14
ATOM     14  C   UNL     1       0.506  -3.950   0.734  1.00  0.00     0.119 C 
ATOM     15  C   UNL     1       0.781   0.051  -0.114  1.00  0.00     0.075 C 
ATOM     16  C   UNL     1       0.249  -1.213   0.504  1.00  0.00     0.074 C 
ATOM     17  N   UNL     1      -0.227  -1.163   1.707  1.00  0.00    -0.227 NA
ATOM     18  S   UNL     1       0.362  -2.639  -0.523  1.00  0.00    -0.098 SA
ATOM     19  C   UNL     1      -0.566  -2.325   2.315  1.00  0.00     0.161 A 
ATOM     20  C   UNL     1      -0.213  -3.614   1.983  1.00  0.00     0.038 A 
ATOM     21  N   UNL     1      -1.281  -2.402   3.499  1.00  0.00    -0.215 N 
ATOM     22  C   UNL     1      -0.760  -4.416   3.020  1.00  0.00     0.067 A 
ATOM     23  N   UNL     1      -1.319  -3.673   3.981  1.00  0.00    -0.171 NA
ATOM     24  C   UNL     1      -0.778  -5.894   3.157  1.00  0.00     0.069 C 
BRANCH  21  25
ATOM     25  C   UNL     1      -1.986  -1.364   4.153  1.00  0.00     0.067 A 
ATOM     26  C   UNL     1      -2.712  -0.427   3.403  1.00  0.00     0.031 A 
ATOM     27  C   UNL     1      -1.944  -1.281   5.550  1.00  0.00     0.031 A 
ATOM     28  C   UNL     1      -3.397   0.595   4.058  1.00  0.00     0.041 A 
ATOM     29  C   UNL     1      -2.585  -0.220   6.191  1.00  0.00     0.041 A 
ATOM     30  C   UNL     1      -3.315   0.699   5.442  1.00  0.00     0.123 A 
ATOM     31  F   UNL     1      -3.962   1.693   6.063  1.00  0.00    -0.207 F 
ENDBRANCH  21  25
ENDBRANCH   9  14
ENDBRANCH   6   8
ENDBRANCH   5   6
ENDBRANCH   4   5
ENDBRANCH   3   4
ENDBRANCH   2   3
ENDBRANCH   1   2
BRANCH   1  32
ATOM     32  C   UNL     1       6.153  -5.219   5.421  1.00  0.00     0.261 C 
BRANCH  32  33
ATOM     33  O   UNL     1       6.864  -4.081   4.966  1.00  0.00    -0.460 OA
BRANCH  33  34
ATOM     34  C   UNL     1       8.029  -3.888   5.628  1.00  0.00     0.338 C 
ATOM     35  O   UNL     1       8.683  -4.721   6.227  1.00  0.00    -0.246 OA
BRANCH  34  36
ATOM     36  C   UNL     1       8.302  -2.452   5.676  1.00  0.00     0.060 A 
ATOM     37  C   UNL     1       9.467  -2.070   6.342  1.00  0.00     0.016 A 
ATOM     38  C   UNL     1       7.270  -1.550   5.379  1.00  0.00     0.016 A 
ATOM     39  C   UNL     1       9.502  -0.819   6.909  1.00  0.00     0.010 A 
ATOM     40  C   UNL     1       7.293  -0.315   5.973  1.00  0.00     0.010 A 
ATOM     41  C   UNL     1       8.374   0.002   6.789  1.00  0.00    -0.014 A 
BRANCH  41  42
ATOM     42  C   UNL     1       8.429   1.315   7.387  1.00  0.00     0.031 A 
ATOM     43  C   UNL     1       9.296   2.211   6.590  1.00  0.00     0.074 A 
ATOM     44  C   UNL     1       7.691   1.649   8.462  1.00  0.00     0.049 A 
ATOM     45  N   UNL     1      10.474   2.638   6.901  1.00  0.00    -0.248 NA
ATOM     46  C   UNL     1       8.929   2.443   5.180  1.00  0.00     0.031 C 
ATOM     47  C   UNL     1       6.618   0.871   9.092  1.00  0.00     0.029 A 
ATOM     48  N   UNL     1       7.652   2.824   9.144  1.00  0.00    -0.354 N 
ATOM     49  C   UNL     1      10.857   3.430   5.822  1.00  0.00     0.074 A 
ATOM     50  C   UNL     1      10.025   3.045   4.720  1.00  0.00     0.031 C 
ATOM     51  C   UNL     1       5.880   1.688   9.879  1.00  0.00     0.029 A 
ATOM     52  C   UNL     1       6.501   3.000   9.912  1.00  0.00     0.049 A 
ATOM     53  H   UNL     1       8.373   3.492   9.100  1.00  0.00     0.167 HD
ATOM     54  C   UNL     1      11.569   4.569   6.028  1.00  0.00     0.034 A 
ATOM     55  C   UNL     1       6.074   4.172  10.450  1.00  0.00     0.034 A 
ATOM     56  C   UNL     1      12.170   4.559   7.338  1.00  0.00     0.049 A 
ATOM     57  C   UNL     1       7.243   5.077  10.473  1.00  0.00     0.074 A 
ATOM     58  C   UNL     1      13.105   3.784   7.989  1.00  0.00     0.029 A 
ATOM     59  N   UNL     1      11.455   5.225   8.302  1.00  0.00    -0.354 N 
ATOM     60  N   UNL     1       8.286   4.894  11.229  1.00  0.00    -0.248 NA
ATOM     61  C   UNL     1       7.424   5.994   9.358  1.00  0.00     0.031 C 
ATOM     62  C   UNL     1      12.684   3.751   9.350  1.00  0.00     0.029 A 
ATOM     63  C   UNL     1      11.553   4.560   9.491  1.00  0.00     0.049 A 
ATOM     64  H   UNL     1      10.948   6.056   8.158  1.00  0.00     0.167 HD
ATOM     65  C   UNL     1       9.351   5.282  10.431  1.00  0.00     0.074 A 
ATOM     66  C   UNL     1       8.756   6.089   9.368  1.00  0.00     0.031 C 
ATOM     67  C   UNL     1      10.555   4.651  10.537  1.00  0.00     0.034 A 
BRANCH  54  68
ATOM     68  C   UNL     1      11.344   5.867   5.274  1.00  0.00     0.023 A 
ATOM     69  C   UNL     1      12.199   6.944   5.596  1.00  0.00     0.012 A 
ATOM     70  C   UNL     1      10.206   6.178   4.489  1.00  0.00     0.148 A 
ATOM     71  C   UNL     1      11.915   8.256   5.201  1.00  0.00     0.002 A 
ATOM     72  C   UNL     1       9.973   7.468   4.026  1.00  0.00     0.091 A 
ATOM     73  F   UNL     1       9.252   5.269   4.285  1.00  0.00    -0.205 F 
ATOM     74  C   UNL     1      10.806   8.518   4.406  1.00  0.00     0.022 A 
BRANCH  72  75
ATOM     75  S   UNL     1       8.582   7.847   2.948  1.00  0.00     0.127 S 
ATOM     76  O   UNL     1       7.744   8.661   3.823  1.00  0.00    -0.237 OA
ATOM     77  O   UNL     1       9.242   8.576   1.864  1.00  0.00    -0.237 OA
ATOM     78  O   UNL     1       8.024   6.561   2.548  1.00  0.00    -0.744 OA
ENDBRANCH  72  75
ENDBRANCH  54  68
BRANCH  55  79
ATOM     79  C   UNL     1       4.710   4.717  10.677  1.00  0.00     0.023 A 
ATOM     80  C   UNL     1       4.564   5.869  11.484  1.00  0.00     0.012 A 
ATOM     81  C   UNL     1       3.633   4.353   9.843  1.00  0.00     0.148 A 
ATOM     82  C   UNL     1       3.420   6.673  11.405  1.00  0.00     0.002 A 
ATOM     83  C   UNL     1       2.500   5.160   9.762  1.00  0.00     0.091 A 
ATOM     84  F   UNL     1       3.762   3.279   9.055  1.00  0.00    -0.205 F 
ATOM     85  C   UNL     1       2.397   6.329  10.529  1.00  0.00     0.022 A 
BRANCH  83  86
ATOM     86  S   UNL     1       1.165   4.822   8.606  1.00  0.00     0.127 S 
ATOM     87  O   UNL     1      -0.015   4.961   9.460  1.00  0.00    -0.237 OA
ATOM     88  O   UNL     1       1.343   5.889   7.626  1.00  0.00    -0.237 OA
ATOM     89  O   UNL     1       1.399   3.469   8.119  1.00  0.00    -0.744 OA
ENDBRANCH  83  86
ENDBRANCH  55  79
BRANCH  67  90
ATOM     90  C   UNL     1      10.805   3.814  11.764  1.00  0.00     0.023 A 
ATOM     91  C   UNL     1      10.114   2.616  12.041  1.00  0.00     0.012 A 
ATOM     92  C   UNL     1      11.908   4.165  12.559  1.00  0.00     0.148 A 
ATOM     93  C   UNL     1      10.523   1.788  13.093  1.00  0.00     0.002 A 
ATOM     94  C   UNL     1      12.348   3.311  13.558  1.00  0.00     0.091 A 
ATOM     95  F   UNL     1      12.537   5.319  12.288  1.00  0.00    -0.205 F 
ATOM     96  C   UNL     1      11.653   2.125  13.837  1.00  0.00     0.022 A 
BRANCH  94  97
ATOM     97  S   UNL     1      13.884   3.619  14.430  1.00  0.00     0.127 S 
ATOM     98  O   UNL     1      13.409   4.042  15.746  1.00  0.00    -0.237 OA
ATOM     99  O   UNL     1      14.528   2.305  14.402  1.00  0.00    -0.237 OA
ATOM    100  O   UNL     1      14.586   4.639  13.660  1.00  0.00    -0.744 OA
ENDBRANCH  94  97
ENDBRANCH  67  90
ENDBRANCH  41  42
ENDBRANCH  34  36
ENDBRANCH  33  34
ENDBRANCH  32  33
ENDBRANCH   1  32
TORSDOF 19
