REMARK SMILES CC(C)n1c([C@H](O)CC(=O)OCCOCCOC(=O)c2ccc(-c3c4nc(c(-c5cccc(S(=O)(=O)[O-])c5F)c5ccc([nH]5)c(-c5cccc(S(=O)(=O)[O-])c5F)c5nc(c(-c6cccc(S(=O)(=O)[O-])c6F)c6ccc3[nH]6)C=C5)C=C4)cc2)nc2cc(Cl)ccc21
REMARK SMILES IDX 14 1 13 2 12 3 11 4 9 5 10 6 8 7 6 8 5 9 4 10 90 11 83 12
REMARK SMILES IDX 84 13 89 14 85 15 88 16 86 17 87 18 2 19 1 20 3 21 7 22
REMARK SMILES IDX 15 24 16 25 17 26 18 27 19 28 20 29 21 30 82 31 22 32 81 33
REMARK SMILES IDX 23 34 24 35 25 36 75 37 26 38 80 39 74 40 76 41 27 42 79 43
REMARK SMILES IDX 73 44 72 45 28 47 60 48 40 49 59 50 41 51 44 52 58 53 77 54
REMARK SMILES IDX 42 55 43 56 57 58 78 59 45 60 29 61 30 62 38 63 31 64 33 65
REMARK SMILES IDX 39 66 32 67 34 68 35 69 36 70 37 71 61 72 62 73 70 74 63 75
REMARK SMILES IDX 65 76 71 77 64 78 66 79 67 80 68 81 69 82 46 83 47 84 55 85
REMARK SMILES IDX 48 86 50 87 56 88 49 89 51 90 52 91 53 92 54 93
REMARK H PARENT 7 23 76 46 44 57
REMARK Flexibility Score: inf
ROOT
ATOM      1  O   UNL     1       1.372   4.656  -1.969  1.00  0.00    -0.374 OA
ENDROOT
BRANCH   1   2
ATOM      2  C   UNL     1       0.620   5.402  -1.013  1.00  0.00     0.202 C 
BRANCH   2   3
ATOM      3  C   UNL     1      -0.894   5.198  -1.053  1.00  0.00     0.261 C 
BRANCH   3   4
ATOM      4  O   UNL     1      -1.259   3.816  -0.957  1.00  0.00    -0.463 OA
BRANCH   4   5
ATOM      5  C   UNL     1      -2.365   3.529  -1.662  1.00  0.00     0.308 C 
ATOM      6  O   UNL     1      -3.090   4.362  -2.203  1.00  0.00    -0.252 OA
BRANCH   5   7
ATOM      7  C   UNL     1      -2.551   2.092  -1.996  1.00  0.00     0.162 C 
BRANCH   7   8
ATOM      8  C   UNL     1      -1.810   0.898  -1.470  1.00  0.00     0.191 C 
BRANCH   8   9
ATOM      9  C   UNL     1      -2.324  -0.377  -2.153  1.00  0.00     0.139 A 
ATOM     10  N   UNL     1      -2.920  -0.514  -3.410  1.00  0.00    -0.323 N 
ATOM     11  C   UNL     1      -3.600  -1.726  -3.398  1.00  0.00     0.069 A 
ATOM     12  N   UNL     1      -2.364  -1.536  -1.506  1.00  0.00    -0.230 NA
ATOM     13  C   UNL     1      -3.169  -2.362  -2.242  1.00  0.00     0.090 A 
ATOM     14  C   UNL     1      -4.501  -2.319  -4.294  1.00  0.00     0.030 A 
ATOM     15  C   UNL     1      -3.595  -3.671  -1.970  1.00  0.00     0.051 A 
ATOM     16  C   UNL     1      -4.939  -3.612  -4.001  1.00  0.00     0.023 A 
ATOM     17  C   UNL     1      -4.481  -4.279  -2.865  1.00  0.00     0.043 A 
ATOM     18  Cl  UNL     1      -5.028  -5.884  -2.560  1.00  0.00    -0.084 Cl
BRANCH  10  19
ATOM     19  C   UNL     1      -2.783   0.262  -4.651  1.00  0.00     0.083 C 
ATOM     20  C   UNL     1      -3.638   1.533  -4.785  1.00  0.00     0.031 C 
ATOM     21  C   UNL     1      -1.325   0.442  -5.079  1.00  0.00     0.031 C 
ENDBRANCH  10  19
ENDBRANCH   8   9
BRANCH   8  22
ATOM     22  O   UNL     1      -2.088   0.733  -0.077  1.00  0.00    -0.385 OA
ATOM     23  H   UNL     1      -3.040   0.597   0.049  1.00  0.00     0.211 HD
ENDBRANCH   8  22
ENDBRANCH   7   8
ENDBRANCH   5   7
ENDBRANCH   4   5
ENDBRANCH   3   4
ENDBRANCH   2   3
ENDBRANCH   1   2
BRANCH   1  24
ATOM     24  C   UNL     1       1.420   3.236  -1.795  1.00  0.00     0.202 C 
BRANCH  24  25
ATOM     25  C   UNL     1       1.943   2.705  -0.447  1.00  0.00     0.261 C 
BRANCH  25  26
ATOM     26  O   UNL     1       0.974   2.896   0.595  1.00  0.00    -0.460 OA
BRANCH  26  27
ATOM     27  C   UNL     1       1.478   3.213   1.817  1.00  0.00     0.338 C 
ATOM     28  O   UNL     1       2.598   2.970   2.238  1.00  0.00    -0.246 OA
BRANCH  27  29
ATOM     29  C   UNL     1       0.570   4.246   2.352  1.00  0.00     0.060 A 
ATOM     30  C   UNL     1      -0.808   4.023   2.405  1.00  0.00     0.016 A 
ATOM     31  C   UNL     1       1.103   5.540   2.460  1.00  0.00     0.016 A 
ATOM     32  C   UNL     1      -1.661   5.120   2.461  1.00  0.00     0.010 A 
ATOM     33  C   UNL     1       0.246   6.634   2.454  1.00  0.00     0.010 A 
ATOM     34  C   UNL     1      -1.134   6.422   2.412  1.00  0.00    -0.014 A 
BRANCH  34  35
ATOM     35  C   UNL     1      -2.069   7.546   2.456  1.00  0.00     0.031 A 
ATOM     36  C   UNL     1      -2.622   7.795   3.811  1.00  0.00     0.074 A 
ATOM     37  C   UNL     1      -2.337   8.401   1.447  1.00  0.00     0.049 A 
ATOM     38  N   UNL     1      -3.852   7.717   4.205  1.00  0.00    -0.248 NA
ATOM     39  C   UNL     1      -1.649   8.057   4.882  1.00  0.00     0.031 C 
ATOM     40  C   UNL     1      -1.653   8.526   0.161  1.00  0.00     0.029 A 
ATOM     41  N   UNL     1      -3.227   9.441   1.422  1.00  0.00    -0.354 N 
ATOM     42  C   UNL     1      -3.828   8.098   5.543  1.00  0.00     0.074 A 
ATOM     43  C   UNL     1      -2.444   8.146   5.945  1.00  0.00     0.031 C 
ATOM     44  C   UNL     1      -2.015   9.684  -0.432  1.00  0.00     0.029 A 
ATOM     45  C   UNL     1      -2.993  10.357   0.400  1.00  0.00     0.049 A 
ATOM     46  H   UNL     1      -3.965   9.533   2.068  1.00  0.00     0.167 HD
ATOM     47  C   UNL     1      -4.920   8.559   6.205  1.00  0.00     0.034 A 
ATOM     48  C   UNL     1      -3.482  11.620   0.311  1.00  0.00     0.034 A 
ATOM     49  C   UNL     1      -6.151   8.311   5.521  1.00  0.00     0.049 A 
ATOM     50  C   UNL     1      -4.665  11.697   1.197  1.00  0.00     0.074 A 
ATOM     51  C   UNL     1      -6.832   7.185   5.107  1.00  0.00     0.029 A 
ATOM     52  N   UNL     1      -6.716   9.366   4.848  1.00  0.00    -0.354 N 
ATOM     53  N   UNL     1      -5.795  11.093   0.965  1.00  0.00    -0.248 NA
ATOM     54  C   UNL     1      -4.482  12.184   2.554  1.00  0.00     0.031 C 
ATOM     55  C   UNL     1      -7.459   7.558   3.883  1.00  0.00     0.029 A 
ATOM     56  C   UNL     1      -7.130   8.892   3.632  1.00  0.00     0.049 A 
ATOM     57  H   UNL     1      -6.806  10.290   5.178  1.00  0.00     0.167 HD
ATOM     58  C   UNL     1      -6.271  10.749   2.222  1.00  0.00     0.074 A 
ATOM     59  C   UNL     1      -5.490  11.550   3.157  1.00  0.00     0.031 C 
ATOM     60  C   UNL     1      -7.051   9.644   2.400  1.00  0.00     0.034 A 
BRANCH  47  61
ATOM     61  C   UNL     1      -4.814   9.512   7.355  1.00  0.00     0.023 A 
ATOM     62  C   UNL     1      -5.849   9.559   8.304  1.00  0.00     0.012 A 
ATOM     63  C   UNL     1      -3.816  10.511   7.418  1.00  0.00     0.148 A 
ATOM     64  C   UNL     1      -5.869  10.543   9.299  1.00  0.00     0.002 A 
ATOM     65  C   UNL     1      -3.791  11.429   8.457  1.00  0.00     0.091 A 
ATOM     66  F   UNL     1      -2.947  10.639   6.405  1.00  0.00    -0.205 F 
ATOM     67  C   UNL     1      -4.827  11.462   9.392  1.00  0.00     0.022 A 
BRANCH  65  68
ATOM     68  S   UNL     1      -2.419  12.569   8.652  1.00  0.00     0.127 S 
ATOM     69  O   UNL     1      -2.979  13.801   8.105  1.00  0.00    -0.237 OA
ATOM     70  O   UNL     1      -2.224  12.565  10.102  1.00  0.00    -0.237 OA
ATOM     71  O   UNL     1      -1.321  11.968   7.904  1.00  0.00    -0.744 OA
ENDBRANCH  65  68
ENDBRANCH  47  61
BRANCH  48  72
ATOM     72  C   UNL     1      -2.877  12.842  -0.284  1.00  0.00     0.023 A 
ATOM     73  C   UNL     1      -3.680  13.991  -0.458  1.00  0.00     0.012 A 
ATOM     74  C   UNL     1      -1.480  12.994  -0.428  1.00  0.00     0.148 A 
ATOM     75  C   UNL     1      -3.111  15.246  -0.711  1.00  0.00     0.002 A 
ATOM     76  C   UNL     1      -0.921  14.240  -0.704  1.00  0.00     0.091 A 
ATOM     77  F   UNL     1      -0.678  11.948  -0.195  1.00  0.00    -0.205 F 
ATOM     78  C   UNL     1      -1.731  15.373  -0.827  1.00  0.00     0.022 A 
BRANCH  76  79
ATOM     79  S   UNL     1       0.858  14.451  -0.865  1.00  0.00     0.127 S 
ATOM     80  O   UNL     1       0.960  15.431  -1.948  1.00  0.00    -0.237 OA
ATOM     81  O   UNL     1       1.226  14.956   0.454  1.00  0.00    -0.237 OA
ATOM     82  O   UNL     1       1.374  13.131  -1.212  1.00  0.00    -0.744 OA
ENDBRANCH  76  79
ENDBRANCH  48  72
BRANCH  60  83
ATOM     83  C   UNL     1      -7.609   8.971   1.173  1.00  0.00     0.023 A 
ATOM     84  C   UNL     1      -6.770   8.331   0.236  1.00  0.00     0.012 A 
ATOM     85  C   UNL     1      -9.001   8.820   1.059  1.00  0.00     0.148 A 
ATOM     86  C   UNL     1      -7.310   7.569  -0.802  1.00  0.00     0.002 A 
ATOM     87  C   UNL     1      -9.533   8.030   0.048  1.00  0.00     0.091 A 
ATOM     88  F   UNL     1      -9.779   9.427   1.968  1.00  0.00    -0.205 F 
ATOM     89  C   UNL     1      -8.690   7.408  -0.889  1.00  0.00     0.022 A 
BRANCH  87  90
ATOM     90  S   UNL     1     -11.290   7.681  -0.060  1.00  0.00     0.127 S 
ATOM     91  O   UNL     1     -11.678   8.425  -1.257  1.00  0.00    -0.237 OA
ATOM     92  O   UNL     1     -11.311   6.225  -0.212  1.00  0.00    -0.237 OA
ATOM     93  O   UNL     1     -11.875   8.159   1.187  1.00  0.00    -0.744 OA
ENDBRANCH  87  90
ENDBRANCH  60  83
ENDBRANCH  34  35
ENDBRANCH  27  29
ENDBRANCH  26  27
ENDBRANCH  25  26
ENDBRANCH  24  25
ENDBRANCH   1  24
TORSDOF 21
