REMARK SMILES O=C(OCCOCCOC(=O)c1ccc(S(=O)(=O)NCc2ccn[nH]2)c(F)c1)c1ccc(-c2c3nc(c(-c4cccc(S(=O)(=O)[O-])c4F)c4ccc([nH]4)c(-c4cccc(S(=O)(=O)[O-])c4F)c4nc(c(-c5cccc(S(=O)(=O)[O-])c5F)c5ccc2[nH]5)C=C4)C=C3)cc1
REMARK SMILES IDX 7 1 6 2 5 3 4 4 3 5 2 6 1 7 29 8 30 9 91 10 31 11 90 12
REMARK SMILES IDX 32 13 33 14 34 15 84 16 35 17 89 18 83 19 85 20 36 21 88 22
REMARK SMILES IDX 82 23 81 24 37 26 69 27 49 28 68 29 50 30 53 31 67 32 86 33
REMARK SMILES IDX 51 34 52 35 66 37 87 38 54 39 38 40 39 41 47 42 40 43 42 44
REMARK SMILES IDX 48 45 41 46 43 47 44 48 45 49 46 50 70 51 71 52 79 53 72 54
REMARK SMILES IDX 74 55 80 56 73 57 75 58 76 59 77 60 78 61 55 62 56 63 64 64
REMARK SMILES IDX 57 65 59 66 65 67 58 68 60 69 61 70 62 71 63 72 8 73 9 74
REMARK SMILES IDX 10 75 11 76 12 77 13 78 28 79 14 80 26 81 15 82 27 83 16 84
REMARK SMILES IDX 17 85 18 86 19 87 20 89 21 90 22 91 25 92 23 93 24 94
REMARK H PARENT 85 25 53 36 19 88 25 95
REMARK Flexibility Score: inf
ROOT
ATOM      1  C   UNL     1       2.888   0.700  -2.185  1.00  0.00     0.202 C 
ENDROOT
BRANCH   1   2
ATOM      2  O   UNL     1       4.210   0.344  -1.762  1.00  0.00    -0.374 OA
BRANCH   2   3
ATOM      3  C   UNL     1       4.402  -1.024  -1.407  1.00  0.00     0.202 C 
BRANCH   3   4
ATOM      4  C   UNL     1       4.049  -1.358   0.046  1.00  0.00     0.261 C 
BRANCH   4   5
ATOM      5  O   UNL     1       2.661  -1.076   0.296  1.00  0.00    -0.460 OA
BRANCH   5   6
ATOM      6  C   UNL     1       2.116  -0.030   0.963  1.00  0.00     0.338 C 
ATOM      7  O   UNL     1       0.894   0.004   1.097  1.00  0.00    -0.246 OA
BRANCH   6   8
ATOM      8  C   UNL     1       2.924   1.071   1.568  1.00  0.00     0.060 A 
ATOM      9  C   UNL     1       4.159   1.505   1.086  1.00  0.00     0.016 A 
ATOM     10  C   UNL     1       2.364   1.762   2.656  1.00  0.00     0.016 A 
ATOM     11  C   UNL     1       4.875   2.507   1.721  1.00  0.00     0.010 A 
ATOM     12  C   UNL     1       3.053   2.814   3.270  1.00  0.00     0.010 A 
ATOM     13  C   UNL     1       4.332   3.160   2.822  1.00  0.00    -0.014 A 
BRANCH  13  14
ATOM     14  C   UNL     1       5.199   4.113   3.538  1.00  0.00     0.031 A 
ATOM     15  C   UNL     1       5.812   3.680   4.835  1.00  0.00     0.074 A 
ATOM     16  C   UNL     1       5.543   5.269   2.942  1.00  0.00     0.049 A 
ATOM     17  N   UNL     1       6.646   4.322   5.603  1.00  0.00    -0.248 NA
ATOM     18  C   UNL     1       5.457   2.334   5.323  1.00  0.00     0.031 C 
ATOM     19  C   UNL     1       5.060   5.714   1.632  1.00  0.00     0.029 A 
ATOM     20  N   UNL     1       6.399   6.262   3.336  1.00  0.00    -0.354 N 
ATOM     21  C   UNL     1       6.883   3.482   6.682  1.00  0.00     0.074 A 
ATOM     22  C   UNL     1       6.116   2.277   6.471  1.00  0.00     0.031 C 
ATOM     23  C   UNL     1       5.645   6.882   1.322  1.00  0.00     0.029 A 
ATOM     24  C   UNL     1       6.496   7.295   2.432  1.00  0.00     0.049 A 
ATOM     25  H   UNL     1       6.898   6.239   4.184  1.00  0.00     0.167 HD
ATOM     26  C   UNL     1       7.680   3.702   7.750  1.00  0.00     0.034 A 
ATOM     27  C   UNL     1       7.179   8.454   2.512  1.00  0.00     0.034 A 
ATOM     28  C   UNL     1       8.454   4.897   7.921  1.00  0.00     0.049 A 
ATOM     29  C   UNL     1       8.012   8.696   3.742  1.00  0.00     0.074 A 
ATOM     30  C   UNL     1       9.277   5.243   8.974  1.00  0.00     0.029 A 
ATOM     31  N   UNL     1       8.496   5.942   7.009  1.00  0.00    -0.354 N 
ATOM     32  N   UNL     1       8.250   7.883   4.745  1.00  0.00    -0.248 NA
ATOM     33  C   UNL     1       8.672  10.002   3.858  1.00  0.00     0.031 C 
ATOM     34  C   UNL     1       9.798   6.513   8.710  1.00  0.00     0.029 A 
ATOM     35  C   UNL     1       9.319   6.945   7.481  1.00  0.00     0.049 A 
ATOM     36  H   UNL     1       8.011   5.965   6.152  1.00  0.00     0.167 HD
ATOM     37  C   UNL     1       9.090   8.574   5.608  1.00  0.00     0.074 A 
ATOM     38  C   UNL     1       9.347   9.861   4.992  1.00  0.00     0.031 C 
ATOM     39  C   UNL     1       9.583   8.194   6.812  1.00  0.00     0.034 A 
BRANCH  26  40
ATOM     40  C   UNL     1       7.738   2.639   8.810  1.00  0.00     0.023 A 
ATOM     41  C   UNL     1       8.486   1.466   8.590  1.00  0.00     0.012 A 
ATOM     42  C   UNL     1       7.079   2.822  10.041  1.00  0.00     0.148 A 
ATOM     43  C   UNL     1       8.561   0.480   9.573  1.00  0.00     0.002 A 
ATOM     44  C   UNL     1       7.187   1.852  11.029  1.00  0.00     0.091 A 
ATOM     45  F   UNL     1       6.354   3.936  10.216  1.00  0.00    -0.205 F 
ATOM     46  C   UNL     1       7.920   0.677  10.794  1.00  0.00     0.022 A 
BRANCH  44  47
ATOM     47  S   UNL     1       6.445   2.032  12.655  1.00  0.00     0.127 S 
ATOM     48  O   UNL     1       5.482   0.931  12.662  1.00  0.00    -0.237 OA
ATOM     49  O   UNL     1       7.596   1.842  13.537  1.00  0.00    -0.237 OA
ATOM     50  O   UNL     1       5.859   3.364  12.687  1.00  0.00    -0.744 OA
ENDBRANCH  44  47
ENDBRANCH  26  40
BRANCH  27  51
ATOM     51  C   UNL     1       7.099   9.450   1.404  1.00  0.00     0.023 A 
ATOM     52  C   UNL     1       8.245   9.745   0.640  1.00  0.00     0.012 A 
ATOM     53  C   UNL     1       5.879  10.075   1.071  1.00  0.00     0.148 A 
ATOM     54  C   UNL     1       8.179  10.651  -0.422  1.00  0.00     0.002 A 
ATOM     55  C   UNL     1       5.807  10.928  -0.024  1.00  0.00     0.091 A 
ATOM     56  F   UNL     1       4.803   9.809   1.825  1.00  0.00    -0.205 F 
ATOM     57  C   UNL     1       6.960  11.230  -0.763  1.00  0.00     0.022 A 
BRANCH  55  58
ATOM     58  S   UNL     1       4.248  11.601  -0.614  1.00  0.00     0.127 S 
ATOM     59  O   UNL     1       4.349  12.998  -0.199  1.00  0.00    -0.237 OA
ATOM     60  O   UNL     1       4.346  11.378  -2.057  1.00  0.00    -0.237 OA
ATOM     61  O   UNL     1       3.212  10.816   0.043  1.00  0.00    -0.744 OA
ENDBRANCH  55  58
ENDBRANCH  27  51
BRANCH  39  62
ATOM     62  C   UNL     1      10.446   9.175   7.556  1.00  0.00     0.023 A 
ATOM     63  C   UNL     1       9.839  10.253   8.227  1.00  0.00     0.012 A 
ATOM     64  C   UNL     1      11.822   8.931   7.725  1.00  0.00     0.148 A 
ATOM     65  C   UNL     1      10.592  11.080   9.056  1.00  0.00     0.002 A 
ATOM     66  C   UNL     1      12.556   9.728   8.592  1.00  0.00     0.091 A 
ATOM     67  F   UNL     1      12.375   7.904   7.062  1.00  0.00    -0.205 F 
ATOM     68  C   UNL     1      11.945  10.807   9.253  1.00  0.00     0.022 A 
BRANCH  66  69
ATOM     69  S   UNL     1      14.270   9.382   9.001  1.00  0.00     0.127 S 
ATOM     70  O   UNL     1      14.957  10.514   8.380  1.00  0.00    -0.237 OA
ATOM     71  O   UNL     1      14.250   9.406  10.463  1.00  0.00    -0.237 OA
ATOM     72  O   UNL     1      14.569   8.080   8.419  1.00  0.00    -0.744 OA
ENDBRANCH  66  69
ENDBRANCH  39  62
ENDBRANCH  13  14
ENDBRANCH   6   8
ENDBRANCH   5   6
ENDBRANCH   4   5
ENDBRANCH   3   4
ENDBRANCH   2   3
ENDBRANCH   1   2
BRANCH   1  73
ATOM     73  C   UNL     1       2.944   1.302  -3.590  1.00  0.00     0.261 C 
BRANCH  73  74
ATOM     74  O   UNL     1       3.446   0.295  -4.487  1.00  0.00    -0.460 OA
BRANCH  74  75
ATOM     75  C   UNL     1       4.796   0.271  -4.614  1.00  0.00     0.338 C 
ATOM     76  O   UNL     1       5.590   1.160  -4.356  1.00  0.00    -0.246 OA
BRANCH  75  77
ATOM     77  C   UNL     1       5.204  -1.116  -4.926  1.00  0.00     0.063 A 
ATOM     78  C   UNL     1       4.409  -1.952  -5.719  1.00  0.00     0.017 A 
ATOM     79  C   UNL     1       6.386  -1.605  -4.352  1.00  0.00     0.056 A 
ATOM     80  C   UNL     1       4.800  -3.273  -5.940  1.00  0.00     0.026 A 
ATOM     81  C   UNL     1       6.767  -2.925  -4.574  1.00  0.00     0.144 A 
ATOM     82  C   UNL     1       5.984  -3.756  -5.366  1.00  0.00     0.118 A 
ATOM     83  F   UNL     1       7.887  -3.376  -3.994  1.00  0.00    -0.205 F 
BRANCH  82  84
ATOM     84  S   UNL     1       6.519  -5.389  -5.755  1.00  0.00     0.243 S 
ATOM     85  O   UNL     1       5.339  -6.156  -6.088  1.00  0.00    -0.207 OA
ATOM     86  O   UNL     1       7.600  -5.247  -6.705  1.00  0.00    -0.207 OA
BRANCH  84  87
ATOM     87  N   UNL     1       7.207  -6.049  -4.376  1.00  0.00    -0.205 NA
ATOM     88  H   UNL     1       8.058  -5.515  -4.204  1.00  0.00     0.141 HD
BRANCH  87  89
ATOM     89  C   UNL     1       6.516  -6.121  -3.098  1.00  0.00     0.154 C 
BRANCH  89  90
ATOM     90  C   UNL     1       5.355  -7.027  -3.154  1.00  0.00     0.050 A 
ATOM     91  C   UNL     1       3.998  -6.785  -3.144  1.00  0.00     0.046 A 
ATOM     92  N   UNL     1       5.482  -8.388  -3.229  1.00  0.00    -0.281 N 
ATOM     93  C   UNL     1       3.403  -8.057  -3.196  1.00  0.00     0.135 A 
ATOM     94  N   UNL     1       4.306  -9.040  -3.211  1.00  0.00    -0.184 NA
ATOM     95  H   UNL     1       6.351  -8.846  -3.290  1.00  0.00     0.190 HD
ENDBRANCH  89  90
ENDBRANCH  87  89
ENDBRANCH  84  87
ENDBRANCH  82  84
ENDBRANCH  75  77
ENDBRANCH  74  75
ENDBRANCH  73  74
ENDBRANCH   1  73
TORSDOF 21
