REMARK SMILES C[C@@](O)(CNC(=O)CC1([NH3+])CCC1)C(=O)OCCOCCOC(=O)c1ccc(-c2c3nc(c(-c4cccc(S(=O)(=O)[O-])c4F)c4ccc([nH]4)c(-c4cccc(S(=O)(=O)[O-])c4F)c4nc(c(-c5cccc(S(=O)(=O)[O-])c5F)c5ccc2[nH]5)C=C4)C=C3)cc1
REMARK SMILES IDX 18 1 17 2 16 3 14 4 15 5 2 6 1 7 3 8 4 10 5 11 6 12 7 14
REMARK SMILES IDX 8 15 9 16 11 17 13 18 12 19 10 20 19 24 20 25 21 26 22 27
REMARK SMILES IDX 23 28 24 29 25 30 26 31 87 32 27 33 86 34 28 35 29 36 30 37
REMARK SMILES IDX 80 38 31 39 85 40 79 41 81 42 32 43 84 44 78 45 77 46 33 48
REMARK SMILES IDX 65 49 45 50 64 51 46 52 49 53 63 54 82 55 47 56 48 57 62 59
REMARK SMILES IDX 83 60 50 61 34 62 35 63 43 64 36 65 38 66 44 67 37 68 39 69
REMARK SMILES IDX 40 70 41 71 42 72 66 73 67 74 75 75 68 76 70 77 76 78 69 79
REMARK SMILES IDX 71 80 72 81 73 82 74 83 51 84 52 85 60 86 53 87 55 88 61 89
REMARK SMILES IDX 54 90 56 91 57 92 58 93 59 94
REMARK H PARENT 3 9 5 13 10 21 10 22 10 23 81 47 49 58
REMARK Flexibility Score: inf
ROOT
ATOM      1  C   UNL     1       1.807  -4.853   0.350  1.00  0.00     0.202 C 
ENDROOT
BRANCH   1   2
ATOM      2  C   UNL     1       2.534  -3.790   1.198  1.00  0.00     0.261 C 
BRANCH   2   3
ATOM      3  O   UNL     1       1.747  -2.609   1.486  1.00  0.00    -0.461 OA
BRANCH   3   4
ATOM      4  C   UNL     1       1.881  -1.561   0.635  1.00  0.00     0.339 C 
ATOM      5  O   UNL     1       2.666  -1.559  -0.310  1.00  0.00    -0.249 OA
BRANCH   4   6
ATOM      6  C   UNL     1       1.065  -0.301   1.034  1.00  0.00     0.176 C 
ATOM      7  C   UNL     1       1.178   0.715  -0.110  1.00  0.00     0.057 C 
BRANCH   6   8
ATOM      8  O   UNL     1       1.700   0.298   2.185  1.00  0.00    -0.377 OA
ATOM      9  H   UNL     1       1.206   1.089   2.453  1.00  0.00     0.212 HD
ENDBRANCH   6   8
BRANCH   6  10
ATOM     10  C   UNL     1      -0.426  -0.489   1.417  1.00  0.00     0.162 C 
BRANCH  10  11
ATOM     11  N   UNL     1      -1.339  -1.051   0.436  1.00  0.00    -0.352 N 
ATOM     12  C   UNL     1      -2.433  -1.847   0.623  1.00  0.00     0.226 C 
ATOM     13  H   UNL     1      -1.140  -0.824  -0.501  1.00  0.00     0.163 HD
ATOM     14  O   UNL     1      -3.128  -2.051  -0.381  1.00  0.00    -0.275 OA
BRANCH  12  15
ATOM     15  C   UNL     1      -2.867  -2.415   1.978  1.00  0.00     0.168 C 
BRANCH  15  16
ATOM     16  C   UNL     1      -1.849  -3.123   2.865  1.00  0.00     0.103 C 
ATOM     17  C   UNL     1      -1.406  -2.418   4.188  1.00  0.00     0.069 C 
ATOM     18  C   UNL     1      -2.234  -4.332   3.780  1.00  0.00     0.069 C 
ATOM     19  C   UNL     1      -1.272  -3.794   4.853  1.00  0.00     0.013 C 
BRANCH  16  20
ATOM     20  N   UNL     1      -0.697  -3.587   2.104  1.00  0.00    -0.352 N 
ATOM     21  H   UNL     1      -0.384  -2.846   1.477  1.00  0.00     0.344 HD
ATOM     22  H   UNL     1      -0.959  -4.407   1.557  1.00  0.00     0.344 HD
ATOM     23  H   UNL     1       0.057  -3.832   2.745  1.00  0.00     0.344 HD
ENDBRANCH  16  20
ENDBRANCH  15  16
ENDBRANCH  12  15
ENDBRANCH  10  11
ENDBRANCH   6  10
ENDBRANCH   4   6
ENDBRANCH   3   4
ENDBRANCH   2   3
ENDBRANCH   1   2
BRANCH   1  24
ATOM     24  O   UNL     1       1.642  -4.513  -1.027  1.00  0.00    -0.374 OA
BRANCH  24  25
ATOM     25  C   UNL     1       0.507  -3.701  -1.333  1.00  0.00     0.202 C 
BRANCH  25  26
ATOM     26  C   UNL     1      -0.735  -4.489  -1.746  1.00  0.00     0.261 C 
BRANCH  26  27
ATOM     27  O   UNL     1      -1.311  -5.160  -0.610  1.00  0.00    -0.460 OA
BRANCH  27  28
ATOM     28  C   UNL     1      -1.205  -6.508  -0.620  1.00  0.00     0.338 C 
ATOM     29  O   UNL     1      -0.684  -7.202  -1.478  1.00  0.00    -0.246 OA
BRANCH  28  30
ATOM     30  C   UNL     1      -1.708  -7.049   0.658  1.00  0.00     0.060 A 
ATOM     31  C   UNL     1      -0.979  -8.081   1.256  1.00  0.00     0.016 A 
ATOM     32  C   UNL     1      -2.890  -6.591   1.248  1.00  0.00     0.016 A 
ATOM     33  C   UNL     1      -1.454  -8.694   2.415  1.00  0.00     0.010 A 
ATOM     34  C   UNL     1      -3.349  -7.192   2.429  1.00  0.00     0.010 A 
ATOM     35  C   UNL     1      -2.660  -8.279   2.998  1.00  0.00    -0.014 A 
BRANCH  35  36
ATOM     36  C   UNL     1      -3.266  -9.106   4.080  1.00  0.00     0.031 A 
ATOM     37  C   UNL     1      -4.518  -9.895   3.777  1.00  0.00     0.074 A 
ATOM     38  C   UNL     1      -2.691  -9.221   5.294  1.00  0.00     0.049 A 
ATOM     39  N   UNL     1      -5.122 -10.797   4.506  1.00  0.00    -0.248 NA
ATOM     40  C   UNL     1      -5.185  -9.623   2.492  1.00  0.00     0.031 C 
ATOM     41  C   UNL     1      -1.520  -8.477   5.760  1.00  0.00     0.029 A 
ATOM     42  N   UNL     1      -3.019 -10.023   6.363  1.00  0.00    -0.354 N 
ATOM     43  C   UNL     1      -6.242 -11.182   3.777  1.00  0.00     0.074 A 
ATOM     44  C   UNL     1      -6.269 -10.374   2.581  1.00  0.00     0.031 C 
ATOM     45  C   UNL     1      -1.219  -8.870   7.012  1.00  0.00     0.029 A 
ATOM     46  C   UNL     1      -2.167  -9.898   7.437  1.00  0.00     0.049 A 
ATOM     47  H   UNL     1      -3.793 -10.631   6.360  1.00  0.00     0.167 HD
ATOM     48  C   UNL     1      -7.143 -12.157   4.040  1.00  0.00     0.034 A 
ATOM     49  C   UNL     1      -2.138 -10.559   8.614  1.00  0.00     0.034 A 
ATOM     50  C   UNL     1      -7.099 -13.007   5.193  1.00  0.00     0.049 A 
ATOM     51  C   UNL     1      -3.121 -11.679   8.862  1.00  0.00     0.074 A 
ATOM     52  C   UNL     1      -7.933 -14.063   5.517  1.00  0.00     0.029 A 
ATOM     53  N   UNL     1      -6.167 -12.903   6.212  1.00  0.00    -0.354 N 
ATOM     54  N   UNL     1      -4.058 -12.149   8.076  1.00  0.00    -0.248 NA
ATOM     55  C   UNL     1      -3.002 -12.399  10.141  1.00  0.00     0.031 C 
ATOM     56  C   UNL     1      -7.505 -14.595   6.738  1.00  0.00     0.029 A 
ATOM     57  C   UNL     1      -6.398 -13.879   7.163  1.00  0.00     0.049 A 
ATOM     58  H   UNL     1      -5.447 -12.233   6.252  1.00  0.00     0.167 HD
ATOM     59  C   UNL     1      -4.599 -13.248   8.738  1.00  0.00     0.074 A 
ATOM     60  C   UNL     1      -3.876 -13.384   9.984  1.00  0.00     0.031 C 
ATOM     61  C   UNL     1      -5.614 -14.062   8.356  1.00  0.00     0.034 A 
BRANCH  48  62
ATOM     62  C   UNL     1      -8.214 -12.393   3.011  1.00  0.00     0.023 A 
ATOM     63  C   UNL     1      -7.870 -13.000   1.784  1.00  0.00     0.012 A 
ATOM     64  C   UNL     1      -9.551 -12.029   3.254  1.00  0.00     0.148 A 
ATOM     65  C   UNL     1      -8.833 -13.202   0.798  1.00  0.00     0.002 A 
ATOM     66  C   UNL     1     -10.514 -12.275   2.283  1.00  0.00     0.091 A 
ATOM     67  F   UNL     1      -9.851 -11.429   4.415  1.00  0.00    -0.205 F 
ATOM     68  C   UNL     1     -10.155 -12.848   1.051  1.00  0.00     0.022 A 
BRANCH  66  69
ATOM     69  S   UNL     1     -12.255 -11.921   2.540  1.00  0.00     0.127 S 
ATOM     70  O   UNL     1     -12.450 -10.756   1.678  1.00  0.00    -0.237 OA
ATOM     71  O   UNL     1     -12.893 -13.148   2.061  1.00  0.00    -0.237 OA
ATOM     72  O   UNL     1     -12.407 -11.677   3.967  1.00  0.00    -0.744 OA
ENDBRANCH  66  69
ENDBRANCH  48  62
BRANCH  49  73
ATOM     73  C   UNL     1      -1.079 -10.263   9.624  1.00  0.00     0.023 A 
ATOM     74  C   UNL     1      -0.073 -11.219   9.872  1.00  0.00     0.012 A 
ATOM     75  C   UNL     1      -1.079  -9.063  10.360  1.00  0.00     0.148 A 
ATOM     76  C   UNL     1       0.884 -11.008  10.866  1.00  0.00     0.002 A 
ATOM     77  C   UNL     1      -0.093  -8.837  11.316  1.00  0.00     0.091 A 
ATOM     78  F   UNL     1      -2.051  -8.172  10.122  1.00  0.00    -0.205 F 
ATOM     79  C   UNL     1       0.877  -9.815  11.584  1.00  0.00     0.022 A 
BRANCH  77  80
ATOM     80  S   UNL     1       0.042  -7.286  12.212  1.00  0.00     0.127 S 
ATOM     81  O   UNL     1      -0.412  -7.670  13.546  1.00  0.00    -0.237 OA
ATOM     82  O   UNL     1       1.473  -6.999  12.106  1.00  0.00    -0.237 OA
ATOM     83  O   UNL     1      -0.811  -6.347  11.496  1.00  0.00    -0.744 OA
ENDBRANCH  77  80
ENDBRANCH  49  73
BRANCH  61  84
ATOM     84  C   UNL     1      -5.976 -15.220   9.251  1.00  0.00     0.023 A 
ATOM     85  C   UNL     1      -6.648 -14.986  10.466  1.00  0.00     0.012 A 
ATOM     86  C   UNL     1      -5.736 -16.546   8.839  1.00  0.00     0.148 A 
ATOM     87  C   UNL     1      -7.046 -16.052  11.272  1.00  0.00     0.002 A 
ATOM     88  C   UNL     1      -6.178 -17.604   9.624  1.00  0.00     0.091 A 
ATOM     89  F   UNL     1      -5.077 -16.752   7.689  1.00  0.00    -0.205 F 
ATOM     90  C   UNL     1      -6.824 -17.360  10.846  1.00  0.00     0.022 A 
BRANCH  88  91
ATOM     91  S   UNL     1      -6.020 -19.313   9.090  1.00  0.00     0.127 S 
ATOM     92  O   UNL     1      -4.833 -19.748   9.823  1.00  0.00    -0.237 OA
ATOM     93  O   UNL     1      -7.275 -19.908   9.555  1.00  0.00    -0.237 OA
ATOM     94  O   UNL     1      -5.886 -19.260   7.641  1.00  0.00    -0.744 OA
ENDBRANCH  88  91
ENDBRANCH  61  84
ENDBRANCH  35  36
ENDBRANCH  28  30
ENDBRANCH  27  28
ENDBRANCH  26  27
ENDBRANCH  25  26
ENDBRANCH  24  25
ENDBRANCH   1  24
TORSDOF 23
