REMARK SMILES C[C@H](O)[C@H](C)[N@H+]1Cc2ccccc2C[C@@H]1C(=O)OCCOCCOC(=O)c1ccc(-c2c3nc(c(-c4cccc(S(=O)(=O)[O-])c4F)c4ccc([nH]4)c(-c4cccc(S(=O)(=O)[O-])c4F)c4nc(c(-c5cccc(S(=O)(=O)[O-])c5F)c5ccc2[nH]5)C=C4)C=C3)cc1
REMARK SMILES IDX 21 1 20 2 19 3 18 4 16 5 17 6 15 7 6 8 7 9 8 11 14 12 9 13
REMARK SMILES IDX 13 14 10 15 12 16 11 17 4 18 5 19 2 20 1 21 3 22 22 24 23 25
REMARK SMILES IDX 24 26 25 27 26 28 27 29 28 30 89 31 29 32 88 33 30 34 31 35
REMARK SMILES IDX 32 36 82 37 33 38 87 39 81 40 83 41 34 42 86 43 80 44 79 45
REMARK SMILES IDX 35 47 67 48 47 49 66 50 48 51 51 52 65 53 84 54 49 55 50 56
REMARK SMILES IDX 64 58 85 59 52 60 36 61 37 62 45 63 38 64 40 65 46 66 39 67
REMARK SMILES IDX 41 68 42 69 43 70 44 71 68 72 69 73 77 74 70 75 72 76 78 77
REMARK SMILES IDX 71 78 73 79 74 80 75 81 76 82 53 83 54 84 62 85 55 86 57 87
REMARK SMILES IDX 63 88 56 89 58 90 59 91 60 92 61 93
REMARK H PARENT 6 10 3 23 83 46 51 57
REMARK Flexibility Score: inf
ROOT
ATOM      1  O   UNL     1      -1.383  -5.195   5.489  1.00  0.00    -0.374 OA
ENDROOT
BRANCH   1   2
ATOM      2  C   UNL     1      -0.921  -3.893   5.852  1.00  0.00     0.202 C 
BRANCH   2   3
ATOM      3  C   UNL     1       0.141  -3.240   4.956  1.00  0.00     0.261 C 
BRANCH   3   4
ATOM      4  O   UNL     1      -0.301  -3.033   3.595  1.00  0.00    -0.459 OA
BRANCH   4   5
ATOM      5  C   UNL     1       0.444  -3.654   2.639  1.00  0.00     0.365 C 
ATOM      6  O   UNL     1       1.463  -4.300   2.887  1.00  0.00    -0.245 OA
BRANCH   5   7
ATOM      7  C   UNL     1      -0.071  -3.530   1.185  1.00  0.00     0.300 C 
ATOM      8  N   UNL     1      -1.234  -2.648   0.977  1.00  0.00    -0.315 N 
ATOM      9  C   UNL     1      -2.550  -3.227   0.736  1.00  0.00     0.300 C 
ATOM     10  H   UNL     1      -1.238  -2.518   1.989  1.00  0.00     0.349 HD
ATOM     11  C   UNL     1      -2.701  -4.715   0.899  1.00  0.00     0.010 A 
ATOM     12  C   UNL     1      -0.236  -4.955   0.618  1.00  0.00     0.113 C 
ATOM     13  C   UNL     1      -3.987  -5.276   0.967  1.00  0.00     0.010 A 
ATOM     14  C   UNL     1      -1.588  -5.556   0.875  1.00  0.00    -0.033 A 
ATOM     15  C   UNL     1      -4.154  -6.653   1.102  1.00  0.00     0.001 A 
ATOM     16  C   UNL     1      -1.759  -6.940   1.005  1.00  0.00     0.004 A 
ATOM     17  C   UNL     1      -3.038  -7.483   1.138  1.00  0.00     0.000 A 
BRANCH   8  18
ATOM     18  C   UNL     1      -1.063  -1.226   0.594  1.00  0.00     0.210 C 
ATOM     19  C   UNL     1       0.365  -0.679   0.805  1.00  0.00     0.078 C 
BRANCH  18  20
ATOM     20  C   UNL     1      -1.478  -0.854  -0.881  1.00  0.00     0.169 C 
ATOM     21  C   UNL     1      -2.976  -0.678  -1.134  1.00  0.00     0.045 C 
BRANCH  20  22
ATOM     22  O   UNL     1      -0.956  -1.812  -1.810  1.00  0.00    -0.387 OA
ATOM     23  H   UNL     1      -1.367  -2.676  -1.647  1.00  0.00     0.211 HD
ENDBRANCH  20  22
ENDBRANCH  18  20
ENDBRANCH   8  18
ENDBRANCH   5   7
ENDBRANCH   4   5
ENDBRANCH   3   4
ENDBRANCH   2   3
ENDBRANCH   1   2
BRANCH   1  24
ATOM     24  C   UNL     1      -2.202  -5.279   4.325  1.00  0.00     0.202 C 
BRANCH  24  25
ATOM     25  C   UNL     1      -3.668  -4.859   4.460  1.00  0.00     0.261 C 
BRANCH  25  26
ATOM     26  O   UNL     1      -3.833  -3.554   5.013  1.00  0.00    -0.460 OA
BRANCH  26  27
ATOM     27  C   UNL     1      -4.319  -3.555   6.272  1.00  0.00     0.338 C 
ATOM     28  O   UNL     1      -4.710  -4.515   6.925  1.00  0.00    -0.246 OA
BRANCH  27  29
ATOM     29  C   UNL     1      -4.159  -2.216   6.843  1.00  0.00     0.060 A 
ATOM     30  C   UNL     1      -3.480  -2.120   8.063  1.00  0.00     0.016 A 
ATOM     31  C   UNL     1      -4.697  -1.087   6.220  1.00  0.00     0.016 A 
ATOM     32  C   UNL     1      -3.398  -0.894   8.705  1.00  0.00     0.010 A 
ATOM     33  C   UNL     1      -4.613   0.143   6.867  1.00  0.00     0.010 A 
ATOM     34  C   UNL     1      -4.004   0.230   8.132  1.00  0.00    -0.014 A 
BRANCH  34  35
ATOM     35  C   UNL     1      -4.138   1.459   8.938  1.00  0.00     0.031 A 
ATOM     36  C   UNL     1      -5.459   1.750   9.590  1.00  0.00     0.074 A 
ATOM     37  C   UNL     1      -3.086   2.278   9.097  1.00  0.00     0.049 A 
ATOM     38  N   UNL     1      -5.803   2.759  10.344  1.00  0.00    -0.248 NA
ATOM     39  C   UNL     1      -6.540   0.776   9.358  1.00  0.00     0.031 C 
ATOM     40  C   UNL     1      -1.762   2.073   8.509  1.00  0.00     0.029 A 
ATOM     41  N   UNL     1      -2.971   3.453   9.789  1.00  0.00    -0.354 N 
ATOM     42  C   UNL     1      -7.142   2.557  10.654  1.00  0.00     0.074 A 
ATOM     43  C   UNL     1      -7.556   1.341   9.992  1.00  0.00     0.031 C 
ATOM     44  C   UNL     1      -0.969   3.101   8.854  1.00  0.00     0.029 A 
ATOM     45  C   UNL     1      -1.738   4.045   9.661  1.00  0.00     0.049 A 
ATOM     46  H   UNL     1      -3.701   3.837  10.327  1.00  0.00     0.167 HD
ATOM     47  C   UNL     1      -7.949   3.312  11.436  1.00  0.00     0.034 A 
ATOM     48  C   UNL     1      -1.294   5.226  10.131  1.00  0.00     0.034 A 
ATOM     49  C   UNL     1      -7.515   4.511  12.099  1.00  0.00     0.049 A 
ATOM     50  C   UNL     1      -2.222   6.064  10.969  1.00  0.00     0.074 A 
ATOM     51  C   UNL     1      -8.229   5.329  12.954  1.00  0.00     0.029 A 
ATOM     52  N   UNL     1      -6.253   5.072  11.966  1.00  0.00    -0.354 N 
ATOM     53  N   UNL     1      -3.450   5.804  11.353  1.00  0.00    -0.248 NA
ATOM     54  C   UNL     1      -1.696   7.343  11.464  1.00  0.00     0.031 C 
ATOM     55  C   UNL     1      -7.410   6.407  13.307  1.00  0.00     0.029 A 
ATOM     56  C   UNL     1      -6.173   6.239  12.704  1.00  0.00     0.049 A 
ATOM     57  H   UNL     1      -5.522   4.696  11.425  1.00  0.00     0.167 HD
ATOM     58  C   UNL     1      -3.831   6.869  12.162  1.00  0.00     0.074 A 
ATOM     59  C   UNL     1      -2.695   7.766  12.228  1.00  0.00     0.031 C 
ATOM     60  C   UNL     1      -5.014   7.092  12.787  1.00  0.00     0.034 A 
BRANCH  47  61
ATOM     61  C   UNL     1      -9.371   2.854  11.620  1.00  0.00     0.023 A 
ATOM     62  C   UNL     1      -9.646   1.704  12.389  1.00  0.00     0.012 A 
ATOM     63  C   UNL     1     -10.440   3.580  11.059  1.00  0.00     0.148 A 
ATOM     64  C   UNL     1     -10.958   1.262  12.563  1.00  0.00     0.002 A 
ATOM     65  C   UNL     1     -11.747   3.160  11.276  1.00  0.00     0.091 A 
ATOM     66  F   UNL     1     -10.159   4.655  10.310  1.00  0.00    -0.205 F 
ATOM     67  C   UNL     1     -12.007   1.995  12.016  1.00  0.00     0.022 A 
BRANCH  65  68
ATOM     68  S   UNL     1     -13.170   4.077  10.677  1.00  0.00     0.127 S 
ATOM     69  O   UNL     1     -13.670   3.192   9.625  1.00  0.00    -0.237 OA
ATOM     70  O   UNL     1     -14.016   4.145  11.869  1.00  0.00    -0.237 OA
ATOM     71  O   UNL     1     -12.658   5.362  10.221  1.00  0.00    -0.744 OA
ENDBRANCH  65  68
ENDBRANCH  47  61
BRANCH  48  72
ATOM     72  C   UNL     1       0.101   5.663   9.848  1.00  0.00     0.023 A 
ATOM     73  C   UNL     1       1.036   5.729  10.899  1.00  0.00     0.012 A 
ATOM     74  C   UNL     1       0.513   5.987   8.540  1.00  0.00     0.148 A 
ATOM     75  C   UNL     1       2.348   6.138  10.658  1.00  0.00     0.002 A 
ATOM     76  C   UNL     1       1.835   6.341   8.298  1.00  0.00     0.091 A 
ATOM     77  F   UNL     1      -0.395   5.930   7.556  1.00  0.00    -0.205 F 
ATOM     78  C   UNL     1       2.750   6.434   9.358  1.00  0.00     0.022 A 
BRANCH  76  79
ATOM     79  S   UNL     1       2.472   6.614   6.641  1.00  0.00     0.127 S 
ATOM     80  O   UNL     1       2.732   8.052   6.654  1.00  0.00    -0.237 OA
ATOM     81  O   UNL     1       3.667   5.771   6.635  1.00  0.00    -0.237 OA
ATOM     82  O   UNL     1       1.420   6.171   5.736  1.00  0.00    -0.744 OA
ENDBRANCH  76  79
ENDBRANCH  48  72
BRANCH  60  83
ATOM     83  C   UNL     1      -5.135   8.339  13.623  1.00  0.00     0.023 A 
ATOM     84  C   UNL     1      -5.228   9.597  12.998  1.00  0.00     0.012 A 
ATOM     85  C   UNL     1      -5.239   8.251  15.025  1.00  0.00     0.148 A 
ATOM     86  C   UNL     1      -5.391  10.754  13.758  1.00  0.00     0.002 A 
ATOM     87  C   UNL     1      -5.455   9.402  15.772  1.00  0.00     0.091 A 
ATOM     88  F   UNL     1      -5.132   7.044  15.600  1.00  0.00    -0.205 F 
ATOM     89  C   UNL     1      -5.517  10.655  15.142  1.00  0.00     0.022 A 
BRANCH  87  90
ATOM     90  S   UNL     1      -5.731   9.363  17.546  1.00  0.00     0.127 S 
ATOM     91  O   UNL     1      -4.510   9.987  18.052  1.00  0.00    -0.237 OA
ATOM     92  O   UNL     1      -6.938  10.178  17.688  1.00  0.00    -0.237 OA
ATOM     93  O   UNL     1      -5.904   7.960  17.897  1.00  0.00    -0.744 OA
ENDBRANCH  87  90
ENDBRANCH  60  83
ENDBRANCH  34  35
ENDBRANCH  27  29
ENDBRANCH  26  27
ENDBRANCH  25  26
ENDBRANCH  24  25
ENDBRANCH   1  24
TORSDOF 20
