REMARK SMILES CCC(C)(C)c1cccc(C(=O)OCCOCCOC(=O)c2ccc(-c3c4nc(c(-c5cccc(S(=O)(=O)[O-])c5F)c5ccc([nH]5)c(-c5cccc(S(=O)(=O)[O-])c5F)c5nc(c(-c6cccc(S(=O)(=O)[O-])c6F)c6ccc3[nH]6)C=C5)C=C4)cc2)c1
REMARK SMILES IDX 17 1 16 2 15 3 14 4 13 5 11 6 12 7 10 8 6 9 7 10 85 11 8 12
REMARK SMILES IDX 9 13 3 14 4 15 5 16 2 17 1 18 18 19 19 20 20 21 21 22 22 23
REMARK SMILES IDX 23 24 84 25 24 26 83 27 25 28 26 29 27 30 77 31 28 32 82 33
REMARK SMILES IDX 76 34 78 35 29 36 81 37 75 38 74 39 30 41 62 42 42 43 61 44
REMARK SMILES IDX 43 45 46 46 60 47 79 48 44 49 45 50 59 52 80 53 47 54 31 55
REMARK SMILES IDX 32 56 40 57 33 58 35 59 41 60 34 61 36 62 37 63 38 64 39 65
REMARK SMILES IDX 63 66 64 67 72 68 65 69 67 70 73 71 66 72 68 73 69 74 70 75
REMARK SMILES IDX 71 76 48 77 49 78 57 79 50 80 52 81 58 82 51 83 53 84 54 85
REMARK SMILES IDX 55 86 56 87
REMARK H PARENT 78 40 46 51
REMARK Flexibility Score: inf
ROOT
ATOM      1  C   UNL     1       6.181   3.188  -0.080  1.00  0.00     0.202 C 
ENDROOT
BRANCH   1   2
ATOM      2  O   UNL     1       6.899   4.291  -0.634  1.00  0.00    -0.374 OA
BRANCH   2   3
ATOM      3  C   UNL     1       6.132   5.274  -1.334  1.00  0.00     0.202 C 
BRANCH   3   4
ATOM      4  C   UNL     1       5.758   4.940  -2.782  1.00  0.00     0.261 C 
BRANCH   4   5
ATOM      5  O   UNL     1       4.899   3.790  -2.844  1.00  0.00    -0.460 OA
BRANCH   5   6
ATOM      6  C   UNL     1       5.453   2.680  -3.385  1.00  0.00     0.338 C 
ATOM      7  O   UNL     1       6.537   2.603  -3.947  1.00  0.00    -0.246 OA
BRANCH   6   8
ATOM      8  C   UNL     1       4.649   1.484  -3.032  1.00  0.00     0.060 A 
ATOM      9  C   UNL     1       2.529   0.351  -2.552  1.00  0.00    -0.042 A 
ATOM     10  C   UNL     1       3.272  -0.822  -2.312  1.00  0.00     0.004 A 
ATOM     11  C   UNL     1       3.253   1.517  -2.883  1.00  0.00     0.020 A 
ATOM     12  C   UNL     1       4.663  -0.850  -2.432  1.00  0.00     0.001 A 
ATOM     13  C   UNL     1       5.350   0.297  -2.805  1.00  0.00     0.016 A 
BRANCH   9  14
ATOM     14  C   UNL     1       0.988   0.358  -2.439  1.00  0.00    -0.011 C 
ATOM     15  C   UNL     1       0.366  -1.032  -2.731  1.00  0.00     0.016 C 
ATOM     16  C   UNL     1       0.363   1.311  -3.494  1.00  0.00     0.016 C 
BRANCH  14  17
ATOM     17  C   UNL     1       0.544   0.862  -1.035  1.00  0.00     0.008 C 
ATOM     18  C   UNL     1       0.975   0.009   0.155  1.00  0.00     0.005 C 
ENDBRANCH  14  17
ENDBRANCH   9  14
ENDBRANCH   6   8
ENDBRANCH   5   6
ENDBRANCH   4   5
ENDBRANCH   3   4
ENDBRANCH   2   3
ENDBRANCH   1   2
BRANCH   1  19
ATOM     19  C   UNL     1       5.457   3.433   1.250  1.00  0.00     0.261 C 
BRANCH  19  20
ATOM     20  O   UNL     1       4.376   4.371   1.117  1.00  0.00    -0.460 OA
BRANCH  20  21
ATOM     21  C   UNL     1       4.612   5.591   1.653  1.00  0.00     0.338 C 
ATOM     22  O   UNL     1       5.598   5.938   2.291  1.00  0.00    -0.246 OA
BRANCH  21  23
ATOM     23  C   UNL     1       3.580   6.545   1.209  1.00  0.00     0.060 A 
ATOM     24  C   UNL     1       4.014   7.748   0.638  1.00  0.00     0.016 A 
ATOM     25  C   UNL     1       2.219   6.300   1.401  1.00  0.00     0.016 A 
ATOM     26  C   UNL     1       3.090   8.736   0.305  1.00  0.00     0.010 A 
ATOM     27  C   UNL     1       1.293   7.295   1.071  1.00  0.00     0.010 A 
ATOM     28  C   UNL     1       1.727   8.531   0.557  1.00  0.00    -0.014 A 
BRANCH  28  29
ATOM     29  C   UNL     1       0.774   9.657   0.406  1.00  0.00     0.031 A 
ATOM     30  C   UNL     1       0.290  10.378   1.634  1.00  0.00     0.074 A 
ATOM     31  C   UNL     1       0.343  10.031  -0.812  1.00  0.00     0.049 A 
ATOM     32  N   UNL     1      -0.562  11.363   1.733  1.00  0.00    -0.248 NA
ATOM     33  C   UNL     1       0.838   9.923   2.923  1.00  0.00     0.031 C 
ATOM     34  C   UNL     1       0.740   9.411  -2.075  1.00  0.00     0.029 A 
ATOM     35  N   UNL     1      -0.545  11.010  -1.180  1.00  0.00    -0.354 N 
ATOM     36  C   UNL     1      -0.679  11.628   3.093  1.00  0.00     0.074 A 
ATOM     37  C   UNL     1       0.181  10.690   3.781  1.00  0.00     0.031 C 
ATOM     38  C   UNL     1       0.073  10.004  -3.079  1.00  0.00     0.029 A 
ATOM     39  C   UNL     1      -0.814  11.027  -2.528  1.00  0.00     0.049 A 
ATOM     40  H   UNL     1      -0.952  11.639  -0.541  1.00  0.00     0.167 HD
ATOM     41  C   UNL     1      -1.421  12.577   3.712  1.00  0.00     0.034 A 
ATOM     42  C   UNL     1      -1.693  11.767  -3.233  1.00  0.00     0.034 A 
ATOM     43  C   UNL     1      -2.260  13.520   3.023  1.00  0.00     0.049 A 
ATOM     44  C   UNL     1      -2.523  12.802  -2.520  1.00  0.00     0.074 A 
ATOM     45  C   UNL     1      -3.012  14.552   3.557  1.00  0.00     0.029 A 
ATOM     46  N   UNL     1      -2.473  13.538   1.653  1.00  0.00    -0.354 N 
ATOM     47  N   UNL     1      -2.532  13.121  -1.248  1.00  0.00    -0.248 NA
ATOM     48  C   UNL     1      -3.440  13.603  -3.345  1.00  0.00     0.031 C 
ATOM     49  C   UNL     1      -3.703  15.175   2.512  1.00  0.00     0.029 A 
ATOM     50  C   UNL     1      -3.355  14.553   1.323  1.00  0.00     0.049 A 
ATOM     51  H   UNL     1      -2.057  12.920   1.010  1.00  0.00     0.167 HD
ATOM     52  C   UNL     1      -3.424  14.182  -1.126  1.00  0.00     0.074 A 
ATOM     53  C   UNL     1      -3.923  14.462  -2.457  1.00  0.00     0.031 C 
ATOM     54  C   UNL     1      -3.805  14.855  -0.012  1.00  0.00     0.034 A 
BRANCH  41  55
ATOM     55  C   UNL     1      -1.341  12.655   5.214  1.00  0.00     0.023 A 
ATOM     56  C   UNL     1      -0.170  13.142   5.829  1.00  0.00     0.012 A 
ATOM     57  C   UNL     1      -2.441  12.292   6.016  1.00  0.00     0.148 A 
ATOM     58  C   UNL     1      -0.080  13.232   7.218  1.00  0.00     0.002 A 
ATOM     59  C   UNL     1      -2.361  12.427   7.397  1.00  0.00     0.091 A 
ATOM     60  F   UNL     1      -3.539  11.809   5.415  1.00  0.00    -0.205 F 
ATOM     61  C   UNL     1      -1.178  12.885   8.000  1.00  0.00     0.022 A 
BRANCH  59  62
ATOM     62  S   UNL     1      -3.748  12.081   8.485  1.00  0.00     0.127 S 
ATOM     63  O   UNL     1      -3.312  10.846   9.135  1.00  0.00    -0.237 OA
ATOM     64  O   UNL     1      -3.759  13.257   9.355  1.00  0.00    -0.237 OA
ATOM     65  O   UNL     1      -4.914  11.955   7.621  1.00  0.00    -0.744 OA
ENDBRANCH  59  62
ENDBRANCH  41  55
BRANCH  42  66
ATOM     66  C   UNL     1      -1.809  11.574  -4.706  1.00  0.00     0.023 A 
ATOM     67  C   UNL     1      -1.360  12.584  -5.579  1.00  0.00     0.012 A 
ATOM     68  C   UNL     1      -2.339  10.386  -5.245  1.00  0.00     0.148 A 
ATOM     69  C   UNL     1      -1.463  12.425  -6.961  1.00  0.00     0.002 A 
ATOM     70  C   UNL     1      -2.386  10.210  -6.622  1.00  0.00     0.091 A 
ATOM     71  F   UNL     1      -2.775   9.444  -4.396  1.00  0.00    -0.205 F 
ATOM     72  C   UNL     1      -1.964  11.235  -7.483  1.00  0.00     0.022 A 
BRANCH  70  73
ATOM     73  S   UNL     1      -2.894   8.663  -7.380  1.00  0.00     0.127 S 
ATOM     74  O   UNL     1      -4.159   9.039  -8.008  1.00  0.00    -0.237 OA
ATOM     75  O   UNL     1      -1.794   8.410  -8.311  1.00  0.00    -0.237 OA
ATOM     76  O   UNL     1      -2.991   7.702  -6.290  1.00  0.00    -0.744 OA
ENDBRANCH  70  73
ENDBRANCH  42  66
BRANCH  54  77
ATOM     77  C   UNL     1      -4.779  15.993  -0.177  1.00  0.00     0.023 A 
ATOM     78  C   UNL     1      -6.130  15.727  -0.475  1.00  0.00     0.012 A 
ATOM     79  C   UNL     1      -4.370  17.325   0.039  1.00  0.00     0.148 A 
ATOM     80  C   UNL     1      -7.051  16.768  -0.587  1.00  0.00     0.002 A 
ATOM     81  C   UNL     1      -5.303  18.353  -0.024  1.00  0.00     0.091 A 
ATOM     82  F   UNL     1      -3.077  17.561   0.304  1.00  0.00    -0.205 F 
ATOM     83  C   UNL     1      -6.641  18.078  -0.350  1.00  0.00     0.022 A 
BRANCH  81  84
ATOM     84  S   UNL     1      -4.886  20.058   0.361  1.00  0.00     0.127 S 
ATOM     85  O   UNL     1      -4.932  20.682  -0.960  1.00  0.00    -0.237 OA
ATOM     86  O   UNL     1      -5.975  20.448   1.258  1.00  0.00    -0.237 OA
ATOM     87  O   UNL     1      -3.572  20.018   0.988  1.00  0.00    -0.744 OA
ENDBRANCH  81  84
ENDBRANCH  54  77
ENDBRANCH  28  29
ENDBRANCH  21  23
ENDBRANCH  20  21
ENDBRANCH  19  20
ENDBRANCH   1  19
TORSDOF 19
