REMARK SMILES CC1(C)C(NC(=O)N[C@H]2CCCC[C@H]2C(=O)OCCOCCOC(=O)c2ccc(-c3c4nc(c(-c5cccc(S(=O)(=O)[O-])c5F)c5ccc([nH]5)c(-c5cccc(S(=O)(=O)[O-])c5F)c5nc(c(-c6cccc(S(=O)(=O)[O-])c6F)c6ccc3[nH]6)C=C5)C=C4)cc2)C1(C)C
REMARK SMILES IDX 21 1 20 2 19 3 18 4 17 5 15 6 16 7 14 8 9 9 10 10 11 11
REMARK SMILES IDX 13 12 12 13 8 14 5 15 6 16 7 18 4 20 1 21 2 22 3 23 89 24
REMARK SMILES IDX 90 25 91 26 22 27 23 28 24 29 25 30 26 31 27 32 88 33 28 34
REMARK SMILES IDX 87 35 29 36 30 37 31 38 81 39 32 40 86 41 80 42 82 43 33 44
REMARK SMILES IDX 85 45 79 46 78 47 34 49 66 50 46 51 65 52 47 53 50 54 64 55
REMARK SMILES IDX 83 56 48 57 49 58 63 60 84 61 51 62 35 63 36 64 44 65 37 66
REMARK SMILES IDX 39 67 45 68 38 69 40 70 41 71 42 72 43 73 67 74 68 75 76 76
REMARK SMILES IDX 69 77 71 78 77 79 70 80 72 81 73 82 74 83 75 84 52 85 53 86
REMARK SMILES IDX 61 87 54 88 56 89 62 90 55 91 57 92 58 93 59 94 60 95
REMARK H PARENT 5 17 8 19 82 48 50 59
REMARK Flexibility Score: inf
ROOT
ATOM      1  C   UNL     1       0.842   0.813  -4.801  1.00  0.00     0.202 C 
ENDROOT
BRANCH   1   2
ATOM      2  O   UNL     1      -0.567   0.763  -4.590  1.00  0.00    -0.374 OA
BRANCH   2   3
ATOM      3  C   UNL     1      -1.059   1.092  -3.286  1.00  0.00     0.202 C 
BRANCH   3   4
ATOM      4  C   UNL     1      -0.860   0.044  -2.183  1.00  0.00     0.261 C 
BRANCH   4   5
ATOM      5  O   UNL     1       0.536  -0.028  -1.850  1.00  0.00    -0.463 OA
BRANCH   5   6
ATOM      6  C   UNL     1       1.118  -1.256  -1.909  1.00  0.00     0.311 C 
ATOM      7  O   UNL     1       0.510  -2.319  -1.935  1.00  0.00    -0.252 OA
BRANCH   6   8
ATOM      8  C   UNL     1       2.591  -1.130  -2.252  1.00  0.00     0.121 C 
ATOM      9  C   UNL     1       3.287   0.177  -1.887  1.00  0.00     0.098 C 
ATOM     10  C   UNL     1       4.571   0.347  -2.691  1.00  0.00     0.026 C 
ATOM     11  C   UNL     1       5.496  -0.821  -2.437  1.00  0.00     0.002 C 
ATOM     12  C   UNL     1       3.449  -2.285  -1.816  1.00  0.00     0.017 C 
ATOM     13  C   UNL     1       4.784  -2.173  -2.556  1.00  0.00     0.001 C 
BRANCH   9  14
ATOM     14  N   UNL     1       3.475   0.435  -0.463  1.00  0.00    -0.335 N 
ATOM     15  N   UNL     1       4.980  -0.744   1.067  1.00  0.00    -0.334 N 
ATOM     16  C   UNL     1       4.140   0.159   0.624  1.00  0.00     0.315 C 
ATOM     17  H   UNL     1       5.302  -0.274   1.869  1.00  0.00     0.165 HD
ATOM     18  O   UNL     1       3.918   1.018   1.504  1.00  0.00    -0.249 OA
ATOM     19  H   UNL     1       2.808   1.114  -0.213  1.00  0.00     0.165 HD
BRANCH  15  20
ATOM     20  C   UNL     1       5.748  -1.938   1.187  1.00  0.00     0.096 C 
ATOM     21  C   UNL     1       7.764  -2.314  -0.572  1.00  0.00     0.014 C 
ATOM     22  C   UNL     1       7.122  -2.406   0.792  1.00  0.00    -0.007 C 
ATOM     23  C   UNL     1       8.192  -2.162   1.843  1.00  0.00     0.014 C 
ATOM     24  C   UNL     1       5.916  -3.425   1.038  1.00  0.00    -0.007 C 
ATOM     25  C   UNL     1       5.461  -4.337  -0.076  1.00  0.00     0.014 C 
ATOM     26  C   UNL     1       5.821  -4.199   2.358  1.00  0.00     0.014 C 
ENDBRANCH  15  20
ENDBRANCH   9  14
ENDBRANCH   6   8
ENDBRANCH   5   6
ENDBRANCH   4   5
ENDBRANCH   3   4
ENDBRANCH   2   3
ENDBRANCH   1   2
BRANCH   1  27
ATOM     27  C   UNL     1       1.503   2.192  -4.923  1.00  0.00     0.261 C 
BRANCH  27  28
ATOM     28  O   UNL     1       1.424   2.940  -3.697  1.00  0.00    -0.460 OA
BRANCH  28  29
ATOM     29  C   UNL     1       0.644   4.046  -3.778  1.00  0.00     0.338 C 
ATOM     30  O   UNL     1       0.129   4.505  -4.783  1.00  0.00    -0.246 OA
BRANCH  29  31
ATOM     31  C   UNL     1       0.296   4.537  -2.433  1.00  0.00     0.060 A 
ATOM     32  C   UNL     1      -1.070   4.610  -2.136  1.00  0.00     0.016 A 
ATOM     33  C   UNL     1       1.247   5.027  -1.535  1.00  0.00     0.016 A 
ATOM     34  C   UNL     1      -1.497   5.251  -0.983  1.00  0.00     0.010 A 
ATOM     35  C   UNL     1       0.812   5.680  -0.373  1.00  0.00     0.010 A 
ATOM     36  C   UNL     1      -0.563   5.847  -0.125  1.00  0.00    -0.014 A 
BRANCH  36  37
ATOM     37  C   UNL     1      -1.083   6.776   0.909  1.00  0.00     0.031 A 
ATOM     38  C   UNL     1      -1.019   8.261   0.663  1.00  0.00     0.074 A 
ATOM     39  C   UNL     1      -1.716   6.298   1.996  1.00  0.00     0.049 A 
ATOM     40  N   UNL     1      -1.561   9.235   1.350  1.00  0.00    -0.248 NA
ATOM     41  C   UNL     1      -0.255   8.713  -0.512  1.00  0.00     0.031 C 
ATOM     42  C   UNL     1      -1.841   4.883   2.346  1.00  0.00     0.029 A 
ATOM     43  N   UNL     1      -2.380   6.953   3.002  1.00  0.00    -0.354 N 
ATOM     44  C   UNL     1      -1.180  10.410   0.712  1.00  0.00     0.074 A 
ATOM     45  C   UNL     1      -0.357  10.032  -0.416  1.00  0.00     0.031 C 
ATOM     46  C   UNL     1      -2.532   4.777   3.494  1.00  0.00     0.029 A 
ATOM     47  C   UNL     1      -2.888   6.114   3.965  1.00  0.00     0.049 A 
ATOM     48  H   UNL     1      -2.482   7.932   3.032  1.00  0.00     0.167 HD
ATOM     49  C   UNL     1      -1.499  11.687   1.027  1.00  0.00     0.034 A 
ATOM     50  C   UNL     1      -3.558   6.394   5.100  1.00  0.00     0.034 A 
ATOM     51  C   UNL     1      -2.350  12.061   2.124  1.00  0.00     0.049 A 
ATOM     52  C   UNL     1      -3.912   7.825   5.410  1.00  0.00     0.074 A 
ATOM     53  C   UNL     1      -2.793  13.325   2.474  1.00  0.00     0.029 A 
ATOM     54  N   UNL     1      -2.871  11.182   3.059  1.00  0.00    -0.354 N 
ATOM     55  N   UNL     1      -3.680   8.907   4.706  1.00  0.00    -0.248 NA
ATOM     56  C   UNL     1      -4.663   8.069   6.650  1.00  0.00     0.031 C 
ATOM     57  C   UNL     1      -3.551  13.215   3.644  1.00  0.00     0.029 A 
ATOM     58  C   UNL     1      -3.612  11.878   4.000  1.00  0.00     0.049 A 
ATOM     59  H   UNL     1      -2.735  10.207   3.055  1.00  0.00     0.167 HD
ATOM     60  C   UNL     1      -4.279   9.951   5.403  1.00  0.00     0.074 A 
ATOM     61  C   UNL     1      -4.920   9.365   6.561  1.00  0.00     0.031 C 
ATOM     62  C   UNL     1      -4.283  11.279   5.123  1.00  0.00     0.034 A 
BRANCH  49  63
ATOM     63  C   UNL     1      -0.942  12.793   0.170  1.00  0.00     0.023 A 
ATOM     64  C   UNL     1      -1.481  13.033  -1.109  1.00  0.00     0.012 A 
ATOM     65  C   UNL     1       0.044  13.660   0.682  1.00  0.00     0.148 A 
ATOM     66  C   UNL     1      -1.038  14.114  -1.872  1.00  0.00     0.002 A 
ATOM     67  C   UNL     1       0.448  14.759  -0.065  1.00  0.00     0.091 A 
ATOM     68  F   UNL     1       0.557  13.398   1.892  1.00  0.00    -0.205 F 
ATOM     69  C   UNL     1      -0.086  14.983  -1.345  1.00  0.00     0.022 A 
BRANCH  67  70
ATOM     70  S   UNL     1       1.605  15.984   0.558  1.00  0.00     0.127 S 
ATOM     71  O   UNL     1       2.747  15.791  -0.334  1.00  0.00    -0.237 OA
ATOM     72  O   UNL     1       0.871  17.232   0.347  1.00  0.00    -0.237 OA
ATOM     73  O   UNL     1       1.843  15.643   1.953  1.00  0.00    -0.744 OA
ENDBRANCH  67  70
ENDBRANCH  49  63
BRANCH  50  74
ATOM     74  C   UNL     1      -3.959   5.297   6.026  1.00  0.00     0.023 A 
ATOM     75  C   UNL     1      -5.322   5.006   6.229  1.00  0.00     0.012 A 
ATOM     76  C   UNL     1      -2.989   4.554   6.726  1.00  0.00     0.148 A 
ATOM     77  C   UNL     1      -5.712   4.029   7.147  1.00  0.00     0.002 A 
ATOM     78  C   UNL     1      -3.381   3.541   7.592  1.00  0.00     0.091 A 
ATOM     79  F   UNL     1      -1.697   4.860   6.539  1.00  0.00    -0.205 F 
ATOM     80  C   UNL     1      -4.742   3.291   7.821  1.00  0.00     0.022 A 
BRANCH  78  81
ATOM     81  S   UNL     1      -2.192   2.460   8.392  1.00  0.00     0.127 S 
ATOM     82  O   UNL     1      -2.188   2.977   9.757  1.00  0.00    -0.237 OA
ATOM     83  O   UNL     1      -2.819   1.147   8.232  1.00  0.00    -0.237 OA
ATOM     84  O   UNL     1      -0.954   2.624   7.642  1.00  0.00    -0.744 OA
ENDBRANCH  78  81
ENDBRANCH  50  74
BRANCH  62  85
ATOM     85  C   UNL     1      -5.027  12.185   6.071  1.00  0.00     0.023 A 
ATOM     86  C   UNL     1      -4.528  12.403   7.372  1.00  0.00     0.012 A 
ATOM     87  C   UNL     1      -6.201  12.849   5.664  1.00  0.00     0.148 A 
ATOM     88  C   UNL     1      -5.215  13.220   8.269  1.00  0.00     0.002 A 
ATOM     89  C   UNL     1      -6.851  13.705   6.545  1.00  0.00     0.091 A 
ATOM     90  F   UNL     1      -6.673  12.621   4.429  1.00  0.00    -0.205 F 
ATOM     91  C   UNL     1      -6.370  13.878   7.853  1.00  0.00     0.022 A 
BRANCH  89  92
ATOM     92  S   UNL     1      -8.287  14.668   6.059  1.00  0.00     0.127 S 
ATOM     93  O   UNL     1      -9.375  13.919   6.684  1.00  0.00    -0.237 OA
ATOM     94  O   UNL     1      -8.014  15.970   6.670  1.00  0.00    -0.237 OA
ATOM     95  O   UNL     1      -8.284  14.678   4.602  1.00  0.00    -0.744 OA
ENDBRANCH  89  92
ENDBRANCH  62  85
ENDBRANCH  36  37
ENDBRANCH  29  31
ENDBRANCH  28  29
ENDBRANCH  27  28
ENDBRANCH   1  27
TORSDOF 19
