REMARK SMILES COc1ccc2c(c1)c(CC(=O)OCCOCCOC(=O)c1ccc(-c3c4nc(c(-c5cccc(S(=O)(=O)[O-])c5F)c5ccc([nH]5)c(-c5cccc(S(=O)(=O)[O-])c5F)c5nc(c(-c6cccc(S(=O)(=O)[O-])c6F)c6ccc3[nH]6)C=C5)C=C4)cc1)c(C(F)(F)F)n2C(=O)c1ccc(Cl)cc1
REMARK SMILES IDX 16 1 15 2 14 3 13 4 11 5 12 6 10 7 9 8 3 9 4 10 8 11 5 12
REMARK SMILES IDX 7 13 6 14 90 15 85 16 2 17 1 18 91 19 92 20 93 21 94 22
REMARK SMILES IDX 99 23 95 24 98 25 96 26 97 27 86 28 87 29 88 30 89 31 17 32
REMARK SMILES IDX 18 33 19 34 20 35 21 36 22 37 23 38 84 39 24 40 83 41 25 42
REMARK SMILES IDX 26 43 27 44 77 45 28 46 82 47 76 48 78 49 29 50 81 51 75 52
REMARK SMILES IDX 74 53 30 55 62 56 42 57 61 58 43 59 46 60 60 61 79 62 44 63
REMARK SMILES IDX 45 64 59 66 80 67 47 68 31 69 32 70 40 71 33 72 35 73 41 74
REMARK SMILES IDX 34 75 36 76 37 77 38 78 39 79 63 80 64 81 72 82 65 83 67 84
REMARK SMILES IDX 73 85 66 86 68 87 69 88 70 89 71 90 48 91 49 92 57 93 50 94
REMARK SMILES IDX 52 95 58 96 51 97 53 98 54 99 55 100 56 101
REMARK H PARENT 78 54 46 65
REMARK Flexibility Score: inf
ROOT
ATOM      1  O   UNL     1      -2.812  -0.554  -4.921  1.00  0.00    -0.374 OA
ENDROOT
BRANCH   1   2
ATOM      2  C   UNL     1      -2.844  -0.325  -6.325  1.00  0.00     0.202 C 
BRANCH   2   3
ATOM      3  C   UNL     1      -2.880   1.111  -6.882  1.00  0.00     0.261 C 
BRANCH   3   4
ATOM      4  O   UNL     1      -2.100   2.085  -6.164  1.00  0.00    -0.463 OA
BRANCH   4   5
ATOM      5  C   UNL     1      -2.832   2.933  -5.394  1.00  0.00     0.310 C 
ATOM      6  O   UNL     1      -4.057   2.900  -5.296  1.00  0.00    -0.252 OA
BRANCH   5   7
ATOM      7  C   UNL     1      -2.038   3.980  -4.645  1.00  0.00     0.161 C 
BRANCH   7   8
ATOM      8  C   UNL     1      -0.545   3.817  -4.479  1.00  0.00     0.002 A 
ATOM      9  C   UNL     1       0.526   1.548  -1.587  1.00  0.00     0.119 A 
ATOM     10  C   UNL     1       1.885   1.736  -1.744  1.00  0.00     0.048 A 
ATOM     11  C   UNL     1      -0.356   2.253  -2.409  1.00  0.00     0.057 A 
ATOM     12  C   UNL     1       2.376   2.615  -2.716  1.00  0.00     0.031 A 
ATOM     13  C   UNL     1       0.115   3.072  -3.463  1.00  0.00     0.008 A 
ATOM     14  C   UNL     1       1.492   3.265  -3.606  1.00  0.00     0.057 A 
ATOM     15  N   UNL     1       1.693   4.208  -4.633  1.00  0.00    -0.271 N 
ATOM     16  C   UNL     1       0.444   4.483  -5.203  1.00  0.00     0.135 A 
BRANCH   9  17
ATOM     17  O   UNL     1      -0.072   0.674  -0.724  1.00  0.00    -0.497 OA
ATOM     18  C   UNL     1       0.731   0.136   0.319  1.00  0.00     0.278 C 
ENDBRANCH   9  17
BRANCH  15  19
ATOM     19  C   UNL     1       2.924   4.863  -4.928  1.00  0.00     0.262 C 
ATOM     20  O   UNL     1       2.874   5.941  -5.515  1.00  0.00    -0.268 OA
BRANCH  19  21
ATOM     21  C   UNL     1       4.262   4.448  -4.453  1.00  0.00     0.040 A 
ATOM     22  C   UNL     1       4.823   3.211  -4.798  1.00  0.00     0.015 A 
ATOM     23  C   UNL     1       4.946   5.321  -3.596  1.00  0.00     0.015 A 
ATOM     24  C   UNL     1       6.031   2.818  -4.208  1.00  0.00     0.021 A 
ATOM     25  C   UNL     1       6.153   4.926  -3.018  1.00  0.00     0.021 A 
ATOM     26  C   UNL     1       6.681   3.669  -3.310  1.00  0.00     0.041 A 
ATOM     27  Cl  UNL     1       8.131   3.158  -2.536  1.00  0.00    -0.084 Cl
ENDBRANCH  19  21
ENDBRANCH  15  19
BRANCH  16  28
ATOM     28  C   UNL     1       0.210   5.413  -6.352  1.00  0.00     0.432 C 
ATOM     29  F   UNL     1      -0.796   4.930  -7.133  1.00  0.00    -0.165 F 
ATOM     30  F   UNL     1      -0.213   6.624  -5.908  1.00  0.00    -0.165 F 
ATOM     31  F   UNL     1       1.250   5.603  -7.189  1.00  0.00    -0.165 F 
ENDBRANCH  16  28
ENDBRANCH   7   8
ENDBRANCH   5   7
ENDBRANCH   4   5
ENDBRANCH   3   4
ENDBRANCH   2   3
ENDBRANCH   1   2
BRANCH   1  32
ATOM     32  C   UNL     1      -1.669  -0.103  -4.198  1.00  0.00     0.202 C 
BRANCH  32  33
ATOM     33  C   UNL     1      -0.283  -0.687  -4.516  1.00  0.00     0.261 C 
BRANCH  33  34
ATOM     34  O   UNL     1       0.098  -0.443  -5.870  1.00  0.00    -0.460 OA
BRANCH  34  35
ATOM     35  C   UNL     1       0.780  -1.478  -6.437  1.00  0.00     0.338 C 
ATOM     36  O   UNL     1       1.501  -2.278  -5.887  1.00  0.00    -0.246 OA
BRANCH  35  37
ATOM     37  C   UNL     1       0.149  -1.644  -7.757  1.00  0.00     0.060 A 
ATOM     38  C   UNL     1       0.043  -0.551  -8.618  1.00  0.00     0.016 A 
ATOM     39  C   UNL     1      -0.608  -2.811  -7.948  1.00  0.00     0.016 A 
ATOM     40  C   UNL     1      -0.886  -0.607  -9.643  1.00  0.00     0.010 A 
ATOM     41  C   UNL     1      -1.548  -2.856  -8.971  1.00  0.00     0.010 A 
ATOM     42  C   UNL     1      -1.702  -1.744  -9.800  1.00  0.00    -0.014 A 
BRANCH  42  43
ATOM     43  C   UNL     1      -2.520  -1.798 -11.007  1.00  0.00     0.031 A 
ATOM     44  C   UNL     1      -1.693  -1.812 -12.244  1.00  0.00     0.074 A 
ATOM     45  C   UNL     1      -3.855  -1.954 -11.094  1.00  0.00     0.049 A 
ATOM     46  N   UNL     1      -1.588  -0.882 -13.137  1.00  0.00    -0.248 NA
ATOM     47  C   UNL     1      -0.757  -2.933 -12.412  1.00  0.00     0.031 C 
ATOM     48  C   UNL     1      -4.810  -2.281 -10.037  1.00  0.00     0.029 A 
ATOM     49  N   UNL     1      -4.623  -1.965 -12.225  1.00  0.00    -0.354 N 
ATOM     50  C   UNL     1      -0.715  -1.394 -14.092  1.00  0.00     0.074 A 
ATOM     51  C   UNL     1      -0.115  -2.573 -13.522  1.00  0.00     0.031 C 
ATOM     52  C   UNL     1      -5.971  -2.688 -10.605  1.00  0.00     0.029 A 
ATOM     53  C   UNL     1      -5.882  -2.528 -12.048  1.00  0.00     0.049 A 
ATOM     54  H   UNL     1      -4.313  -1.605 -13.087  1.00  0.00     0.167 HD
ATOM     55  C   UNL     1      -0.699  -0.949 -15.375  1.00  0.00     0.034 A 
ATOM     56  C   UNL     1      -6.730  -2.903 -13.037  1.00  0.00     0.034 A 
ATOM     57  C   UNL     1      -1.404   0.286 -15.548  1.00  0.00     0.049 A 
ATOM     58  C   UNL     1      -6.340  -2.154 -14.256  1.00  0.00     0.074 A 
ATOM     59  C   UNL     1      -1.288   1.569 -15.054  1.00  0.00     0.029 A 
ATOM     60  N   UNL     1      -2.650   0.204 -16.117  1.00  0.00    -0.354 N 
ATOM     61  N   UNL     1      -6.477  -0.867 -14.402  1.00  0.00    -0.248 NA
ATOM     62  C   UNL     1      -5.492  -2.810 -15.239  1.00  0.00     0.031 C 
ATOM     63  C   UNL     1      -2.625   2.051 -14.959  1.00  0.00     0.029 A 
ATOM     64  C   UNL     1      -3.473   1.038 -15.411  1.00  0.00     0.049 A 
ATOM     65  H   UNL     1      -2.904  -0.351 -16.889  1.00  0.00     0.167 HD
ATOM     66  C   UNL     1      -5.420  -0.495 -15.220  1.00  0.00     0.074 A 
ATOM     67  C   UNL     1      -4.937  -1.738 -15.807  1.00  0.00     0.031 C 
ATOM     68  C   UNL     1      -4.859   0.744 -15.120  1.00  0.00     0.034 A 
BRANCH  55  69
ATOM     69  C   UNL     1      -0.348  -1.820 -16.548  1.00  0.00     0.023 A 
ATOM     70  C   UNL     1      -0.026  -1.194 -17.769  1.00  0.00     0.012 A 
ATOM     71  C   UNL     1      -0.587  -3.212 -16.571  1.00  0.00     0.148 A 
ATOM     72  C   UNL     1       0.045  -1.923 -18.961  1.00  0.00     0.002 A 
ATOM     73  C   UNL     1      -0.433  -3.943 -17.740  1.00  0.00     0.091 A 
ATOM     74  F   UNL     1      -1.101  -3.816 -15.492  1.00  0.00    -0.205 F 
ATOM     75  C   UNL     1      -0.141  -3.301 -18.944  1.00  0.00     0.022 A 
BRANCH  73  76
ATOM     76  S   UNL     1      -0.615  -5.729 -17.745  1.00  0.00     0.127 S 
ATOM     77  O   UNL     1      -1.963  -5.883 -18.283  1.00  0.00    -0.237 OA
ATOM     78  O   UNL     1       0.465  -6.140 -18.643  1.00  0.00    -0.237 OA
ATOM     79  O   UNL     1      -0.418  -6.132 -16.358  1.00  0.00    -0.744 OA
ENDBRANCH  73  76
ENDBRANCH  55  69
BRANCH  56  80
ATOM     80  C   UNL     1      -7.715  -4.013 -13.115  1.00  0.00     0.023 A 
ATOM     81  C   UNL     1      -8.641  -4.028 -14.183  1.00  0.00     0.012 A 
ATOM     82  C   UNL     1      -7.566  -5.195 -12.358  1.00  0.00     0.148 A 
ATOM     83  C   UNL     1      -9.336  -5.193 -14.529  1.00  0.00     0.002 A 
ATOM     84  C   UNL     1      -8.273  -6.348 -12.697  1.00  0.00     0.091 A 
ATOM     85  F   UNL     1      -6.661  -5.226 -11.371  1.00  0.00    -0.205 F 
ATOM     86  C   UNL     1      -9.143  -6.357 -13.793  1.00  0.00     0.022 A 
BRANCH  84  87
ATOM     87  S   UNL     1      -8.068  -7.887 -11.788  1.00  0.00     0.127 S 
ATOM     88  O   UNL     1      -9.441  -8.388 -11.714  1.00  0.00    -0.237 OA
ATOM     89  O   UNL     1      -7.186  -8.646 -12.668  1.00  0.00    -0.237 OA
ATOM     90  O   UNL     1      -7.506  -7.504 -10.498  1.00  0.00    -0.744 OA
ENDBRANCH  84  87
ENDBRANCH  56  80
BRANCH  68  91
ATOM     91  C   UNL     1      -5.614   1.810 -14.377  1.00  0.00     0.023 A 
ATOM     92  C   UNL     1      -5.825   1.744 -12.985  1.00  0.00     0.012 A 
ATOM     93  C   UNL     1      -5.931   2.992 -15.067  1.00  0.00     0.148 A 
ATOM     94  C   UNL     1      -6.349   2.839 -12.295  1.00  0.00     0.002 A 
ATOM     95  C   UNL     1      -6.413   4.092 -14.371  1.00  0.00     0.091 A 
ATOM     96  F   UNL     1      -5.708   3.031 -16.390  1.00  0.00    -0.205 F 
ATOM     97  C   UNL     1      -6.628   4.018 -12.985  1.00  0.00     0.022 A 
BRANCH  95  98
ATOM     98  S   UNL     1      -6.680   5.677 -15.169  1.00  0.00     0.127 S 
ATOM     99  O   UNL     1      -8.129   5.835 -15.059  1.00  0.00    -0.237 OA
ATOM    100  O   UNL     1      -5.899   6.582 -14.324  1.00  0.00    -0.237 OA
ATOM    101  O   UNL     1      -6.174   5.540 -16.529  1.00  0.00    -0.744 OA
ENDBRANCH  95  98
ENDBRANCH  68  91
ENDBRANCH  42  43
ENDBRANCH  35  37
ENDBRANCH  34  35
ENDBRANCH  33  34
ENDBRANCH  32  33
ENDBRANCH   1  32
TORSDOF 22
