REMARK SMILES O=C(OCCOCCOC(=O)[C@H]1C[C@H]2CCCC[C@@H]2[N@@H+]1CCn1ccnc1)c1ccc(-c2c3nc(c(-c4cccc(S(=O)(=O)[O-])c4F)c4ccc([nH]4)c(-c4cccc(S(=O)(=O)[O-])c4F)c4nc(c(-c5cccc(S(=O)(=O)[O-])c5F)c5ccc2[nH]5)C=C4)C=C3)cc1
REMARK SMILES IDX 6 1 5 2 4 3 3 4 2 5 1 6 28 7 29 8 90 9 30 10 89 11 31 12
REMARK SMILES IDX 32 13 33 14 83 15 34 16 88 17 82 18 84 19 35 20 87 21 81 22
REMARK SMILES IDX 80 23 36 25 68 26 48 27 67 28 49 29 52 30 66 31 85 32 50 33
REMARK SMILES IDX 51 34 65 36 86 37 53 38 37 39 38 40 46 41 39 42 41 43 47 44
REMARK SMILES IDX 40 45 42 46 43 47 44 48 45 49 69 50 70 51 78 52 71 53 73 54
REMARK SMILES IDX 79 55 72 56 74 57 75 58 76 59 77 60 54 61 55 62 63 63 56 64
REMARK SMILES IDX 58 65 64 66 57 67 59 68 60 69 61 70 62 71 7 72 8 73 9 74
REMARK SMILES IDX 10 75 11 76 12 77 13 78 20 79 14 80 19 81 15 83 18 84 16 85
REMARK SMILES IDX 17 86 21 87 22 88 23 89 24 90 27 91 25 92 26 93
REMARK H PARENT 84 24 52 35 20 82
REMARK Flexibility Score: inf
ROOT
ATOM      1  O   UNL     1       2.736   0.493  -7.569  1.00  0.00    -0.374 OA
ENDROOT
BRANCH   1   2
ATOM      2  C   UNL     1       2.444  -0.216  -6.375  1.00  0.00     0.202 C 
BRANCH   2   3
ATOM      3  C   UNL     1       2.418  -1.752  -6.394  1.00  0.00     0.261 C 
BRANCH   3   4
ATOM      4  O   UNL     1       3.632  -2.398  -6.808  1.00  0.00    -0.460 OA
BRANCH   4   5
ATOM      5  C   UNL     1       4.243  -2.375  -8.009  1.00  0.00     0.338 C 
ATOM      6  O   UNL     1       5.468  -2.459  -8.057  1.00  0.00    -0.246 OA
BRANCH   5   7
ATOM      7  C   UNL     1       3.465  -2.391  -9.274  1.00  0.00     0.060 A 
ATOM      8  C   UNL     1       2.078  -2.342  -9.338  1.00  0.00     0.016 A 
ATOM      9  C   UNL     1       4.194  -2.621 -10.453  1.00  0.00     0.016 A 
ATOM     10  C   UNL     1       1.430  -2.856 -10.430  1.00  0.00     0.010 A 
ATOM     11  C   UNL     1       3.544  -3.037 -11.599  1.00  0.00     0.010 A 
ATOM     12  C   UNL     1       2.179  -3.272 -11.524  1.00  0.00    -0.014 A 
BRANCH  12  13
ATOM     13  C   UNL     1       1.424  -3.881 -12.596  1.00  0.00     0.031 A 
ATOM     14  C   UNL     1       0.364  -2.992 -13.131  1.00  0.00     0.074 A 
ATOM     15  C   UNL     1       1.681  -5.134 -13.007  1.00  0.00     0.049 A 
ATOM     16  N   UNL     1      -0.917  -3.139 -13.039  1.00  0.00    -0.248 NA
ATOM     17  C   UNL     1       0.786  -1.665 -13.605  1.00  0.00     0.031 C 
ATOM     18  C   UNL     1       2.840  -5.970 -12.684  1.00  0.00     0.029 A 
ATOM     19  N   UNL     1       1.021  -5.868 -13.938  1.00  0.00    -0.354 N 
ATOM     20  C   UNL     1      -1.458  -2.021 -13.672  1.00  0.00     0.074 A 
ATOM     21  C   UNL     1      -0.391  -1.066 -13.776  1.00  0.00     0.031 C 
ATOM     22  C   UNL     1       2.955  -6.933 -13.625  1.00  0.00     0.029 A 
ATOM     23  C   UNL     1       1.811  -6.854 -14.515  1.00  0.00     0.049 A 
ATOM     24  H   UNL     1       0.079  -5.717 -14.180  1.00  0.00     0.167 HD
ATOM     25  C   UNL     1      -2.654  -2.095 -14.318  1.00  0.00     0.034 A 
ATOM     26  C   UNL     1       1.586  -7.452 -15.710  1.00  0.00     0.034 A 
ATOM     27  C   UNL     1      -3.428  -3.216 -13.840  1.00  0.00     0.049 A 
ATOM     28  C   UNL     1       0.159  -7.235 -16.052  1.00  0.00     0.074 A 
ATOM     29  C   UNL     1      -3.944  -3.598 -12.618  1.00  0.00     0.029 A 
ATOM     30  N   UNL     1      -3.443  -4.342 -14.627  1.00  0.00    -0.354 N 
ATOM     31  N   UNL     1      -0.828  -7.760 -15.380  1.00  0.00    -0.248 NA
ATOM     32  C   UNL     1      -0.180  -6.069 -16.853  1.00  0.00     0.031 C 
ATOM     33  C   UNL     1      -3.810  -5.018 -12.589  1.00  0.00     0.029 A 
ATOM     34  C   UNL     1      -3.278  -5.427 -13.813  1.00  0.00     0.049 A 
ATOM     35  H   UNL     1      -3.554  -4.364 -15.605  1.00  0.00     0.167 HD
ATOM     36  C   UNL     1      -1.773  -6.743 -15.303  1.00  0.00     0.074 A 
ATOM     37  C   UNL     1      -1.368  -5.771 -16.317  1.00  0.00     0.031 C 
ATOM     38  C   UNL     1      -2.611  -6.641 -14.229  1.00  0.00     0.034 A 
BRANCH  25  39
ATOM     39  C   UNL     1      -2.917  -1.478 -15.685  1.00  0.00     0.023 A 
ATOM     40  C   UNL     1      -4.181  -1.743 -16.262  1.00  0.00     0.012 A 
ATOM     41  C   UNL     1      -1.926  -0.955 -16.550  1.00  0.00     0.148 A 
ATOM     42  C   UNL     1      -4.399  -1.633 -17.639  1.00  0.00     0.002 A 
ATOM     43  C   UNL     1      -2.161  -0.802 -17.911  1.00  0.00     0.091 A 
ATOM     44  F   UNL     1      -0.703  -0.682 -16.103  1.00  0.00    -0.205 F 
ATOM     45  C   UNL     1      -3.383  -1.179 -18.467  1.00  0.00     0.022 A 
BRANCH  43  46
ATOM     46  S   UNL     1      -0.884  -0.196 -19.024  1.00  0.00     0.127 S 
ATOM     47  O   UNL     1      -0.552  -1.407 -19.768  1.00  0.00    -0.237 OA
ATOM     48  O   UNL     1      -1.613   0.821 -19.782  1.00  0.00    -0.237 OA
ATOM     49  O   UNL     1       0.172   0.337 -18.172  1.00  0.00    -0.744 OA
ENDBRANCH  43  46
ENDBRANCH  25  39
BRANCH  26  50
ATOM     50  C   UNL     1       2.583  -7.889 -16.714  1.00  0.00     0.023 A 
ATOM     51  C   UNL     1       2.209  -8.813 -17.708  1.00  0.00     0.012 A 
ATOM     52  C   UNL     1       3.817  -7.213 -16.863  1.00  0.00     0.148 A 
ATOM     53  C   UNL     1       3.024  -9.040 -18.823  1.00  0.00     0.002 A 
ATOM     54  C   UNL     1       4.630  -7.453 -17.966  1.00  0.00     0.091 A 
ATOM     55  F   UNL     1       4.150  -6.268 -15.975  1.00  0.00    -0.205 F 
ATOM     56  C   UNL     1       4.231  -8.358 -18.955  1.00  0.00     0.022 A 
BRANCH  54  57
ATOM     57  S   UNL     1       6.193  -6.594 -18.201  1.00  0.00     0.127 S 
ATOM     58  O   UNL     1       7.101  -7.704 -18.511  1.00  0.00    -0.237 OA
ATOM     59  O   UNL     1       5.889  -5.725 -19.341  1.00  0.00    -0.237 OA
ATOM     60  O   UNL     1       6.476  -5.921 -16.950  1.00  0.00    -0.744 OA
ENDBRANCH  54  57
ENDBRANCH  26  50
BRANCH  38  61
ATOM     61  C   UNL     1      -2.662  -7.789 -13.255  1.00  0.00     0.023 A 
ATOM     62  C   UNL     1      -1.553  -8.164 -12.468  1.00  0.00     0.012 A 
ATOM     63  C   UNL     1      -3.910  -8.379 -12.997  1.00  0.00     0.148 A 
ATOM     64  C   UNL     1      -1.683  -9.122 -11.459  1.00  0.00     0.002 A 
ATOM     65  C   UNL     1      -4.046  -9.294 -11.962  1.00  0.00     0.091 A 
ATOM     66  F   UNL     1      -4.955  -8.005 -13.751  1.00  0.00    -0.205 F 
ATOM     67  C   UNL     1      -2.934  -9.677 -11.197  1.00  0.00     0.022 A 
BRANCH  65  68
ATOM     68  S   UNL     1      -5.654  -9.937 -11.493  1.00  0.00     0.127 S 
ATOM     69  O   UNL     1      -5.609 -11.294 -12.032  1.00  0.00    -0.237 OA
ATOM     70  O   UNL     1      -5.610  -9.857 -10.032  1.00  0.00    -0.237 OA
ATOM     71  O   UNL     1      -6.634  -9.049 -12.106  1.00  0.00    -0.744 OA
ENDBRANCH  65  68
ENDBRANCH  38  61
ENDBRANCH  12  13
ENDBRANCH   5   7
ENDBRANCH   4   5
ENDBRANCH   3   4
ENDBRANCH   2   3
ENDBRANCH   1   2
BRANCH   1  72
ATOM     72  C   UNL     1       4.090   0.760  -7.952  1.00  0.00     0.202 C 
BRANCH  72  73
ATOM     73  C   UNL     1       5.052   1.431  -6.965  1.00  0.00     0.261 C 
BRANCH  73  74
ATOM     74  O   UNL     1       5.354   0.564  -5.859  1.00  0.00    -0.459 OA
BRANCH  74  75
ATOM     75  C   UNL     1       5.088   1.053  -4.619  1.00  0.00     0.365 C 
ATOM     76  O   UNL     1       4.757   2.211  -4.376  1.00  0.00    -0.245 OA
BRANCH  75  77
ATOM     77  C   UNL     1       5.155  -0.020  -3.526  1.00  0.00     0.295 C 
ATOM     78  C   UNL     1       4.592  -1.394  -3.909  1.00  0.00     0.087 C 
ATOM     79  N   UNL     1       6.558  -0.263  -3.092  1.00  0.00    -0.319 N 
ATOM     80  C   UNL     1       5.536  -2.365  -3.245  1.00  0.00     0.054 C 
ATOM     81  C   UNL     1       6.858  -1.657  -3.471  1.00  0.00     0.188 C 
ATOM     82  H   UNL     1       7.243   0.324  -3.569  1.00  0.00     0.349 HD
ATOM     83  C   UNL     1       5.535  -3.799  -3.740  1.00  0.00     0.010 C 
ATOM     84  C   UNL     1       8.050  -2.401  -2.885  1.00  0.00     0.065 C 
ATOM     85  C   UNL     1       6.669  -4.562  -3.052  1.00  0.00     0.001 C 
ATOM     86  C   UNL     1       8.030  -3.889  -3.261  1.00  0.00     0.006 C 
BRANCH  79  87
ATOM     87  C   UNL     1       6.833   0.190  -1.721  1.00  0.00     0.285 C 
BRANCH  87  88
ATOM     88  C   UNL     1       5.918  -0.167  -0.516  1.00  0.00     0.184 C 
BRANCH  88  89
ATOM     89  N   UNL     1       6.065  -1.484   0.064  1.00  0.00    -0.332 N 
ATOM     90  C   UNL     1       7.214  -2.046   0.541  1.00  0.00     0.107 A 
ATOM     91  C   UNL     1       5.054  -2.382   0.277  1.00  0.00     0.199 A 
ATOM     92  C   UNL     1       6.866  -3.336   0.870  1.00  0.00     0.130 A 
ATOM     93  N   UNL     1       5.517  -3.525   0.731  1.00  0.00    -0.245 NA
ENDBRANCH  88  89
ENDBRANCH  87  88
ENDBRANCH  79  87
ENDBRANCH  75  77
ENDBRANCH  74  75
ENDBRANCH  73  74
ENDBRANCH  72  73
ENDBRANCH   1  72
TORSDOF 20
