REMARK SMILES CN1C(=O)c2ccc(NC(=O)C[C@@](C)(C(=O)OCCOCCOC(=O)c3ccc(-c4c5nc(c(-c6cccc(S(=O)(=O)[O-])c6F)c6ccc([nH]6)c(-c6cccc(S(=O)(=O)[O-])c6F)c6nc(c(-c7cccc(S(=O)(=O)[O-])c7F)c7ccc4[nH]7)C=C6)C=C5)cc3)c3ccccc3)cc2C1=O
REMARK SMILES IDX 20 1 19 2 18 3 17 4 15 5 16 6 13 7 14 8 12 9 10 10 9 11
REMARK SMILES IDX 11 13 8 14 1 15 2 16 3 17 97 18 4 19 5 20 96 21 98 22 6 23
REMARK SMILES IDX 95 24 7 25 89 26 90 27 94 28 91 29 93 30 92 31 21 32 22 33
REMARK SMILES IDX 23 34 24 35 25 36 26 37 27 38 88 39 28 40 87 41 29 42 30 43
REMARK SMILES IDX 31 44 81 45 32 46 86 47 80 48 82 49 33 50 85 51 79 52 78 53
REMARK SMILES IDX 34 55 66 56 46 57 65 58 47 59 50 60 64 61 83 62 48 63 49 64
REMARK SMILES IDX 63 66 84 67 51 68 35 69 36 70 44 71 37 72 39 73 45 74 38 75
REMARK SMILES IDX 40 76 41 77 42 78 43 79 67 80 68 81 76 82 69 83 71 84 77 85
REMARK SMILES IDX 70 86 72 87 73 88 74 89 75 90 52 91 53 92 61 93 54 94 56 95
REMARK SMILES IDX 62 96 55 97 57 98 58 99 59 100 60 101
REMARK H PARENT 9 12 82 54 50 65
REMARK Flexibility Score: inf
ROOT
ATOM      1  O   UNL     1       0.458   6.867   1.292  1.00  0.00    -0.374 OA
ENDROOT
BRANCH   1   2
ATOM      2  C   UNL     1       1.311   5.934   0.632  1.00  0.00     0.202 C 
BRANCH   2   3
ATOM      3  C   UNL     1       1.243   4.457   1.034  1.00  0.00     0.261 C 
BRANCH   3   4
ATOM      4  O   UNL     1      -0.073   3.890   0.925  1.00  0.00    -0.463 OA
BRANCH   4   5
ATOM      5  C   UNL     1      -0.729   3.691   2.104  1.00  0.00     0.316 C 
ATOM      6  O   UNL     1      -0.248   3.957   3.201  1.00  0.00    -0.251 OA
BRANCH   5   7
ATOM      7  C   UNL     1      -2.114   3.007   1.907  1.00  0.00     0.099 C 
ATOM      8  C   UNL     1      -1.721   1.527   2.090  1.00  0.00     0.029 C 
BRANCH   7   9
ATOM      9  C   UNL     1      -2.721   3.330   0.505  1.00  0.00     0.123 C 
BRANCH   9  10
ATOM     10  C   UNL     1      -3.917   2.505   0.044  1.00  0.00     0.225 C 
ATOM     11  N   UNL     1      -3.807   1.255  -0.505  1.00  0.00    -0.326 N 
ATOM     12  H   UNL     1      -4.666   0.843  -0.753  1.00  0.00     0.169 HD
ATOM     13  O   UNL     1      -5.060   2.947   0.208  1.00  0.00    -0.275 OA
BRANCH  11  14
ATOM     14  C   UNL     1      -2.683   0.459  -0.777  1.00  0.00     0.042 A 
ATOM     15  C   UNL     1       3.151  -0.413  -0.123  1.00  0.00     0.157 C 
ATOM     16  N   UNL     1       1.751  -0.462  -0.463  1.00  0.00    -0.277 N 
ATOM     17  C   UNL     1       0.924  -1.504  -0.134  1.00  0.00     0.261 C 
ATOM     18  C   UNL     1       1.059   0.595  -0.982  1.00  0.00     0.261 C 
ATOM     19  O   UNL     1       1.160  -2.510   0.508  1.00  0.00    -0.269 OA
ATOM     20  C   UNL     1      -0.425  -1.099  -0.528  1.00  0.00     0.053 A 
ATOM     21  C   UNL     1      -0.343   0.188  -1.022  1.00  0.00     0.055 A 
ATOM     22  O   UNL     1       1.438   1.726  -1.237  1.00  0.00    -0.269 OA
ATOM     23  C   UNL     1      -1.642  -1.701  -0.276  1.00  0.00     0.017 A 
ATOM     24  C   UNL     1      -1.461   0.982  -1.199  1.00  0.00     0.040 A 
ATOM     25  C   UNL     1      -2.788  -0.910  -0.427  1.00  0.00     0.027 A 
ENDBRANCH  11  14
ENDBRANCH   9  10
ENDBRANCH   7   9
BRANCH   7  26
ATOM     26  C   UNL     1      -3.068   3.481   3.032  1.00  0.00    -0.030 A 
ATOM     27  C   UNL     1      -3.243   4.856   3.281  1.00  0.00     0.005 A 
ATOM     28  C   UNL     1      -3.707   2.585   3.904  1.00  0.00     0.005 A 
ATOM     29  C   UNL     1      -3.935   5.314   4.403  1.00  0.00     0.000 A 
ATOM     30  C   UNL     1      -4.403   3.042   5.027  1.00  0.00     0.000 A 
ATOM     31  C   UNL     1      -4.498   4.404   5.288  1.00  0.00     0.000 A 
ENDBRANCH   7  26
ENDBRANCH   5   7
ENDBRANCH   4   5
ENDBRANCH   3   4
ENDBRANCH   2   3
ENDBRANCH   1   2
BRANCH   1  32
ATOM     32  C   UNL     1      -0.931   6.827   0.986  1.00  0.00     0.202 C 
BRANCH  32  33
ATOM     33  C   UNL     1      -1.421   7.381  -0.356  1.00  0.00     0.261 C 
BRANCH  33  34
ATOM     34  O   UNL     1      -0.822   6.732  -1.486  1.00  0.00    -0.460 OA
BRANCH  34  35
ATOM     35  C   UNL     1       0.122   7.481  -2.108  1.00  0.00     0.338 C 
ATOM     36  O   UNL     1       0.455   8.622  -1.835  1.00  0.00    -0.246 OA
BRANCH  35  37
ATOM     37  C   UNL     1       0.853   6.658  -3.084  1.00  0.00     0.060 A 
ATOM     38  C   UNL     1       2.244   6.575  -2.942  1.00  0.00     0.016 A 
ATOM     39  C   UNL     1       0.206   6.058  -4.165  1.00  0.00     0.016 A 
ATOM     40  C   UNL     1       3.004   5.936  -3.915  1.00  0.00     0.010 A 
ATOM     41  C   UNL     1       0.973   5.425  -5.146  1.00  0.00     0.010 A 
ATOM     42  C   UNL     1       2.376   5.396  -5.043  1.00  0.00    -0.014 A 
BRANCH  42  43
ATOM     43  C   UNL     1       3.198   4.925  -6.181  1.00  0.00     0.031 A 
ATOM     44  C   UNL     1       3.317   5.793  -7.404  1.00  0.00     0.074 A 
ATOM     45  C   UNL     1       3.838   3.744  -6.115  1.00  0.00     0.049 A 
ATOM     46  N   UNL     1       3.917   5.546  -8.538  1.00  0.00    -0.248 NA
ATOM     47  C   UNL     1       2.672   7.116  -7.339  1.00  0.00     0.031 C 
ATOM     48  C   UNL     1       3.812   2.831  -4.973  1.00  0.00     0.029 A 
ATOM     49  N   UNL     1       4.612   3.099  -7.047  1.00  0.00    -0.354 N 
ATOM     50  C   UNL     1       3.705   6.669  -9.330  1.00  0.00     0.074 A 
ATOM     51  C   UNL     1       2.905   7.591  -8.555  1.00  0.00     0.031 C 
ATOM     52  C   UNL     1       4.506   1.724  -5.287  1.00  0.00     0.029 A 
ATOM     53  C   UNL     1       4.991   1.836  -6.660  1.00  0.00     0.049 A 
ATOM     54  H   UNL     1       4.871   3.502  -7.907  1.00  0.00     0.167 HD
ATOM     55  C   UNL     1       4.154   6.917 -10.583  1.00  0.00     0.034 A 
ATOM     56  C   UNL     1       5.619   0.867  -7.355  1.00  0.00     0.034 A 
ATOM     57  C   UNL     1       4.957   5.999 -11.344  1.00  0.00     0.049 A 
ATOM     58  C   UNL     1       6.054   1.145  -8.771  1.00  0.00     0.074 A 
ATOM     59  C   UNL     1       5.478   6.161 -12.616  1.00  0.00     0.029 A 
ATOM     60  N   UNL     1       5.351   4.744 -10.908  1.00  0.00    -0.354 N 
ATOM     61  N   UNL     1       5.926   2.244  -9.475  1.00  0.00    -0.248 NA
ATOM     62  C   UNL     1       6.745   0.058  -9.481  1.00  0.00     0.031 C 
ATOM     63  C   UNL     1       6.161   4.991 -12.960  1.00  0.00     0.029 A 
ATOM     64  C   UNL     1       6.099   4.116 -11.889  1.00  0.00     0.049 A 
ATOM     65  H   UNL     1       5.131   4.356 -10.030  1.00  0.00     0.167 HD
ATOM     66  C   UNL     1       6.552   1.994 -10.691  1.00  0.00     0.074 A 
ATOM     67  C   UNL     1       7.080   0.648 -10.620  1.00  0.00     0.031 C 
ATOM     68  C   UNL     1       6.668   2.798 -11.777  1.00  0.00     0.034 A 
BRANCH  55  69
ATOM     69  C   UNL     1       3.813   8.246 -11.204  1.00  0.00     0.023 A 
ATOM     70  C   UNL     1       4.446   9.415 -10.735  1.00  0.00     0.012 A 
ATOM     71  C   UNL     1       2.928   8.331 -12.296  1.00  0.00     0.148 A 
ATOM     72  C   UNL     1       4.184  10.651 -11.325  1.00  0.00     0.002 A 
ATOM     73  C   UNL     1       2.705   9.559 -12.909  1.00  0.00     0.091 A 
ATOM     74  F   UNL     1       2.323   7.211 -12.717  1.00  0.00    -0.205 F 
ATOM     75  C   UNL     1       3.324  10.721 -12.417  1.00  0.00     0.022 A 
BRANCH  73  76
ATOM     76  S   UNL     1       1.677   9.747 -14.369  1.00  0.00     0.127 S 
ATOM     77  O   UNL     1       0.571  10.550 -13.849  1.00  0.00    -0.237 OA
ATOM     78  O   UNL     1       2.571  10.458 -15.283  1.00  0.00    -0.237 OA
ATOM     79  O   UNL     1       1.319   8.399 -14.788  1.00  0.00    -0.744 OA
ENDBRANCH  73  76
ENDBRANCH  55  69
BRANCH  56  80
ATOM     80  C   UNL     1       5.868  -0.464  -6.732  1.00  0.00     0.023 A 
ATOM     81  C   UNL     1       7.188  -0.891  -6.489  1.00  0.00     0.012 A 
ATOM     82  C   UNL     1       4.798  -1.317  -6.394  1.00  0.00     0.148 A 
ATOM     83  C   UNL     1       7.439  -2.161  -5.969  1.00  0.00     0.002 A 
ATOM     84  C   UNL     1       5.054  -2.554  -5.815  1.00  0.00     0.091 A 
ATOM     85  F   UNL     1       3.549  -0.904  -6.648  1.00  0.00    -0.205 F 
ATOM     86  C   UNL     1       6.374  -2.989  -5.624  1.00  0.00     0.022 A 
BRANCH  84  87
ATOM     87  S   UNL     1       3.737  -3.613  -5.207  1.00  0.00     0.127 S 
ATOM     88  O   UNL     1       3.722  -4.676  -6.207  1.00  0.00    -0.237 OA
ATOM     89  O   UNL     1       4.249  -4.005  -3.893  1.00  0.00    -0.237 OA
ATOM     90  O   UNL     1       2.549  -2.770  -5.154  1.00  0.00    -0.744 OA
ENDBRANCH  84  87
ENDBRANCH  56  80
BRANCH  68  91
ATOM     91  C   UNL     1       7.436   2.271 -12.962  1.00  0.00     0.023 A 
ATOM     92  C   UNL     1       6.878   1.260 -13.770  1.00  0.00     0.012 A 
ATOM     93  C   UNL     1       8.676   2.837 -13.319  1.00  0.00     0.148 A 
ATOM     94  C   UNL     1       7.558   0.799 -14.897  1.00  0.00     0.002 A 
ATOM     95  C   UNL     1       9.322   2.410 -14.472  1.00  0.00     0.091 A 
ATOM     96  F   UNL     1       9.194   3.788 -12.528  1.00  0.00    -0.205 F 
ATOM     97  C   UNL     1       8.772   1.382 -15.254  1.00  0.00     0.022 A 
BRANCH  95  98
ATOM     98  S   UNL     1      10.840   3.165 -15.066  1.00  0.00     0.127 S 
ATOM     99  O   UNL     1      11.801   2.077 -14.892  1.00  0.00    -0.237 OA
ATOM    100  O   UNL     1      10.507   3.467 -16.459  1.00  0.00    -0.237 OA
ATOM    101  O   UNL     1      11.067   4.333 -14.227  1.00  0.00    -0.744 OA
ENDBRANCH  95  98
ENDBRANCH  68  91
ENDBRANCH  42  43
ENDBRANCH  35  37
ENDBRANCH  34  35
ENDBRANCH  33  34
ENDBRANCH  32  33
ENDBRANCH   1  32
TORSDOF 21
