REMARK SMILES O=C(OCCOCCOC(=O)c1ccc(N2C(=O)C[C@H](c3c[nH]c4ccccc34)C2=O)cc1O)c1ccc(-c2c3nc(c(-c4cccc(S(=O)(=O)[O-])c4F)c4ccc([nH]4)c(-c4cccc(S(=O)(=O)[O-])c4F)c4nc(c(-c5cccc(S(=O)(=O)[O-])c5F)c5ccc2[nH]5)C=C4)C=C3)cc1
REMARK SMILES IDX 5 1 4 2 3 3 2 4 1 5 35 6 36 7 97 8 37 9 96 10 38 11 39 12
REMARK SMILES IDX 40 13 90 14 41 15 95 16 89 17 91 18 42 19 94 20 88 21 87 22
REMARK SMILES IDX 43 24 75 25 55 26 74 27 56 28 59 29 73 30 92 31 57 32 58 33
REMARK SMILES IDX 72 35 93 36 60 37 44 38 45 39 53 40 46 41 48 42 54 43 47 44
REMARK SMILES IDX 49 45 50 46 51 47 52 48 76 49 77 50 85 51 78 52 80 53 86 54
REMARK SMILES IDX 79 55 81 56 82 57 83 58 84 59 61 60 62 61 70 62 63 63 65 64
REMARK SMILES IDX 71 65 64 66 66 67 67 68 68 69 69 70 6 71 7 72 8 73 9 74
REMARK SMILES IDX 10 75 11 76 12 77 13 78 33 79 14 80 32 81 15 82 34 83 16 85
REMARK SMILES IDX 17 86 30 87 18 88 19 89 20 90 31 91 21 92 22 93 29 94 23 95
REMARK SMILES IDX 24 96 28 97 25 99 27 100 26 101
REMARK H PARENT 91 23 59 34 34 84 23 98
REMARK Flexibility Score: inf
ROOT
ATOM      1  C   UNL     1       4.427  -1.292   1.016  1.00  0.00     0.202 C 
ENDROOT
BRANCH   1   2
ATOM      2  C   UNL     1       4.162   0.186   1.305  1.00  0.00     0.261 C 
BRANCH   2   3
ATOM      3  O   UNL     1       2.772   0.488   1.116  1.00  0.00    -0.460 OA
BRANCH   3   4
ATOM      4  C   UNL     1       2.183   1.091   0.058  1.00  0.00     0.338 C 
ATOM      5  O   UNL     1       0.968   1.274   0.099  1.00  0.00    -0.246 OA
BRANCH   4   6
ATOM      6  C   UNL     1       2.924   1.554  -1.156  1.00  0.00     0.060 A 
ATOM      7  C   UNL     1       4.108   0.992  -1.643  1.00  0.00     0.016 A 
ATOM      8  C   UNL     1       2.320   2.569  -1.914  1.00  0.00     0.016 A 
ATOM      9  C   UNL     1       4.699   1.428  -2.817  1.00  0.00     0.010 A 
ATOM     10  C   UNL     1       2.894   3.006  -3.109  1.00  0.00     0.010 A 
ATOM     11  C   UNL     1       4.093   2.436  -3.551  1.00  0.00    -0.014 A 
BRANCH  11  12
ATOM     12  C   UNL     1       4.804   2.952  -4.725  1.00  0.00     0.031 A 
ATOM     13  C   UNL     1       5.543   4.239  -4.580  1.00  0.00     0.074 A 
ATOM     14  C   UNL     1       4.827   2.229  -5.856  1.00  0.00     0.049 A 
ATOM     15  N   UNL     1       6.150   4.947  -5.488  1.00  0.00    -0.248 NA
ATOM     16  C   UNL     1       5.610   4.804  -3.220  1.00  0.00     0.031 C 
ATOM     17  C   UNL     1       4.210   0.911  -6.024  1.00  0.00     0.029 A 
ATOM     18  N   UNL     1       5.375   2.504  -7.078  1.00  0.00    -0.354 N 
ATOM     19  C   UNL     1       6.612   6.076  -4.826  1.00  0.00     0.074 A 
ATOM     20  C   UNL     1       6.245   5.944  -3.435  1.00  0.00     0.031 C 
ATOM     21  C   UNL     1       4.381   0.509  -7.292  1.00  0.00     0.029 A 
ATOM     22  C   UNL     1       5.060   1.567  -8.032  1.00  0.00     0.049 A 
ATOM     23  H   UNL     1       5.937   3.292  -7.256  1.00  0.00     0.167 HD
ATOM     24  C   UNL     1       7.268   7.133  -5.353  1.00  0.00     0.034 A 
ATOM     25  C   UNL     1       5.247   1.602  -9.364  1.00  0.00     0.034 A 
ATOM     26  C   UNL     1       7.607   7.220  -6.745  1.00  0.00     0.049 A 
ATOM     27  C   UNL     1       5.942   2.806  -9.938  1.00  0.00     0.074 A 
ATOM     28  C   UNL     1       8.253   8.237  -7.416  1.00  0.00     0.029 A 
ATOM     29  N   UNL     1       7.302   6.241  -7.684  1.00  0.00    -0.354 N 
ATOM     30  N   UNL     1       6.404   3.863  -9.311  1.00  0.00    -0.248 NA
ATOM     31  C   UNL     1       6.158   2.825 -11.389  1.00  0.00     0.031 C 
ATOM     32  C   UNL     1       8.308   7.888  -8.770  1.00  0.00     0.029 A 
ATOM     33  C   UNL     1       7.733   6.634  -8.935  1.00  0.00     0.049 A 
ATOM     34  H   UNL     1       6.846   5.391  -7.486  1.00  0.00     0.167 HD
ATOM     35  C   UNL     1       6.989   4.663 -10.282  1.00  0.00     0.074 A 
ATOM     36  C   UNL     1       6.831   3.959 -11.542  1.00  0.00     0.031 C 
ATOM     37  C   UNL     1       7.593   5.870 -10.152  1.00  0.00     0.034 A 
BRANCH  24  38
ATOM     38  C   UNL     1       7.579   8.274  -4.424  1.00  0.00     0.023 A 
ATOM     39  C   UNL     1       8.559   8.130  -3.420  1.00  0.00     0.012 A 
ATOM     40  C   UNL     1       6.850   9.476  -4.510  1.00  0.00     0.148 A 
ATOM     41  C   UNL     1       8.769   9.143  -2.484  1.00  0.00     0.002 A 
ATOM     42  C   UNL     1       7.097  10.498  -3.602  1.00  0.00     0.091 A 
ATOM     43  F   UNL     1       5.899   9.582  -5.448  1.00  0.00    -0.205 F 
ATOM     44  C   UNL     1       8.043  10.328  -2.578  1.00  0.00     0.022 A 
BRANCH  42  45
ATOM     45  S   UNL     1       6.252  12.080  -3.682  1.00  0.00     0.127 S 
ATOM     46  O   UNL     1       5.336  11.984  -2.546  1.00  0.00    -0.237 OA
ATOM     47  O   UNL     1       7.353  13.026  -3.497  1.00  0.00    -0.237 OA
ATOM     48  O   UNL     1       5.623  12.132  -4.994  1.00  0.00    -0.744 OA
ENDBRANCH  42  45
ENDBRANCH  24  38
BRANCH  25  49
ATOM     49  C   UNL     1       4.746   0.482 -10.208  1.00  0.00     0.023 A 
ATOM     50  C   UNL     1       5.656  -0.392 -10.831  1.00  0.00     0.012 A 
ATOM     51  C   UNL     1       3.362   0.230 -10.327  1.00  0.00     0.148 A 
ATOM     52  C   UNL     1       5.197  -1.489 -11.565  1.00  0.00     0.002 A 
ATOM     53  C   UNL     1       2.915  -0.894 -11.011  1.00  0.00     0.091 A 
ATOM     54  F   UNL     1       2.511   1.081  -9.737  1.00  0.00    -0.205 F 
ATOM     55  C   UNL     1       3.831  -1.748 -11.643  1.00  0.00     0.022 A 
BRANCH  53  56
ATOM     56  S   UNL     1       1.184  -1.378 -11.049  1.00  0.00     0.127 S 
ATOM     57  O   UNL     1       0.849  -1.177 -12.457  1.00  0.00    -0.237 OA
ATOM     58  O   UNL     1       1.253  -2.777 -10.627  1.00  0.00    -0.237 OA
ATOM     59  O   UNL     1       0.505  -0.498 -10.108  1.00  0.00    -0.744 OA
ENDBRANCH  53  56
ENDBRANCH  25  49
BRANCH  37  60
ATOM     60  C   UNL     1       8.169   6.493 -11.392  1.00  0.00     0.023 A 
ATOM     61  C   UNL     1       7.318   7.110 -12.328  1.00  0.00     0.012 A 
ATOM     62  C   UNL     1       9.566   6.587 -11.545  1.00  0.00     0.148 A 
ATOM     63  C   UNL     1       7.853   7.810 -13.408  1.00  0.00     0.002 A 
ATOM     64  C   UNL     1      10.091   7.330 -12.591  1.00  0.00     0.091 A 
ATOM     65  F   UNL     1      10.349   5.973 -10.646  1.00  0.00    -0.205 F 
ATOM     66  C   UNL     1       9.237   7.934 -13.529  1.00  0.00     0.022 A 
BRANCH  64  67
ATOM     67  S   UNL     1      11.851   7.643 -12.758  1.00  0.00     0.127 S 
ATOM     68  O   UNL     1      12.175   6.879 -13.962  1.00  0.00    -0.237 OA
ATOM     69  O   UNL     1      11.891   9.095 -12.927  1.00  0.00    -0.237 OA
ATOM     70  O   UNL     1      12.466   7.157 -11.531  1.00  0.00    -0.744 OA
ENDBRANCH  64  67
ENDBRANCH  37  60
ENDBRANCH  11  12
ENDBRANCH   4   6
ENDBRANCH   3   4
ENDBRANCH   2   3
ENDBRANCH   1   2
BRANCH   1  71
ATOM     71  O   UNL     1       4.148  -1.698  -0.323  1.00  0.00    -0.374 OA
BRANCH  71  72
ATOM     72  C   UNL     1       2.793  -2.073  -0.605  1.00  0.00     0.202 C 
BRANCH  72  73
ATOM     73  C   UNL     1       2.784  -3.443  -1.281  1.00  0.00     0.261 C 
BRANCH  73  74
ATOM     74  O   UNL     1       3.305  -4.385  -0.335  1.00  0.00    -0.460 OA
BRANCH  74  75
ATOM     75  C   UNL     1       4.649  -4.544  -0.365  1.00  0.00     0.341 C 
ATOM     76  O   UNL     1       5.422  -4.240  -1.261  1.00  0.00    -0.246 OA
BRANCH  75  77
ATOM     77  C   UNL     1       5.098  -4.922   0.986  1.00  0.00     0.101 A 
ATOM     78  C   UNL     1       6.184  -4.217   1.531  1.00  0.00     0.022 A 
ATOM     79  C   UNL     1       4.478  -5.925   1.727  1.00  0.00     0.132 A 
ATOM     80  C   UNL     1       6.654  -4.517   2.811  1.00  0.00     0.028 A 
ATOM     81  C   UNL     1       4.993  -6.278   2.969  1.00  0.00     0.074 A 
ATOM     82  C   UNL     1       6.097  -5.595   3.502  1.00  0.00     0.055 A 
BRANCH  79  83
ATOM     83  O   UNL     1       3.406  -6.608   1.231  1.00  0.00    -0.507 OA
ATOM     84  H   UNL     1       3.051  -6.379   0.395  1.00  0.00     0.293 HD
ENDBRANCH  79  83
BRANCH  82  85
ATOM     85  N   UNL     1       6.745  -6.130   4.628  1.00  0.00    -0.250 N 
ATOM     86  C   UNL     1       7.175  -7.434   4.642  1.00  0.00     0.234 C 
ATOM     87  C   UNL     1       7.168  -5.426   5.729  1.00  0.00     0.241 C 
ATOM     88  O   UNL     1       6.981  -8.307   3.808  1.00  0.00    -0.274 OA
ATOM     89  C   UNL     1       8.095  -7.611   5.802  1.00  0.00     0.119 C 
ATOM     90  C   UNL     1       7.782  -6.417   6.698  1.00  0.00     0.121 C 
ATOM     91  O   UNL     1       7.037  -4.228   5.946  1.00  0.00    -0.273 OA
BRANCH  90  92
ATOM     92  C   UNL     1       6.889  -6.821   7.842  1.00  0.00    -0.010 A 
ATOM     93  C   UNL     1       5.600  -6.414   8.130  1.00  0.00     0.088 A 
ATOM     94  C   UNL     1       7.247  -7.780   8.852  1.00  0.00     0.003 A 
ATOM     95  N   UNL     1       5.171  -7.086   9.247  1.00  0.00    -0.361 N 
ATOM     96  C   UNL     1       6.150  -7.941   9.695  1.00  0.00     0.046 A 
ATOM     97  C   UNL     1       8.405  -8.549   9.100  1.00  0.00     0.010 A 
ATOM     98  H   UNL     1       4.288  -6.972   9.667  1.00  0.00     0.166 HD
ATOM     99  C   UNL     1       6.149  -8.838  10.771  1.00  0.00     0.026 A 
ATOM    100  C   UNL     1       8.418  -9.457  10.163  1.00  0.00     0.001 A 
ATOM    101  C   UNL     1       7.305  -9.598  10.985  1.00  0.00     0.002 A 
ENDBRANCH  90  92
ENDBRANCH  82  85
ENDBRANCH  75  77
ENDBRANCH  74  75
ENDBRANCH  73  74
ENDBRANCH  72  73
ENDBRANCH  71  72
ENDBRANCH   1  71
TORSDOF 20
