REMARK SMILES Cc1cc(C(=O)OCCOCCOC(=O)c2ccc(-c3c4nc(c(-c5cccc(S(=O)(=O)[O-])c5F)c5ccc([nH]5)c(-c5cccc(S(=O)(=O)[O-])c5F)c5nc(c(-c6cccc(S(=O)(=O)[O-])c6F)c6ccc3[nH]6)C=C5)C=C4)cc2)c(C)n1[C@@H]1C[N@H+]2CC[C@@H]1CC2
REMARK SMILES IDX 11 1 10 2 9 3 8 4 7 5 5 6 6 7 4 8 1 9 2 10 3 11 81 12 79 13
REMARK SMILES IDX 80 14 82 15 83 16 87 17 84 18 88 19 86 20 89 21 85 22 12 24
REMARK SMILES IDX 13 25 14 26 15 27 16 28 17 29 78 30 18 31 77 32 19 33 20 34
REMARK SMILES IDX 21 35 71 36 22 37 76 38 70 39 72 40 23 41 75 42 69 43 68 44
REMARK SMILES IDX 24 46 56 47 36 48 55 49 37 50 40 51 54 52 73 53 38 54 39 55
REMARK SMILES IDX 53 57 74 58 41 59 25 60 26 61 34 62 27 63 29 64 35 65 28 66
REMARK SMILES IDX 30 67 31 68 32 69 33 70 57 71 58 72 66 73 59 74 61 75 67 76
REMARK SMILES IDX 60 77 62 78 63 79 64 80 65 81 42 82 43 83 51 84 44 85 46 86
REMARK SMILES IDX 52 87 45 88 47 89 48 90 49 91 50 92
REMARK H PARENT 84 23 72 45 40 56
REMARK Flexibility Score: inf
ROOT
ATOM      1  C   UNL     1       1.050  -5.567   2.450  1.00  0.00     0.202 C 
ENDROOT
BRANCH   1   2
ATOM      2  O   UNL     1       1.132  -6.884   1.873  1.00  0.00    -0.374 OA
BRANCH   2   3
ATOM      3  C   UNL     1       2.342  -7.209   1.194  1.00  0.00     0.202 C 
BRANCH   3   4
ATOM      4  C   UNL     1       2.412  -6.765  -0.279  1.00  0.00     0.261 C 
BRANCH   4   5
ATOM      5  O   UNL     1       2.131  -5.371  -0.432  1.00  0.00    -0.460 OA
BRANCH   5   6
ATOM      6  C   UNL     1       0.886  -5.052  -0.885  1.00  0.00     0.340 C 
ATOM      7  O   UNL     1       0.090  -5.860  -1.382  1.00  0.00    -0.246 OA
BRANCH   6   8
ATOM      8  C   UNL     1       0.581  -3.639  -0.682  1.00  0.00     0.081 A 
ATOM      9  C   UNL     1       1.562  -0.090  -0.530  1.00  0.00     0.064 C 
ATOM     10  C   UNL     1       0.862  -1.400  -0.466  1.00  0.00     0.016 A 
ATOM     11  C   UNL     1       1.525  -2.608  -0.510  1.00  0.00     0.038 A 
ATOM     12  N   UNL     1      -0.503  -1.661  -0.401  1.00  0.00    -0.339 N 
ATOM     13  C   UNL     1      -0.676  -3.047  -0.565  1.00  0.00     0.030 A 
ATOM     14  C   UNL     1      -1.981  -3.786  -0.562  1.00  0.00     0.065 C 
BRANCH  12  15
ATOM     15  C   UNL     1      -1.610  -0.704  -0.275  1.00  0.00     0.145 C 
ATOM     16  C   UNL     1      -1.705   0.376  -1.378  1.00  0.00     0.288 C 
ATOM     17  C   UNL     1      -1.866  -0.038   1.110  1.00  0.00     0.029 C 
ATOM     18  N   UNL     1      -2.030   1.718  -0.822  1.00  0.00    -0.333 N 
ATOM     19  C   UNL     1      -3.281   0.597   1.037  1.00  0.00     0.067 C 
ATOM     20  C   UNL     1      -0.935   1.154   1.357  1.00  0.00     0.067 C 
ATOM     21  C   UNL     1      -3.315   1.646  -0.093  1.00  0.00     0.262 C 
ATOM     22  C   UNL     1      -0.973   2.101   0.144  1.00  0.00     0.262 C 
ATOM     23  H   UNL     1      -2.091   2.398  -1.580  1.00  0.00     0.348 HD
ENDBRANCH  12  15
ENDBRANCH   6   8
ENDBRANCH   5   6
ENDBRANCH   4   5
ENDBRANCH   3   4
ENDBRANCH   2   3
ENDBRANCH   1   2
BRANCH   1  24
ATOM     24  C   UNL     1       1.767  -5.318   3.812  1.00  0.00     0.261 C 
BRANCH  24  25
ATOM     25  O   UNL     1       2.957  -4.437   3.858  1.00  0.00    -0.460 OA
BRANCH  25  26
ATOM     26  C   UNL     1       4.071  -4.923   4.517  1.00  0.00     0.338 C 
ATOM     27  O   UNL     1       4.279  -6.127   4.620  1.00  0.00    -0.246 OA
BRANCH  26  28
ATOM     28  C   UNL     1       5.106  -3.880   5.013  1.00  0.00     0.060 A 
ATOM     29  C   UNL     1       6.395  -3.929   4.503  1.00  0.00     0.016 A 
ATOM     30  C   UNL     1       4.980  -3.012   6.124  1.00  0.00     0.016 A 
ATOM     31  C   UNL     1       7.454  -3.084   5.017  1.00  0.00     0.010 A 
ATOM     32  C   UNL     1       6.105  -2.207   6.704  1.00  0.00     0.010 A 
ATOM     33  C   UNL     1       7.405  -2.188   6.166  1.00  0.00    -0.014 A 
BRANCH  33  34
ATOM     34  C   UNL     1       8.890  -1.675   6.821  1.00  0.00     0.031 A 
ATOM     35  C   UNL     1       9.709  -2.900   6.597  1.00  0.00     0.074 A 
ATOM     36  C   UNL     1       9.587  -0.708   7.603  1.00  0.00     0.049 A 
ATOM     37  N   UNL     1       9.257  -4.028   7.073  1.00  0.00    -0.248 NA
ATOM     38  C   UNL     1      10.714  -3.069   5.544  1.00  0.00     0.031 C 
ATOM     39  C   UNL     1       9.024   0.418   8.379  1.00  0.00     0.029 A 
ATOM     40  N   UNL     1      11.001  -0.484   7.940  1.00  0.00    -0.354 N 
ATOM     41  C   UNL     1      10.163  -4.984   6.734  1.00  0.00     0.074 A 
ATOM     42  C   UNL     1      10.836  -4.405   5.577  1.00  0.00     0.031 C 
ATOM     43  C   UNL     1       9.984   1.252   8.896  1.00  0.00     0.029 A 
ATOM     44  C   UNL     1      11.344   0.793   8.593  1.00  0.00     0.049 A 
ATOM     45  H   UNL     1      11.690  -1.158   7.737  1.00  0.00     0.167 HD
ATOM     46  C   UNL     1      10.695  -5.628   7.814  1.00  0.00     0.034 A 
ATOM     47  C   UNL     1      12.570   1.397   8.966  1.00  0.00     0.034 A 
ATOM     48  C   UNL     1      12.025  -5.167   8.105  1.00  0.00     0.049 A 
ATOM     49  C   UNL     1      13.479   0.277   9.223  1.00  0.00     0.074 A 
ATOM     50  C   UNL     1      13.089  -4.802   7.298  1.00  0.00     0.029 A 
ATOM     51  N   UNL     1      12.228  -4.565   9.324  1.00  0.00    -0.354 N 
ATOM     52  N   UNL     1      13.469  -0.347  10.363  1.00  0.00    -0.248 NA
ATOM     53  C   UNL     1      14.547  -0.103   8.307  1.00  0.00     0.031 C 
ATOM     54  C   UNL     1      13.570  -3.605   7.862  1.00  0.00     0.029 A 
ATOM     55  C   UNL     1      13.159  -3.554   9.183  1.00  0.00     0.049 A 
ATOM     56  H   UNL     1      11.781  -4.816  10.165  1.00  0.00     0.167 HD
ATOM     57  C   UNL     1      14.074  -1.523  10.047  1.00  0.00     0.074 A 
ATOM     58  C   UNL     1      14.940  -1.222   8.920  1.00  0.00     0.031 C 
ATOM     59  C   UNL     1      13.327  -2.629  10.270  1.00  0.00     0.034 A 
BRANCH  46  60
ATOM     60  C   UNL     1       9.645  -6.044   8.834  1.00  0.00     0.023 A 
ATOM     61  C   UNL     1       9.308  -7.407   8.875  1.00  0.00     0.012 A 
ATOM     62  C   UNL     1       8.820  -5.121   9.540  1.00  0.00     0.148 A 
ATOM     63  C   UNL     1       8.147  -7.833   9.528  1.00  0.00     0.002 A 
ATOM     64  C   UNL     1       7.607  -5.536  10.081  1.00  0.00     0.091 A 
ATOM     65  F   UNL     1       9.217  -3.843   9.647  1.00  0.00    -0.205 F 
ATOM     66  C   UNL     1       7.277  -6.897  10.088  1.00  0.00     0.022 A 
BRANCH  64  67
ATOM     67  S   UNL     1       6.316  -4.371  10.572  1.00  0.00     0.127 S 
ATOM     68  O   UNL     1       5.118  -4.942   9.946  1.00  0.00    -0.237 OA
ATOM     69  O   UNL     1       6.330  -4.467  12.028  1.00  0.00    -0.237 OA
ATOM     70  O   UNL     1       6.694  -3.073  10.023  1.00  0.00    -0.744 OA
ENDBRANCH  64  67
ENDBRANCH  46  60
BRANCH  47  71
ATOM     71  C   UNL     1      13.367   2.707   9.472  1.00  0.00     0.023 A 
ATOM     72  C   UNL     1      14.496   2.547  10.374  1.00  0.00     0.012 A 
ATOM     73  C   UNL     1      13.377   3.944   8.787  1.00  0.00     0.148 A 
ATOM     74  C   UNL     1      15.582   3.446  10.489  1.00  0.00     0.002 A 
ATOM     75  C   UNL     1      14.467   4.862   8.922  1.00  0.00     0.091 A 
ATOM     76  F   UNL     1      12.379   4.198   7.934  1.00  0.00    -0.205 F 
ATOM     77  C   UNL     1      15.577   4.601   9.743  1.00  0.00     0.022 A 
BRANCH  75  78
ATOM     78  S   UNL     1      14.611   6.399   7.973  1.00  0.00     0.127 S 
ATOM     79  O   UNL     1      15.099   7.353   8.972  1.00  0.00    -0.237 OA
ATOM     80  O   UNL     1      15.598   6.034   6.959  1.00  0.00    -0.237 OA
ATOM     81  O   UNL     1      13.268   6.673   7.483  1.00  0.00    -0.744 OA
ENDBRANCH  75  78
ENDBRANCH  47  71
BRANCH  59  82
ATOM     82  C   UNL     1      12.559  -2.715  11.567  1.00  0.00     0.023 A 
ATOM     83  C   UNL     1      11.657  -1.746  12.056  1.00  0.00     0.012 A 
ATOM     84  C   UNL     1      12.760  -3.874  12.330  1.00  0.00     0.148 A 
ATOM     85  C   UNL     1      10.995  -1.926  13.276  1.00  0.00     0.002 A 
ATOM     86  C   UNL     1      12.056  -4.082  13.506  1.00  0.00     0.091 A 
ATOM     87  F   UNL     1      13.653  -4.771  11.884  1.00  0.00    -0.205 F 
ATOM     88  C   UNL     1      11.179  -3.106  13.993  1.00  0.00     0.022 A 
BRANCH  86  89
ATOM     89  S   UNL     1      12.219  -5.638  14.377  1.00  0.00     0.127 S 
ATOM     90  O   UNL     1      13.225  -5.315  15.386  1.00  0.00    -0.237 OA
ATOM     91  O   UNL     1      10.876  -5.870  14.902  1.00  0.00    -0.237 OA
ATOM     92  O   UNL     1      12.637  -6.600  13.361  1.00  0.00    -0.744 OA
ENDBRANCH  86  89
ENDBRANCH  59  82
ENDBRANCH  33  34
ENDBRANCH  26  28
ENDBRANCH  25  26
ENDBRANCH  24  25
ENDBRANCH   1  24
TORSDOF 18
