REMARK SMILES O=C(OCCOCCOC(=O)c1ccc(-c2c3nc(c(-c4cccc(S(=O)(=O)[O-])c4F)c4ccc([nH]4)c(-c4cccc(S(=O)(=O)[O-])c4F)c4nc(c(-c5cccc(S(=O)(=O)[O-])c5F)c5ccc2[nH]5)C=C4)C=C3)cc1)/C(=C/c1ccccc1Cl)NC(=O)c1ccccc1
REMARK SMILES IDX 7 1 6 2 5 3 4 4 3 5 2 6 1 7 75 8 76 9 84 10 85 11 86 13
REMARK SMILES IDX 87 14 88 15 92 16 89 17 91 18 90 19 77 20 78 21 82 22 79 23
REMARK SMILES IDX 81 24 83 25 80 26 8 27 9 28 10 29 11 30 12 31 13 32 74 33
REMARK SMILES IDX 14 34 73 35 15 36 16 37 17 38 67 39 18 40 72 41 66 42 68 43
REMARK SMILES IDX 19 44 71 45 65 46 64 47 20 49 52 50 32 51 51 52 33 53 36 54
REMARK SMILES IDX 50 55 69 56 34 57 35 58 49 60 70 61 37 62 21 63 22 64 30 65
REMARK SMILES IDX 23 66 25 67 31 68 24 69 26 70 27 71 28 72 29 73 53 74 54 75
REMARK SMILES IDX 62 76 55 77 57 78 63 79 56 80 58 81 59 82 60 83 61 84 38 85
REMARK SMILES IDX 39 86 47 87 40 88 42 89 48 90 41 91 43 92 44 93 45 94 46 95
REMARK H PARENT 84 12 68 48 36 59
REMARK Flexibility Score: inf
ROOT
ATOM      1  C   UNL     1       1.588  -1.299   3.146  1.00  0.00     0.202 C 
ENDROOT
BRANCH   1   2
ATOM      2  O   UNL     1       2.338  -1.554   1.958  1.00  0.00    -0.374 OA
BRANCH   2   3
ATOM      3  C   UNL     1       2.931  -0.396   1.387  1.00  0.00     0.202 C 
BRANCH   3   4
ATOM      4  C   UNL     1       1.961   0.451   0.559  1.00  0.00     0.261 C 
BRANCH   4   5
ATOM      5  O   UNL     1       1.601  -0.153  -0.687  1.00  0.00    -0.459 OA
BRANCH   5   6
ATOM      6  C   UNL     1       2.484   0.086  -1.700  1.00  0.00     0.354 C 
ATOM      7  O   UNL     1       2.213   0.744  -2.693  1.00  0.00    -0.244 OA
BRANCH   6   8
ATOM      8  C   UNL     1       3.633  -0.869  -1.651  1.00  0.00     0.128 C 
ATOM      9  C   UNL     1       3.208  -2.149  -1.764  1.00  0.00     0.043 C 
BRANCH   8  10
ATOM     10  N   UNL     1       4.952  -0.476  -1.592  1.00  0.00    -0.316 N 
ATOM     11  C   UNL     1       5.641   0.714  -1.421  1.00  0.00     0.255 C 
ATOM     12  H   UNL     1       5.565  -1.240  -1.699  1.00  0.00     0.170 HD
ATOM     13  O   UNL     1       6.862   0.696  -1.600  1.00  0.00    -0.269 OA
BRANCH  11  14
ATOM     14  C   UNL     1       5.067   1.999  -0.957  1.00  0.00     0.040 A 
ATOM     15  C   UNL     1       5.139   3.129  -1.778  1.00  0.00     0.014 A 
ATOM     16  C   UNL     1       4.753   2.188   0.392  1.00  0.00     0.014 A 
ATOM     17  C   UNL     1       4.766   4.392  -1.292  1.00  0.00     0.001 A 
ATOM     18  C   UNL     1       4.312   3.434   0.863  1.00  0.00     0.001 A 
ATOM     19  C   UNL     1       4.307   4.535   0.014  1.00  0.00     0.000 A 
ENDBRANCH  11  14
ENDBRANCH   8  10
BRANCH   9  20
ATOM     20  C   UNL     1       3.848  -3.486  -1.807  1.00  0.00    -0.005 A 
ATOM     21  C   UNL     1       3.270  -4.387  -2.730  1.00  0.00     0.010 A 
ATOM     22  C   UNL     1       4.808  -3.997  -0.920  1.00  0.00     0.048 A 
ATOM     23  C   UNL     1       3.626  -5.739  -2.768  1.00  0.00     0.001 A 
ATOM     24  C   UNL     1       5.166  -5.357  -0.963  1.00  0.00     0.021 A 
ATOM     25  Cl  UNL     1       5.557  -3.041   0.304  1.00  0.00    -0.084 Cl
ATOM     26  C   UNL     1       4.573  -6.226  -1.879  1.00  0.00     0.002 A 
ENDBRANCH   9  20
ENDBRANCH   6   8
ENDBRANCH   5   6
ENDBRANCH   4   5
ENDBRANCH   3   4
ENDBRANCH   2   3
ENDBRANCH   1   2
BRANCH   1  27
ATOM     27  C   UNL     1       2.452  -1.046   4.391  1.00  0.00     0.261 C 
BRANCH  27  28
ATOM     28  O   UNL     1       2.997   0.295   4.420  1.00  0.00    -0.460 OA
BRANCH  28  29
ATOM     29  C   UNL     1       4.353   0.399   4.398  1.00  0.00     0.338 C 
ATOM     30  O   UNL     1       5.141  -0.533   4.330  1.00  0.00    -0.246 OA
BRANCH  29  31
ATOM     31  C   UNL     1       4.792   1.822   4.364  1.00  0.00     0.060 A 
ATOM     32  C   UNL     1       6.075   2.114   3.869  1.00  0.00     0.016 A 
ATOM     33  C   UNL     1       3.994   2.863   4.850  1.00  0.00     0.016 A 
ATOM     34  C   UNL     1       6.583   3.419   3.921  1.00  0.00     0.010 A 
ATOM     35  C   UNL     1       4.502   4.169   4.900  1.00  0.00     0.010 A 
ATOM     36  C   UNL     1       5.817   4.448   4.482  1.00  0.00    -0.014 A 
BRANCH  36  37
ATOM     37  C   UNL     1       6.447   5.743   4.860  1.00  0.00     0.031 A 
ATOM     38  C   UNL     1       6.887   5.924   6.290  1.00  0.00     0.074 A 
ATOM     39  C   UNL     1       6.599   6.759   3.990  1.00  0.00     0.049 A 
ATOM     40  N   UNL     1       7.429   6.963   6.869  1.00  0.00    -0.248 NA
ATOM     41  C   UNL     1       6.676   4.776   7.188  1.00  0.00     0.031 C 
ATOM     42  C   UNL     1       6.231   6.727   2.580  1.00  0.00     0.029 A 
ATOM     43  N   UNL     1       7.082   8.032   4.181  1.00  0.00    -0.354 N 
ATOM     44  C   UNL     1       7.601   6.606   8.201  1.00  0.00     0.074 A 
ATOM     45  C   UNL     1       7.080   5.265   8.350  1.00  0.00     0.031 C 
ATOM     46  C   UNL     1       6.462   7.936   2.037  1.00  0.00     0.029 A 
ATOM     47  C   UNL     1       6.996   8.831   3.064  1.00  0.00     0.049 A 
ATOM     48  H   UNL     1       7.455   8.343   5.038  1.00  0.00     0.167 HD
ATOM     49  C   UNL     1       8.162   7.314   9.209  1.00  0.00     0.034 A 
ATOM     50  C   UNL     1       7.313  10.131   2.890  1.00  0.00     0.034 A 
ATOM     51  C   UNL     1       8.694   8.640   9.069  1.00  0.00     0.049 A 
ATOM     52  C   UNL     1       7.915  10.910   4.033  1.00  0.00     0.074 A 
ATOM     53  C   UNL     1       9.332   9.416  10.021  1.00  0.00     0.029 A 
ATOM     54  N   UNL     1       8.637   9.396   7.909  1.00  0.00    -0.354 N 
ATOM     55  N   UNL     1       8.205  10.508   5.247  1.00  0.00    -0.248 NA
ATOM     56  C   UNL     1       8.279  12.312   3.767  1.00  0.00     0.031 C 
ATOM     57  C   UNL     1       9.636  10.654   9.443  1.00  0.00     0.029 A 
ATOM     58  C   UNL     1       9.216  10.635   8.122  1.00  0.00     0.049 A 
ATOM     59  H   UNL     1       8.243   9.096   7.059  1.00  0.00     0.167 HD
ATOM     60  C   UNL     1       8.836  11.584   5.868  1.00  0.00     0.074 A 
ATOM     61  C   UNL     1       8.888  12.655   4.895  1.00  0.00     0.031 C 
ATOM     62  C   UNL     1       9.325  11.674   7.130  1.00  0.00     0.034 A 
BRANCH  49  63
ATOM     63  C   UNL     1       8.241   6.643  10.554  1.00  0.00     0.023 A 
ATOM     64  C   UNL     1       9.143   5.576  10.750  1.00  0.00     0.012 A 
ATOM     65  C   UNL     1       7.431   7.069  11.623  1.00  0.00     0.148 A 
ATOM     66  C   UNL     1       9.204   4.914  11.975  1.00  0.00     0.002 A 
ATOM     67  C   UNL     1       7.531   6.434  12.855  1.00  0.00     0.091 A 
ATOM     68  F   UNL     1       6.559   8.065  11.410  1.00  0.00    -0.205 F 
ATOM     69  C   UNL     1       8.404   5.348  13.029  1.00  0.00     0.022 A 
BRANCH  67  70
ATOM     70  S   UNL     1       6.595   6.971  14.290  1.00  0.00     0.127 S 
ATOM     71  O   UNL     1       5.566   5.936  14.376  1.00  0.00    -0.237 OA
ATOM     72  O   UNL     1       7.600   6.920  15.353  1.00  0.00    -0.237 OA
ATOM     73  O   UNL     1       6.117   8.310  13.975  1.00  0.00    -0.744 OA
ENDBRANCH  67  70
ENDBRANCH  49  63
BRANCH  50  74
ATOM     74  C   UNL     1       7.143  10.771   1.552  1.00  0.00     0.023 A 
ATOM     75  C   UNL     1       8.286  11.109   0.801  1.00  0.00     0.012 A 
ATOM     76  C   UNL     1       5.868  11.046   1.022  1.00  0.00     0.148 A 
ATOM     77  C   UNL     1       8.165  11.738  -0.438  1.00  0.00     0.002 A 
ATOM     78  C   UNL     1       5.753  11.629  -0.235  1.00  0.00     0.091 A 
ATOM     79  F   UNL     1       4.793  10.727   1.758  1.00  0.00    -0.205 F 
ATOM     80  C   UNL     1       6.899  11.991  -0.960  1.00  0.00     0.022 A 
BRANCH  78  81
ATOM     81  S   UNL     1       4.169  11.895  -1.040  1.00  0.00     0.127 S 
ATOM     82  O   UNL     1       4.106  13.353  -1.104  1.00  0.00    -0.237 OA
ATOM     83  O   UNL     1       4.373  11.229  -2.327  1.00  0.00    -0.237 OA
ATOM     84  O   UNL     1       3.177  11.260  -0.183  1.00  0.00    -0.744 OA
ENDBRANCH  78  81
ENDBRANCH  50  74
BRANCH  62  85
ATOM     85  C   UNL     1      10.020  12.951   7.533  1.00  0.00     0.023 A 
ATOM     86  C   UNL     1       9.275  14.126   7.748  1.00  0.00     0.012 A 
ATOM     87  C   UNL     1      11.408  12.959   7.782  1.00  0.00     0.148 A 
ATOM     88  C   UNL     1       9.904  15.297   8.174  1.00  0.00     0.002 A 
ATOM     89  C   UNL     1      12.020  14.115   8.254  1.00  0.00     0.091 A 
ATOM     90  F   UNL     1      12.107  11.837   7.553  1.00  0.00    -0.205 F 
ATOM     91  C   UNL     1      11.272  15.288   8.439  1.00  0.00     0.022 A 
BRANCH  89  92
ATOM     92  S   UNL     1      13.755  14.159   8.719  1.00  0.00     0.127 S 
ATOM     93  O   UNL     1      14.349  14.874   7.591  1.00  0.00    -0.237 OA
ATOM     94  O   UNL     1      13.724  14.916   9.972  1.00  0.00    -0.237 OA
ATOM     95  O   UNL     1      14.163  12.768   8.868  1.00  0.00    -0.744 OA
ENDBRANCH  89  92
ENDBRANCH  62  85
ENDBRANCH  36  37
ENDBRANCH  29  31
ENDBRANCH  28  29
ENDBRANCH  27  28
ENDBRANCH   1  27
TORSDOF 20
