REMARK SMILES O=C(OCCOCCOC(=O)c1ccc(-c2ccc(Cl)cc2)cc1F)c1ccc(-c2c3nc(c(-c4cccc(S(=O)(=O)[O-])c4F)c4ccc([nH]4)c(-c4cccc(S(=O)(=O)[O-])c4F)c4nc(c(-c5cccc(S(=O)(=O)[O-])c5F)c5ccc2[nH]5)C=C4)C=C3)cc1
REMARK SMILES IDX 5 1 4 2 3 3 2 4 1 5 26 6 27 7 88 8 28 9 87 10 29 11 30 12
REMARK SMILES IDX 31 13 81 14 32 15 86 16 80 17 82 18 33 19 85 20 79 21 78 22
REMARK SMILES IDX 34 24 66 25 46 26 65 27 47 28 50 29 64 30 83 31 48 32 49 33
REMARK SMILES IDX 63 35 84 36 51 37 35 38 36 39 44 40 37 41 39 42 45 43 38 44
REMARK SMILES IDX 40 45 41 46 42 47 43 48 67 49 68 50 76 51 69 52 71 53 77 54
REMARK SMILES IDX 70 55 72 56 73 57 74 58 75 59 52 60 53 61 61 62 54 63 56 64
REMARK SMILES IDX 62 65 55 66 57 67 58 68 59 69 60 70 6 71 7 72 8 73 9 74
REMARK SMILES IDX 10 75 11 76 12 77 13 78 24 79 14 80 23 81 25 82 15 83 16 84
REMARK SMILES IDX 17 85 22 86 18 87 21 88 19 89 20 90
REMARK H PARENT 82 23 50 34
REMARK Flexibility Score: inf
ROOT
ATOM      1  C   UNL     1       4.358  -1.392   0.669  1.00  0.00     0.202 C 
ENDROOT
BRANCH   1   2
ATOM      2  C   UNL     1       4.093  -0.012   1.272  1.00  0.00     0.261 C 
BRANCH   2   3
ATOM      3  O   UNL     1       2.697   0.305   1.169  1.00  0.00    -0.460 OA
BRANCH   3   4
ATOM      4  C   UNL     1       2.081   1.123   0.287  1.00  0.00     0.338 C 
ATOM      5  O   UNL     1       0.861   1.255   0.374  1.00  0.00    -0.246 OA
BRANCH   4   6
ATOM      6  C   UNL     1       2.796   1.890  -0.779  1.00  0.00     0.060 A 
ATOM      7  C   UNL     1       3.978   1.489  -1.410  1.00  0.00     0.016 A 
ATOM      8  C   UNL     1       2.165   3.053  -1.246  1.00  0.00     0.016 A 
ATOM      9  C   UNL     1       4.544   2.227  -2.441  1.00  0.00     0.010 A 
ATOM     10  C   UNL     1       2.714   3.793  -2.295  1.00  0.00     0.010 A 
ATOM     11  C   UNL     1       3.913   3.381  -2.885  1.00  0.00    -0.014 A 
BRANCH  11  12
ATOM     12  C   UNL     1       4.576   4.199  -3.908  1.00  0.00     0.031 A 
ATOM     13  C   UNL     1       5.311   5.422  -3.460  1.00  0.00     0.074 A 
ATOM     14  C   UNL     1       4.556   3.804  -5.193  1.00  0.00     0.049 A 
ATOM     15  N   UNL     1       5.843   6.370  -4.176  1.00  0.00    -0.248 NA
ATOM     16  C   UNL     1       5.478   5.595  -2.005  1.00  0.00     0.031 C 
ATOM     17  C   UNL     1       3.956   2.561  -5.684  1.00  0.00     0.029 A 
ATOM     18  N   UNL     1       5.046   4.406  -6.319  1.00  0.00    -0.354 N 
ATOM     19  C   UNL     1       6.365   7.277  -3.264  1.00  0.00     0.074 A 
ATOM     20  C   UNL     1       6.110   6.758  -1.940  1.00  0.00     0.031 C 
ATOM     21  C   UNL     1       4.098   2.503  -7.019  1.00  0.00     0.029 A 
ATOM     22  C   UNL     1       4.740   3.729  -7.477  1.00  0.00     0.049 A 
ATOM     23  H   UNL     1       5.567   5.242  -6.302  1.00  0.00     0.167 HD
ATOM     24  C   UNL     1       6.993   8.444  -3.525  1.00  0.00     0.034 A 
ATOM     25  C   UNL     1       4.923   4.097  -8.760  1.00  0.00     0.034 A 
ATOM     26  C   UNL     1       7.230   8.922  -4.857  1.00  0.00     0.049 A 
ATOM     27  C   UNL     1       5.567   5.435  -9.016  1.00  0.00     0.074 A 
ATOM     28  C   UNL     1       7.793  10.117  -5.258  1.00  0.00     0.029 A 
ATOM     29  N   UNL     1       6.916   8.214  -6.010  1.00  0.00    -0.354 N 
ATOM     30  N   UNL     1       6.042   6.302  -8.152  1.00  0.00    -0.248 NA
ATOM     31  C   UNL     1       5.710   5.846 -10.418  1.00  0.00     0.031 C 
ATOM     32  C   UNL     1       7.808  10.137  -6.656  1.00  0.00     0.029 A 
ATOM     33  C   UNL     1       7.279   8.942  -7.125  1.00  0.00     0.049 A 
ATOM     34  H   UNL     1       6.496   7.323  -6.029  1.00  0.00     0.167 HD
ATOM     35  C   UNL     1       6.559   7.349  -8.903  1.00  0.00     0.074 A 
ATOM     36  C   UNL     1       6.369   6.990 -10.295  1.00  0.00     0.031 C 
ATOM     37  C   UNL     1       7.116   8.515  -8.491  1.00  0.00     0.034 A 
BRANCH  24  38
ATOM     38  C   UNL     1       7.447   9.274  -2.358  1.00  0.00     0.023 A 
ATOM     39  C   UNL     1       8.598   8.898  -1.638  1.00  0.00     0.012 A 
ATOM     40  C   UNL     1       6.760  10.451  -2.004  1.00  0.00     0.148 A 
ATOM     41  C   UNL     1       9.052   9.676  -0.573  1.00  0.00     0.002 A 
ATOM     42  C   UNL     1       7.239  11.240  -0.966  1.00  0.00     0.091 A 
ATOM     43  F   UNL     1       5.655  10.775  -2.690  1.00  0.00    -0.205 F 
ATOM     44  C   UNL     1       8.380  10.850  -0.244  1.00  0.00     0.022 A 
BRANCH  42  45
ATOM     45  S   UNL     1       6.479  12.798  -0.495  1.00  0.00     0.127 S 
ATOM     46  O   UNL     1       6.138  12.550   0.906  1.00  0.00    -0.237 OA
ATOM     47  O   UNL     1       7.577  13.743  -0.697  1.00  0.00    -0.237 OA
ATOM     48  O   UNL     1       5.337  12.976  -1.380  1.00  0.00    -0.744 OA
ENDBRANCH  42  45
ENDBRANCH  24  38
BRANCH  25  49
ATOM     49  C   UNL     1       4.496   3.208  -9.880  1.00  0.00     0.023 A 
ATOM     50  C   UNL     1       5.467   2.669 -10.746  1.00  0.00     0.012 A 
ATOM     51  C   UNL     1       3.141   2.882 -10.093  1.00  0.00     0.148 A 
ATOM     52  C   UNL     1       5.097   1.855 -11.818  1.00  0.00     0.002 A 
ATOM     53  C   UNL     1       2.784   2.022 -11.127  1.00  0.00     0.091 A 
ATOM     54  F   UNL     1       2.220   3.422  -9.281  1.00  0.00    -0.205 F 
ATOM     55  C   UNL     1       3.758   1.522 -12.002  1.00  0.00     0.022 A 
BRANCH  53  56
ATOM     56  S   UNL     1       1.098   1.439 -11.347  1.00  0.00     0.127 S 
ATOM     57  O   UNL     1       0.649   2.240 -12.483  1.00  0.00    -0.237 OA
ATOM     58  O   UNL     1       1.299   0.018 -11.636  1.00  0.00    -0.237 OA
ATOM     59  O   UNL     1       0.430   1.700 -10.078  1.00  0.00    -0.744 OA
ENDBRANCH  53  56
ENDBRANCH  25  49
BRANCH  37  60
ATOM     60  C   UNL     1       7.579   9.469  -9.556  1.00  0.00     0.023 A 
ATOM     61  C   UNL     1       6.630  10.201 -10.295  1.00  0.00     0.012 A 
ATOM     62  C   UNL     1       8.953   9.708  -9.753  1.00  0.00     0.148 A 
ATOM     63  C   UNL     1       7.043  11.139 -11.239  1.00  0.00     0.002 A 
ATOM     64  C   UNL     1       9.355  10.682 -10.655  1.00  0.00     0.091 A 
ATOM     65  F   UNL     1       9.837   8.983  -9.053  1.00  0.00    -0.205 F 
ATOM     66  C   UNL     1       8.404  11.390 -11.408  1.00  0.00     0.022 A 
BRANCH  64  67
ATOM     67  S   UNL     1      11.079  11.146 -10.846  1.00  0.00     0.127 S 
ATOM     68  O   UNL     1      11.434  10.470 -12.093  1.00  0.00    -0.237 OA
ATOM     69  O   UNL     1      11.003  12.604 -10.942  1.00  0.00    -0.237 OA
ATOM     70  O   UNL     1      11.755  10.658  -9.651  1.00  0.00    -0.744 OA
ENDBRANCH  64  67
ENDBRANCH  37  60
ENDBRANCH  11  12
ENDBRANCH   4   6
ENDBRANCH   3   4
ENDBRANCH   2   3
ENDBRANCH   1   2
BRANCH   1  71
ATOM     71  O   UNL     1       4.117  -1.480  -0.734  1.00  0.00    -0.374 OA
BRANCH  71  72
ATOM     72  C   UNL     1       2.775  -1.796  -1.130  1.00  0.00     0.202 C 
BRANCH  72  73
ATOM     73  C   UNL     1       2.807  -2.978  -2.099  1.00  0.00     0.261 C 
BRANCH  73  74
ATOM     74  O   UNL     1       3.241  -4.130  -1.363  1.00  0.00    -0.460 OA
BRANCH  74  75
ATOM     75  C   UNL     1       4.587  -4.306  -1.300  1.00  0.00     0.341 C 
ATOM     76  O   UNL     1       5.441  -3.841  -2.018  1.00  0.00    -0.246 OA
BRANCH  75  77
ATOM     77  C   UNL     1       4.875  -4.974  -0.018  1.00  0.00     0.095 A 
ATOM     78  C   UNL     1       5.932  -4.495   0.768  1.00  0.00     0.019 A 
ATOM     79  C   UNL     1       4.080  -6.013   0.446  1.00  0.00     0.138 A 
ATOM     80  C   UNL     1       6.171  -5.049   2.029  1.00  0.00     0.010 A 
ATOM     81  C   UNL     1       4.326  -6.575   1.691  1.00  0.00     0.049 A 
ATOM     82  F   UNL     1       3.083  -6.518  -0.293  1.00  0.00    -0.206 F 
ATOM     83  C   UNL     1       5.378  -6.108   2.494  1.00  0.00    -0.015 A 
BRANCH  83  84
ATOM     84  C   UNL     1       5.674  -6.806   3.743  1.00  0.00    -0.018 A 
ATOM     85  C   UNL     1       6.316  -8.054   3.683  1.00  0.00     0.010 A 
ATOM     86  C   UNL     1       5.257  -6.316   4.987  1.00  0.00     0.010 A 
ATOM     87  C   UNL     1       6.505  -8.816   4.834  1.00  0.00     0.021 A 
ATOM     88  C   UNL     1       5.447  -7.080   6.144  1.00  0.00     0.021 A 
ATOM     89  C   UNL     1       6.059  -8.331   6.059  1.00  0.00     0.041 A 
ATOM     90  Cl  UNL     1       6.246  -9.293   7.472  1.00  0.00    -0.084 Cl
ENDBRANCH  83  84
ENDBRANCH  75  77
ENDBRANCH  74  75
ENDBRANCH  73  74
ENDBRANCH  72  73
ENDBRANCH  71  72
ENDBRANCH   1  71
TORSDOF 18
