REMARK SMILES O=C(Cc1cccnc1Cl)OCCOCCOC(=O)c1ccc(-c2c3nc(c(-c4cccc(S(=O)(=O)[O-])c4F)c4ccc([nH]4)c(-c4cccc(S(=O)(=O)[O-])c4F)c4nc(c(-c5cccc(S(=O)(=O)[O-])c5F)c5ccc2[nH]5)C=C4)C=C3)cc1
REMARK SMILES IDX 15 1 14 2 13 3 12 4 11 5 2 6 1 7 3 8 4 9 5 10 9 11 6 12 8 13
REMARK SMILES IDX 10 14 7 15 16 16 17 17 18 18 19 19 20 20 21 21 82 22 22 23
REMARK SMILES IDX 81 24 23 25 24 26 25 27 75 28 26 29 80 30 74 31 76 32 27 33
REMARK SMILES IDX 79 34 73 35 72 36 28 38 60 39 40 40 59 41 41 42 44 43 58 44
REMARK SMILES IDX 77 45 42 46 43 47 57 49 78 50 45 51 29 52 30 53 38 54 31 55
REMARK SMILES IDX 33 56 39 57 32 58 34 59 35 60 36 61 37 62 61 63 62 64 70 65
REMARK SMILES IDX 63 66 65 67 71 68 64 69 66 70 67 71 68 72 69 73 46 74 47 75
REMARK SMILES IDX 55 76 48 77 50 78 56 79 49 80 51 81 52 82 53 83 54 84
REMARK H PARENT 76 37 44 48
REMARK Flexibility Score: inf
ROOT
ATOM      1  C   UNL     1       2.843   1.669   1.531  1.00  0.00     0.202 C 
ENDROOT
BRANCH   1   2
ATOM      2  O   UNL     1       4.079   1.062   1.125  1.00  0.00    -0.374 OA
BRANCH   2   3
ATOM      3  C   UNL     1       4.386   1.195  -0.260  1.00  0.00     0.202 C 
BRANCH   3   4
ATOM      4  C   UNL     1       3.785   0.156  -1.206  1.00  0.00     0.261 C 
BRANCH   4   5
ATOM      5  O   UNL     1       2.410  -0.161  -0.948  1.00  0.00    -0.463 OA
BRANCH   5   6
ATOM      6  C   UNL     1       1.961  -1.151  -0.144  1.00  0.00     0.310 C 
ATOM      7  O   UNL     1       0.769  -1.456  -0.180  1.00  0.00    -0.252 OA
BRANCH   6   8
ATOM      8  C   UNL     1       2.886  -1.811   0.858  1.00  0.00     0.161 C 
BRANCH   8   9
ATOM      9  C   UNL     1       3.787  -2.881   0.316  1.00  0.00     0.001 A 
ATOM     10  C   UNL     1       5.139  -2.603   0.071  1.00  0.00     0.009 A 
ATOM     11  C   UNL     1       3.349  -4.166   0.014  1.00  0.00     0.132 A 
ATOM     12  C   UNL     1       5.944  -3.542  -0.559  1.00  0.00     0.020 A 
ATOM     13  N   UNL     1       4.124  -5.118  -0.551  1.00  0.00    -0.244 NA
ATOM     14  Cl  UNL     1       1.773  -4.733   0.402  1.00  0.00    -0.062 Cl
ATOM     15  C   UNL     1       5.392  -4.773  -0.855  1.00  0.00     0.113 A 
ENDBRANCH   8   9
ENDBRANCH   6   8
ENDBRANCH   5   6
ENDBRANCH   4   5
ENDBRANCH   3   4
ENDBRANCH   2   3
ENDBRANCH   1   2
BRANCH   1  16
ATOM     16  C   UNL     1       2.946   3.148   1.923  1.00  0.00     0.261 C 
BRANCH  16  17
ATOM     17  O   UNL     1       3.292   3.961   0.795  1.00  0.00    -0.460 OA
BRANCH  17  18
ATOM     18  C   UNL     1       4.608   4.261   0.674  1.00  0.00     0.338 C 
ATOM     19  O   UNL     1       5.494   4.037   1.484  1.00  0.00    -0.246 OA
BRANCH  18  20
ATOM     20  C   UNL     1       4.858   4.688  -0.718  1.00  0.00     0.060 A 
ATOM     21  C   UNL     1       5.990   4.176  -1.372  1.00  0.00     0.016 A 
ATOM     22  C   UNL     1       3.971   5.533  -1.388  1.00  0.00     0.016 A 
ATOM     23  C   UNL     1       6.263   4.543  -2.687  1.00  0.00     0.010 A 
ATOM     24  C   UNL     1       4.249   5.907  -2.699  1.00  0.00     0.010 A 
ATOM     25  C   UNL     1       5.415   5.445  -3.337  1.00  0.00    -0.014 A 
BRANCH  25  26
ATOM     26  C   UNL     1       5.827   6.095  -4.599  1.00  0.00     0.031 A 
ATOM     27  C   UNL     1       6.364   7.494  -4.514  1.00  0.00     0.074 A 
ATOM     28  C   UNL     1       5.633   5.498  -5.785  1.00  0.00     0.049 A 
ATOM     29  N   UNL     1       6.605   8.350  -5.468  1.00  0.00    -0.248 NA
ATOM     30  C   UNL     1       6.637   8.003  -3.159  1.00  0.00     0.031 C 
ATOM     31  C   UNL     1       5.114   4.146  -5.976  1.00  0.00     0.029 A 
ATOM     32  N   UNL     1       5.794   5.987  -7.058  1.00  0.00    -0.354 N 
ATOM     33  C   UNL     1       6.999   9.518  -4.829  1.00  0.00     0.074 A 
ATOM     34  C   UNL     1       6.966   9.261  -3.407  1.00  0.00     0.031 C 
ATOM     35  C   UNL     1       4.939   3.932  -7.290  1.00  0.00     0.029 A 
ATOM     36  C   UNL     1       5.296   5.146  -8.024  1.00  0.00     0.049 A 
ATOM     37  H   UNL     1       6.222   6.850  -7.258  1.00  0.00     0.167 HD
ATOM     38  C   UNL     1       7.353  10.701  -5.380  1.00  0.00     0.034 A 
ATOM     39  C   UNL     1       5.098   5.356  -9.341  1.00  0.00     0.034 A 
ATOM     40  C   UNL     1       7.387  10.937  -6.796  1.00  0.00     0.049 A 
ATOM     41  C   UNL     1       5.495   6.680  -9.939  1.00  0.00     0.074 A 
ATOM     42  C   UNL     1       7.803  12.070  -7.470  1.00  0.00     0.029 A 
ATOM     43  N   UNL     1       6.962  10.030  -7.755  1.00  0.00    -0.354 N 
ATOM     44  N   UNL     1       5.985   7.740  -9.342  1.00  0.00    -0.248 NA
ATOM     45  C   UNL     1       5.343   6.828 -11.394  1.00  0.00     0.031 C 
ATOM     46  C   UNL     1       7.587  11.863  -8.836  1.00  0.00     0.029 A 
ATOM     47  C   UNL     1       7.086  10.582  -9.016  1.00  0.00     0.049 A 
ATOM     48  H   UNL     1       6.623   9.125  -7.566  1.00  0.00     0.167 HD
ATOM     49  C   UNL     1       6.235   8.667 -10.349  1.00  0.00     0.074 A 
ATOM     50  C   UNL     1       5.846   8.039 -11.596  1.00  0.00     0.031 C 
ATOM     51  C   UNL     1       6.739   9.922 -10.250  1.00  0.00     0.034 A 
BRANCH  38  52
ATOM     52  C   UNL     1       7.715  11.823  -4.443  1.00  0.00     0.023 A 
ATOM     53  C   UNL     1       8.893  11.752  -3.672  1.00  0.00     0.012 A 
ATOM     54  C   UNL     1       6.885  12.955  -4.331  1.00  0.00     0.148 A 
ATOM     55  C   UNL     1       9.212  12.764  -2.767  1.00  0.00     0.002 A 
ATOM     56  C   UNL     1       7.237  13.985  -3.467  1.00  0.00     0.091 A 
ATOM     57  F   UNL     1       5.753  12.995  -5.049  1.00  0.00    -0.205 F 
ATOM     58  C   UNL     1       8.390  13.883  -2.672  1.00  0.00     0.022 A 
BRANCH  56  59
ATOM     59  S   UNL     1       6.286  15.502  -3.339  1.00  0.00     0.127 S 
ATOM     60  O   UNL     1       5.636  15.334  -2.040  1.00  0.00    -0.237 OA
ATOM     61  O   UNL     1       7.332  16.524  -3.370  1.00  0.00    -0.237 OA
ATOM     62  O   UNL     1       5.395  15.514  -4.490  1.00  0.00    -0.744 OA
ENDBRANCH  56  59
ENDBRANCH  38  52
BRANCH  39  63
ATOM     63  C   UNL     1       4.497   4.276 -10.170  1.00  0.00     0.023 A 
ATOM     64  C   UNL     1       5.299   3.571 -11.086  1.00  0.00     0.012 A 
ATOM     65  C   UNL     1       3.150   3.900 -10.000  1.00  0.00     0.148 A 
ATOM     66  C   UNL     1       4.765   2.518 -11.831  1.00  0.00     0.002 A 
ATOM     67  C   UNL     1       2.641   2.815 -10.703  1.00  0.00     0.091 A 
ATOM     68  F   UNL     1       2.405   4.592  -9.126  1.00  0.00    -0.205 F 
ATOM     69  C   UNL     1       3.442   2.132 -11.630  1.00  0.00     0.022 A 
BRANCH  67  70
ATOM     70  S   UNL     1       0.994   2.159 -10.411  1.00  0.00     0.127 S 
ATOM     71  O   UNL     1       0.348   2.389 -11.700  1.00  0.00    -0.237 OA
ATOM     72  O   UNL     1       1.285   0.758 -10.107  1.00  0.00    -0.237 OA
ATOM     73  O   UNL     1       0.456   2.922  -9.294  1.00  0.00    -0.744 OA
ENDBRANCH  67  70
ENDBRANCH  39  63
BRANCH  51  74
ATOM     74  C   UNL     1       6.965  10.697 -11.522  1.00  0.00     0.023 A 
ATOM     75  C   UNL     1       5.875  11.240 -12.227  1.00  0.00     0.012 A 
ATOM     76  C   UNL     1       8.279  10.982 -11.947  1.00  0.00     0.148 A 
ATOM     77  C   UNL     1       6.089  12.042 -13.349  1.00  0.00     0.002 A 
ATOM     78  C   UNL     1       8.485  11.825 -13.031  1.00  0.00     0.091 A 
ATOM     79  F   UNL     1       9.300  10.440 -11.268  1.00  0.00    -0.205 F 
ATOM     80  C   UNL     1       7.391  12.346 -13.741  1.00  0.00     0.022 A 
BRANCH  78  81
ATOM     81  S   UNL     1      10.123  12.357 -13.540  1.00  0.00     0.127 S 
ATOM     82  O   UNL     1      10.264  11.690 -14.834  1.00  0.00    -0.237 OA
ATOM     83  O   UNL     1       9.966  13.809 -13.615  1.00  0.00    -0.237 OA
ATOM     84  O   UNL     1      11.038  11.898 -12.504  1.00  0.00    -0.744 OA
ENDBRANCH  78  81
ENDBRANCH  51  74
ENDBRANCH  25  26
ENDBRANCH  18  20
ENDBRANCH  17  18
ENDBRANCH  16  17
ENDBRANCH   1  16
TORSDOF 18
