REMARK SMILES Cc1cccc(CNC(=O)N[C@@H](CC2=c3ccccc3=NC2)C(=O)OCCOCCOC(=O)c2ccc(-c3c4nc(c(-c5cccc(S(=O)(=O)[O-])c5F)c5ccc([nH]5)c(-c5cccc(S(=O)(=O)[O-])c5F)c5nc(c(-c6cccc(S(=O)(=O)[O-])c6F)c6ccc3[nH]6)C=C5)C=C4)cc2)c1
REMARK SMILES IDX 28 1 27 2 26 3 25 4 23 5 24 6 12 7 11 8 8 9 9 10 10 12 7 14
REMARK SMILES IDX 6 15 1 16 2 17 3 18 97 19 4 20 5 21 13 22 14 23 15 24 22 25
REMARK SMILES IDX 16 26 20 27 21 28 17 29 19 30 18 31 29 32 30 33 31 34 32 35
REMARK SMILES IDX 33 36 34 37 35 38 96 39 36 40 95 41 37 42 38 43 39 44 89 45
REMARK SMILES IDX 40 46 94 47 88 48 90 49 41 50 93 51 87 52 86 53 42 55 74 56
REMARK SMILES IDX 54 57 73 58 55 59 58 60 72 61 91 62 56 63 57 64 71 66 92 67
REMARK SMILES IDX 59 68 43 69 44 70 52 71 45 72 47 73 53 74 46 75 48 76 49 77
REMARK SMILES IDX 50 78 51 79 75 80 76 81 84 82 77 83 79 84 85 85 78 86 80 87
REMARK SMILES IDX 81 88 82 89 83 90 60 91 61 92 69 93 62 94 64 95 70 96 63 97
REMARK SMILES IDX 65 98 66 99 67 100 68 101
REMARK H PARENT 8 11 11 13 90 54 58 65
REMARK Flexibility Score: inf
ROOT
ATOM      1  O   UNL     1      -3.463  -0.162   0.620  1.00  0.00    -0.374 OA
ENDROOT
BRANCH   1   2
ATOM      2  C   UNL     1      -3.836  -0.314   1.971  1.00  0.00     0.202 C 
BRANCH   2   3
ATOM      3  C   UNL     1      -3.822   0.906   2.864  1.00  0.00     0.261 C 
BRANCH   3   4
ATOM      4  O   UNL     1      -4.010   2.074   2.095  1.00  0.00    -0.462 OA
BRANCH   4   5
ATOM      5  C   UNL     1      -2.915   2.845   1.967  1.00  0.00     0.329 C 
ATOM      6  O   UNL     1      -1.850   2.688   2.550  1.00  0.00    -0.250 OA
BRANCH   5   7
ATOM      7  C   UNL     1      -3.197   4.032   1.047  1.00  0.00     0.198 C 
BRANCH   7   8
ATOM      8  N   UNL     1      -3.766   3.741  -0.270  1.00  0.00    -0.324 N 
ATOM      9  N   UNL     1      -2.171   2.628  -1.605  1.00  0.00    -0.334 N 
ATOM     10  C   UNL     1      -3.371   3.162  -1.398  1.00  0.00     0.315 C 
ATOM     11  H   UNL     1      -2.067   2.231  -2.499  1.00  0.00     0.165 HD
ATOM     12  O   UNL     1      -4.193   3.117  -2.318  1.00  0.00    -0.249 OA
ATOM     13  H   UNL     1      -4.694   4.061  -0.338  1.00  0.00     0.166 HD
BRANCH   9  14
ATOM     14  C   UNL     1      -0.994   2.514  -0.785  1.00  0.00     0.153 C 
BRANCH  14  15
ATOM     15  C   UNL     1      -0.329   1.162  -0.821  1.00  0.00    -0.028 A 
ATOM     16  C   UNL     1       3.036  -0.237   0.278  1.00  0.00     0.044 C 
ATOM     17  C   UNL     1       1.609  -0.165  -0.169  1.00  0.00    -0.051 A 
ATOM     18  C   UNL     1       0.870  -1.336  -0.363  1.00  0.00     0.003 A 
ATOM     19  C   UNL     1       0.996   1.075  -0.378  1.00  0.00     0.009 A 
ATOM     20  C   UNL     1      -0.437  -1.266  -0.837  1.00  0.00     0.001 A 
ATOM     21  C   UNL     1      -1.018  -0.024  -1.096  1.00  0.00     0.005 A 
ENDBRANCH  14  15
ENDBRANCH   9  14
ENDBRANCH   7   8
BRANCH   7  22
ATOM     22  C   UNL     1      -4.126   5.005   1.808  1.00  0.00     0.070 C 
BRANCH  22  23
ATOM     23  C   UNL     1      -5.628   4.800   1.866  1.00  0.00    -0.037 C 
ATOM     24  C   UNL     1      -6.469   3.830   1.492  1.00  0.00     0.001 A 
ATOM     25  C   UNL     1      -6.395   5.874   2.601  1.00  0.00     0.174 C 
ATOM     26  C   UNL     1      -6.501   2.621   0.724  1.00  0.00     0.010 A 
ATOM     27  C   UNL     1      -7.605   4.118   2.374  1.00  0.00     0.065 A 
ATOM     28  N   UNL     1      -7.701   5.283   2.933  1.00  0.00    -0.280 NA
ATOM     29  C   UNL     1      -7.353   1.627   1.036  1.00  0.00     0.001 A 
ATOM     30  C   UNL     1      -8.446   2.960   2.685  1.00  0.00     0.028 A 
ATOM     31  C   UNL     1      -8.250   1.757   2.142  1.00  0.00     0.002 A 
ENDBRANCH  22  23
ENDBRANCH   7  22
ENDBRANCH   5   7
ENDBRANCH   4   5
ENDBRANCH   3   4
ENDBRANCH   2   3
ENDBRANCH   1   2
BRANCH   1  32
ATOM     32  C   UNL     1      -4.602  -0.141  -0.225  1.00  0.00     0.202 C 
BRANCH  32  33
ATOM     33  C   UNL     1      -5.269  -1.484  -0.544  1.00  0.00     0.261 C 
BRANCH  33  34
ATOM     34  O   UNL     1      -6.226  -2.252   0.294  1.00  0.00    -0.460 OA
BRANCH  34  35
ATOM     35  C   UNL     1      -6.819  -2.872   1.322  1.00  0.00     0.338 C 
ATOM     36  O   UNL     1      -7.835  -3.529   1.109  1.00  0.00    -0.246 OA
BRANCH  35  37
ATOM     37  C   UNL     1      -6.339  -2.764   2.715  1.00  0.00     0.060 A 
ATOM     38  C   UNL     1      -7.270  -2.551   3.740  1.00  0.00     0.016 A 
ATOM     39  C   UNL     1      -5.002  -2.777   3.040  1.00  0.00     0.016 A 
ATOM     40  C   UNL     1      -6.886  -1.938   4.936  1.00  0.00     0.010 A 
ATOM     41  C   UNL     1      -4.622  -2.132   4.217  1.00  0.00     0.010 A 
ATOM     42  C   UNL     1      -5.570  -1.563   5.090  1.00  0.00    -0.014 A 
BRANCH  42  43
ATOM     43  C   UNL     1      -5.123  -0.462   5.966  1.00  0.00     0.031 A 
ATOM     44  C   UNL     1      -3.898  -0.678   6.793  1.00  0.00     0.074 A 
ATOM     45  C   UNL     1      -5.625   0.801   5.811  1.00  0.00     0.049 A 
ATOM     46  N   UNL     1      -3.334   0.239   7.496  1.00  0.00    -0.248 NA
ATOM     47  C   UNL     1      -3.216  -1.969   6.926  1.00  0.00     0.031 C 
ATOM     48  C   UNL     1      -4.852   2.042   5.976  1.00  0.00     0.029 A 
ATOM     49  N   UNL     1      -6.862   1.279   5.346  1.00  0.00    -0.354 N 
ATOM     50  C   UNL     1      -2.139  -0.246   7.976  1.00  0.00     0.074 A 
ATOM     51  C   UNL     1      -2.140  -1.644   7.649  1.00  0.00     0.031 C 
ATOM     52  C   UNL     1      -5.632   3.107   5.730  1.00  0.00     0.029 A 
ATOM     53  C   UNL     1      -7.010   2.649   5.641  1.00  0.00     0.049 A 
ATOM     54  H   UNL     1      -7.533   0.732   4.878  1.00  0.00     0.167 HD
ATOM     55  C   UNL     1      -1.263   0.631   8.534  1.00  0.00     0.034 A 
ATOM     56  C   UNL     1      -8.016   3.185   6.414  1.00  0.00     0.034 A 
ATOM     57  C   UNL     1      -1.927   1.931   8.759  1.00  0.00     0.049 A 
ATOM     58  C   UNL     1      -7.483   3.652   7.762  1.00  0.00     0.074 A 
ATOM     59  C   UNL     1      -1.850   3.166   8.142  1.00  0.00     0.029 A 
ATOM     60  N   UNL     1      -3.066   1.975   9.570  1.00  0.00    -0.354 N 
ATOM     61  N   UNL     1      -6.240   3.511   8.141  1.00  0.00    -0.248 NA
ATOM     62  C   UNL     1      -8.293   4.279   8.803  1.00  0.00     0.031 C 
ATOM     63  C   UNL     1      -3.016   3.908   8.507  1.00  0.00     0.029 A 
ATOM     64  C   UNL     1      -3.768   3.162   9.404  1.00  0.00     0.049 A 
ATOM     65  H   UNL     1      -3.336   1.254  10.184  1.00  0.00     0.167 HD
ATOM     66  C   UNL     1      -6.111   3.791   9.465  1.00  0.00     0.074 A 
ATOM     67  C   UNL     1      -7.407   4.356   9.813  1.00  0.00     0.031 C 
ATOM     68  C   UNL     1      -4.993   3.435  10.172  1.00  0.00     0.034 A 
BRANCH  55  69
ATOM     69  C   UNL     1       0.216   0.375   8.799  1.00  0.00     0.023 A 
ATOM     70  C   UNL     1       0.924   1.377   9.500  1.00  0.00     0.012 A 
ATOM     71  C   UNL     1       0.997  -0.722   8.338  1.00  0.00     0.148 A 
ATOM     72  C   UNL     1       2.305   1.303   9.734  1.00  0.00     0.002 A 
ATOM     73  C   UNL     1       2.364  -0.830   8.633  1.00  0.00     0.091 A 
ATOM     74  F   UNL     1       0.455  -1.635   7.529  1.00  0.00    -0.205 F 
ATOM     75  C   UNL     1       3.024   0.192   9.318  1.00  0.00     0.022 A 
BRANCH  73  76
ATOM     76  S   UNL     1       3.362  -2.265   8.174  1.00  0.00     0.127 S 
ATOM     77  O   UNL     1       4.313  -1.692   7.222  1.00  0.00    -0.237 OA
ATOM     78  O   UNL     1       3.952  -2.661   9.454  1.00  0.00    -0.237 OA
ATOM     79  O   UNL     1       2.439  -3.243   7.609  1.00  0.00    -0.744 OA
ENDBRANCH  73  76
ENDBRANCH  55  69
BRANCH  56  80
ATOM     80  C   UNL     1      -9.434   2.731   6.174  1.00  0.00     0.023 A 
ATOM     81  C   UNL     1     -10.288   3.492   5.334  1.00  0.00     0.012 A 
ATOM     82  C   UNL     1      -9.728   1.373   6.354  1.00  0.00     0.148 A 
ATOM     83  C   UNL     1     -11.221   2.852   4.488  1.00  0.00     0.002 A 
ATOM     84  C   UNL     1     -10.598   0.742   5.468  1.00  0.00     0.091 A 
ATOM     85  F   UNL     1      -9.040   0.698   7.282  1.00  0.00    -0.205 F 
ATOM     86  C   UNL     1     -11.306   1.467   4.500  1.00  0.00     0.022 A 
BRANCH  84  87
ATOM     87  S   UNL     1     -10.601  -1.037   5.277  1.00  0.00     0.127 S 
ATOM     88  O   UNL     1     -12.033  -1.347   5.235  1.00  0.00    -0.237 OA
ATOM     89  O   UNL     1      -9.922  -1.144   3.980  1.00  0.00    -0.237 OA
ATOM     90  O   UNL     1      -9.890  -1.567   6.415  1.00  0.00    -0.744 OA
ENDBRANCH  84  87
ENDBRANCH  56  80
BRANCH  68  91
ATOM     91  C   UNL     1      -4.989   3.304  11.684  1.00  0.00     0.023 A 
ATOM     92  C   UNL     1      -6.182   3.149  12.421  1.00  0.00     0.012 A 
ATOM     93  C   UNL     1      -3.780   3.165  12.405  1.00  0.00     0.148 A 
ATOM     94  C   UNL     1      -6.186   2.970  13.806  1.00  0.00     0.002 A 
ATOM     95  C   UNL     1      -3.788   2.841  13.758  1.00  0.00     0.091 A 
ATOM     96  F   UNL     1      -2.605   3.361  11.790  1.00  0.00    -0.205 F 
ATOM     97  C   UNL     1      -4.985   2.792  14.473  1.00  0.00     0.022 A 
BRANCH  95  98
ATOM     98  S   UNL     1      -2.292   2.294  14.591  1.00  0.00     0.127 S 
ATOM     99  O   UNL     1      -1.870   3.511  15.279  1.00  0.00    -0.237 OA
ATOM    100  O   UNL     1      -2.798   1.238  15.470  1.00  0.00    -0.237 OA
ATOM    101  O   UNL     1      -1.417   1.817  13.529  1.00  0.00    -0.744 OA
ENDBRANCH  95  98
ENDBRANCH  68  91
ENDBRANCH  42  43
ENDBRANCH  35  37
ENDBRANCH  34  35
ENDBRANCH  33  34
ENDBRANCH  32  33
ENDBRANCH   1  32
TORSDOF 22
