REMARK SMILES CC[C@](C)(NC(=O)[C@H]1C[NH2+]Cc2ccccc21)C(=O)OCCOCCOC(=O)c1ccc(-c2c3nc(c(-c4cccc(S(=O)(=O)[O-])c4F)c4ccc([nH]4)c(-c4cccc(S(=O)(=O)[O-])c4F)c4nc(c(-c5cccc(S(=O)(=O)[O-])c5F)c5ccc2[nH]5)C=C4)C=C3)cc1
REMARK SMILES IDX 24 1 23 2 22 3 21 4 20 5 18 6 19 7 3 8 4 9 2 10 1 11 5 12
REMARK SMILES IDX 6 13 7 15 8 16 9 17 17 18 10 19 12 20 16 21 11 22 13 25
REMARK SMILES IDX 15 26 14 27 25 28 26 29 27 30 28 31 29 32 30 33 91 34 31 35
REMARK SMILES IDX 90 36 32 37 33 38 34 39 84 40 35 41 89 42 83 43 85 44 36 45
REMARK SMILES IDX 88 46 82 47 81 48 37 50 69 51 49 52 68 53 50 54 53 55 67 56
REMARK SMILES IDX 86 57 51 58 52 59 66 61 87 62 54 63 38 64 39 65 47 66 40 67
REMARK SMILES IDX 42 68 48 69 41 70 43 71 44 72 45 73 46 74 70 75 71 76 79 77
REMARK SMILES IDX 72 78 74 79 80 80 73 81 75 82 76 83 77 84 78 85 55 86 56 87
REMARK SMILES IDX 64 88 57 89 59 90 65 91 58 92 60 93 61 94 62 95 63 96
REMARK H PARENT 5 14 10 23 10 24 85 49 53 60
REMARK Flexibility Score: inf
ROOT
ATOM      1  C   UNL     1       1.466   2.713   3.405  1.00  0.00     0.202 C 
ENDROOT
BRANCH   1   2
ATOM      2  O   UNL     1       0.311   1.923   3.955  1.00  0.00    -0.374 OA
BRANCH   2   3
ATOM      3  C   UNL     1      -0.006   1.962   5.360  1.00  0.00     0.202 C 
BRANCH   3   4
ATOM      4  C   UNL     1      -0.912   0.872   5.982  1.00  0.00     0.261 C 
BRANCH   4   5
ATOM      5  O   UNL     1      -0.456  -0.417   5.586  1.00  0.00    -0.462 OA
BRANCH   5   6
ATOM      6  C   UNL     1      -1.193  -0.963   4.582  1.00  0.00     0.331 C 
ATOM      7  O   UNL     1      -2.417  -0.954   4.554  1.00  0.00    -0.249 OA
BRANCH   6   8
ATOM      8  C   UNL     1      -0.286  -1.556   3.475  1.00  0.00     0.135 C 
ATOM      9  C   UNL     1      -0.762  -0.882   2.169  1.00  0.00     0.047 C 
BRANCH   8  10
ATOM     10  C   UNL     1      -0.564  -3.080   3.412  1.00  0.00     0.037 C 
ATOM     11  C   UNL     1       0.593  -3.962   2.958  1.00  0.00     0.007 C 
ENDBRANCH   8  10
BRANCH   8  12
ATOM     12  N   UNL     1       1.116  -1.246   3.841  1.00  0.00    -0.340 N 
ATOM     13  C   UNL     1       1.662  -0.000   3.582  1.00  0.00     0.234 C 
ATOM     14  H   UNL     1       1.667  -1.936   4.276  1.00  0.00     0.164 HD
ATOM     15  O   UNL     1       1.613   0.339   2.401  1.00  0.00    -0.274 OA
BRANCH  13  16
ATOM     16  C   UNL     1       2.618   0.629   4.721  1.00  0.00     0.164 C 
ATOM     17  C   UNL     1       4.073  -0.428   3.869  1.00  0.00     0.279 C 
ATOM     18  C   UNL     1       3.102   2.487   5.281  1.00  0.00    -0.021 A 
ATOM     19  N   UNL     1       5.488   0.459   3.134  1.00  0.00    -0.342 N 
ATOM     20  C   UNL     1       4.690   3.153   4.809  1.00  0.00     0.010 A 
ATOM     21  C   UNL     1       2.455   3.408   6.141  1.00  0.00     0.005 A 
ATOM     22  C   UNL     1       5.920   2.099   3.804  1.00  0.00     0.297 C 
ATOM     23  H   UNL     1       5.286   0.582   2.141  1.00  0.00     0.346 HD
ATOM     24  H   UNL     1       6.295  -0.125   3.355  1.00  0.00     0.346 HD
ATOM     25  C   UNL     1       5.188   4.391   5.122  1.00  0.00     0.010 A 
ATOM     26  C   UNL     1       3.032   4.711   6.308  1.00  0.00     0.000 A 
ATOM     27  C   UNL     1       4.302   5.184   5.831  1.00  0.00     0.001 A 
ENDBRANCH  13  16
ENDBRANCH   8  12
ENDBRANCH   6   8
ENDBRANCH   5   6
ENDBRANCH   4   5
ENDBRANCH   3   4
ENDBRANCH   2   3
ENDBRANCH   1   2
BRANCH   1  28
ATOM     28  C   UNL     1       3.212   2.119   3.148  1.00  0.00     0.261 C 
BRANCH  28  29
ATOM     29  O   UNL     1       4.314   1.314   4.497  1.00  0.00    -0.460 OA
BRANCH  29  30
ATOM     30  C   UNL     1       4.609   0.856   5.958  1.00  0.00     0.338 C 
ATOM     31  O   UNL     1       3.710   0.748   6.812  1.00  0.00    -0.246 OA
BRANCH  30  32
ATOM     32  C   UNL     1       5.902   0.484   6.576  1.00  0.00     0.060 A 
ATOM     33  C   UNL     1       5.862   0.719   7.973  1.00  0.00     0.016 A 
ATOM     34  C   UNL     1       6.912  -0.318   6.056  1.00  0.00     0.016 A 
ATOM     35  C   UNL     1       6.696   0.063   8.846  1.00  0.00     0.010 A 
ATOM     36  C   UNL     1       7.812  -0.929   6.934  1.00  0.00     0.010 A 
ATOM     37  C   UNL     1       7.675  -0.763   8.322  1.00  0.00    -0.014 A 
BRANCH  37  38
ATOM     38  C   UNL     1       8.676  -1.296   9.246  1.00  0.00     0.031 A 
ATOM     39  C   UNL     1       9.941  -0.516   9.372  1.00  0.00     0.074 A 
ATOM     40  C   UNL     1       8.423  -2.416   9.942  1.00  0.00     0.049 A 
ATOM     41  N   UNL     1      11.032  -0.814  10.012  1.00  0.00    -0.248 NA
ATOM     42  C   UNL     1       9.990   0.769   8.646  1.00  0.00     0.031 C 
ATOM     43  C   UNL     1       7.181  -3.191   9.880  1.00  0.00     0.029 A 
ATOM     44  N   UNL     1       9.204  -3.103  10.828  1.00  0.00    -0.354 N 
ATOM     45  C   UNL     1      11.926   0.202   9.702  1.00  0.00     0.074 A 
ATOM     46  C   UNL     1      11.248   1.132   8.831  1.00  0.00     0.031 C 
ATOM     47  C   UNL     1       7.298  -4.267  10.678  1.00  0.00     0.029 A 
ATOM     48  C   UNL     1       8.623  -4.261  11.287  1.00  0.00     0.049 A 
ATOM     49  H   UNL     1      10.096  -2.797  11.111  1.00  0.00     0.167 HD
ATOM     50  C   UNL     1      13.203   0.334  10.120  1.00  0.00     0.034 A 
ATOM     51  C   UNL     1       9.131  -5.203  12.106  1.00  0.00     0.034 A 
ATOM     52  C   UNL     1      13.807  -0.585  11.040  1.00  0.00     0.049 A 
ATOM     53  C   UNL     1      10.514  -4.966  12.654  1.00  0.00     0.074 A 
ATOM     54  C   UNL     1      15.082  -0.575  11.568  1.00  0.00     0.029 A 
ATOM     55  N   UNL     1      13.146  -1.677  11.592  1.00  0.00    -0.354 N 
ATOM     56  N   UNL     1      11.348  -3.986  12.384  1.00  0.00    -0.248 NA
ATOM     57  C   UNL     1      11.014  -5.924  13.647  1.00  0.00     0.031 C 
ATOM     58  C   UNL     1      15.185  -1.653  12.456  1.00  0.00     0.029 A 
ATOM     59  C   UNL     1      13.972  -2.329  12.484  1.00  0.00     0.049 A 
ATOM     60  H   UNL     1      12.224  -1.946  11.377  1.00  0.00     0.167 HD
ATOM     61  C   UNL     1      12.454  -4.186  13.197  1.00  0.00     0.074 A 
ATOM     62  C   UNL     1      12.176  -5.377  13.981  1.00  0.00     0.031 C 
ATOM     63  C   UNL     1      13.606  -3.473  13.281  1.00  0.00     0.034 A 
BRANCH  50  64
ATOM     64  C   UNL     1      13.979   1.505   9.588  1.00  0.00     0.023 A 
ATOM     65  C   UNL     1      13.670   2.809  10.026  1.00  0.00     0.012 A 
ATOM     66  C   UNL     1      14.985   1.323   8.620  1.00  0.00     0.148 A 
ATOM     67  C   UNL     1      14.318   3.916   9.477  1.00  0.00     0.002 A 
ATOM     68  C   UNL     1      15.658   2.428   8.110  1.00  0.00     0.091 A 
ATOM     69  F   UNL     1      15.238   0.080   8.184  1.00  0.00    -0.205 F 
ATOM     70  C   UNL     1      15.316   3.725   8.527  1.00  0.00     0.022 A 
BRANCH  68  71
ATOM     71  S   UNL     1      17.000   2.279   6.926  1.00  0.00     0.127 S 
ATOM     72  O   UNL     1      16.360   2.733   5.693  1.00  0.00    -0.237 OA
ATOM     73  O   UNL     1      17.996   3.202   7.471  1.00  0.00    -0.237 OA
ATOM     74  O   UNL     1      17.398   0.878   6.949  1.00  0.00    -0.744 OA
ENDBRANCH  68  71
ENDBRANCH  50  64
BRANCH  51  75
ATOM     75  C   UNL     1       8.294  -6.369  12.511  1.00  0.00     0.023 A 
ATOM     76  C   UNL     1       7.793  -6.435  13.825  1.00  0.00     0.012 A 
ATOM     77  C   UNL     1       7.920  -7.367  11.589  1.00  0.00     0.148 A 
ATOM     78  C   UNL     1       6.953  -7.479  14.219  1.00  0.00     0.002 A 
ATOM     79  C   UNL     1       7.042  -8.378  11.974  1.00  0.00     0.091 A 
ATOM     80  F   UNL     1       8.416  -7.305  10.345  1.00  0.00    -0.205 F 
ATOM     81  C   UNL     1       6.566  -8.442  13.291  1.00  0.00     0.022 A 
BRANCH  79  82
ATOM     82  S   UNL     1       6.389  -9.570  10.796  1.00  0.00     0.127 S 
ATOM     83  O   UNL     1       7.234 -10.734  11.045  1.00  0.00    -0.237 OA
ATOM     84  O   UNL     1       5.000  -9.714  11.233  1.00  0.00    -0.237 OA
ATOM     85  O   UNL     1       6.537  -8.937   9.492  1.00  0.00    -0.744 OA
ENDBRANCH  79  82
ENDBRANCH  51  75
BRANCH  63  86
ATOM     86  C   UNL     1      14.621  -3.939  14.283  1.00  0.00     0.023 A 
ATOM     87  C   UNL     1      15.440  -5.041  13.978  1.00  0.00     0.012 A 
ATOM     88  C   UNL     1      14.821  -3.225  15.479  1.00  0.00     0.148 A 
ATOM     89  C   UNL     1      16.437  -5.441  14.865  1.00  0.00     0.002 A 
ATOM     90  C   UNL     1      15.842  -3.606  16.339  1.00  0.00     0.091 A 
ATOM     91  F   UNL     1      14.011  -2.193  15.757  1.00  0.00    -0.205 F 
ATOM     92  C   UNL     1      16.646  -4.717  16.038  1.00  0.00     0.022 A 
BRANCH  90  93
ATOM     93  S   UNL     1      16.216  -2.660  17.818  1.00  0.00     0.127 S 
ATOM     94  O   UNL     1      15.440  -3.369  18.832  1.00  0.00    -0.237 OA
ATOM     95  O   UNL     1      17.666  -2.816  17.940  1.00  0.00    -0.237 OA
ATOM     96  O   UNL     1      15.787  -1.299  17.523  1.00  0.00    -0.744 OA
ENDBRANCH  90  93
ENDBRANCH  63  86
ENDBRANCH  37  38
ENDBRANCH  30  32
ENDBRANCH  29  30
ENDBRANCH  28  29
ENDBRANCH   1  28
TORSDOF 20
