REMARK SMILES C[C@@H](C(=O)OCCOCCOC(=O)c1ccc(-c2c3nc(c(-c4cccc(S(=O)(=O)[O-])c4F)c4ccc([nH]4)c(-c4cccc(S(=O)(=O)[O-])c4F)c4nc(c(-c5cccc(S(=O)(=O)[O-])c5F)c5ccc2[nH]5)C=C4)C=C3)cc1)c1ccc(C[C@@H]2CCC[C@@H]2O)cc1Br
REMARK SMILES IDX 7 1 6 2 5 3 3 4 4 5 2 6 1 7 77 8 78 9 89 10 79 11 88 12
REMARK SMILES IDX 90 13 80 14 81 15 82 16 83 17 86 18 84 19 85 20 87 21 8 23
REMARK SMILES IDX 9 24 10 25 11 26 12 27 13 28 14 29 15 30 76 31 16 32 75 33
REMARK SMILES IDX 17 34 18 35 19 36 69 37 20 38 74 39 68 40 70 41 21 42 73 43
REMARK SMILES IDX 67 44 66 45 22 47 54 48 34 49 53 50 35 51 38 52 52 53 71 54
REMARK SMILES IDX 36 55 37 56 51 58 72 59 39 60 23 61 24 62 32 63 25 64 27 65
REMARK SMILES IDX 33 66 26 67 28 68 29 69 30 70 31 71 55 72 56 73 64 74 57 75
REMARK SMILES IDX 59 76 65 77 58 78 60 79 61 80 62 81 63 82 40 83 41 84 49 85
REMARK SMILES IDX 42 86 44 87 50 88 43 89 45 90 46 91 47 92 48 93
REMARK H PARENT 87 22 70 46 38 57
REMARK Flexibility Score: inf
ROOT
ATOM      1  C   UNL     1     -13.462   5.156   4.558  1.00  0.00     0.202 C 
ENDROOT
BRANCH   1   2
ATOM      2  C   UNL     1     -13.231   3.724   5.065  1.00  0.00     0.261 C 
BRANCH   2   3
ATOM      3  O   UNL     1     -11.832   3.470   5.317  1.00  0.00    -0.463 OA
BRANCH   3   4
ATOM      4  C   UNL     1     -11.190   2.672   4.416  1.00  0.00     0.313 C 
ATOM      5  O   UNL     1     -11.761   2.044   3.532  1.00  0.00    -0.252 OA
BRANCH   4   6
ATOM      6  C   UNL     1      -9.671   2.616   4.672  1.00  0.00     0.127 C 
ATOM      7  C   UNL     1      -9.046   3.868   5.294  1.00  0.00     0.025 C 
BRANCH   6   8
ATOM      8  C   UNL     1      -8.943   2.066   3.441  1.00  0.00    -0.020 A 
ATOM      9  C   UNL     1      -8.524   0.722   3.498  1.00  0.00     0.006 A 
ATOM     10  C   UNL     1      -8.779   2.724   2.212  1.00  0.00     0.022 A 
ATOM     11  C   UNL     1      -7.960   0.080   2.390  1.00  0.00     0.004 A 
ATOM     12  C   UNL     1      -8.388   2.027   1.070  1.00  0.00     0.019 A 
ATOM     13  Br  UNL     1      -8.655   4.593   1.953  1.00  0.00    -0.050 Br
ATOM     14  C   UNL     1      -7.877   0.740   1.165  1.00  0.00    -0.047 A 
BRANCH  14  15
ATOM     15  C   UNL     1      -7.112   0.194  -0.007  1.00  0.00     0.041 C 
BRANCH  15  16
ATOM     16  C   UNL     1      -5.613   0.581  -0.066  1.00  0.00     0.022 C 
ATOM     17  C   UNL     1      -4.782   0.013   1.091  1.00  0.00     0.007 C 
ATOM     18  C   UNL     1      -5.215   2.067  -0.056  1.00  0.00     0.117 C 
ATOM     19  C   UNL     1      -4.553   1.156   2.085  1.00  0.00     0.003 C 
ATOM     20  C   UNL     1      -5.038   2.433   1.413  1.00  0.00     0.032 C 
BRANCH  18  21
ATOM     21  O   UNL     1      -6.112   2.932  -0.718  1.00  0.00    -0.393 OA
ATOM     22  H   UNL     1      -6.978   2.894  -0.283  1.00  0.00     0.210 HD
ENDBRANCH  18  21
ENDBRANCH  15  16
ENDBRANCH  14  15
ENDBRANCH   6   8
ENDBRANCH   4   6
ENDBRANCH   3   4
ENDBRANCH   2   3
ENDBRANCH   1   2
BRANCH   1  23
ATOM     23  O   UNL     1     -13.002   5.443   3.234  1.00  0.00    -0.374 OA
BRANCH  23  24
ATOM     24  C   UNL     1     -11.591   5.551   3.086  1.00  0.00     0.202 C 
BRANCH  24  25
ATOM     25  C   UNL     1     -11.018   6.967   3.028  1.00  0.00     0.261 C 
BRANCH  25  26
ATOM     26  O   UNL     1     -11.235   7.611   4.283  1.00  0.00    -0.460 OA
BRANCH  26  27
ATOM     27  C   UNL     1     -12.322   8.411   4.281  1.00  0.00     0.338 C 
ATOM     28  O   UNL     1     -12.960   8.794   3.321  1.00  0.00    -0.246 OA
BRANCH  27  29
ATOM     29  C   UNL     1     -12.761   8.589   5.671  1.00  0.00     0.060 A 
ATOM     30  C   UNL     1     -14.134   8.461   5.901  1.00  0.00     0.016 A 
ATOM     31  C   UNL     1     -11.873   8.876   6.712  1.00  0.00     0.016 A 
ATOM     32  C   UNL     1     -14.642   8.713   7.163  1.00  0.00     0.010 A 
ATOM     33  C   UNL     1     -12.385   9.128   7.982  1.00  0.00     0.010 A 
ATOM     34  C   UNL     1     -13.775   9.101   8.191  1.00  0.00    -0.014 A 
BRANCH  34  35
ATOM     35  C   UNL     1     -14.359   9.659   9.425  1.00  0.00     0.031 A 
ATOM     36  C   UNL     1     -14.386  11.151   9.591  1.00  0.00     0.074 A 
ATOM     37  C   UNL     1     -14.901   8.844  10.344  1.00  0.00     0.049 A 
ATOM     38  N   UNL     1     -14.870  11.862  10.573  1.00  0.00    -0.248 NA
ATOM     39  C   UNL     1     -13.790  11.950   8.505  1.00  0.00     0.031 C 
ATOM     40  C   UNL     1     -14.941   7.384  10.258  1.00  0.00     0.029 A 
ATOM     41  N   UNL     1     -15.511   9.132  11.534  1.00  0.00    -0.354 N 
ATOM     42  C   UNL     1     -14.606  13.185  10.244  1.00  0.00     0.074 A 
ATOM     43  C   UNL     1     -13.911  13.182   8.976  1.00  0.00     0.031 C 
ATOM     44  C   UNL     1     -15.531   6.902  11.364  1.00  0.00     0.029 A 
ATOM     45  C   UNL     1     -15.880   8.015  12.242  1.00  0.00     0.049 A 
ATOM     46  H   UNL     1     -15.670  10.050  11.851  1.00  0.00     0.167 HD
ATOM     47  C   UNL     1     -14.927  14.304  10.934  1.00  0.00     0.034 A 
ATOM     48  C   UNL     1     -16.418   7.912  13.472  1.00  0.00     0.034 A 
ATOM     49  C   UNL     1     -15.635  14.291  12.184  1.00  0.00     0.049 A 
ATOM     50  C   UNL     1     -16.736   9.173  14.231  1.00  0.00     0.074 A 
ATOM     51  C   UNL     1     -16.055  15.366  12.944  1.00  0.00     0.029 A 
ATOM     52  N   UNL     1     -16.010  13.144  12.867  1.00  0.00    -0.354 N 
ATOM     53  N   UNL     1     -16.581  10.422  13.862  1.00  0.00    -0.248 NA
ATOM     54  C   UNL     1     -17.334   9.011  15.564  1.00  0.00     0.031 C 
ATOM     55  C   UNL     1     -16.645  14.868  14.110  1.00  0.00     0.029 A 
ATOM     56  C   UNL     1     -16.637  13.483  14.052  1.00  0.00     0.049 A 
ATOM     57  H   UNL     1     -15.852  12.223  12.554  1.00  0.00     0.167 HD
ATOM     58  C   UNL     1     -17.097  11.194  14.897  1.00  0.00     0.074 A 
ATOM     59  C   UNL     1     -17.585  10.268  15.900  1.00  0.00     0.031 C 
ATOM     60  C   UNL     1     -17.156  12.544  15.014  1.00  0.00     0.034 A 
BRANCH  47  61
ATOM     61  C   UNL     1     -14.512  15.629  10.353  1.00  0.00     0.023 A 
ATOM     62  C   UNL     1     -15.155  16.132   9.204  1.00  0.00     0.012 A 
ATOM     63  C   UNL     1     -13.513  16.400  10.979  1.00  0.00     0.148 A 
ATOM     64  C   UNL     1     -14.788  17.366   8.668  1.00  0.00     0.002 A 
ATOM     65  C   UNL     1     -13.187  17.650  10.468  1.00  0.00     0.091 A 
ATOM     66  F   UNL     1     -12.895  15.893  12.055  1.00  0.00    -0.205 F 
ATOM     67  C   UNL     1     -13.813  18.129   9.306  1.00  0.00     0.022 A 
BRANCH  65  68
ATOM     68  S   UNL     1     -12.004  18.742  11.264  1.00  0.00     0.127 S 
ATOM     69  O   UNL     1     -10.905  18.740  10.299  1.00  0.00    -0.237 OA
ATOM     70  O   UNL     1     -12.749  19.999  11.338  1.00  0.00    -0.237 OA
ATOM     71  O   UNL     1     -11.701  18.137  12.554  1.00  0.00    -0.744 OA
ENDBRANCH  65  68
ENDBRANCH  47  61
BRANCH  48  72
ATOM     72  C   UNL     1     -16.710   6.571  14.047  1.00  0.00     0.023 A 
ATOM     73  C   UNL     1     -18.045   6.172  14.246  1.00  0.00     0.012 A 
ATOM     74  C   UNL     1     -15.669   5.681  14.381  1.00  0.00     0.148 A 
ATOM     75  C   UNL     1     -18.339   4.926  14.800  1.00  0.00     0.002 A 
ATOM     76  C   UNL     1     -15.970   4.420  14.878  1.00  0.00     0.091 A 
ATOM     77  F   UNL     1     -14.405   6.085  14.193  1.00  0.00    -0.205 F 
ATOM     78  C   UNL     1     -17.303   4.047  15.107  1.00  0.00     0.022 A 
BRANCH  76  79
ATOM     79  S   UNL     1     -14.708   3.178  15.181  1.00  0.00     0.127 S 
ATOM     80  O   UNL     1     -14.738   3.070  16.637  1.00  0.00    -0.237 OA
ATOM     81  O   UNL     1     -15.248   2.022  14.465  1.00  0.00    -0.237 OA
ATOM     82  O   UNL     1     -13.479   3.716  14.613  1.00  0.00    -0.744 OA
ENDBRANCH  76  79
ENDBRANCH  48  72
BRANCH  60  83
ATOM     83  C   UNL     1     -17.811  13.108  16.247  1.00  0.00     0.023 A 
ATOM     84  C   UNL     1     -17.168  13.015  17.496  1.00  0.00     0.012 A 
ATOM     85  C   UNL     1     -19.036  13.799  16.149  1.00  0.00     0.148 A 
ATOM     86  C   UNL     1     -17.751  13.567  18.636  1.00  0.00     0.002 A 
ATOM     87  C   UNL     1     -19.583  14.395  17.277  1.00  0.00     0.091 A 
ATOM     88  F   UNL     1     -19.639  13.864  14.953  1.00  0.00    -0.205 F 
ATOM     89  C   UNL     1     -18.951  14.267  18.524  1.00  0.00     0.022 A 
BRANCH  87  90
ATOM     90  S   UNL     1     -21.069  15.402  17.211  1.00  0.00     0.127 S 
ATOM     91  O   UNL     1     -22.035  14.554  17.907  1.00  0.00    -0.237 OA
ATOM     92  O   UNL     1     -20.663  16.599  17.949  1.00  0.00    -0.237 OA
ATOM     93  O   UNL     1     -21.341  15.626  15.797  1.00  0.00    -0.744 OA
ENDBRANCH  87  90
ENDBRANCH  60  83
ENDBRANCH  34  35
ENDBRANCH  27  29
ENDBRANCH  26  27
ENDBRANCH  25  26
ENDBRANCH  24  25
ENDBRANCH  23  24
ENDBRANCH   1  23
TORSDOF 21
