REMARK SMILES C[C@@H]1[C@@H](C(=O)OCCOCCOC(=O)c2ccc(-c3c4nc(c(-c5cccc(S(=O)(=O)[O-])c5F)c5ccc([nH]5)c(-c5cccc(S(=O)(=O)[O-])c5F)c5nc(c(-c6cccc(S(=O)(=O)[O-])c6F)c6ccc3[nH]6)C=C5)C=C4)cc2)CCN1C(=O)CN1C(=O)CNC1=O
REMARK SMILES IDX 9 1 8 2 7 3 6 4 4 5 5 6 3 7 1 8 2 9 80 10 78 11 79 12 81 13
REMARK SMILES IDX 82 14 83 15 84 16 85 17 89 18 86 19 87 20 88 21 90 22 10 24
REMARK SMILES IDX 11 25 12 26 13 27 14 28 15 29 16 30 77 31 17 32 76 33 18 34
REMARK SMILES IDX 19 35 20 36 70 37 21 38 75 39 69 40 71 41 22 42 74 43 68 44
REMARK SMILES IDX 67 45 23 47 55 48 35 49 54 50 36 51 39 52 53 53 72 54 37 55
REMARK SMILES IDX 38 56 52 58 73 59 40 60 24 61 25 62 33 63 26 64 28 65 34 66
REMARK SMILES IDX 27 67 29 68 30 69 31 70 32 71 56 72 57 73 65 74 58 75 60 76
REMARK SMILES IDX 66 77 59 78 61 79 62 80 63 81 64 82 41 83 42 84 50 85 43 86
REMARK SMILES IDX 45 87 51 88 44 89 46 90 47 91 48 92 49 93
REMARK H PARENT 88 23 71 46 39 57
REMARK Flexibility Score: inf
ROOT
ATOM      1  O   UNL     1      -0.024   2.246  -4.423  1.00  0.00    -0.374 OA
ENDROOT
BRANCH   1   2
ATOM      2  C   UNL     1      -1.442   2.355  -4.431  1.00  0.00     0.202 C 
BRANCH   2   3
ATOM      3  C   UNL     1      -2.267   1.586  -3.392  1.00  0.00     0.261 C 
BRANCH   3   4
ATOM      4  O   UNL     1      -1.785   1.707  -2.047  1.00  0.00    -0.463 OA
BRANCH   4   5
ATOM      5  C   UNL     1      -1.102   0.610  -1.612  1.00  0.00     0.311 C 
ATOM      6  O   UNL     1      -0.916  -0.394  -2.288  1.00  0.00    -0.252 OA
BRANCH   5   7
ATOM      7  C   UNL     1      -0.594   0.806  -0.184  1.00  0.00     0.123 C 
ATOM      8  C   UNL     1       1.448   0.228   1.286  1.00  0.00     0.032 C 
ATOM      9  C   UNL     1       0.603  -0.118   0.062  1.00  0.00     0.096 C 
ATOM     10  N   UNL     1      -0.033  -1.423   0.208  1.00  0.00    -0.338 N 
ATOM     11  C   UNL     1      -1.619   0.262   0.803  1.00  0.00     0.039 C 
ATOM     12  C   UNL     1      -1.393  -1.256   0.734  1.00  0.00     0.121 C 
BRANCH  10  13
ATOM     13  C   UNL     1       0.308  -2.552  -0.538  1.00  0.00     0.243 C 
ATOM     14  O   UNL     1      -0.485  -3.485  -0.689  1.00  0.00    -0.273 OA
BRANCH  13  15
ATOM     15  C   UNL     1       1.716  -2.610  -1.173  1.00  0.00     0.230 C 
BRANCH  15  16
ATOM     16  N   UNL     1       1.785  -2.383  -2.612  1.00  0.00    -0.253 N 
ATOM     17  C   UNL     1       1.918  -3.378  -3.542  1.00  0.00     0.250 C 
ATOM     18  C   UNL     1       1.947  -1.174  -3.221  1.00  0.00     0.325 C 
ATOM     19  O   UNL     1       2.001  -4.581  -3.331  1.00  0.00    -0.272 OA
ATOM     20  C   UNL     1       2.077  -2.747  -4.918  1.00  0.00     0.218 C 
ATOM     21  N   UNL     1       2.007  -1.361  -4.581  1.00  0.00    -0.329 N 
ATOM     22  O   UNL     1       2.141  -0.081  -2.716  1.00  0.00    -0.248 OA
ATOM     23  H   UNL     1       2.001  -0.631  -5.241  1.00  0.00     0.165 HD
ENDBRANCH  15  16
ENDBRANCH  13  15
ENDBRANCH  10  13
ENDBRANCH   5   7
ENDBRANCH   4   5
ENDBRANCH   3   4
ENDBRANCH   2   3
ENDBRANCH   1   2
BRANCH   1  24
ATOM     24  C   UNL     1       0.702   2.785  -3.320  1.00  0.00     0.202 C 
BRANCH  24  25
ATOM     25  C   UNL     1       0.615   4.289  -3.022  1.00  0.00     0.261 C 
BRANCH  25  26
ATOM     26  O   UNL     1      -0.716   4.754  -2.745  1.00  0.00    -0.460 OA
BRANCH  26  27
ATOM     27  C   UNL     1      -1.206   5.630  -3.662  1.00  0.00     0.338 C 
ATOM     28  O   UNL     1      -0.638   6.057  -4.649  1.00  0.00    -0.246 OA
BRANCH  27  29
ATOM     29  C   UNL     1      -2.638   5.874  -3.411  1.00  0.00     0.060 A 
ATOM     30  C   UNL     1      -3.546   5.528  -4.421  1.00  0.00     0.016 A 
ATOM     31  C   UNL     1      -3.069   6.532  -2.259  1.00  0.00     0.016 A 
ATOM     32  C   UNL     1      -4.889   5.875  -4.298  1.00  0.00     0.010 A 
ATOM     33  C   UNL     1      -4.416   6.888  -2.144  1.00  0.00     0.010 A 
ATOM     34  C   UNL     1      -5.324   6.593  -3.178  1.00  0.00    -0.014 A 
BRANCH  34  35
ATOM     35  C   UNL     1      -6.697   7.150  -3.155  1.00  0.00     0.031 A 
ATOM     36  C   UNL     1      -6.899   8.611  -3.448  1.00  0.00     0.074 A 
ATOM     37  C   UNL     1      -7.750   6.360  -2.883  1.00  0.00     0.049 A 
ATOM     38  N   UNL     1      -8.005   9.309  -3.451  1.00  0.00    -0.248 NA
ATOM     39  C   UNL     1      -5.695   9.391  -3.780  1.00  0.00     0.031 C 
ATOM     40  C   UNL     1      -7.678   4.928  -2.593  1.00  0.00     0.029 A 
ATOM     41  N   UNL     1      -9.086   6.658  -2.782  1.00  0.00    -0.354 N 
ATOM     42  C   UNL     1      -7.629  10.613  -3.751  1.00  0.00     0.074 A 
ATOM     43  C   UNL     1      -6.192  10.612  -3.914  1.00  0.00     0.031 C 
ATOM     44  C   UNL     1      -8.914   4.478  -2.318  1.00  0.00     0.029 A 
ATOM     45  C   UNL     1      -9.857   5.592  -2.385  1.00  0.00     0.049 A 
ATOM     46  H   UNL     1      -9.456   7.550  -2.976  1.00  0.00     0.167 HD
ATOM     47  C   UNL     1      -8.412  11.709  -3.891  1.00  0.00     0.034 A 
ATOM     48  C   UNL     1     -11.169   5.531  -2.084  1.00  0.00     0.034 A 
ATOM     49  C   UNL     1      -9.843  11.701  -3.745  1.00  0.00     0.049 A 
ATOM     50  C   UNL     1     -12.013   6.771  -2.221  1.00  0.00     0.074 A 
ATOM     51  C   UNL     1     -10.730  12.748  -3.915  1.00  0.00     0.029 A 
ATOM     52  N   UNL     1     -10.595  10.595  -3.380  1.00  0.00    -0.354 N 
ATOM     53  N   UNL     1     -11.662   7.971  -2.616  1.00  0.00    -0.248 NA
ATOM     54  C   UNL     1     -13.443   6.641  -1.903  1.00  0.00     0.031 C 
ATOM     55  C   UNL     1     -12.016  12.284  -3.617  1.00  0.00     0.029 A 
ATOM     56  C   UNL     1     -11.934  10.937  -3.302  1.00  0.00     0.049 A 
ATOM     57  H   UNL     1     -10.230   9.698  -3.201  1.00  0.00     0.167 HD
ATOM     58  C   UNL     1     -12.830   8.726  -2.632  1.00  0.00     0.074 A 
ATOM     59  C   UNL     1     -13.902   7.842  -2.225  1.00  0.00     0.031 C 
ATOM     60  C   UNL     1     -12.998  10.035  -2.945  1.00  0.00     0.034 A 
BRANCH  47  61
ATOM     61  C   UNL     1      -7.738  13.012  -4.236  1.00  0.00     0.023 A 
ATOM     62  C   UNL     1      -7.208  13.208  -5.527  1.00  0.00     0.012 A 
ATOM     63  C   UNL     1      -7.681  14.062  -3.299  1.00  0.00     0.148 A 
ATOM     64  C   UNL     1      -6.604  14.417  -5.870  1.00  0.00     0.002 A 
ATOM     65  C   UNL     1      -7.119  15.280  -3.663  1.00  0.00     0.091 A 
ATOM     66  F   UNL     1      -8.171  13.849  -2.069  1.00  0.00    -0.205 F 
ATOM     67  C   UNL     1      -6.569  15.455  -4.943  1.00  0.00     0.022 A 
BRANCH  65  68
ATOM     68  S   UNL     1      -7.096  16.703  -2.567  1.00  0.00     0.127 S 
ATOM     69  O   UNL     1      -5.671  16.815  -2.258  1.00  0.00    -0.237 OA
ATOM     70  O   UNL     1      -7.618  17.763  -3.431  1.00  0.00    -0.237 OA
ATOM     71  O   UNL     1      -7.953  16.359  -1.441  1.00  0.00    -0.744 OA
ENDBRANCH  65  68
ENDBRANCH  47  61
BRANCH  48  72
ATOM     72  C   UNL     1     -11.773   4.241  -1.645  1.00  0.00     0.023 A 
ATOM     73  C   UNL     1     -12.694   3.581  -2.482  1.00  0.00     0.012 A 
ATOM     74  C   UNL     1     -11.432   3.663  -0.407  1.00  0.00     0.148 A 
ATOM     75  C   UNL     1     -13.289   2.385  -2.079  1.00  0.00     0.002 A 
ATOM     76  C   UNL     1     -11.985   2.442  -0.037  1.00  0.00     0.091 A 
ATOM     77  F   UNL     1     -10.566   4.315   0.382  1.00  0.00    -0.205 F 
ATOM     78  C   UNL     1     -12.927   1.811  -0.863  1.00  0.00     0.022 A 
BRANCH  76  79
ATOM     79  S   UNL     1     -11.482   1.569   1.449  1.00  0.00     0.127 S 
ATOM     80  O   UNL     1     -12.680   1.672   2.277  1.00  0.00    -0.237 OA
ATOM     81  O   UNL     1     -11.203   0.229   0.930  1.00  0.00    -0.237 OA
ATOM     82  O   UNL     1     -10.309   2.276   1.944  1.00  0.00    -0.744 OA
ENDBRANCH  76  79
ENDBRANCH  48  72
BRANCH  60  83
ATOM     83  C   UNL     1     -14.400  10.590  -2.909  1.00  0.00     0.023 A 
ATOM     84  C   UNL     1     -15.047  10.794  -1.674  1.00  0.00     0.012 A 
ATOM     85  C   UNL     1     -15.046  10.977  -4.100  1.00  0.00     0.148 A 
ATOM     86  C   UNL     1     -16.329  11.342  -1.627  1.00  0.00     0.002 A 
ATOM     87  C   UNL     1     -16.302  11.570  -4.042  1.00  0.00     0.091 A 
ATOM     88  F   UNL     1     -14.422  10.760  -5.266  1.00  0.00    -0.205 F 
ATOM     89  C   UNL     1     -16.950  11.740  -2.809  1.00  0.00     0.022 A 
BRANCH  87  90
ATOM     90  S   UNL     1     -17.135  12.206  -5.501  1.00  0.00     0.127 S 
ATOM     91  O   UNL     1     -18.224  11.243  -5.665  1.00  0.00    -0.237 OA
ATOM     92  O   UNL     1     -17.558  13.536  -5.061  1.00  0.00    -0.237 OA
ATOM     93  O   UNL     1     -16.140  12.209  -6.564  1.00  0.00    -0.744 OA
ENDBRANCH  87  90
ENDBRANCH  60  83
ENDBRANCH  34  35
ENDBRANCH  27  29
ENDBRANCH  26  27
ENDBRANCH  25  26
ENDBRANCH  24  25
ENDBRANCH   1  24
TORSDOF 20
