REMARK SMILES O=C(OCCOCCOC(=O)c1ccc(-c2c3nc(c(-c4cccc(S(=O)(=O)[O-])c4F)c4ccc([nH]4)c(-c4cccc(S(=O)(=O)[O-])c4F)c4nc(c(-c5cccc(S(=O)(=O)[O-])c5F)c5ccc2[nH]5)C=C4)C=C3)cc1)c1ccc(OCc2cc(Cl)ccc2[N+](=O)[O-])cc1
REMARK SMILES IDX 5 1 4 2 3 3 2 4 1 5 75 6 76 7 92 8 77 9 91 10 78 11 79 12
REMARK SMILES IDX 80 13 81 14 82 15 87 16 83 17 86 18 84 19 85 20 88 21 89 22
REMARK SMILES IDX 90 23 6 24 7 25 8 26 9 27 10 28 11 29 12 30 13 31 74 32
REMARK SMILES IDX 14 33 73 34 15 35 16 36 17 37 67 38 18 39 72 40 66 41 68 42
REMARK SMILES IDX 19 43 71 44 65 45 64 46 20 48 52 49 32 50 51 51 33 52 36 53
REMARK SMILES IDX 50 54 69 55 34 56 35 57 49 59 70 60 37 61 21 62 22 63 30 64
REMARK SMILES IDX 23 65 25 66 31 67 24 68 26 69 27 70 28 71 29 72 53 73 54 74
REMARK SMILES IDX 62 75 55 76 57 77 63 78 56 79 58 80 59 81 60 82 61 83 38 84
REMARK SMILES IDX 39 85 47 86 40 87 42 88 48 89 41 90 43 91 44 92 45 93 46 94
REMARK H PARENT 68 47 36 58
REMARK Flexibility Score: inf
ROOT
ATOM      1  C   UNL     1       4.413  -1.215  -0.997  1.00  0.00     0.202 C 
ENDROOT
BRANCH   1   2
ATOM      2  C   UNL     1       4.352  -1.012   0.516  1.00  0.00     0.261 C 
BRANCH   2   3
ATOM      3  O   UNL     1       3.009  -0.731   0.948  1.00  0.00    -0.460 OA
BRANCH   3   4
ATOM      4  C   UNL     1       2.497   0.519   0.852  1.00  0.00     0.338 C 
ATOM      5  O   UNL     1       1.302   0.725   0.677  1.00  0.00    -0.246 OA
BRANCH   4   6
ATOM      6  C   UNL     1       3.423   1.657   1.032  1.00  0.00     0.060 A 
ATOM      7  C   UNL     1       3.683   2.521  -0.038  1.00  0.00     0.019 A 
ATOM      8  C   UNL     1       3.913   1.945   2.308  1.00  0.00     0.019 A 
ATOM      9  C   UNL     1       4.382   3.705   0.176  1.00  0.00     0.047 A 
ATOM     10  C   UNL     1       4.601   3.141   2.523  1.00  0.00     0.047 A 
ATOM     11  C   UNL     1       4.758   4.048   1.471  1.00  0.00     0.119 A 
BRANCH  11  12
ATOM     12  O   UNL     1       5.216   5.324   1.657  1.00  0.00    -0.489 OA
BRANCH  12  13
ATOM     13  C   UNL     1       4.396   6.084   2.562  1.00  0.00     0.272 C 
BRANCH  13  14
ATOM     14  C   UNL     1       3.166   6.679   1.896  1.00  0.00     0.068 A 
ATOM     15  C   UNL     1       3.260   7.980   1.359  1.00  0.00     0.035 A 
ATOM     16  C   UNL     1       1.926   6.019   1.755  1.00  0.00     0.276 A 
ATOM     17  C   UNL     1       2.166   8.586   0.730  1.00  0.00     0.041 A 
ATOM     18  C   UNL     1       0.844   6.610   1.078  1.00  0.00     0.087 A 
ATOM     19  Cl  UNL     1       2.295  10.207   0.166  1.00  0.00    -0.084 Cl
ATOM     20  C   UNL     1       0.965   7.901   0.572  1.00  0.00     0.027 A 
BRANCH  16  21
ATOM     21  N   UNL     1       1.651   4.731   2.382  1.00  0.00     0.063 N 
ATOM     22  O   UNL     1       1.046   3.894   1.703  1.00  0.00    -0.258 OA
ATOM     23  O   UNL     1       1.965   4.603   3.573  1.00  0.00    -0.258 OA
ENDBRANCH  16  21
ENDBRANCH  13  14
ENDBRANCH  12  13
ENDBRANCH  11  12
ENDBRANCH   4   6
ENDBRANCH   3   4
ENDBRANCH   2   3
ENDBRANCH   1   2
BRANCH   1  24
ATOM     24  O   UNL     1       3.955  -0.064  -1.711  1.00  0.00    -0.374 OA
BRANCH  24  25
ATOM     25  C   UNL     1       2.644  -0.191  -2.285  1.00  0.00     0.202 C 
BRANCH  25  26
ATOM     26  C   UNL     1       2.720   0.002  -3.800  1.00  0.00     0.261 C 
BRANCH  26  27
ATOM     27  O   UNL     1       3.303  -1.174  -4.370  1.00  0.00    -0.460 OA
BRANCH  27  28
ATOM     28  C   UNL     1       4.657  -1.185  -4.398  1.00  0.00     0.338 C 
ATOM     29  O   UNL     1       5.402  -0.220  -4.415  1.00  0.00    -0.246 OA
BRANCH  28  30
ATOM     30  C   UNL     1       5.103  -2.582  -4.187  1.00  0.00     0.060 A 
ATOM     31  C   UNL     1       6.356  -2.794  -3.596  1.00  0.00     0.016 A 
ATOM     32  C   UNL     1       4.275  -3.668  -4.495  1.00  0.00     0.016 A 
ATOM     33  C   UNL     1       6.797  -4.091  -3.342  1.00  0.00     0.010 A 
ATOM     34  C   UNL     1       4.713  -4.963  -4.239  1.00  0.00     0.010 A 
ATOM     35  C   UNL     1       5.989  -5.178  -3.696  1.00  0.00    -0.014 A 
BRANCH  35  36
ATOM     36  C   UNL     1       6.539  -6.548  -3.706  1.00  0.00     0.031 A 
ATOM     37  C   UNL     1       7.058  -7.078  -5.012  1.00  0.00     0.074 A 
ATOM     38  C   UNL     1       6.508  -7.314  -2.602  1.00  0.00     0.049 A 
ATOM     39  N   UNL     1       7.515  -8.266  -5.299  1.00  0.00    -0.248 NA
ATOM     40  C   UNL     1       7.043  -6.144  -6.153  1.00  0.00     0.031 C 
ATOM     41  C   UNL     1       5.995  -6.900  -1.297  1.00  0.00     0.029 A 
ATOM     42  N   UNL     1       6.886  -8.618  -2.420  1.00  0.00    -0.354 N 
ATOM     43  C   UNL     1       7.816  -8.232  -6.655  1.00  0.00     0.074 A 
ATOM     44  C   UNL     1       7.476  -6.914  -7.139  1.00  0.00     0.031 C 
ATOM     45  C   UNL     1       6.057  -7.946  -0.454  1.00  0.00     0.029 A 
ATOM     46  C   UNL     1       6.599  -9.102  -1.165  1.00  0.00     0.049 A 
ATOM     47  H   UNL     1       7.321  -9.157  -3.119  1.00  0.00     0.167 HD
ATOM     48  C   UNL     1       8.346  -9.210  -7.424  1.00  0.00     0.034 A 
ATOM     49  C   UNL     1       6.745 -10.345  -0.664  1.00  0.00     0.034 A 
ATOM     50  C   UNL     1       8.696 -10.509  -6.927  1.00  0.00     0.049 A 
ATOM     51  C   UNL     1       7.348 -11.414  -1.541  1.00  0.00     0.074 A 
ATOM     52  C   UNL     1       9.291 -11.558  -7.602  1.00  0.00     0.029 A 
ATOM     53  N   UNL     1       8.473 -10.939  -5.628  1.00  0.00    -0.354 N 
ATOM     54  N   UNL     1       7.764 -11.326  -2.782  1.00  0.00    -0.248 NA
ATOM     55  C   UNL     1       7.534 -12.742  -0.939  1.00  0.00     0.031 C 
ATOM     56  C   UNL     1       9.416 -12.630  -6.712  1.00  0.00     0.029 A 
ATOM     57  C   UNL     1       8.913 -12.241  -5.480  1.00  0.00     0.049 A 
ATOM     58  H   UNL     1       8.061 -10.397  -4.916  1.00  0.00     0.167 HD
ATOM     59  C   UNL     1       8.294 -12.573  -3.097  1.00  0.00     0.074 A 
ATOM     60  C   UNL     1       8.163 -13.392  -1.909  1.00  0.00     0.031 C 
ATOM     61  C   UNL     1       8.827 -13.010  -4.265  1.00  0.00     0.034 A 
BRANCH  48  62
ATOM     62  C   UNL     1       8.614  -8.889  -8.868  1.00  0.00     0.023 A 
ATOM     63  C   UNL     1       9.696  -8.049  -9.201  1.00  0.00     0.012 A 
ATOM     64  C   UNL     1       7.825  -9.444  -9.894  1.00  0.00     0.148 A 
ATOM     65  C   UNL     1       9.975  -7.745 -10.532  1.00  0.00     0.002 A 
ATOM     66  C   UNL     1       8.133  -9.168 -11.220  1.00  0.00     0.091 A 
ATOM     67  F   UNL     1       6.783 -10.216  -9.553  1.00  0.00    -0.205 F 
ATOM     68  C   UNL     1       9.201  -8.312 -11.541  1.00  0.00     0.022 A 
BRANCH  66  69
ATOM     69  S   UNL     1       7.239  -9.900 -12.595  1.00  0.00     0.127 S 
ATOM     70  O   UNL     1       6.517  -8.744 -13.126  1.00  0.00    -0.237 OA
ATOM     71  O   UNL     1       8.327 -10.383 -13.447  1.00  0.00    -0.237 OA
ATOM     72  O   UNL     1       6.407 -10.947 -12.021  1.00  0.00    -0.744 OA
ENDBRANCH  66  69
ENDBRANCH  48  62
BRANCH  49  73
ATOM     73  C   UNL     1       6.366 -10.633   0.748  1.00  0.00     0.023 A 
ATOM     74  C   UNL     1       7.376 -10.896   1.694  1.00  0.00     0.012 A 
ATOM     75  C   UNL     1       5.021 -10.632   1.164  1.00  0.00     0.148 A 
ATOM     76  C   UNL     1       7.052 -11.184   3.021  1.00  0.00     0.002 A 
ATOM     77  C   UNL     1       4.708 -10.869   2.499  1.00  0.00     0.091 A 
ATOM     78  F   UNL     1       4.071 -10.400   0.247  1.00  0.00    -0.205 F 
ATOM     79  C   UNL     1       5.720 -11.160   3.426  1.00  0.00     0.022 A 
BRANCH  77  80
ATOM     80  S   UNL     1       3.030 -10.732   3.127  1.00  0.00     0.127 S 
ATOM     81  O   UNL     1       2.652 -12.134   3.280  1.00  0.00    -0.237 OA
ATOM     82  O   UNL     1       3.232 -10.008   4.383  1.00  0.00    -0.237 OA
ATOM     83  O   UNL     1       2.300  -9.979   2.116  1.00  0.00    -0.744 OA
ENDBRANCH  77  80
ENDBRANCH  49  73
BRANCH  61  84
ATOM     84  C   UNL     1       9.342 -14.423  -4.313  1.00  0.00     0.023 A 
ATOM     85  C   UNL     1       8.431 -15.495  -4.379  1.00  0.00     0.012 A 
ATOM     86  C   UNL     1      10.725 -14.679  -4.391  1.00  0.00     0.148 A 
ATOM     87  C   UNL     1       8.891 -16.805  -4.496  1.00  0.00     0.002 A 
ATOM     88  C   UNL     1      11.173 -15.984  -4.554  1.00  0.00     0.091 A 
ATOM     89  F   UNL     1      11.574 -13.645  -4.308  1.00  0.00    -0.205 F 
ATOM     90  C   UNL     1      10.259 -17.049  -4.597  1.00  0.00     0.022 A 
BRANCH  88  91
ATOM     91  S   UNL     1      12.911 -16.374  -4.791  1.00  0.00     0.127 S 
ATOM     92  O   UNL     1      13.280 -16.901  -3.478  1.00  0.00    -0.237 OA
ATOM     93  O   UNL     1      12.865 -17.374  -5.859  1.00  0.00    -0.237 OA
ATOM     94  O   UNL     1      13.552 -15.122  -5.169  1.00  0.00    -0.744 OA
ENDBRANCH  88  91
ENDBRANCH  61  84
ENDBRANCH  35  36
ENDBRANCH  28  30
ENDBRANCH  27  28
ENDBRANCH  26  27
ENDBRANCH  25  26
ENDBRANCH  24  25
ENDBRANCH   1  24
TORSDOF 21
