REMARK SMILES CC(=O)c1ccc(N2CCN(c3ccc(C(=O)OCCOCCOC(=O)c4ccc(-c5c6nc(c(-c7cccc(S(=O)(=O)[O-])c7F)c7ccc([nH]7)c(-c7cccc(S(=O)(=O)[O-])c7F)c7nc(c(-c8cccc(S(=O)(=O)[O-])c8F)c8ccc5[nH]8)C=C7)C=C6)cc4)cc3NS(=O)(=O)c3ccc(C)cc3)CC2)cc1
REMARK SMILES IDX 21 1 20 2 19 3 18 4 16 5 17 6 15 7 12 8 13 9 91 10 14 11
REMARK SMILES IDX 90 12 11 13 8 14 9 15 104 16 10 17 103 18 7 19 4 20 5 21
REMARK SMILES IDX 106 22 6 23 105 24 2 25 1 26 3 27 92 28 93 30 94 31 95 32
REMARK SMILES IDX 96 33 97 34 102 35 98 36 101 37 99 38 100 39 22 40 23 41
REMARK SMILES IDX 24 42 25 43 26 44 27 45 28 46 89 47 29 48 88 49 30 50 31 51
REMARK SMILES IDX 32 52 82 53 33 54 87 55 81 56 83 57 34 58 86 59 80 60 79 61
REMARK SMILES IDX 35 63 67 64 47 65 66 66 48 67 51 68 65 69 84 70 49 71 50 72
REMARK SMILES IDX 64 74 85 75 52 76 36 77 37 78 45 79 38 80 40 81 46 82 39 83
REMARK SMILES IDX 41 84 42 85 43 86 44 87 68 88 69 89 77 90 70 91 72 92 78 93
REMARK SMILES IDX 71 94 73 95 74 96 75 97 76 98 53 99 54 100 62 101 55 102
REMARK SMILES IDX 57 103 63 104 56 105 58 106 59 107 60 108 61 109
REMARK H PARENT 92 29 83 62 51 73
REMARK Flexibility Score: inf
ROOT
ATOM      1  O   UNL     1       3.189  15.003   7.448  1.00  0.00    -0.374 OA
ENDROOT
BRANCH   1   2
ATOM      2  C   UNL     1       3.969  15.828   6.578  1.00  0.00     0.202 C 
BRANCH   2   3
ATOM      3  C   UNL     1       5.329  15.205   6.254  1.00  0.00     0.261 C 
BRANCH   3   4
ATOM      4  O   UNL     1       5.143  14.002   5.487  1.00  0.00    -0.460 OA
BRANCH   4   5
ATOM      5  C   UNL     1       5.503  12.841   6.082  1.00  0.00     0.338 C 
ATOM      6  O   UNL     1       6.086  12.715   7.147  1.00  0.00    -0.246 OA
BRANCH   5   7
ATOM      7  C   UNL     1       4.972  11.684   5.311  1.00  0.00     0.062 A 
ATOM      8  C   UNL     1       3.811   9.473   4.018  1.00  0.00     0.061 A 
ATOM      9  C   UNL     1       4.259   9.361   5.335  1.00  0.00     0.029 A 
ATOM     10  C   UNL     1       3.949  10.711   3.350  1.00  0.00     0.073 A 
ATOM     11  C   UNL     1       4.832  10.461   5.980  1.00  0.00     0.018 A 
ATOM     12  C   UNL     1       4.543  11.802   3.984  1.00  0.00     0.044 A 
BRANCH   8  13
ATOM     13  N   UNL     1       3.235   8.413   3.321  1.00  0.00    -0.366 N 
ATOM     14  N   UNL     1       2.281   6.115   1.964  1.00  0.00    -0.368 N 
ATOM     15  C   UNL     1       1.385   6.853   2.872  1.00  0.00     0.138 C 
ATOM     16  C   UNL     1       3.342   6.927   1.330  1.00  0.00     0.138 C 
ATOM     17  C   UNL     1       2.212   7.578   3.959  1.00  0.00     0.138 C 
ATOM     18  C   UNL     1       4.147   7.695   2.400  1.00  0.00     0.138 C 
BRANCH  14  19
ATOM     19  C   UNL     1       1.828   4.998   1.290  1.00  0.00     0.037 A 
ATOM     20  C   UNL     1       0.941   2.602   0.091  1.00  0.00     0.017 A 
ATOM     21  C   UNL     1       0.068   3.683   0.238  1.00  0.00     0.014 A 
ATOM     22  C   UNL     1       2.270   2.732   0.495  1.00  0.00     0.014 A 
ATOM     23  C   UNL     1       0.509   4.864   0.844  1.00  0.00     0.026 A 
ATOM     24  C   UNL     1       2.705   3.926   1.076  1.00  0.00     0.026 A 
BRANCH  20  25
ATOM     25  C   UNL     1       0.413   1.327  -0.466  1.00  0.00     0.159 C 
ATOM     26  C   UNL     1       1.095   0.043  -0.072  1.00  0.00     0.093 C 
ATOM     27  O   UNL     1      -0.588   1.332  -1.178  1.00  0.00    -0.295 OA
ENDBRANCH  20  25
ENDBRANCH  14  19
ENDBRANCH   8  13
BRANCH  10  28
ATOM     28  N   UNL     1       3.255  10.802   2.099  1.00  0.00    -0.277 N 
ATOM     29  H   UNL     1       2.312  10.520   2.063  1.00  0.00     0.180 HD
BRANCH  28  30
ATOM     30  S   UNL     1       3.975  11.365   0.693  1.00  0.00     0.261 S 
ATOM     31  O   UNL     1       5.343  10.883   0.678  1.00  0.00    -0.201 OA
ATOM     32  O   UNL     1       3.053  11.059  -0.376  1.00  0.00    -0.201 OA
BRANCH  30  33
ATOM     33  C   UNL     1       3.957  13.110   0.953  1.00  0.00     0.087 A 
ATOM     34  C   UNL     1       2.839  13.674   1.577  1.00  0.00     0.022 A 
ATOM     35  C   UNL     1       5.139  13.831   0.789  1.00  0.00     0.022 A 
ATOM     36  C   UNL     1       2.956  14.930   2.155  1.00  0.00     0.005 A 
ATOM     37  C   UNL     1       5.235  15.102   1.344  1.00  0.00     0.005 A 
ATOM     38  C   UNL     1       4.165  15.632   2.072  1.00  0.00    -0.051 A 
ATOM     39  C   UNL     1       4.306  16.939   2.775  1.00  0.00     0.044 C 
ENDBRANCH  30  33
ENDBRANCH  28  30
ENDBRANCH  10  28
ENDBRANCH   5   7
ENDBRANCH   4   5
ENDBRANCH   3   4
ENDBRANCH   2   3
ENDBRANCH   1   2
BRANCH   1  40
ATOM     40  C   UNL     1       2.253  14.160   6.768  1.00  0.00     0.202 C 
BRANCH  40  41
ATOM     41  C   UNL     1       0.884  14.824   6.581  1.00  0.00     0.261 C 
BRANCH  41  42
ATOM     42  O   UNL     1       0.911  15.770   5.492  1.00  0.00    -0.460 OA
BRANCH  42  43
ATOM     43  C   UNL     1       0.886  17.082   5.837  1.00  0.00     0.338 C 
ATOM     44  O   UNL     1       0.812  17.539   6.965  1.00  0.00    -0.246 OA
BRANCH  43  45
ATOM     45  C   UNL     1       1.093  17.923   4.632  1.00  0.00     0.060 A 
ATOM     46  C   UNL     1       1.812  19.118   4.773  1.00  0.00     0.016 A 
ATOM     47  C   UNL     1       0.596  17.558   3.377  1.00  0.00     0.016 A 
ATOM     48  C   UNL     1       2.034  19.947   3.667  1.00  0.00     0.010 A 
ATOM     49  C   UNL     1       0.835  18.378   2.268  1.00  0.00     0.010 A 
ATOM     50  C   UNL     1       1.540  19.588   2.406  1.00  0.00    -0.014 A 
BRANCH  50  51
ATOM     51  C   UNL     1       1.646  20.518   1.250  1.00  0.00     0.031 A 
ATOM     52  C   UNL     1       0.428  21.301   0.846  1.00  0.00     0.074 A 
ATOM     53  C   UNL     1       2.779  20.636   0.530  1.00  0.00     0.049 A 
ATOM     54  N   UNL     1       0.296  22.181  -0.111  1.00  0.00    -0.248 NA
ATOM     55  C   UNL     1      -0.798  21.073   1.630  1.00  0.00     0.031 C 
ATOM     56  C   UNL     1       4.038  19.953   0.805  1.00  0.00     0.029 A 
ATOM     57  N   UNL     1       3.044  21.350  -0.614  1.00  0.00    -0.354 N 
ATOM     58  C   UNL     1      -1.018  22.619  -0.039  1.00  0.00     0.074 A 
ATOM     59  C   UNL     1      -1.660  21.873   1.021  1.00  0.00     0.031 C 
ATOM     60  C   UNL     1       4.909  20.196  -0.187  1.00  0.00     0.029 A 
ATOM     61  C   UNL     1       4.289  21.102  -1.146  1.00  0.00     0.049 A 
ATOM     62  H   UNL     1       2.403  21.981  -1.015  1.00  0.00     0.167 HD
ATOM     63  C   UNL     1      -1.626  23.590  -0.758  1.00  0.00     0.034 A 
ATOM     64  C   UNL     1       4.877  21.566  -2.266  1.00  0.00     0.034 A 
ATOM     65  C   UNL     1      -0.988  24.343  -1.801  1.00  0.00     0.049 A 
ATOM     66  C   UNL     1       4.167  22.613  -3.079  1.00  0.00     0.074 A 
ATOM     67  C   UNL     1      -1.498  25.398  -2.536  1.00  0.00     0.029 A 
ATOM     68  N   UNL     1       0.293  24.107  -2.273  1.00  0.00    -0.354 N 
ATOM     69  N   UNL     1       2.995  23.161  -2.869  1.00  0.00    -0.248 NA
ATOM     70  C   UNL     1       4.886  23.158  -4.240  1.00  0.00     0.031 C 
ATOM     71  C   UNL     1      -0.528  25.790  -3.466  1.00  0.00     0.029 A 
ATOM     72  C   UNL     1       0.588  24.985  -3.301  1.00  0.00     0.049 A 
ATOM     73  H   UNL     1       0.904  23.417  -1.927  1.00  0.00     0.167 HD
ATOM     74  C   UNL     1       2.859  24.152  -3.834  1.00  0.00     0.074 A 
ATOM     75  C   UNL     1       4.071  24.131  -4.628  1.00  0.00     0.031 C 
ATOM     76  C   UNL     1       1.822  24.998  -4.045  1.00  0.00     0.034 A 
BRANCH  63  77
ATOM     77  C   UNL     1      -3.038  23.936  -0.382  1.00  0.00     0.023 A 
ATOM     78  C   UNL     1      -3.271  24.674   0.797  1.00  0.00     0.012 A 
ATOM     79  C   UNL     1      -4.125  23.560  -1.191  1.00  0.00     0.148 A 
ATOM     80  C   UNL     1      -4.567  25.009   1.181  1.00  0.00     0.002 A 
ATOM     81  C   UNL     1      -5.413  23.927  -0.820  1.00  0.00     0.091 A 
ATOM     82  F   UNL     1      -3.883  22.831  -2.290  1.00  0.00    -0.205 F 
ATOM     83  C   UNL     1      -5.637  24.643   0.368  1.00  0.00     0.022 A 
BRANCH  81  84
ATOM     84  S   UNL     1      -6.848  23.551  -1.831  1.00  0.00     0.127 S 
ATOM     85  O   UNL     1      -7.456  22.453  -1.081  1.00  0.00    -0.237 OA
ATOM     86  O   UNL     1      -7.598  24.807  -1.787  1.00  0.00    -0.237 OA
ATOM     87  O   UNL     1      -6.328  23.203  -3.146  1.00  0.00    -0.744 OA
ENDBRANCH  81  84
ENDBRANCH  63  77
BRANCH  64  88
ATOM     88  C   UNL     1       6.257  21.130  -2.623  1.00  0.00     0.023 A 
ATOM     89  C   UNL     1       7.329  22.027  -2.451  1.00  0.00     0.012 A 
ATOM     90  C   UNL     1       6.516  19.835  -3.114  1.00  0.00     0.148 A 
ATOM     91  C   UNL     1       8.629  21.655  -2.792  1.00  0.00     0.002 A 
ATOM     92  C   UNL     1       7.821  19.457  -3.413  1.00  0.00     0.091 A 
ATOM     93  F   UNL     1       5.481  19.000  -3.282  1.00  0.00    -0.205 F 
ATOM     94  C   UNL     1       8.877  20.370  -3.267  1.00  0.00     0.022 A 
BRANCH  92  95
ATOM     95  S   UNL     1       8.249  17.789  -3.927  1.00  0.00     0.127 S 
ATOM     96  O   UNL     1       8.531  17.977  -5.348  1.00  0.00    -0.237 OA
ATOM     97  O   UNL     1       9.422  17.508  -3.098  1.00  0.00    -0.237 OA
ATOM     98  O   UNL     1       7.085  16.974  -3.611  1.00  0.00    -0.744 OA
ENDBRANCH  92  95
ENDBRANCH  64  88
BRANCH  76  99
ATOM     99  C   UNL     1       1.951  26.002  -5.157  1.00  0.00     0.023 A 
ATOM    100  C   UNL     1       1.832  25.577  -6.495  1.00  0.00     0.012 A 
ATOM    101  C   UNL     1       2.100  27.374  -4.876  1.00  0.00     0.148 A 
ATOM    102  C   UNL     1       1.883  26.501  -7.538  1.00  0.00     0.002 A 
ATOM    103  C   UNL     1       2.104  28.294  -5.918  1.00  0.00     0.091 A 
ATOM    104  F   UNL     1       2.236  27.756  -3.598  1.00  0.00    -0.205 F 
ATOM    105  C   UNL     1       2.004  27.859  -7.250  1.00  0.00     0.022 A 
BRANCH 103 106
ATOM    106  S   UNL     1       2.159  30.066  -5.628  1.00  0.00     0.127 S 
ATOM    107  O   UNL     1       3.553  30.377  -5.940  1.00  0.00    -0.237 OA
ATOM    108  O   UNL     1       1.188  30.574  -6.599  1.00  0.00    -0.237 OA
ATOM    109  O   UNL     1       1.768  30.252  -4.237  1.00  0.00    -0.744 OA
ENDBRANCH 103 106
ENDBRANCH  76  99
ENDBRANCH  50  51
ENDBRANCH  43  45
ENDBRANCH  42  43
ENDBRANCH  41  42
ENDBRANCH  40  41
ENDBRANCH   1  40
TORSDOF 23
