REMARK SMILES O=C(OCCOCCOC(=O)c1nn(Cc2ccc(F)cc2)c2c1CN(C(=O)[C@H]1CC1(F)F)CC2)c1ccc(-c2c3nc(c(-c4cccc(S(=O)(=O)[O-])c4F)c4ccc([nH]4)c(-c4cccc(S(=O)(=O)[O-])c4F)c4nc(c(-c5cccc(S(=O)(=O)[O-])c5F)c5ccc2[nH]5)C=C4)C=C3)cc1
REMARK SMILES IDX 5 1 4 2 3 3 2 4 1 5 36 6 37 7 98 8 38 9 97 10 39 11 40 12
REMARK SMILES IDX 41 13 91 14 42 15 96 16 90 17 92 18 43 19 95 20 89 21 88 22
REMARK SMILES IDX 44 24 76 25 56 26 75 27 57 28 60 29 74 30 93 31 58 32 59 33
REMARK SMILES IDX 73 35 94 36 61 37 45 38 46 39 54 40 47 41 49 42 55 43 48 44
REMARK SMILES IDX 50 45 51 46 52 47 53 48 77 49 78 50 86 51 79 52 81 53 87 54
REMARK SMILES IDX 80 55 82 56 83 57 84 58 85 59 62 60 63 61 71 62 64 63 66 64
REMARK SMILES IDX 72 65 65 66 67 67 68 68 69 69 70 70 6 71 7 72 8 73 9 74
REMARK SMILES IDX 10 75 11 76 12 77 13 78 24 79 14 80 23 81 25 82 35 83 26 84
REMARK SMILES IDX 34 85 15 86 16 87 17 88 22 89 18 90 21 91 19 92 20 93 27 94
REMARK SMILES IDX 28 95 29 96 30 97 31 98 32 99 33 100
REMARK H PARENT 92 23 60 34
REMARK Flexibility Score: inf
ROOT
ATOM      1  C   UNL     1      16.036   0.269  -0.789  1.00  0.00     0.202 C 
ENDROOT
BRANCH   1   2
ATOM      2  C   UNL     1      15.085  -0.541  -1.670  1.00  0.00     0.261 C 
BRANCH   2   3
ATOM      3  O   UNL     1      15.673  -1.776  -2.115  1.00  0.00    -0.460 OA
BRANCH   3   4
ATOM      4  C   UNL     1      16.729  -1.874  -2.958  1.00  0.00     0.338 C 
ATOM      5  O   UNL     1      17.598  -2.719  -2.761  1.00  0.00    -0.246 OA
BRANCH   4   6
ATOM      6  C   UNL     1      16.679  -1.164  -4.256  1.00  0.00     0.060 A 
ATOM      7  C   UNL     1      16.075   0.075  -4.469  1.00  0.00     0.016 A 
ATOM      8  C   UNL     1      17.216  -1.866  -5.345  1.00  0.00     0.016 A 
ATOM      9  C   UNL     1      15.743   0.461  -5.752  1.00  0.00     0.010 A 
ATOM     10  C   UNL     1      16.973  -1.434  -6.634  1.00  0.00     0.010 A 
ATOM     11  C   UNL     1      16.145  -0.333  -6.824  1.00  0.00    -0.014 A 
BRANCH  11  12
ATOM     12  C   UNL     1      15.758   0.099  -8.155  1.00  0.00     0.031 A 
ATOM     13  C   UNL     1      16.275   1.441  -8.532  1.00  0.00     0.074 A 
ATOM     14  C   UNL     1      15.076  -0.704  -8.992  1.00  0.00     0.049 A 
ATOM     15  N   UNL     1      15.602   2.498  -8.853  1.00  0.00    -0.248 NA
ATOM     16  C   UNL     1      17.720   1.674  -8.377  1.00  0.00     0.031 C 
ATOM     17  C   UNL     1      14.764  -2.126  -8.815  1.00  0.00     0.029 A 
ATOM     18  N   UNL     1      14.661  -0.453 -10.263  1.00  0.00    -0.354 N 
ATOM     19  C   UNL     1      16.556   3.469  -9.156  1.00  0.00     0.074 A 
ATOM     20  C   UNL     1      17.813   2.970  -8.668  1.00  0.00     0.031 C 
ATOM     21  C   UNL     1      14.486  -2.667 -10.021  1.00  0.00     0.029 A 
ATOM     22  C   UNL     1      14.462  -1.608 -11.013  1.00  0.00     0.049 A 
ATOM     23  H   UNL     1      14.517   0.454 -10.617  1.00  0.00     0.167 HD
ATOM     24  C   UNL     1      16.280   4.499 -10.002  1.00  0.00     0.034 A 
ATOM     25  C   UNL     1      14.404  -1.681 -12.364  1.00  0.00     0.034 A 
ATOM     26  C   UNL     1      14.861   4.695 -10.144  1.00  0.00     0.049 A 
ATOM     27  C   UNL     1      14.098  -0.322 -12.867  1.00  0.00     0.074 A 
ATOM     28  C   UNL     1      13.824   5.002  -9.287  1.00  0.00     0.029 A 
ATOM     29  N   UNL     1      14.277   4.222 -11.293  1.00  0.00    -0.354 N 
ATOM     30  N   UNL     1      12.968   0.292 -12.652  1.00  0.00    -0.248 NA
ATOM     31  C   UNL     1      15.210   0.529 -13.258  1.00  0.00     0.031 C 
ATOM     32  C   UNL     1      12.710   4.262  -9.780  1.00  0.00     0.029 A 
ATOM     33  C   UNL     1      13.120   3.588 -10.934  1.00  0.00     0.049 A 
ATOM     34  H   UNL     1      14.627   4.322 -12.208  1.00  0.00     0.167 HD
ATOM     35  C   UNL     1      13.330   1.615 -12.438  1.00  0.00     0.074 A 
ATOM     36  C   UNL     1      14.698   1.721 -12.940  1.00  0.00     0.031 C 
ATOM     37  C   UNL     1      12.600   2.421 -11.611  1.00  0.00     0.034 A 
BRANCH  24  38
ATOM     38  C   UNL     1      17.260   5.081 -11.001  1.00  0.00     0.023 A 
ATOM     39  C   UNL     1      16.809   6.174 -11.778  1.00  0.00     0.012 A 
ATOM     40  C   UNL     1      18.453   4.451 -11.426  1.00  0.00     0.148 A 
ATOM     41  C   UNL     1      17.456   6.559 -12.957  1.00  0.00     0.002 A 
ATOM     42  C   UNL     1      19.136   4.886 -12.556  1.00  0.00     0.091 A 
ATOM     43  F   UNL     1      18.883   3.340 -10.824  1.00  0.00    -0.205 F 
ATOM     44  C   UNL     1      18.621   5.914 -13.347  1.00  0.00     0.022 A 
BRANCH  42  45
ATOM     45  S   UNL     1      20.676   4.119 -13.076  1.00  0.00     0.127 S 
ATOM     46  O   UNL     1      20.236   3.327 -14.220  1.00  0.00    -0.237 OA
ATOM     47  O   UNL     1      21.495   5.286 -13.405  1.00  0.00    -0.237 OA
ATOM     48  O   UNL     1      21.150   3.369 -11.918  1.00  0.00    -0.744 OA
ENDBRANCH  42  45
ENDBRANCH  24  38
BRANCH  25  49
ATOM     49  C   UNL     1      14.914  -2.748 -13.258  1.00  0.00     0.023 A 
ATOM     50  C   UNL     1      14.461  -2.805 -14.591  1.00  0.00     0.012 A 
ATOM     51  C   UNL     1      16.044  -3.521 -12.904  1.00  0.00     0.148 A 
ATOM     52  C   UNL     1      15.134  -3.573 -15.548  1.00  0.00     0.002 A 
ATOM     53  C   UNL     1      16.704  -4.289 -13.858  1.00  0.00     0.091 A 
ATOM     54  F   UNL     1      16.530  -3.429 -11.660  1.00  0.00    -0.205 F 
ATOM     55  C   UNL     1      16.260  -4.307 -15.185  1.00  0.00     0.022 A 
BRANCH  53  56
ATOM     56  S   UNL     1      18.183  -5.236 -13.468  1.00  0.00     0.127 S 
ATOM     57  O   UNL     1      17.875  -6.537 -14.064  1.00  0.00    -0.237 OA
ATOM     58  O   UNL     1      19.219  -4.475 -14.160  1.00  0.00    -0.237 OA
ATOM     59  O   UNL     1      18.273  -5.252 -12.013  1.00  0.00    -0.744 OA
ENDBRANCH  53  56
ENDBRANCH  25  49
BRANCH  37  60
ATOM     60  C   UNL     1      11.260   1.928 -11.126  1.00  0.00     0.023 A 
ATOM     61  C   UNL     1      11.134   0.797 -10.293  1.00  0.00     0.012 A 
ATOM     62  C   UNL     1      10.139   2.749 -11.331  1.00  0.00     0.148 A 
ATOM     63  C   UNL     1       9.914   0.487  -9.686  1.00  0.00     0.002 A 
ATOM     64  C   UNL     1       8.943   2.469 -10.683  1.00  0.00     0.091 A 
ATOM     65  F   UNL     1      10.276   3.822 -12.125  1.00  0.00    -0.205 F 
ATOM     66  C   UNL     1       8.823   1.333  -9.867  1.00  0.00     0.022 A 
BRANCH  64  67
ATOM     67  S   UNL     1       7.552   3.601 -10.751  1.00  0.00     0.127 S 
ATOM     68  O   UNL     1       6.632   2.902 -11.646  1.00  0.00    -0.237 OA
ATOM     69  O   UNL     1       7.122   3.655  -9.353  1.00  0.00    -0.237 OA
ATOM     70  O   UNL     1       8.085   4.860 -11.257  1.00  0.00    -0.744 OA
ENDBRANCH  64  67
ENDBRANCH  37  60
ENDBRANCH  11  12
ENDBRANCH   4   6
ENDBRANCH   3   4
ENDBRANCH   2   3
ENDBRANCH   1   2
BRANCH   1  71
ATOM     71  O   UNL     1      17.212   0.780  -1.408  1.00  0.00    -0.374 OA
BRANCH  71  72
ATOM     72  C   UNL     1      18.422   0.052  -1.165  1.00  0.00     0.202 C 
BRANCH  72  73
ATOM     73  C   UNL     1      19.108   0.249   0.195  1.00  0.00     0.261 C 
BRANCH  73  74
ATOM     74  O   UNL     1      18.380  -0.359   1.276  1.00  0.00    -0.458 OA
BRANCH  74  75
ATOM     75  C   UNL     1      17.514   0.463   1.951  1.00  0.00     0.359 C 
ATOM     76  O   UNL     1      17.383   1.651   1.744  1.00  0.00    -0.244 OA
BRANCH  75  77
ATOM     77  C   UNL     1      16.625  -0.293   2.851  1.00  0.00     0.175 A 
ATOM     78  N   UNL     1      17.067  -1.286   3.647  1.00  0.00    -0.165 NA
ATOM     79  C   UNL     1      15.224  -0.098   3.021  1.00  0.00     0.028 A 
ATOM     80  N   UNL     1      15.978  -1.698   4.333  1.00  0.00    -0.264 N 
ATOM     81  C   UNL     1      14.852  -1.016   3.982  1.00  0.00     0.046 A 
ATOM     82  C   UNL     1      14.271   0.837   2.349  1.00  0.00     0.159 C 
ATOM     83  C   UNL     1      13.481  -1.145   4.538  1.00  0.00     0.078 C 
ATOM     84  N   UNL     1      13.003   0.846   3.104  1.00  0.00    -0.337 N 
ATOM     85  C   UNL     1      12.495  -0.465   3.564  1.00  0.00     0.126 C 
BRANCH  80  86
ATOM     86  C   UNL     1      16.144  -2.631   5.440  1.00  0.00     0.180 C 
BRANCH  86  87
ATOM     87  C   UNL     1      16.240  -4.072   5.000  1.00  0.00    -0.026 A 
ATOM     88  C   UNL     1      17.377  -4.532   4.312  1.00  0.00     0.008 A 
ATOM     89  C   UNL     1      15.225  -4.988   5.322  1.00  0.00     0.008 A 
ATOM     90  C   UNL     1      17.505  -5.879   3.971  1.00  0.00     0.039 A 
ATOM     91  C   UNL     1      15.357  -6.336   4.982  1.00  0.00     0.039 A 
ATOM     92  C   UNL     1      16.498  -6.770   4.316  1.00  0.00     0.123 A 
ATOM     93  F   UNL     1      16.629  -8.068   4.012  1.00  0.00    -0.207 F 
ENDBRANCH  86  87
ENDBRANCH  80  86
BRANCH  84  94
ATOM     94  C   UNL     1      12.346   2.057   3.266  1.00  0.00     0.232 C 
ATOM     95  O   UNL     1      12.709   3.101   2.744  1.00  0.00    -0.274 OA
BRANCH  94  96
ATOM     96  C   UNL     1      11.138   2.052   4.115  1.00  0.00     0.154 C 
ATOM     97  C   UNL     1      11.288   1.929   5.624  1.00  0.00     0.097 C 
ATOM     98  C   UNL     1      10.836   3.198   5.005  1.00  0.00     0.260 C 
ATOM     99  F   UNL     1      11.635   4.309   5.123  1.00  0.00    -0.206 F 
ATOM    100  F   UNL     1       9.537   3.604   5.221  1.00  0.00    -0.206 F 
ENDBRANCH  94  96
ENDBRANCH  84  94
ENDBRANCH  75  77
ENDBRANCH  74  75
ENDBRANCH  73  74
ENDBRANCH  72  73
ENDBRANCH  71  72
ENDBRANCH   1  71
TORSDOF 21
