REMARK SMILES Cc1ccc(C(=O)N2CCC3(CCC(=O)N(CC(=O)OCCOCCOC(=O)c4ccc(-c5c6nc(c(-c7cccc(S(=O)(=O)[O-])c7F)c7ccc([nH]7)c(-c7cccc(S(=O)(=O)[O-])c7F)c7nc(c(-c8cccc(S(=O)(=O)[O-])c8F)c8ccc5[nH]8)C=C7)C=C6)cc4)C3)CC2)cc1O
REMARK SMILES IDX 23 1 22 2 21 3 20 4 18 5 19 6 17 7 16 8 6 9 7 10 8 11 9 12
REMARK SMILES IDX 94 13 10 14 93 15 11 16 12 17 92 18 13 19 14 20 15 21 5 22
REMARK SMILES IDX 1 23 2 24 3 25 96 26 4 27 95 28 97 29 24 31 25 32 26 33
REMARK SMILES IDX 27 34 28 35 29 36 30 37 91 38 31 39 90 40 32 41 33 42 34 43
REMARK SMILES IDX 84 44 35 45 89 46 83 47 85 48 36 49 88 50 82 51 81 52 37 54
REMARK SMILES IDX 69 55 49 56 68 57 50 58 53 59 67 60 86 61 51 62 52 63 66 65
REMARK SMILES IDX 87 66 54 67 38 68 39 69 47 70 40 71 42 72 48 73 41 74 43 75
REMARK SMILES IDX 44 76 45 77 46 78 70 79 71 80 79 81 72 82 74 83 80 84 73 85
REMARK SMILES IDX 75 86 76 87 77 88 78 89 55 90 56 91 64 92 57 93 59 94 65 95
REMARK SMILES IDX 58 96 60 97 61 98 62 99 63 100
REMARK H PARENT 97 30 85 53 53 64
REMARK Flexibility Score: inf
ROOT
ATOM      1  O   UNL     1      11.550  -3.753   5.409  1.00  0.00    -0.374 OA
ENDROOT
BRANCH   1   2
ATOM      2  C   UNL     1      11.052  -5.021   4.973  1.00  0.00     0.202 C 
BRANCH   2   3
ATOM      3  C   UNL     1       9.530  -5.142   4.828  1.00  0.00     0.261 C 
BRANCH   3   4
ATOM      4  O   UNL     1       8.960  -4.199   3.902  1.00  0.00    -0.462 OA
BRANCH   4   5
ATOM      5  C   UNL     1       8.092  -3.307   4.441  1.00  0.00     0.325 C 
ATOM      6  O   UNL     1       7.754  -3.281   5.623  1.00  0.00    -0.250 OA
BRANCH   5   7
ATOM      7  C   UNL     1       7.638  -2.208   3.485  1.00  0.00     0.242 C 
BRANCH   7   8
ATOM      8  N   UNL     1       7.835  -2.284   2.036  1.00  0.00    -0.331 N 
ATOM      9  C   UNL     1       2.843   1.503   0.278  1.00  0.00     0.253 C 
ATOM     10  O   UNL     1       2.710   2.643   0.723  1.00  0.00    -0.269 OA
ATOM     11  N   UNL     1       4.085   0.890   0.183  1.00  0.00    -0.339 N 
ATOM     12  C   UNL     1       5.094   1.232   1.165  1.00  0.00     0.120 C 
ATOM     13  C   UNL     1       4.541   0.113  -0.965  1.00  0.00     0.120 C 
ATOM     14  C   UNL     1       5.702  -0.058   1.708  1.00  0.00     0.030 C 
ATOM     15  C   UNL     1       5.244  -1.171  -0.527  1.00  0.00     0.030 C 
ATOM     16  C   UNL     1       6.299  -0.955   0.589  1.00  0.00    -0.008 C 
ATOM     17  C   UNL     1       7.577  -0.320  -0.021  1.00  0.00     0.019 C 
ATOM     18  C   UNL     1       6.675  -2.345   1.167  1.00  0.00     0.127 C 
ATOM     19  C   UNL     1       8.749  -0.333   0.945  1.00  0.00     0.101 C 
ATOM     20  C   UNL     1       8.975  -1.721   1.492  1.00  0.00     0.223 C 
ATOM     21  O   UNL     1      10.092  -2.202   1.573  1.00  0.00    -0.275 OA
BRANCH   9  22
ATOM     22  C   UNL     1       1.621   0.693   0.006  1.00  0.00     0.043 A 
ATOM     23  C   UNL     1      -2.054  -1.578  -0.125  1.00  0.00     0.048 C 
ATOM     24  C   UNL     1      -0.790  -0.768  -0.122  1.00  0.00    -0.009 A 
ATOM     25  C   UNL     1       0.432  -1.424   0.065  1.00  0.00     0.008 A 
ATOM     26  C   UNL     1      -0.784   0.627  -0.242  1.00  0.00     0.119 A 
ATOM     27  C   UNL     1       1.621  -0.698   0.150  1.00  0.00     0.014 A 
ATOM     28  C   UNL     1       0.406   1.354  -0.193  1.00  0.00     0.060 A 
BRANCH  26  29
ATOM     29  O   UNL     1      -1.930   1.360  -0.372  1.00  0.00    -0.508 OA
ATOM     30  H   UNL     1      -2.760   0.927  -0.411  1.00  0.00     0.293 HD
ENDBRANCH  26  29
ENDBRANCH   9  22
ENDBRANCH   7   8
ENDBRANCH   5   7
ENDBRANCH   4   5
ENDBRANCH   3   4
ENDBRANCH   2   3
ENDBRANCH   1   2
BRANCH   1  31
ATOM     31  C   UNL     1      11.545  -2.687   4.452  1.00  0.00     0.202 C 
BRANCH  31  32
ATOM     32  C   UNL     1      12.409  -2.907   3.208  1.00  0.00     0.261 C 
BRANCH  32  33
ATOM     33  O   UNL     1      11.864  -3.971   2.416  1.00  0.00    -0.460 OA
BRANCH  33  34
ATOM     34  C   UNL     1      12.697  -4.498   1.507  1.00  0.00     0.338 C 
ATOM     35  O   UNL     1      13.845  -4.149   1.256  1.00  0.00    -0.246 OA
BRANCH  34  36
ATOM     36  C   UNL     1      12.065  -5.695   0.937  1.00  0.00     0.060 A 
ATOM     37  C   UNL     1      12.397  -6.944   1.474  1.00  0.00     0.016 A 
ATOM     38  C   UNL     1      11.247  -5.596  -0.190  1.00  0.00     0.016 A 
ATOM     39  C   UNL     1      11.973  -8.108   0.832  1.00  0.00     0.010 A 
ATOM     40  C   UNL     1      10.822  -6.765  -0.830  1.00  0.00     0.010 A 
ATOM     41  C   UNL     1      11.225  -8.025  -0.352  1.00  0.00    -0.014 A 
BRANCH  41  42
ATOM     42  C   UNL     1      11.002  -9.242  -1.173  1.00  0.00     0.031 A 
ATOM     43  C   UNL     1      11.885  -9.490  -2.368  1.00  0.00     0.074 A 
ATOM     44  C   UNL     1      10.027 -10.118  -0.868  1.00  0.00     0.049 A 
ATOM     45  N   UNL     1      11.851 -10.471  -3.232  1.00  0.00    -0.248 NA
ATOM     46  C   UNL     1      12.946  -8.501  -2.624  1.00  0.00     0.031 C 
ATOM     47  C   UNL     1       9.105  -9.996   0.259  1.00  0.00     0.029 A 
ATOM     48  N   UNL     1       9.635 -11.272  -1.501  1.00  0.00    -0.354 N 
ATOM     49  C   UNL     1      12.866 -10.207  -4.146  1.00  0.00     0.074 A 
ATOM     50  C   UNL     1      13.492  -8.969  -3.737  1.00  0.00     0.031 C 
ATOM     51  C   UNL     1       8.234 -11.019   0.221  1.00  0.00     0.029 A 
ATOM     52  C   UNL     1       8.524 -11.857  -0.942  1.00  0.00     0.049 A 
ATOM     53  H   UNL     1      10.106 -11.646  -2.281  1.00  0.00     0.167 HD
ATOM     54  C   UNL     1      13.255 -10.938  -5.217  1.00  0.00     0.034 A 
ATOM     55  C   UNL     1       7.811 -12.933  -1.333  1.00  0.00     0.034 A 
ATOM     56  C   UNL     1      12.656 -12.184  -5.611  1.00  0.00     0.049 A 
ATOM     57  C   UNL     1       8.255 -13.721  -2.539  1.00  0.00     0.074 A 
ATOM     58  C   UNL     1      13.017 -13.018  -6.655  1.00  0.00     0.029 A 
ATOM     59  N   UNL     1      11.570 -12.772  -4.984  1.00  0.00    -0.354 N 
ATOM     60  N   UNL     1       9.296 -13.528  -3.313  1.00  0.00    -0.248 NA
ATOM     61  C   UNL     1       7.448 -14.895  -2.907  1.00  0.00     0.031 C 
ATOM     62  C   UNL     1      12.138 -14.105  -6.668  1.00  0.00     0.029 A 
ATOM     63  C   UNL     1      11.241 -13.954  -5.624  1.00  0.00     0.049 A 
ATOM     64  H   UNL     1      11.102 -12.404  -4.200  1.00  0.00     0.167 HD
ATOM     65  C   UNL     1       9.291 -14.574  -4.230  1.00  0.00     0.074 A 
ATOM     66  C   UNL     1       8.151 -15.406  -3.910  1.00  0.00     0.031 C 
ATOM     67  C   UNL     1      10.148 -14.815  -5.253  1.00  0.00     0.034 A 
BRANCH  54  68
ATOM     68  C   UNL     1      14.417 -10.431  -6.026  1.00  0.00     0.023 A 
ATOM     69  C   UNL     1      15.725 -10.581  -5.525  1.00  0.00     0.012 A 
ATOM     70  C   UNL     1      14.224  -9.879  -7.307  1.00  0.00     0.148 A 
ATOM     71  C   UNL     1      16.824 -10.172  -6.279  1.00  0.00     0.002 A 
ATOM     72  C   UNL     1      15.327  -9.507  -8.068  1.00  0.00     0.091 A 
ATOM     73  F   UNL     1      12.970  -9.722  -7.754  1.00  0.00    -0.205 F 
ATOM     74  C   UNL     1      16.626  -9.646  -7.553  1.00  0.00     0.022 A 
BRANCH  72  75
ATOM     75  S   UNL     1      15.172  -8.888  -9.747  1.00  0.00     0.127 S 
ATOM     76  O   UNL     1      15.431  -7.461  -9.561  1.00  0.00    -0.237 OA
ATOM     77  O   UNL     1      16.234  -9.613 -10.446  1.00  0.00    -0.237 OA
ATOM     78  O   UNL     1      13.824  -9.232 -10.176  1.00  0.00    -0.744 OA
ENDBRANCH  72  75
ENDBRANCH  54  68
BRANCH  55  79
ATOM     79  C   UNL     1       6.617 -13.355  -0.547  1.00  0.00     0.023 A 
ATOM     80  C   UNL     1       6.666 -14.546   0.203  1.00  0.00     0.012 A 
ATOM     81  C   UNL     1       5.446 -12.574  -0.520  1.00  0.00     0.148 A 
ATOM     82  C   UNL     1       5.561 -14.963   0.946  1.00  0.00     0.002 A 
ATOM     83  C   UNL     1       4.368 -12.967   0.265  1.00  0.00     0.091 A 
ATOM     84  F   UNL     1       5.408 -11.457  -1.261  1.00  0.00    -0.205 F 
ATOM     85  C   UNL     1       4.417 -14.169   0.988  1.00  0.00     0.022 A 
BRANCH  83  86
ATOM     86  S   UNL     1       2.914 -11.932   0.473  1.00  0.00     0.127 S 
ATOM     87  O   UNL     1       1.943 -12.601  -0.387  1.00  0.00    -0.237 OA
ATOM     88  O   UNL     1       2.653 -12.053   1.909  1.00  0.00    -0.237 OA
ATOM     89  O   UNL     1       3.325 -10.598   0.056  1.00  0.00    -0.744 OA
ENDBRANCH  83  86
ENDBRANCH  55  79
BRANCH  67  90
ATOM     90  C   UNL     1       9.927 -16.047  -6.091  1.00  0.00     0.023 A 
ATOM     91  C   UNL     1       8.894 -16.063  -7.048  1.00  0.00     0.012 A 
ATOM     92  C   UNL     1      10.812 -17.140  -6.008  1.00  0.00     0.148 A 
ATOM     93  C   UNL     1       8.734 -17.156  -7.899  1.00  0.00     0.002 A 
ATOM     94  C   UNL     1      10.672 -18.209  -6.887  1.00  0.00     0.091 A 
ATOM     95  F   UNL     1      11.778 -17.113  -5.079  1.00  0.00    -0.205 F 
ATOM     96  C   UNL     1       9.630 -18.221  -7.828  1.00  0.00     0.022 A 
BRANCH  94  97
ATOM     97  S   UNL     1      11.833 -19.580  -6.929  1.00  0.00     0.127 S 
ATOM     98  O   UNL     1      11.048 -20.653  -6.322  1.00  0.00    -0.237 OA
ATOM     99  O   UNL     1      12.076 -19.739  -8.363  1.00  0.00    -0.237 OA
ATOM    100  O   UNL     1      12.995 -19.145  -6.165  1.00  0.00    -0.744 OA
ENDBRANCH  94  97
ENDBRANCH  67  90
ENDBRANCH  41  42
ENDBRANCH  34  36
ENDBRANCH  33  34
ENDBRANCH  32  33
ENDBRANCH  31  32
ENDBRANCH   1  31
TORSDOF 20
