REMARK SMILES CSc1nc(C2CC2)nc(C)c1C(=O)OCCOCCOC(=O)c1ccc(-c2c3nc(c(-c4cccc(S(=O)(=O)[O-])c4F)c4ccc([nH]4)c(-c4cccc(S(=O)(=O)[O-])c4F)c4nc(c(-c5cccc(S(=O)(=O)[O-])c5F)c5ccc2[nH]5)C=C4)C=C3)cc1
REMARK SMILES IDX 19 1 18 2 17 3 16 4 15 5 13 6 14 7 12 8 3 9 4 10 5 11 10 12
REMARK SMILES IDX 9 13 11 14 2 15 1 16 6 17 7 18 8 19 20 20 21 21 22 22 23 23
REMARK SMILES IDX 24 24 25 25 86 26 26 27 85 28 27 29 28 30 29 31 79 32 30 33
REMARK SMILES IDX 84 34 78 35 80 36 31 37 83 38 77 39 76 40 32 42 64 43 44 44
REMARK SMILES IDX 63 45 45 46 48 47 62 48 81 49 46 50 47 51 61 53 82 54 49 55
REMARK SMILES IDX 33 56 34 57 42 58 35 59 37 60 43 61 36 62 38 63 39 64 40 65
REMARK SMILES IDX 41 66 65 67 66 68 74 69 67 70 69 71 75 72 68 73 70 74 71 75
REMARK SMILES IDX 72 76 73 77 50 78 51 79 59 80 52 81 54 82 60 83 53 84 55 85
REMARK SMILES IDX 56 86 57 87 58 88
REMARK H PARENT 80 41 48 52
REMARK Flexibility Score: inf
ROOT
ATOM      1  C   UNL     1       3.374   2.658   2.377  1.00  0.00     0.202 C 
ENDROOT
BRANCH   1   2
ATOM      2  O   UNL     1       3.031   4.030   2.565  1.00  0.00    -0.374 OA
BRANCH   2   3
ATOM      3  C   UNL     1       2.792   4.474   3.905  1.00  0.00     0.202 C 
BRANCH   3   4
ATOM      4  C   UNL     1       1.476   3.998   4.523  1.00  0.00     0.261 C 
BRANCH   4   5
ATOM      5  O   UNL     1       1.554   2.580   4.737  1.00  0.00    -0.460 OA
BRANCH   5   6
ATOM      6  C   UNL     1       0.420   1.881   4.521  1.00  0.00     0.342 C 
ATOM      7  O   UNL     1      -0.699   2.337   4.366  1.00  0.00    -0.246 OA
BRANCH   6   8
ATOM      8  C   UNL     1       0.765   0.458   4.387  1.00  0.00     0.113 A 
ATOM      9  C   UNL     1       0.424  -0.265   3.254  1.00  0.00     0.114 A 
ATOM     10  N   UNL     1       0.623  -1.600   3.148  1.00  0.00    -0.225 NA
ATOM     11  C   UNL     1       1.177  -2.238   4.193  1.00  0.00     0.133 A 
ATOM     12  C   UNL     1       1.443  -0.245   5.367  1.00  0.00     0.057 A 
ATOM     13  N   UNL     1       1.639  -1.583   5.272  1.00  0.00    -0.237 NA
ATOM     14  C   UNL     1       1.980   0.380   6.621  1.00  0.00     0.068 C 
BRANCH   9  15
ATOM     15  S   UNL     1      -0.275   0.490   1.785  1.00  0.00    -0.109 SA
ATOM     16  C   UNL     1       0.816  -0.224   0.527  1.00  0.00     0.092 C 
ENDBRANCH   9  15
BRANCH  11  17
ATOM     17  C   UNL     1       1.231  -3.748   4.226  1.00  0.00     0.058 C 
ATOM     18  C   UNL     1      -0.050  -4.526   4.002  1.00  0.00     0.012 C 
ATOM     19  C   UNL     1       1.061  -4.606   2.996  1.00  0.00     0.012 C 
ENDBRANCH  11  17
ENDBRANCH   6   8
ENDBRANCH   5   6
ENDBRANCH   4   5
ENDBRANCH   3   4
ENDBRANCH   2   3
ENDBRANCH   1   2
BRANCH   1  20
ATOM     20  C   UNL     1       4.834   2.271   2.644  1.00  0.00     0.261 C 
BRANCH  20  21
ATOM     21  O   UNL     1       5.250   2.536   3.993  1.00  0.00    -0.460 OA
BRANCH  21  22
ATOM     22  C   UNL     1       6.063   3.615   4.120  1.00  0.00     0.338 C 
ATOM     23  O   UNL     1       6.487   4.323   3.222  1.00  0.00    -0.246 OA
BRANCH  22  24
ATOM     24  C   UNL     1       6.271   3.942   5.543  1.00  0.00     0.060 A 
ATOM     25  C   UNL     1       6.060   5.271   5.931  1.00  0.00     0.016 A 
ATOM     26  C   UNL     1       6.758   3.005   6.457  1.00  0.00     0.016 A 
ATOM     27  C   UNL     1       6.397   5.683   7.218  1.00  0.00     0.010 A 
ATOM     28  C   UNL     1       7.099   3.422   7.749  1.00  0.00     0.010 A 
ATOM     29  C   UNL     1       6.962   4.772   8.120  1.00  0.00    -0.014 A 
BRANCH  29  30
ATOM     30  C   UNL     1       7.538   5.276   9.392  1.00  0.00     0.031 A 
ATOM     31  C   UNL     1       9.027   5.472   9.496  1.00  0.00     0.074 A 
ATOM     32  C   UNL     1       6.743   5.584  10.432  1.00  0.00     0.049 A 
ATOM     33  N   UNL     1       9.733   5.931  10.496  1.00  0.00    -0.248 NA
ATOM     34  C   UNL     1       9.827   5.101   8.316  1.00  0.00     0.031 C 
ATOM     35  C   UNL     1       5.289   5.433  10.457  1.00  0.00     0.029 A 
ATOM     36  N   UNL     1       7.053   6.074  11.676  1.00  0.00    -0.354 N 
ATOM     37  C   UNL     1      11.058   5.883  10.079  1.00  0.00     0.074 A 
ATOM     38  C   UNL     1      11.061   5.334   8.741  1.00  0.00     0.031 C 
ATOM     39  C   UNL     1       4.834   5.804  11.666  1.00  0.00     0.029 A 
ATOM     40  C   UNL     1       5.963   6.205  12.503  1.00  0.00     0.049 A 
ATOM     41  H   UNL     1       7.969   6.309  11.949  1.00  0.00     0.167 HD
ATOM     42  C   UNL     1      12.172   6.280  10.740  1.00  0.00     0.034 A 
ATOM     43  C   UNL     1       5.888   6.595  13.791  1.00  0.00     0.034 A 
ATOM     44  C   UNL     1      12.168   6.850  12.061  1.00  0.00     0.049 A 
ATOM     45  C   UNL     1       7.141   7.032  14.504  1.00  0.00     0.074 A 
ATOM     46  C   UNL     1      13.240   7.323  12.797  1.00  0.00     0.029 A 
ATOM     47  N   UNL     1      11.039   7.016  12.847  1.00  0.00    -0.354 N 
ATOM     48  N   UNL     1       8.370   7.100  14.049  1.00  0.00    -0.248 NA
ATOM     49  C   UNL     1       6.991   7.486  15.894  1.00  0.00     0.031 C 
ATOM     50  C   UNL     1      12.761   7.760  14.037  1.00  0.00     0.029 A 
ATOM     51  C   UNL     1      11.387   7.580  14.063  1.00  0.00     0.049 A 
ATOM     52  H   UNL     1      10.124   6.770  12.581  1.00  0.00     0.167 HD
ATOM     53  C   UNL     1       9.130   7.641  15.081  1.00  0.00     0.074 A 
ATOM     54  C   UNL     1       8.219   7.901  16.177  1.00  0.00     0.031 C 
ATOM     55  C   UNL     1      10.462   7.889  15.123  1.00  0.00     0.034 A 
BRANCH  42  56
ATOM     56  C   UNL     1      13.492   6.144  10.027  1.00  0.00     0.023 A 
ATOM     57  C   UNL     1      13.808   7.027   8.974  1.00  0.00     0.012 A 
ATOM     58  C   UNL     1      14.438   5.183  10.431  1.00  0.00     0.148 A 
ATOM     59  C   UNL     1      15.032   6.935   8.314  1.00  0.00     0.002 A 
ATOM     60  C   UNL     1      15.674   5.125   9.795  1.00  0.00     0.091 A 
ATOM     61  F   UNL     1      14.110   4.336  11.417  1.00  0.00    -0.205 F 
ATOM     62  C   UNL     1      15.968   5.993   8.731  1.00  0.00     0.022 A 
BRANCH  60  63
ATOM     63  S   UNL     1      16.973   3.995  10.309  1.00  0.00     0.127 S 
ATOM     64  O   UNL     1      16.964   3.021   9.219  1.00  0.00    -0.237 OA
ATOM     65  O   UNL     1      18.147   4.867  10.338  1.00  0.00    -0.237 OA
ATOM     66  O   UNL     1      16.566   3.483  11.610  1.00  0.00    -0.744 OA
ENDBRANCH  60  63
ENDBRANCH  42  56
BRANCH  43  67
ATOM     67  C   UNL     1       4.565   6.642  14.476  1.00  0.00     0.023 A 
ATOM     68  C   UNL     1       3.999   7.887  14.812  1.00  0.00     0.012 A 
ATOM     69  C   UNL     1       3.860   5.462  14.781  1.00  0.00     0.148 A 
ATOM     70  C   UNL     1       2.769   7.955  15.467  1.00  0.00     0.002 A 
ATOM     71  C   UNL     1       2.610   5.538  15.383  1.00  0.00     0.091 A 
ATOM     72  F   UNL     1       4.425   4.286  14.470  1.00  0.00    -0.205 F 
ATOM     73  C   UNL     1       2.070   6.782  15.743  1.00  0.00     0.022 A 
BRANCH  71  74
ATOM     74  S   UNL     1       1.585   4.088  15.654  1.00  0.00     0.127 S 
ATOM     75  O   UNL     1       1.666   3.931  17.103  1.00  0.00    -0.237 OA
ATOM     76  O   UNL     1       0.286   4.538  15.153  1.00  0.00    -0.237 OA
ATOM     77  O   UNL     1       2.195   3.026  14.864  1.00  0.00    -0.744 OA
ENDBRANCH  71  74
ENDBRANCH  43  67
BRANCH  55  78
ATOM     78  C   UNL     1      11.020   8.512  16.378  1.00  0.00     0.023 A 
ATOM     79  C   UNL     1      11.127   7.745  17.555  1.00  0.00     0.012 A 
ATOM     80  C   UNL     1      11.498   9.838  16.372  1.00  0.00     0.148 A 
ATOM     81  C   UNL     1      11.667   8.299  18.715  1.00  0.00     0.002 A 
ATOM     82  C   UNL     1      12.078  10.367  17.518  1.00  0.00     0.091 A 
ATOM     83  F   UNL     1      11.369  10.560  15.249  1.00  0.00    -0.205 F 
ATOM     84  C   UNL     1      12.152   9.604  18.694  1.00  0.00     0.022 A 
BRANCH  82  85
ATOM     85  S   UNL     1      12.814  12.006  17.546  1.00  0.00     0.127 S 
ATOM     86  O   UNL     1      11.784  12.785  18.230  1.00  0.00    -0.237 OA
ATOM     87  O   UNL     1      14.033  11.790  18.327  1.00  0.00    -0.237 OA
ATOM     88  O   UNL     1      13.050  12.358  16.152  1.00  0.00    -0.744 OA
ENDBRANCH  82  85
ENDBRANCH  55  78
ENDBRANCH  29  30
ENDBRANCH  22  24
ENDBRANCH  21  22
ENDBRANCH  20  21
ENDBRANCH   1  20
TORSDOF 19
