REMARK SMILES CC1(C(=O)N2CC(CC(=O)OCCOCCOC(=O)c3ccc(-c4c5nc(c(-c6cccc(S(=O)(=O)[O-])c6F)c6ccc([nH]6)c(-c6cccc(S(=O)(=O)[O-])c6F)c6nc(c(-c7cccc(S(=O)(=O)[O-])c7F)c7ccc4[nH]7)C=C6)C=C5)cc3)C2)CCCC1
REMARK SMILES IDX 15 1 14 2 13 3 12 4 11 5 9 6 10 7 8 8 7 9 3 10 4 11 5 12
REMARK SMILES IDX 6 13 83 14 2 15 1 16 84 17 87 18 85 19 86 20 16 21 17 22
REMARK SMILES IDX 18 23 19 24 20 25 21 26 82 27 22 28 81 29 23 30 24 31 25 32
REMARK SMILES IDX 75 33 26 34 80 35 74 36 76 37 27 38 79 39 73 40 72 41 28 43
REMARK SMILES IDX 60 44 40 45 59 46 41 47 44 48 58 49 77 50 42 51 43 52 57 54
REMARK SMILES IDX 78 55 45 56 29 57 30 58 38 59 31 60 33 61 39 62 32 63 34 64
REMARK SMILES IDX 35 65 36 66 37 67 61 68 62 69 70 70 63 71 65 72 71 73 64 74
REMARK SMILES IDX 66 75 67 76 68 77 69 78 46 79 47 80 55 81 48 82 50 83 56 84
REMARK SMILES IDX 49 85 51 86 52 87 53 88 54 89
REMARK H PARENT 76 42 44 53
REMARK Flexibility Score: inf
ROOT
ATOM      1  C   UNL     1       8.179  -1.340   2.216  1.00  0.00     0.202 C 
ENDROOT
BRANCH   1   2
ATOM      2  O   UNL     1       9.209  -1.902   1.407  1.00  0.00    -0.374 OA
BRANCH   2   3
ATOM      3  C   UNL     1       8.872  -2.249   0.063  1.00  0.00     0.202 C 
BRANCH   3   4
ATOM      4  C   UNL     1       8.005  -3.497  -0.130  1.00  0.00     0.261 C 
BRANCH   4   5
ATOM      5  O   UNL     1       6.683  -3.324   0.416  1.00  0.00    -0.463 OA
BRANCH   5   6
ATOM      6  C   UNL     1       6.312  -4.236   1.351  1.00  0.00     0.306 C 
ATOM      7  O   UNL     1       6.983  -5.198   1.706  1.00  0.00    -0.252 OA
BRANCH   6   8
ATOM      8  C   UNL     1       4.949  -3.964   1.927  1.00  0.00     0.130 C 
BRANCH   8   9
ATOM      9  C   UNL     1       4.477  -2.515   1.950  1.00  0.00     0.039 C 
ATOM     10  C   UNL     1       1.939  -0.426   1.595  1.00  0.00     0.228 C 
ATOM     11  O   UNL     1       1.908   0.277   2.606  1.00  0.00    -0.274 OA
ATOM     12  N   UNL     1       2.658  -1.598   1.565  1.00  0.00    -0.342 N 
ATOM     13  C   UNL     1       3.166  -2.324   2.715  1.00  0.00     0.125 C 
ATOM     14  C   UNL     1       3.775  -1.960   0.698  1.00  0.00     0.125 C 
BRANCH  10  15
ATOM     15  C   UNL     1       1.041  -0.163   0.373  1.00  0.00     0.047 C 
ATOM     16  C   UNL     1       1.834   0.012  -0.926  1.00  0.00     0.022 C 
ATOM     17  C   UNL     1       0.124   1.053   0.610  1.00  0.00     0.016 C 
ATOM     18  C   UNL     1       0.008  -1.301   0.265  1.00  0.00     0.016 C 
ATOM     19  C   UNL     1      -1.110   0.807  -0.253  1.00  0.00     0.001 C 
ATOM     20  C   UNL     1      -1.211  -0.704  -0.428  1.00  0.00     0.001 C 
ENDBRANCH  10  15
ENDBRANCH   8   9
ENDBRANCH   6   8
ENDBRANCH   5   6
ENDBRANCH   4   5
ENDBRANCH   3   4
ENDBRANCH   2   3
ENDBRANCH   1   2
BRANCH   1  21
ATOM     21  C   UNL     1       7.786   0.117   1.934  1.00  0.00     0.261 C 
BRANCH  21  22
ATOM     22  O   UNL     1       7.226   0.305   0.620  1.00  0.00    -0.460 OA
BRANCH  22  23
ATOM     23  C   UNL     1       7.986   1.052  -0.217  1.00  0.00     0.338 C 
ATOM     24  O   UNL     1       9.040   1.617   0.048  1.00  0.00    -0.246 OA
BRANCH  23  25
ATOM     25  C   UNL     1       7.475   0.954  -1.597  1.00  0.00     0.060 A 
ATOM     26  C   UNL     1       8.370   0.529  -2.590  1.00  0.00     0.016 A 
ATOM     27  C   UNL     1       6.174   1.337  -1.931  1.00  0.00     0.016 A 
ATOM     28  C   UNL     1       7.978   0.522  -3.927  1.00  0.00     0.010 A 
ATOM     29  C   UNL     1       5.789   1.337  -3.277  1.00  0.00     0.010 A 
ATOM     30  C   UNL     1       6.697   0.960  -4.284  1.00  0.00    -0.014 A 
BRANCH  30  31
ATOM     31  C   UNL     1       6.348   1.131  -5.716  1.00  0.00     0.031 A 
ATOM     32  C   UNL     1       6.381   2.508  -6.322  1.00  0.00     0.074 A 
ATOM     33  C   UNL     1       6.004   0.071  -6.469  1.00  0.00     0.049 A 
ATOM     34  N   UNL     1       6.080   2.883  -7.537  1.00  0.00    -0.248 NA
ATOM     35  C   UNL     1       6.809   3.607  -5.441  1.00  0.00     0.031 C 
ATOM     36  C   UNL     1       5.944  -1.312  -6.001  1.00  0.00     0.029 A 
ATOM     37  N   UNL     1       5.614   0.000  -7.784  1.00  0.00    -0.354 N 
ATOM     38  C   UNL     1       6.254   4.261  -7.563  1.00  0.00     0.074 A 
ATOM     39  C   UNL     1       6.678   4.658  -6.238  1.00  0.00     0.031 C 
ATOM     40  C   UNL     1       5.510  -2.093  -7.006  1.00  0.00     0.029 A 
ATOM     41  C   UNL     1       5.239  -1.262  -8.178  1.00  0.00     0.049 A 
ATOM     42  H   UNL     1       5.605   0.779  -8.386  1.00  0.00     0.167 HD
ATOM     43  C   UNL     1       6.091   5.118  -8.599  1.00  0.00     0.034 A 
ATOM     44  C   UNL     1       4.713  -1.694  -9.342  1.00  0.00     0.034 A 
ATOM     45  C   UNL     1       5.690   4.721  -9.922  1.00  0.00     0.049 A 
ATOM     46  C   UNL     1       4.509  -0.715 -10.469  1.00  0.00     0.074 A 
ATOM     47  C   UNL     1       5.548   5.511 -11.050  1.00  0.00     0.029 A 
ATOM     48  N   UNL     1       5.353   3.430 -10.293  1.00  0.00    -0.354 N 
ATOM     49  N   UNL     1       4.796   0.564 -10.514  1.00  0.00    -0.248 NA
ATOM     50  C   UNL     1       3.936  -1.243 -11.716  1.00  0.00     0.031 C 
ATOM     51  C   UNL     1       5.100   4.699 -12.097  1.00  0.00     0.029 A 
ATOM     52  C   UNL     1       4.987   3.401 -11.628  1.00  0.00     0.049 A 
ATOM     53  H   UNL     1       5.372   2.647  -9.696  1.00  0.00     0.167 HD
ATOM     54  C   UNL     1       4.472   0.984 -11.800  1.00  0.00     0.074 A 
ATOM     55  C   UNL     1       3.985  -0.181 -12.509  1.00  0.00     0.031 C 
ATOM     56  C   UNL     1       4.556   2.225 -12.340  1.00  0.00     0.034 A 
BRANCH  43  57
ATOM     57  C   UNL     1       6.374   6.576  -8.352  1.00  0.00     0.023 A 
ATOM     58  C   UNL     1       7.708   7.014  -8.225  1.00  0.00     0.012 A 
ATOM     59  C   UNL     1       5.329   7.519  -8.308  1.00  0.00     0.148 A 
ATOM     60  C   UNL     1       7.995   8.364  -8.030  1.00  0.00     0.002 A 
ATOM     61  C   UNL     1       5.625   8.868  -8.155  1.00  0.00     0.091 A 
ATOM     62  F   UNL     1       4.066   7.078  -8.408  1.00  0.00    -0.205 F 
ATOM     63  C   UNL     1       6.956   9.291  -8.006  1.00  0.00     0.022 A 
BRANCH  61  64
ATOM     64  S   UNL     1       4.362  10.145  -8.185  1.00  0.00     0.127 S 
ATOM     65  O   UNL     1       4.322  10.552  -6.781  1.00  0.00    -0.237 OA
ATOM     66  O   UNL     1       4.946  11.135  -9.090  1.00  0.00    -0.237 OA
ATOM     67  O   UNL     1       3.155   9.503  -8.686  1.00  0.00    -0.744 OA
ENDBRANCH  61  64
ENDBRANCH  43  57
BRANCH  44  68
ATOM     68  C   UNL     1       4.365  -3.133  -9.511  1.00  0.00     0.023 A 
ATOM     69  C   UNL     1       5.116  -3.931 -10.396  1.00  0.00     0.012 A 
ATOM     70  C   UNL     1       3.309  -3.718  -8.787  1.00  0.00     0.148 A 
ATOM     71  C   UNL     1       4.804  -5.279 -10.576  1.00  0.00     0.002 A 
ATOM     72  C   UNL     1       3.039  -5.074  -8.929  1.00  0.00     0.091 A 
ATOM     73  F   UNL     1       2.592  -2.938  -7.966  1.00  0.00    -0.205 F 
ATOM     74  C   UNL     1       3.774  -5.853  -9.836  1.00  0.00     0.022 A 
BRANCH  72  75
ATOM     75  S   UNL     1       1.820  -5.921  -7.917  1.00  0.00     0.127 S 
ATOM     76  O   UNL     1       0.756  -6.180  -8.882  1.00  0.00    -0.237 OA
ATOM     77  O   UNL     1       2.560  -7.106  -7.481  1.00  0.00    -0.237 OA
ATOM     78  O   UNL     1       1.491  -4.994  -6.842  1.00  0.00    -0.744 OA
ENDBRANCH  72  75
ENDBRANCH  44  68
BRANCH  56  79
ATOM     79  C   UNL     1       4.144   2.396 -13.780  1.00  0.00     0.023 A 
ATOM     80  C   UNL     1       2.779   2.366 -14.124  1.00  0.00     0.012 A 
ATOM     81  C   UNL     1       5.102   2.675 -14.775  1.00  0.00     0.148 A 
ATOM     82  C   UNL     1       2.375   2.583 -15.441  1.00  0.00     0.002 A 
ATOM     83  C   UNL     1       4.689   2.938 -16.076  1.00  0.00     0.091 A 
ATOM     84  F   UNL     1       6.398   2.683 -14.430  1.00  0.00    -0.205 F 
ATOM     85  C   UNL     1       3.327   2.881 -16.413  1.00  0.00     0.022 A 
BRANCH  83  86
ATOM     86  S   UNL     1       5.835   3.422 -17.373  1.00  0.00     0.127 S 
ATOM     87  O   UNL     1       5.861   2.224 -18.210  1.00  0.00    -0.237 OA
ATOM     88  O   UNL     1       5.156   4.571 -17.974  1.00  0.00    -0.237 OA
ATOM     89  O   UNL     1       7.087   3.744 -16.702  1.00  0.00    -0.744 OA
ENDBRANCH  83  86
ENDBRANCH  56  79
ENDBRANCH  30  31
ENDBRANCH  23  25
ENDBRANCH  22  23
ENDBRANCH  21  22
ENDBRANCH   1  21
TORSDOF 19
