REMARK SMILES Cc1nc(C[NH2+][C@@H](C(=O)OCCOCCOC(=O)c2ccc(-c3c4nc(c(-c5cccc(S(=O)(=O)[O-])c5F)c5ccc([nH]5)c(-c5cccc(S(=O)(=O)[O-])c5F)c5nc(c(-c6cccc(S(=O)(=O)[O-])c6F)c6ccc3[nH]6)C=C5)C=C4)cc2)c2ccccc2)sc1C
REMARK SMILES IDX 13 1 12 2 11 3 10 4 8 5 9 6 7 7 6 8 5 11 4 12 1 13 2 14 3 15
REMARK SMILES IDX 89 16 88 17 90 18 82 19 83 20 87 21 84 22 86 23 85 24 14 25
REMARK SMILES IDX 15 26 16 27 17 28 18 29 19 30 20 31 81 32 21 33 80 34 22 35
REMARK SMILES IDX 23 36 24 37 74 38 25 39 79 40 73 41 75 42 26 43 78 44 72 45
REMARK SMILES IDX 71 46 27 48 59 49 39 50 58 51 40 52 43 53 57 54 76 55 41 56
REMARK SMILES IDX 42 57 56 59 77 60 44 61 28 62 29 63 37 64 30 65 32 66 38 67
REMARK SMILES IDX 31 68 33 69 34 70 35 71 36 72 60 73 61 74 69 75 62 76 64 77
REMARK SMILES IDX 70 78 63 79 65 80 66 81 67 82 68 83 45 84 46 85 54 86 47 87
REMARK SMILES IDX 49 88 55 89 48 90 50 91 51 92 52 93 53 94
REMARK H PARENT 6 9 6 10 75 47 43 58
REMARK Flexibility Score: inf
ROOT
ATOM      1  O   UNL     1      -6.112   2.564   2.645  1.00  0.00    -0.374 OA
ENDROOT
BRANCH   1   2
ATOM      2  C   UNL     1      -6.338   2.472   1.236  1.00  0.00     0.202 C 
BRANCH   2   3
ATOM      3  C   UNL     1      -5.840   3.637   0.380  1.00  0.00     0.261 C 
BRANCH   3   4
ATOM      4  O   UNL     1      -4.402   3.690   0.413  1.00  0.00    -0.459 OA
BRANCH   4   5
ATOM      5  C   UNL     1      -3.862   4.904   0.707  1.00  0.00     0.369 C 
ATOM      6  O   UNL     1      -4.518   5.942   0.744  1.00  0.00    -0.245 OA
BRANCH   5   7
ATOM      7  C   UNL     1      -2.341   4.845   1.047  1.00  0.00     0.325 C 
BRANCH   7   8
ATOM      8  N   UNL     1      -1.720   3.499   1.092  1.00  0.00    -0.325 N 
ATOM      9  H   UNL     1      -0.781   3.597   1.479  1.00  0.00     0.347 HD
ATOM     10  H   UNL     1      -2.336   2.921   1.663  1.00  0.00     0.347 HD
BRANCH   8  11
ATOM     11  C   UNL     1      -1.609   2.821  -0.207  1.00  0.00     0.330 C 
BRANCH  11  12
ATOM     12  C   UNL     1      -0.650   1.652  -0.127  1.00  0.00     0.148 A 
ATOM     13  C   UNL     1       2.717   0.395   0.055  1.00  0.00     0.068 C 
ATOM     14  C   UNL     1       1.237   0.480  -0.011  1.00  0.00     0.052 A 
ATOM     15  N   UNL     1       0.661   1.744  -0.026  1.00  0.00    -0.240 NA
ATOM     16  C   UNL     1       0.339  -0.572  -0.067  1.00  0.00     0.025 A 
ATOM     17  S   UNL     1      -1.249   0.047  -0.174  1.00  0.00    -0.118 S 
ATOM     18  C   UNL     1       0.593  -2.040  -0.064  1.00  0.00     0.058 C 
ENDBRANCH  11  12
ENDBRANCH   8  11
ENDBRANCH   7   8
BRANCH   7  19
ATOM     19  C   UNL     1      -2.130   5.594   2.373  1.00  0.00     0.021 A 
ATOM     20  C   UNL     1      -2.173   4.954   3.625  1.00  0.00     0.010 A 
ATOM     21  C   UNL     1      -2.036   6.997   2.355  1.00  0.00     0.010 A 
ATOM     22  C   UNL     1      -2.168   5.692   4.812  1.00  0.00     0.001 A 
ATOM     23  C   UNL     1      -2.024   7.733   3.543  1.00  0.00     0.001 A 
ATOM     24  C   UNL     1      -2.104   7.081   4.770  1.00  0.00     0.000 A 
ENDBRANCH   7  19
ENDBRANCH   5   7
ENDBRANCH   4   5
ENDBRANCH   3   4
ENDBRANCH   2   3
ENDBRANCH   1   2
BRANCH   1  25
ATOM     25  C   UNL     1      -4.774   2.390   3.102  1.00  0.00     0.202 C 
BRANCH  25  26
ATOM     26  C   UNL     1      -4.227   0.958   3.178  1.00  0.00     0.261 C 
BRANCH  26  27
ATOM     27  O   UNL     1      -4.244   0.276   1.916  1.00  0.00    -0.460 OA
BRANCH  27  28
ATOM     28  C   UNL     1      -5.238  -0.636   1.771  1.00  0.00     0.338 C 
ATOM     29  O   UNL     1      -6.077  -0.956   2.602  1.00  0.00    -0.246 OA
BRANCH  28  30
ATOM     30  C   UNL     1      -5.288  -1.077   0.366  1.00  0.00     0.060 A 
ATOM     31  C   UNL     1      -6.459  -0.853  -0.367  1.00  0.00     0.016 A 
ATOM     32  C   UNL     1      -4.203  -1.726  -0.217  1.00  0.00     0.016 A 
ATOM     33  C   UNL     1      -6.549  -1.290  -1.688  1.00  0.00     0.010 A 
ATOM     34  C   UNL     1      -4.280  -2.133  -1.549  1.00  0.00     0.010 A 
ATOM     35  C   UNL     1      -5.468  -1.955  -2.281  1.00  0.00    -0.014 A 
BRANCH  35  36
ATOM     36  C   UNL     1      -5.615  -2.615  -3.603  1.00  0.00     0.031 A 
ATOM     37  C   UNL     1      -5.641  -4.120  -3.655  1.00  0.00     0.074 A 
ATOM     38  C   UNL     1      -5.692  -1.897  -4.738  1.00  0.00     0.049 A 
ATOM     39  N   UNL     1      -5.648  -4.914  -4.693  1.00  0.00    -0.248 NA
ATOM     40  C   UNL     1      -5.638  -4.824  -2.361  1.00  0.00     0.031 C 
ATOM     41  C   UNL     1      -5.676  -0.438  -4.822  1.00  0.00     0.029 A 
ATOM     42  N   UNL     1      -5.765  -2.308  -6.047  1.00  0.00    -0.354 N 
ATOM     43  C   UNL     1      -5.600  -6.205  -4.180  1.00  0.00     0.074 A 
ATOM     44  C   UNL     1      -5.544  -6.089  -2.740  1.00  0.00     0.031 C 
ATOM     45  C   UNL     1      -5.715  -0.074  -6.115  1.00  0.00     0.029 A 
ATOM     46  C   UNL     1      -5.720  -1.272  -6.951  1.00  0.00     0.049 A 
ATOM     47  H   UNL     1      -5.843  -3.252  -6.312  1.00  0.00     0.167 HD
ATOM     48  C   UNL     1      -5.618  -7.384  -4.845  1.00  0.00     0.034 A 
ATOM     49  C   UNL     1      -5.661  -1.292  -8.298  1.00  0.00     0.034 A 
ATOM     50  C   UNL     1      -5.713  -7.497  -6.274  1.00  0.00     0.049 A 
ATOM     51  C   UNL     1      -5.672  -2.617  -9.016  1.00  0.00     0.074 A 
ATOM     52  C   UNL     1      -5.800  -8.645  -7.042  1.00  0.00     0.029 A 
ATOM     53  N   UNL     1      -5.724  -6.426  -7.153  1.00  0.00    -0.354 N 
ATOM     54  N   UNL     1      -5.732  -3.828  -8.517  1.00  0.00    -0.248 NA
ATOM     55  C   UNL     1      -5.638  -2.578 -10.486  1.00  0.00     0.031 C 
ATOM     56  C   UNL     1      -5.830  -8.268  -8.387  1.00  0.00     0.029 A 
ATOM     57  C   UNL     1      -5.806  -6.884  -8.456  1.00  0.00     0.049 A 
ATOM     58  H   UNL     1      -5.681  -5.478  -6.889  1.00  0.00     0.167 HD
ATOM     59  C   UNL     1      -5.789  -4.690  -9.608  1.00  0.00     0.074 A 
ATOM     60  C   UNL     1      -5.768  -3.861 -10.795  1.00  0.00     0.031 C 
ATOM     61  C   UNL     1      -5.843  -6.045  -9.626  1.00  0.00     0.034 A 
BRANCH  48  62
ATOM     62  C   UNL     1      -5.554  -8.649  -4.030  1.00  0.00     0.023 A 
ATOM     63  C   UNL     1      -6.658  -9.036  -3.244  1.00  0.00     0.012 A 
ATOM     64  C   UNL     1      -4.417  -9.479  -4.081  1.00  0.00     0.148 A 
ATOM     65  C   UNL     1      -6.617 -10.210  -2.491  1.00  0.00     0.002 A 
ATOM     66  C   UNL     1      -4.403 -10.672  -3.369  1.00  0.00     0.091 A 
ATOM     67  F   UNL     1      -3.368  -9.082  -4.816  1.00  0.00    -0.205 F 
ATOM     68  C   UNL     1      -5.496 -11.032  -2.563  1.00  0.00     0.022 A 
BRANCH  66  69
ATOM     69  S   UNL     1      -3.041 -11.839  -3.459  1.00  0.00     0.127 S 
ATOM     70  O   UNL     1      -2.469 -11.728  -2.118  1.00  0.00    -0.237 OA
ATOM     71  O   UNL     1      -3.735 -13.099  -3.724  1.00  0.00    -0.237 OA
ATOM     72  O   UNL     1      -2.185 -11.375  -4.542  1.00  0.00    -0.744 OA
ENDBRANCH  66  69
ENDBRANCH  48  62
BRANCH  49  73
ATOM     73  C   UNL     1      -5.614  -0.013  -9.064  1.00  0.00     0.023 A 
ATOM     74  C   UNL     1      -6.716   0.364  -9.856  1.00  0.00     0.012 A 
ATOM     75  C   UNL     1      -4.489   0.832  -9.008  1.00  0.00     0.148 A 
ATOM     76  C   UNL     1      -6.686   1.541 -10.605  1.00  0.00     0.002 A 
ATOM     77  C   UNL     1      -4.488   2.031  -9.711  1.00  0.00     0.091 A 
ATOM     78  F   UNL     1      -3.444   0.449  -8.261  1.00  0.00    -0.205 F 
ATOM     79  C   UNL     1      -5.577   2.379 -10.525  1.00  0.00     0.022 A 
BRANCH  77  80
ATOM     80  S   UNL     1      -3.160   3.232  -9.568  1.00  0.00     0.127 S 
ATOM     81  O   UNL     1      -2.565   3.180 -10.901  1.00  0.00    -0.237 OA
ATOM     82  O   UNL     1      -3.899   4.460  -9.269  1.00  0.00    -0.237 OA
ATOM     83  O   UNL     1      -2.316   2.759  -8.480  1.00  0.00    -0.744 OA
ENDBRANCH  77  80
ENDBRANCH  49  73
BRANCH  61  84
ATOM     84  C   UNL     1      -5.949  -6.729 -10.965  1.00  0.00     0.023 A 
ATOM     85  C   UNL     1      -4.838  -6.769 -11.830  1.00  0.00     0.012 A 
ATOM     86  C   UNL     1      -7.131  -7.406 -11.325  1.00  0.00     0.148 A 
ATOM     87  C   UNL     1      -4.914  -7.445 -13.048  1.00  0.00     0.002 A 
ATOM     88  C   UNL     1      -7.182  -8.123 -12.514  1.00  0.00     0.091 A 
ATOM     89  F   UNL     1      -8.182  -7.343 -10.494  1.00  0.00    -0.205 F 
ATOM     90  C   UNL     1      -6.079  -8.132 -13.383  1.00  0.00     0.022 A 
BRANCH  88  91
ATOM     91  S   UNL     1      -8.602  -9.120 -12.980  1.00  0.00     0.127 S 
ATOM     92  O   UNL     1      -9.149  -8.353 -14.098  1.00  0.00    -0.237 OA
ATOM     93  O   UNL     1      -7.978 -10.388 -13.357  1.00  0.00    -0.237 OA
ATOM     94  O   UNL     1      -9.450  -9.190 -11.798  1.00  0.00    -0.744 OA
ENDBRANCH  88  91
ENDBRANCH  61  84
ENDBRANCH  35  36
ENDBRANCH  28  30
ENDBRANCH  27  28
ENDBRANCH  26  27
ENDBRANCH  25  26
ENDBRANCH   1  25
TORSDOF 21
