REMARK SMILES O=C(OCCOCCOC(=O)[C@]1(NC(=O)C2CCN(C(=O)C3CC3)CC2)CCCc2ccccc21)c1ccc(-c2c3nc(c(-c4cccc(S(=O)(=O)[O-])c4F)c4ccc([nH]4)c(-c4cccc(S(=O)(=O)[O-])c4F)c4nc(c(-c5cccc(S(=O)(=O)[O-])c5F)c5ccc2[nH]5)C=C4)C=C3)cc1
REMARK SMILES IDX 6 1 5 2 4 3 3 4 2 5 1 6 36 7 37 8 98 9 38 10 97 11 39 12
REMARK SMILES IDX 40 13 41 14 91 15 42 16 96 17 90 18 92 19 43 20 95 21 89 22
REMARK SMILES IDX 88 23 44 25 76 26 56 27 75 28 57 29 60 30 74 31 93 32 58 33
REMARK SMILES IDX 59 34 73 36 94 37 61 38 45 39 46 40 54 41 47 42 49 43 55 44
REMARK SMILES IDX 48 45 50 46 51 47 52 48 53 49 77 50 78 51 86 52 79 53 81 54
REMARK SMILES IDX 87 55 80 56 82 57 83 58 84 59 85 60 62 61 63 62 71 63 64 64
REMARK SMILES IDX 66 65 72 66 65 67 67 68 68 69 69 70 70 71 7 72 8 73 9 74
REMARK SMILES IDX 10 75 11 76 12 77 27 78 35 79 28 80 30 81 34 82 29 83 31 84
REMARK SMILES IDX 33 85 32 86 13 87 14 88 15 90 16 91 17 92 26 93 18 94 25 95
REMARK SMILES IDX 19 96 20 97 21 98 22 99 23 100 24 101
REMARK H PARENT 92 24 60 35 13 89
REMARK Flexibility Score: inf
ROOT
ATOM      1  O   UNL     1       4.313   1.252   2.682  1.00  0.00    -0.374 OA
ENDROOT
BRANCH   1   2
ATOM      2  C   UNL     1       5.018   0.976   1.476  1.00  0.00     0.202 C 
BRANCH   2   3
ATOM      3  C   UNL     1       4.457   0.121   0.316  1.00  0.00     0.261 C 
BRANCH   3   4
ATOM      4  O   UNL     1       3.003   0.053   0.201  1.00  0.00    -0.460 OA
BRANCH   4   5
ATOM      5  C   UNL     1       2.201  -1.045   0.415  1.00  0.00     0.338 C 
ATOM      6  O   UNL     1       1.041  -1.081   0.040  1.00  0.00    -0.246 OA
BRANCH   5   7
ATOM      7  C   UNL     1       2.797  -2.141   1.205  1.00  0.00     0.060 A 
ATOM      8  C   UNL     1       3.747  -1.766   2.118  1.00  0.00     0.016 A 
ATOM      9  C   UNL     1       2.510  -3.494   1.087  1.00  0.00     0.016 A 
ATOM     10  C   UNL     1       4.756  -2.600   2.430  1.00  0.00     0.010 A 
ATOM     11  C   UNL     1       3.277  -4.396   1.844  1.00  0.00     0.010 A 
ATOM     12  C   UNL     1       4.427  -3.931   2.505  1.00  0.00    -0.014 A 
BRANCH  12  13
ATOM     13  C   UNL     1       5.391  -4.682   3.319  1.00  0.00     0.031 A 
ATOM     14  C   UNL     1       6.224  -5.704   2.640  1.00  0.00     0.074 A 
ATOM     15  C   UNL     1       5.681  -4.191   4.550  1.00  0.00     0.049 A 
ATOM     16  N   UNL     1       7.164  -6.442   3.148  1.00  0.00    -0.248 NA
ATOM     17  C   UNL     1       5.986  -5.921   1.201  1.00  0.00     0.031 C 
ATOM     18  C   UNL     1       4.992  -3.053   5.199  1.00  0.00     0.029 A 
ATOM     19  N   UNL     1       6.688  -4.479   5.427  1.00  0.00    -0.354 N 
ATOM     20  C   UNL     1       7.562  -7.281   2.122  1.00  0.00     0.074 A 
ATOM     21  C   UNL     1       6.800  -6.932   0.947  1.00  0.00     0.031 C 
ATOM     22  C   UNL     1       5.665  -2.678   6.292  1.00  0.00     0.029 A 
ATOM     23  C   UNL     1       6.702  -3.659   6.536  1.00  0.00     0.049 A 
ATOM     24  H   UNL     1       7.341  -5.201   5.281  1.00  0.00     0.167 HD
ATOM     25  C   UNL     1       8.472  -8.274   2.194  1.00  0.00     0.034 A 
ATOM     26  C   UNL     1       7.420  -3.751   7.669  1.00  0.00     0.034 A 
ATOM     27  C   UNL     1       9.203  -8.554   3.396  1.00  0.00     0.049 A 
ATOM     28  C   UNL     1       8.374  -4.904   7.738  1.00  0.00     0.074 A 
ATOM     29  C   UNL     1      10.074  -9.590   3.659  1.00  0.00     0.029 A 
ATOM     30  N   UNL     1       9.141  -7.772   4.546  1.00  0.00    -0.354 N 
ATOM     31  N   UNL     1       8.681  -5.768   6.797  1.00  0.00    -0.248 NA
ATOM     32  C   UNL     1       9.067  -5.115   9.009  1.00  0.00     0.031 C 
ATOM     33  C   UNL     1      10.521  -9.447   4.978  1.00  0.00     0.029 A 
ATOM     34  C   UNL     1       9.962  -8.298   5.523  1.00  0.00     0.049 A 
ATOM     35  H   UNL     1       8.592  -6.961   4.647  1.00  0.00     0.167 HD
ATOM     36  C   UNL     1       9.603  -6.631   7.360  1.00  0.00     0.074 A 
ATOM     37  C   UNL     1       9.843  -6.146   8.710  1.00  0.00     0.031 C 
ATOM     38  C   UNL     1      10.179  -7.739   6.835  1.00  0.00     0.034 A 
BRANCH  25  39
ATOM     39  C   UNL     1       8.625  -9.140   0.980  1.00  0.00     0.023 A 
ATOM     40  C   UNL     1       9.268  -8.649  -0.174  1.00  0.00     0.012 A 
ATOM     41  C   UNL     1       8.073 -10.435   0.969  1.00  0.00     0.148 A 
ATOM     42  C   UNL     1       9.329  -9.425  -1.333  1.00  0.00     0.002 A 
ATOM     43  C   UNL     1       8.178 -11.219  -0.172  1.00  0.00     0.091 A 
ATOM     44  F   UNL     1       7.430 -10.863   2.064  1.00  0.00    -0.205 F 
ATOM     45  C   UNL     1       8.792 -10.710  -1.329  1.00  0.00     0.022 A 
BRANCH  43  46
ATOM     46  S   UNL     1       7.567 -12.905  -0.250  1.00  0.00     0.127 S 
ATOM     47  O   UNL     1       6.560 -12.807  -1.306  1.00  0.00    -0.237 OA
ATOM     48  O   UNL     1       8.773 -13.643  -0.622  1.00  0.00    -0.237 OA
ATOM     49  O   UNL     1       7.043 -13.209   1.074  1.00  0.00    -0.744 OA
ENDBRANCH  43  46
ENDBRANCH  25  39
BRANCH  26  50
ATOM     50  C   UNL     1       7.179  -2.830   8.821  1.00  0.00     0.023 A 
ATOM     51  C   UNL     1       8.222  -2.032   9.328  1.00  0.00     0.012 A 
ATOM     52  C   UNL     1       5.907  -2.744   9.430  1.00  0.00     0.148 A 
ATOM     53  C   UNL     1       8.012  -1.200  10.432  1.00  0.00     0.002 A 
ATOM     54  C   UNL     1       5.687  -1.863  10.482  1.00  0.00     0.091 A 
ATOM     55  F   UNL     1       4.924  -3.530   8.968  1.00  0.00    -0.205 F 
ATOM     56  C   UNL     1       6.744  -1.106  11.001  1.00  0.00     0.022 A 
BRANCH  54  57
ATOM     57  S   UNL     1       4.048  -1.588  11.168  1.00  0.00     0.127 S 
ATOM     58  O   UNL     1       4.121  -2.332  12.422  1.00  0.00    -0.237 OA
ATOM     59  O   UNL     1       4.017  -0.133  11.316  1.00  0.00    -0.237 OA
ATOM     60  O   UNL     1       3.119  -2.104  10.171  1.00  0.00    -0.744 OA
ENDBRANCH  54  57
ENDBRANCH  26  50
BRANCH  38  61
ATOM     61  C   UNL     1      11.148  -8.458   7.723  1.00  0.00     0.023 A 
ATOM     62  C   UNL     1      10.678  -9.204   8.820  1.00  0.00     0.012 A 
ATOM     63  C   UNL     1      12.522  -8.426   7.429  1.00  0.00     0.148 A 
ATOM     64  C   UNL     1      11.575  -9.880   9.642  1.00  0.00     0.002 A 
ATOM     65  C   UNL     1      13.402  -9.153   8.214  1.00  0.00     0.091 A 
ATOM     66  F   UNL     1      12.939  -7.685   6.392  1.00  0.00    -0.205 F 
ATOM     67  C   UNL     1      12.934  -9.866   9.330  1.00  0.00     0.022 A 
BRANCH  65  68
ATOM     68  S   UNL     1      15.145  -9.280   7.814  1.00  0.00     0.127 S 
ATOM     69  O   UNL     1      15.747  -8.428   8.838  1.00  0.00    -0.237 OA
ATOM     70  O   UNL     1      15.396 -10.712   7.983  1.00  0.00    -0.237 OA
ATOM     71  O   UNL     1      15.278  -8.803   6.444  1.00  0.00    -0.744 OA
ENDBRANCH  65  68
ENDBRANCH  38  61
ENDBRANCH  12  13
ENDBRANCH   5   7
ENDBRANCH   4   5
ENDBRANCH   3   4
ENDBRANCH   2   3
ENDBRANCH   1   2
BRANCH   1  72
ATOM     72  C   UNL     1       2.907   1.471   2.740  1.00  0.00     0.202 C 
BRANCH  72  73
ATOM     73  C   UNL     1       2.332   2.787   2.225  1.00  0.00     0.261 C 
BRANCH  73  74
ATOM     74  O   UNL     1       2.835   3.187   0.944  1.00  0.00    -0.461 OA
BRANCH  74  75
ATOM     75  C   UNL     1       4.013   3.842   1.069  1.00  0.00     0.336 C 
ATOM     76  O   UNL     1       4.573   3.994   2.155  1.00  0.00    -0.249 OA
BRANCH  75  77
ATOM     77  C   UNL     1       4.575   4.478  -0.263  1.00  0.00     0.164 C 
ATOM     78  C   UNL     1       6.054   4.048  -0.482  1.00  0.00     0.046 C 
ATOM     79  C   UNL     1       4.530   5.969   0.162  1.00  0.00    -0.008 A 
ATOM     80  C   UNL     1       7.002   4.400   0.667  1.00  0.00     0.008 C 
ATOM     81  C   UNL     1       5.581   6.540   0.908  1.00  0.00    -0.042 A 
ATOM     82  C   UNL     1       3.280   6.626   0.102  1.00  0.00     0.007 A 
ATOM     83  C   UNL     1       6.928   5.872   1.070  1.00  0.00     0.036 C 
ATOM     84  C   UNL     1       5.347   7.746   1.587  1.00  0.00     0.004 A 
ATOM     85  C   UNL     1       3.066   7.812   0.792  1.00  0.00     0.000 A 
ATOM     86  C   UNL     1       4.096   8.365   1.543  1.00  0.00     0.000 A 
BRANCH  77  87
ATOM     87  N   UNL     1       3.885   4.397  -1.606  1.00  0.00    -0.336 N 
ATOM     88  C   UNL     1       3.490   3.424  -2.477  1.00  0.00     0.224 C 
ATOM     89  H   UNL     1       3.658   5.293  -1.946  1.00  0.00     0.164 HD
ATOM     90  O   UNL     1       3.459   3.716  -3.676  1.00  0.00    -0.275 OA
BRANCH  88  91
ATOM     91  C   UNL     1       2.951   2.092  -2.002  1.00  0.00     0.082 C 
ATOM     92  C   UNL     1       3.494   0.892  -2.822  1.00  0.00     0.035 C 
ATOM     93  C   UNL     1       1.408   2.148  -1.917  1.00  0.00     0.035 C 
ATOM     94  C   UNL     1       2.604   0.371  -3.945  1.00  0.00     0.120 C 
ATOM     95  C   UNL     1       0.721   1.662  -3.194  1.00  0.00     0.120 C 
ATOM     96  N   UNL     1       1.212   0.337  -3.521  1.00  0.00    -0.342 N 
ATOM     97  C   UNL     1       0.636  -0.904  -3.223  1.00  0.00     0.225 C 
ATOM     98  O   UNL     1       1.315  -1.932  -3.255  1.00  0.00    -0.275 OA
BRANCH  97  99
ATOM     99  C   UNL     1      -0.827  -1.114  -2.973  1.00  0.00     0.079 C 
ATOM    100  C   UNL     1      -1.866  -0.213  -2.373  1.00  0.00     0.014 C 
ATOM    101  C   UNL     1      -1.853  -0.446  -3.860  1.00  0.00     0.014 C 
ENDBRANCH  97  99
ENDBRANCH  88  91
ENDBRANCH  77  87
ENDBRANCH  75  77
ENDBRANCH  74  75
ENDBRANCH  73  74
ENDBRANCH  72  73
ENDBRANCH   1  72
TORSDOF 20
