REMARK SMILES Cc1ncc(C(=O)OCCOCCOC(=O)c2ccc(-c3c4nc(c(-c5cccc(S(=O)(=O)[O-])c5F)c5ccc([nH]5)c(-c5cccc(S(=O)(=O)[O-])c5F)c5nc(c(-c6cccc(S(=O)(=O)[O-])c6F)c6ccc3[nH]6)C=C5)C=C4)cc2)cc1C#N
REMARK SMILES IDX 12 1 11 2 10 3 9 4 8 5 6 6 7 7 5 8 1 9 2 10 3 11 81 12 4 13
REMARK SMILES IDX 80 14 82 15 83 16 13 17 14 18 15 19 16 20 17 21 18 22 79 23
REMARK SMILES IDX 19 24 78 25 20 26 21 27 22 28 72 29 23 30 77 31 71 32 73 33
REMARK SMILES IDX 24 34 76 35 70 36 69 37 25 39 57 40 37 41 56 42 38 43 41 44
REMARK SMILES IDX 55 45 74 46 39 47 40 48 54 50 75 51 42 52 26 53 27 54 35 55
REMARK SMILES IDX 28 56 30 57 36 58 29 59 31 60 32 61 33 62 34 63 58 64 59 65
REMARK SMILES IDX 67 66 60 67 62 68 68 69 61 70 63 71 64 72 65 73 66 74 43 75
REMARK SMILES IDX 44 76 52 77 45 78 47 79 53 80 46 81 48 82 49 83 50 84 51 85
REMARK H PARENT 73 38 41 49
REMARK Flexibility Score: inf
ROOT
ATOM      1  C   UNL     1      -1.703  -5.637   2.927  1.00  0.00     0.202 C 
ENDROOT
BRANCH   1   2
ATOM      2  O   UNL     1      -1.236  -6.486   3.975  1.00  0.00    -0.374 OA
BRANCH   2   3
ATOM      3  C   UNL     1      -1.311  -6.010   5.315  1.00  0.00     0.202 C 
BRANCH   3   4
ATOM      4  C   UNL     1      -0.286  -4.976   5.792  1.00  0.00     0.261 C 
BRANCH   4   5
ATOM      5  O   UNL     1      -0.246  -3.809   4.957  1.00  0.00    -0.460 OA
BRANCH   5   6
ATOM      6  C   UNL     1       0.803  -3.785   4.101  1.00  0.00     0.339 C 
ATOM      7  O   UNL     1       1.714  -4.595   4.034  1.00  0.00    -0.246 OA
BRANCH   6   8
ATOM      8  C   UNL     1       0.634  -2.722   3.099  1.00  0.00     0.079 A 
ATOM      9  C   UNL     1       0.821   0.142  -0.023  1.00  0.00     0.068 C 
ATOM     10  C   UNL     1       0.611  -0.851   1.084  1.00  0.00     0.055 A 
ATOM     11  N   UNL     1       1.121  -2.084   0.822  1.00  0.00    -0.259 NA
ATOM     12  C   UNL     1       0.030  -0.526   2.317  1.00  0.00     0.074 A 
ATOM     13  C   UNL     1       1.128  -2.983   1.830  1.00  0.00     0.127 A 
ATOM     14  C   UNL     1       0.033  -1.487   3.339  1.00  0.00     0.038 A 
BRANCH  12  15
ATOM     15  C   UNL     1      -0.536   0.765   2.555  1.00  0.00     0.101 C 
ATOM     16  N   UNL     1      -0.993   1.823   2.702  1.00  0.00    -0.192 NA
ENDBRANCH  12  15
ENDBRANCH   6   8
ENDBRANCH   5   6
ENDBRANCH   4   5
ENDBRANCH   3   4
ENDBRANCH   2   3
ENDBRANCH   1   2
BRANCH   1  17
ATOM     17  C   UNL     1      -3.201  -5.310   2.826  1.00  0.00     0.261 C 
BRANCH  17  18
ATOM     18  O   UNL     1      -3.703  -4.566   3.948  1.00  0.00    -0.460 OA
BRANCH  18  19
ATOM     19  C   UNL     1      -4.519  -5.267   4.777  1.00  0.00     0.338 C 
ATOM     20  O   UNL     1      -4.866  -6.429   4.666  1.00  0.00    -0.246 OA
BRANCH  19  21
ATOM     21  C   UNL     1      -4.779  -4.461   5.982  1.00  0.00     0.060 A 
ATOM     22  C   UNL     1      -4.239  -4.886   7.203  1.00  0.00     0.016 A 
ATOM     23  C   UNL     1      -5.600  -3.336   5.915  1.00  0.00     0.016 A 
ATOM     24  C   UNL     1      -4.527  -4.187   8.370  1.00  0.00     0.010 A 
ATOM     25  C   UNL     1      -5.906  -2.649   7.091  1.00  0.00     0.010 A 
ATOM     26  C   UNL     1      -5.392  -3.087   8.325  1.00  0.00    -0.014 A 
BRANCH  26  27
ATOM     27  C   UNL     1      -5.860  -2.483   9.591  1.00  0.00     0.031 A 
ATOM     28  C   UNL     1      -7.218  -2.850  10.115  1.00  0.00     0.074 A 
ATOM     29  C   UNL     1      -5.069  -1.639  10.277  1.00  0.00     0.049 A 
ATOM     30  N   UNL     1      -7.808  -2.455  11.211  1.00  0.00    -0.248 NA
ATOM     31  C   UNL     1      -8.018  -3.785   9.303  1.00  0.00     0.031 C 
ATOM     32  C   UNL     1      -3.730  -1.218   9.867  1.00  0.00     0.029 A 
ATOM     33  N   UNL     1      -5.286  -0.976  11.457  1.00  0.00    -0.354 N 
ATOM     34  C   UNL     1      -9.051  -3.074  11.213  1.00  0.00     0.074 A 
ATOM     35  C   UNL     1      -9.141  -3.862  10.005  1.00  0.00     0.031 C 
ATOM     36  C   UNL     1      -3.249  -0.355  10.778  1.00  0.00     0.029 A 
ATOM     37  C   UNL     1      -4.252  -0.149  11.822  1.00  0.00     0.049 A 
ATOM     38  H   UNL     1      -6.106  -1.082  11.993  1.00  0.00     0.167 HD
ATOM     39  C   UNL     1     -10.022  -3.004  12.151  1.00  0.00     0.034 A 
ATOM     40  C   UNL     1      -4.130   0.688  12.872  1.00  0.00     0.034 A 
ATOM     41  C   UNL     1      -9.921  -2.237  13.359  1.00  0.00     0.049 A 
ATOM     42  C   UNL     1      -5.239   0.775  13.884  1.00  0.00     0.074 A 
ATOM     43  C   UNL     1     -10.839  -2.150  14.391  1.00  0.00     0.029 A 
ATOM     44  N   UNL     1      -8.856  -1.418  13.693  1.00  0.00    -0.354 N 
ATOM     45  N   UNL     1      -6.368   0.110  13.920  1.00  0.00    -0.248 NA
ATOM     46  C   UNL     1      -5.054   1.704  15.010  1.00  0.00     0.031 C 
ATOM     47  C   UNL     1     -10.344  -1.249  15.334  1.00  0.00     0.029 A 
ATOM     48  C   UNL     1      -9.101  -0.807  14.908  1.00  0.00     0.049 A 
ATOM     49  H   UNL     1      -8.047  -1.291  13.148  1.00  0.00     0.167 HD
ATOM     50  C   UNL     1      -7.014   0.516  15.082  1.00  0.00     0.074 A 
ATOM     51  C   UNL     1      -6.152   1.484  15.726  1.00  0.00     0.031 C 
ATOM     52  C   UNL     1      -8.216   0.120  15.563  1.00  0.00     0.034 A 
BRANCH  39  53
ATOM     53  C   UNL     1     -11.275  -3.804  11.941  1.00  0.00     0.023 A 
ATOM     54  C   UNL     1     -11.260  -5.189  12.193  1.00  0.00     0.012 A 
ATOM     55  C   UNL     1     -12.489  -3.164  11.626  1.00  0.00     0.148 A 
ATOM     56  C   UNL     1     -12.440  -5.928  12.137  1.00  0.00     0.002 A 
ATOM     57  C   UNL     1     -13.664  -3.902  11.598  1.00  0.00     0.091 A 
ATOM     58  F   UNL     1     -12.470  -1.845  11.384  1.00  0.00    -0.205 F 
ATOM     59  C   UNL     1     -13.642  -5.284  11.854  1.00  0.00     0.022 A 
BRANCH  57  60
ATOM     60  S   UNL     1     -15.269  -3.163  11.279  1.00  0.00     0.127 S 
ATOM     61  O   UNL     1     -15.656  -3.829  10.035  1.00  0.00    -0.237 OA
ATOM     62  O   UNL     1     -16.035  -3.574  12.455  1.00  0.00    -0.237 OA
ATOM     63  O   UNL     1     -15.040  -1.730  11.163  1.00  0.00    -0.744 OA
ENDBRANCH  57  60
ENDBRANCH  39  53
BRANCH  40  64
ATOM     64  C   UNL     1      -2.878   1.475  13.029  1.00  0.00     0.023 A 
ATOM     65  C   UNL     1      -1.935   1.088  13.998  1.00  0.00     0.012 A 
ATOM     66  C   UNL     1      -2.589   2.554  12.172  1.00  0.00     0.148 A 
ATOM     67  C   UNL     1      -0.719   1.764  14.112  1.00  0.00     0.002 A 
ATOM     68  C   UNL     1      -1.365   3.203  12.270  1.00  0.00     0.091 A 
ATOM     69  F   UNL     1      -3.505   2.898  11.257  1.00  0.00    -0.205 F 
ATOM     70  C   UNL     1      -0.430   2.813  13.243  1.00  0.00     0.022 A 
BRANCH  68  71
ATOM     71  S   UNL     1      -0.870   4.517  11.150  1.00  0.00     0.127 S 
ATOM     72  O   UNL     1      -0.684   5.637  12.069  1.00  0.00    -0.237 OA
ATOM     73  O   UNL     1       0.365   3.973  10.583  1.00  0.00    -0.237 OA
ATOM     74  O   UNL     1      -1.964   4.664  10.201  1.00  0.00    -0.744 OA
ENDBRANCH  68  71
ENDBRANCH  40  64
BRANCH  52  75
ATOM     75  C   UNL     1      -8.703   0.692  16.866  1.00  0.00     0.023 A 
ATOM     76  C   UNL     1      -9.303   1.964  16.881  1.00  0.00     0.012 A 
ATOM     77  C   UNL     1      -8.747  -0.117  18.020  1.00  0.00     0.148 A 
ATOM     78  C   UNL     1      -9.956   2.420  18.027  1.00  0.00     0.002 A 
ATOM     79  C   UNL     1      -9.424   0.332  19.147  1.00  0.00     0.091 A 
ATOM     80  F   UNL     1      -8.173  -1.327  17.970  1.00  0.00    -0.205 F 
ATOM     81  C   UNL     1     -10.030   1.599  19.151  1.00  0.00     0.022 A 
BRANCH  79  82
ATOM     82  S   UNL     1      -9.628  -0.674  20.621  1.00  0.00     0.127 S 
ATOM     83  O   UNL     1      -8.941   0.133  21.628  1.00  0.00    -0.237 OA
ATOM     84  O   UNL     1     -11.082  -0.721  20.763  1.00  0.00    -0.237 OA
ATOM     85  O   UNL     1      -8.998  -1.955  20.329  1.00  0.00    -0.744 OA
ENDBRANCH  79  82
ENDBRANCH  52  75
ENDBRANCH  26  27
ENDBRANCH  19  21
ENDBRANCH  18  19
ENDBRANCH  17  18
ENDBRANCH   1  17
TORSDOF 18
