REMARK SMILES Cn1cc(/C=C/C(=O)N(CC(=O)OCCOCCOC(=O)c2ccc(-c3c4nc(c(-c5cccc(S(=O)(=O)[O-])c5F)c5ccc([nH]5)c(-c5cccc(S(=O)(=O)[O-])c5F)c5nc(c(-c6cccc(S(=O)(=O)[O-])c6F)c6ccc3[nH]6)C=C5)C=C4)cc2)C(C)(C)C)cn1
REMARK SMILES IDX 15 1 14 2 13 3 11 4 12 5 10 6 9 7 7 8 8 9 6 10 5 11 4 12
REMARK SMILES IDX 1 13 2 14 3 15 90 16 89 17 85 18 86 19 87 20 88 21 16 22
REMARK SMILES IDX 17 23 18 24 19 25 20 26 21 27 22 28 23 29 84 30 24 31 83 32
REMARK SMILES IDX 25 33 26 34 27 35 77 36 28 37 82 38 76 39 78 40 29 41 81 42
REMARK SMILES IDX 75 43 74 44 30 46 62 47 42 48 61 49 43 50 46 51 60 52 79 53
REMARK SMILES IDX 44 54 45 55 59 57 80 58 47 59 31 60 32 61 40 62 33 63 35 64
REMARK SMILES IDX 41 65 34 66 36 67 37 68 38 69 39 70 63 71 64 72 72 73 65 74
REMARK SMILES IDX 67 75 73 76 66 77 68 78 69 79 70 80 71 81 48 82 49 83 57 84
REMARK SMILES IDX 50 85 52 86 58 87 51 88 53 89 54 90 55 91 56 92
REMARK H PARENT 78 45 46 56
REMARK Flexibility Score: inf
ROOT
ATOM      1  C   UNL     1       3.553  -5.875  -3.902  1.00  0.00     0.202 C 
ENDROOT
BRANCH   1   2
ATOM      2  C   UNL     1       2.758  -4.922  -2.996  1.00  0.00     0.261 C 
BRANCH   2   3
ATOM      3  O   UNL     1       3.534  -4.355  -1.912  1.00  0.00    -0.462 OA
BRANCH   3   4
ATOM      4  C   UNL     1       3.022  -4.525  -0.662  1.00  0.00     0.325 C 
ATOM      5  O   UNL     1       2.009  -5.173  -0.410  1.00  0.00    -0.250 OA
BRANCH   4   6
ATOM      6  C   UNL     1       3.809  -3.825   0.457  1.00  0.00     0.243 C 
BRANCH   6   7
ATOM      7  N   UNL     1       5.009  -3.022   0.136  1.00  0.00    -0.323 N 
BRANCH   7   8
ATOM      8  C   UNL     1       4.927  -1.663  -0.194  1.00  0.00     0.247 C 
ATOM      9  O   UNL     1       5.902  -0.975  -0.492  1.00  0.00    -0.270 OA
BRANCH   8  10
ATOM     10  C   UNL     1       3.657  -0.922   0.010  1.00  0.00     0.072 C 
ATOM     11  C   UNL     1       2.478  -1.167  -0.577  1.00  0.00     0.017 C 
BRANCH  11  12
ATOM     12  C   UNL     1       1.295  -0.421  -0.315  1.00  0.00     0.013 A 
ATOM     13  C   UNL     1      -2.247   0.120  -0.023  1.00  0.00     0.173 C 
ATOM     14  N   UNL     1      -0.805   0.124  -0.047  1.00  0.00    -0.275 N 
ATOM     15  C   UNL     1       0.016  -0.926  -0.345  1.00  0.00     0.116 A 
ATOM     16  N   UNL     1      -0.143   1.258   0.243  1.00  0.00    -0.181 NA
ATOM     17  C   UNL     1       1.136   0.939   0.026  1.00  0.00     0.143 A 
ENDBRANCH  11  12
ENDBRANCH   8  10
ENDBRANCH   7   8
BRANCH   7  18
ATOM     18  C   UNL     1       6.387  -3.632   0.284  1.00  0.00     0.035 C 
ATOM     19  C   UNL     1       7.188  -3.505  -1.030  1.00  0.00     0.034 C 
ATOM     20  C   UNL     1       7.154  -2.927   1.430  1.00  0.00     0.034 C 
ATOM     21  C   UNL     1       6.385  -5.129   0.678  1.00  0.00     0.034 C 
ENDBRANCH   7  18
ENDBRANCH   6   7
ENDBRANCH   4   6
ENDBRANCH   3   4
ENDBRANCH   2   3
ENDBRANCH   1   2
BRANCH   1  22
ATOM     22  O   UNL     1       3.980  -7.111  -3.322  1.00  0.00    -0.374 OA
BRANCH  22  23
ATOM     23  C   UNL     1       5.005  -7.026  -2.338  1.00  0.00     0.202 C 
BRANCH  23  24
ATOM     24  C   UNL     1       6.435  -6.814  -2.852  1.00  0.00     0.261 C 
BRANCH  24  25
ATOM     25  O   UNL     1       6.555  -5.635  -3.661  1.00  0.00    -0.460 OA
BRANCH  25  26
ATOM     26  C   UNL     1       6.956  -5.861  -4.932  1.00  0.00     0.338 C 
ATOM     27  O   UNL     1       7.357  -6.923  -5.398  1.00  0.00    -0.246 OA
BRANCH  26  28
ATOM     28  C   UNL     1       6.687  -4.687  -5.780  1.00  0.00     0.060 A 
ATOM     29  C   UNL     1       5.931  -4.903  -6.939  1.00  0.00     0.016 A 
ATOM     30  C   UNL     1       7.229  -3.428  -5.510  1.00  0.00     0.016 A 
ATOM     31  C   UNL     1       5.777  -3.881  -7.872  1.00  0.00     0.010 A 
ATOM     32  C   UNL     1       7.076  -2.403  -6.452  1.00  0.00     0.010 A 
ATOM     33  C   UNL     1       6.390  -2.640  -7.658  1.00  0.00    -0.014 A 
BRANCH  33  34
ATOM     34  C   UNL     1       6.441  -1.662  -8.772  1.00  0.00     0.031 A 
ATOM     35  C   UNL     1       7.685  -1.581  -9.615  1.00  0.00     0.074 A 
ATOM     36  C   UNL     1       5.380  -0.885  -9.054  1.00  0.00     0.049 A 
ATOM     37  N   UNL     1       7.931  -0.834 -10.660  1.00  0.00    -0.248 NA
ATOM     38  C   UNL     1       8.801  -2.464  -9.233  1.00  0.00     0.031 C 
ATOM     39  C   UNL     1       4.120  -0.877  -8.312  1.00  0.00     0.029 A 
ATOM     40  N   UNL     1       5.200   0.059 -10.034  1.00  0.00    -0.354 N 
ATOM     41  C   UNL     1       9.231  -1.138 -11.047  1.00  0.00     0.074 A 
ATOM     42  C   UNL     1       9.729  -2.128 -10.117  1.00  0.00     0.031 C 
ATOM     43  C   UNL     1       3.303   0.045  -8.851  1.00  0.00     0.029 A 
ATOM     44  C   UNL     1       3.986   0.701  -9.964  1.00  0.00     0.049 A 
ATOM     45  H   UNL     1       5.875   0.256 -10.723  1.00  0.00     0.167 HD
ATOM     46  C   UNL     1       9.940  -0.653 -12.093  1.00  0.00     0.034 A 
ATOM     47  C   UNL     1       3.490   1.710 -10.708  1.00  0.00     0.034 A 
ATOM     48  C   UNL     1       9.434   0.315 -13.027  1.00  0.00     0.049 A 
ATOM     49  C   UNL     1       4.305   2.245 -11.857  1.00  0.00     0.074 A 
ATOM     50  C   UNL     1      10.058   0.840 -14.145  1.00  0.00     0.029 A 
ATOM     51  N   UNL     1       8.185   0.912 -12.947  1.00  0.00    -0.354 N 
ATOM     52  N   UNL     1       5.482   1.856 -12.285  1.00  0.00    -0.248 NA
ATOM     53  C   UNL     1       3.710   3.333 -12.649  1.00  0.00     0.031 C 
ATOM     54  C   UNL     1       9.193   1.770 -14.730  1.00  0.00     0.029 A 
ATOM     55  C   UNL     1       8.022   1.807 -13.989  1.00  0.00     0.049 A 
ATOM     56  H   UNL     1       7.514   0.727 -12.251  1.00  0.00     0.167 HD
ATOM     57  C   UNL     1       5.750   2.620 -13.416  1.00  0.00     0.074 A 
ATOM     58  C   UNL     1       4.607   3.486 -13.615  1.00  0.00     0.031 C 
ATOM     59  C   UNL     1       6.849   2.614 -14.210  1.00  0.00     0.034 A 
BRANCH  46  60
ATOM     60  C   UNL     1      11.331  -1.189 -12.306  1.00  0.00     0.023 A 
ATOM     61  C   UNL     1      11.502  -2.491 -12.817  1.00  0.00     0.012 A 
ATOM     62  C   UNL     1      12.463  -0.390 -12.055  1.00  0.00     0.148 A 
ATOM     63  C   UNL     1      12.779  -3.001 -13.049  1.00  0.00     0.002 A 
ATOM     64  C   UNL     1      13.732  -0.890 -12.326  1.00  0.00     0.091 A 
ATOM     65  F   UNL     1      12.280   0.837 -11.547  1.00  0.00    -0.205 F 
ATOM     66  C   UNL     1      13.892  -2.197 -12.814  1.00  0.00     0.022 A 
BRANCH  64  67
ATOM     67  S   UNL     1      15.222   0.092 -12.123  1.00  0.00     0.127 S 
ATOM     68  O   UNL     1      15.815  -0.514 -10.931  1.00  0.00    -0.237 OA
ATOM     69  O   UNL     1      15.944  -0.179 -13.367  1.00  0.00    -0.237 OA
ATOM     70  O   UNL     1      14.776   1.470 -11.970  1.00  0.00    -0.744 OA
ENDBRANCH  64  67
ENDBRANCH  46  60
BRANCH  47  71
ATOM     71  C   UNL     1       2.129   2.246 -10.418  1.00  0.00     0.023 A 
ATOM     72  C   UNL     1       1.080   2.014 -11.328  1.00  0.00     0.012 A 
ATOM     73  C   UNL     1       1.863   2.961  -9.233  1.00  0.00     0.148 A 
ATOM     74  C   UNL     1      -0.202   2.503 -11.076  1.00  0.00     0.002 A 
ATOM     75  C   UNL     1       0.572   3.397  -8.962  1.00  0.00     0.091 A 
ATOM     76  F   UNL     1       2.879   3.192  -8.389  1.00  0.00    -0.205 F 
ATOM     77  C   UNL     1      -0.459   3.184  -9.889  1.00  0.00     0.022 A 
BRANCH  75  78
ATOM     78  S   UNL     1       0.125   4.164  -7.400  1.00  0.00     0.127 S 
ATOM     79  O   UNL     1      -0.062   5.558  -7.793  1.00  0.00    -0.237 OA
ATOM     80  O   UNL     1      -1.105   3.450  -7.054  1.00  0.00    -0.237 OA
ATOM     81  O   UNL     1       1.243   3.899  -6.504  1.00  0.00    -0.744 OA
ENDBRANCH  75  78
ENDBRANCH  47  71
BRANCH  59  82
ATOM     82  C   UNL     1       6.865   3.537 -15.400  1.00  0.00     0.023 A 
ATOM     83  C   UNL     1       7.070   4.918 -15.212  1.00  0.00     0.012 A 
ATOM     84  C   UNL     1       6.780   3.021 -16.709  1.00  0.00     0.148 A 
ATOM     85  C   UNL     1       7.169   5.774 -16.308  1.00  0.00     0.002 A 
ATOM     86  C   UNL     1       6.925   3.873 -17.796  1.00  0.00     0.091 A 
ATOM     87  F   UNL     1       6.567   1.706 -16.864  1.00  0.00    -0.205 F 
ATOM     88  C   UNL     1       7.110   5.251 -17.598  1.00  0.00     0.022 A 
BRANCH  86  89
ATOM     89  S   UNL     1       6.959   3.275 -19.490  1.00  0.00     0.127 S 
ATOM     90  O   UNL     1       5.662   3.727 -19.992  1.00  0.00    -0.237 OA
ATOM     91  O   UNL     1       8.110   3.986 -20.048  1.00  0.00    -0.237 OA
ATOM     92  O   UNL     1       7.126   1.831 -19.402  1.00  0.00    -0.744 OA
ENDBRANCH  86  89
ENDBRANCH  59  82
ENDBRANCH  33  34
ENDBRANCH  26  28
ENDBRANCH  25  26
ENDBRANCH  24  25
ENDBRANCH  23  24
ENDBRANCH  22  23
ENDBRANCH   1  22
TORSDOF 22
