REMARK SMILES CC(C)C[C@H](NC(=O)CNC(=O)[C@@H]([NH3+])C(C)C)C(=O)OCCOCCOC(=O)c1ccc(-c2c3nc(c(-c4cccc(S(=O)(=O)[O-])c4F)c4ccc([nH]4)c(-c4cccc(S(=O)(=O)[O-])c4F)c4nc(c(-c5cccc(S(=O)(=O)[O-])c5F)c5ccc2[nH]5)C=C4)C=C3)cc1
REMARK SMILES IDX 22 1 21 2 20 3 18 4 19 5 5 6 4 7 2 8 1 9 3 10 6 11 7 12 8 14
REMARK SMILES IDX 9 15 10 16 11 17 12 19 13 20 14 21 15 25 16 26 17 27 23 28
REMARK SMILES IDX 24 29 25 30 26 31 27 32 28 33 29 34 30 35 91 36 31 37 90 38
REMARK SMILES IDX 32 39 33 40 34 41 84 42 35 43 89 44 83 45 85 46 36 47 88 48
REMARK SMILES IDX 82 49 81 50 37 52 69 53 49 54 68 55 50 56 53 57 67 58 86 59
REMARK SMILES IDX 51 60 52 61 66 63 87 64 54 65 38 66 39 67 47 68 40 69 42 70
REMARK SMILES IDX 48 71 41 72 43 73 44 74 45 75 46 76 70 77 71 78 79 79 72 80
REMARK SMILES IDX 74 81 80 82 73 83 75 84 76 85 77 86 78 87 55 88 56 89 64 90
REMARK SMILES IDX 57 91 59 92 65 93 58 94 60 95 61 96 62 97 63 98
REMARK H PARENT 6 13 10 18 14 22 14 23 14 24 85 51 53 62
REMARK Flexibility Score: inf
ROOT
ATOM      1  C   UNL     1      -6.317   0.267  -0.366  1.00  0.00     0.202 C 
ENDROOT
BRANCH   1   2
ATOM      2  C   UNL     1      -5.473   1.336   0.343  1.00  0.00     0.261 C 
BRANCH   2   3
ATOM      3  O   UNL     1      -4.171   1.541  -0.221  1.00  0.00    -0.462 OA
BRANCH   3   4
ATOM      4  C   UNL     1      -3.185   0.884   0.432  1.00  0.00     0.328 C 
ATOM      5  O   UNL     1      -3.376   0.081   1.345  1.00  0.00    -0.250 OA
BRANCH   4   6
ATOM      6  C   UNL     1      -1.783   1.155  -0.129  1.00  0.00     0.192 C 
BRANCH   6   7
ATOM      7  C   UNL     1      -0.775   1.131   1.017  1.00  0.00     0.040 C 
BRANCH   7   8
ATOM      8  C   UNL     1      -0.894   2.405   1.828  1.00  0.00    -0.015 C 
ATOM      9  C   UNL     1      -2.039   2.410   2.839  1.00  0.00     0.007 C 
ATOM     10  C   UNL     1       0.483   2.851   2.290  1.00  0.00     0.007 C 
ENDBRANCH   7   8
ENDBRANCH   6   7
BRANCH   6  11
ATOM     11  N   UNL     1      -1.555   2.185  -1.190  1.00  0.00    -0.341 N 
ATOM     12  C   UNL     1      -1.228   3.484  -1.425  1.00  0.00     0.240 C 
ATOM     13  H   UNL     1      -1.698   1.751  -2.062  1.00  0.00     0.164 HD
ATOM     14  O   UNL     1      -1.119   3.700  -2.648  1.00  0.00    -0.273 OA
BRANCH  12  15
ATOM     15  C   UNL     1      -0.854   4.679  -0.441  1.00  0.00     0.216 C 
BRANCH  15  16
ATOM     16  N   UNL     1      -1.889   5.207   0.466  1.00  0.00    -0.342 N 
ATOM     17  C   UNL     1      -2.001   5.827   1.669  1.00  0.00     0.278 C 
ATOM     18  H   UNL     1      -2.782   5.065   0.076  1.00  0.00     0.164 HD
ATOM     19  O   UNL     1      -3.195   6.055   1.959  1.00  0.00    -0.268 OA
BRANCH  17  20
ATOM     20  C   UNL     1      -0.943   6.169   2.811  1.00  0.00     0.273 C 
BRANCH  20  21
ATOM     21  N   UNL     1      -0.930   5.099   3.841  1.00  0.00    -0.347 N 
ATOM     22  H   UNL     1      -0.515   4.254   3.448  1.00  0.00     0.345 HD
ATOM     23  H   UNL     1      -1.885   4.903   4.139  1.00  0.00     0.345 HD
ATOM     24  H   UNL     1      -0.379   5.407   4.643  1.00  0.00     0.345 HD
ENDBRANCH  20  21
BRANCH  20  25
ATOM     25  C   UNL     1       0.454   6.785   2.538  1.00  0.00     0.051 C 
ATOM     26  C   UNL     1       0.350   8.307   2.763  1.00  0.00     0.014 C 
ATOM     27  C   UNL     1       1.593   6.307   3.475  1.00  0.00     0.014 C 
ENDBRANCH  20  25
ENDBRANCH  17  20
ENDBRANCH  15  16
ENDBRANCH  12  15
ENDBRANCH   6  11
ENDBRANCH   4   6
ENDBRANCH   3   4
ENDBRANCH   2   3
ENDBRANCH   1   2
BRANCH   1  28
ATOM     28  O   UNL     1      -5.866  -1.079  -0.425  1.00  0.00    -0.374 OA
BRANCH  28  29
ATOM     29  C   UNL     1      -4.673  -1.420  -1.115  1.00  0.00     0.202 C 
BRANCH  29  30
ATOM     30  C   UNL     1      -4.390  -0.924  -2.543  1.00  0.00     0.261 C 
BRANCH  30  31
ATOM     31  O   UNL     1      -4.572   0.482  -2.766  1.00  0.00    -0.460 OA
BRANCH  31  32
ATOM     32  C   UNL     1      -5.602   0.784  -3.600  1.00  0.00     0.338 C 
ATOM     33  O   UNL     1      -6.360  -0.002  -4.139  1.00  0.00    -0.246 OA
BRANCH  32  34
ATOM     34  C   UNL     1      -5.807   2.241  -3.686  1.00  0.00     0.060 A 
ATOM     35  C   UNL     1      -6.976   2.779  -3.130  1.00  0.00     0.016 A 
ATOM     36  C   UNL     1      -4.962   3.032  -4.464  1.00  0.00     0.016 A 
ATOM     37  C   UNL     1      -7.323   4.105  -3.382  1.00  0.00     0.010 A 
ATOM     38  C   UNL     1      -5.321   4.359  -4.728  1.00  0.00     0.010 A 
ATOM     39  C   UNL     1      -6.519   4.890  -4.217  1.00  0.00    -0.014 A 
BRANCH  39  40
ATOM     40  C   UNL     1      -6.984   6.235  -4.635  1.00  0.00     0.031 A 
ATOM     41  C   UNL     1      -7.624   6.415  -5.985  1.00  0.00     0.074 A 
ATOM     42  C   UNL     1      -6.822   7.289  -3.816  1.00  0.00     0.049 A 
ATOM     43  N   UNL     1      -8.055   7.511  -6.555  1.00  0.00    -0.248 NA
ATOM     44  C   UNL     1      -7.806   5.203  -6.802  1.00  0.00     0.031 C 
ATOM     45  C   UNL     1      -6.220   7.237  -2.485  1.00  0.00     0.029 A 
ATOM     46  N   UNL     1      -7.119   8.616  -4.002  1.00  0.00    -0.354 N 
ATOM     47  C   UNL     1      -8.529   7.130  -7.805  1.00  0.00     0.074 A 
ATOM     48  C   UNL     1      -8.337   5.699  -7.911  1.00  0.00     0.031 C 
ATOM     49  C   UNL     1      -6.148   8.485  -1.991  1.00  0.00     0.029 A 
ATOM     50  C   UNL     1      -6.677   9.422  -2.979  1.00  0.00     0.049 A 
ATOM     51  H   UNL     1      -7.601   8.957  -4.790  1.00  0.00     0.167 HD
ATOM     52  C   UNL     1      -9.083   7.901  -8.769  1.00  0.00     0.034 A 
ATOM     53  C   UNL     1      -6.668  10.765  -2.869  1.00  0.00     0.034 A 
ATOM     54  C   UNL     1      -9.299   9.318  -8.649  1.00  0.00     0.049 A 
ATOM     55  C   UNL     1      -7.266  11.600  -3.973  1.00  0.00     0.074 A 
ATOM     56  C   UNL     1      -9.926  10.170  -9.542  1.00  0.00     0.029 A 
ATOM     57  N   UNL     1      -8.879  10.096  -7.583  1.00  0.00    -0.354 N 
ATOM     58  N   UNL     1      -7.849  11.210  -5.080  1.00  0.00    -0.248 NA
ATOM     59  C   UNL     1      -7.230  13.060  -3.798  1.00  0.00     0.031 C 
ATOM     60  C   UNL     1      -9.859  11.469  -9.028  1.00  0.00     0.029 A 
ATOM     61  C   UNL     1      -9.207  11.423  -7.807  1.00  0.00     0.049 A 
ATOM     62  H   UNL     1      -8.415   9.756  -6.784  1.00  0.00     0.167 HD
ATOM     63  C   UNL     1      -8.266  12.371  -5.723  1.00  0.00     0.074 A 
ATOM     64  C   UNL     1      -7.898  13.478  -4.864  1.00  0.00     0.031 C 
ATOM     65  C   UNL     1      -8.878  12.511  -6.924  1.00  0.00     0.034 A 
BRANCH  52  66
ATOM     66  C   UNL     1      -9.533   7.234 -10.041  1.00  0.00     0.023 A 
ATOM     67  C   UNL     1     -10.733   6.497 -10.051  1.00  0.00     0.012 A 
ATOM     68  C   UNL     1      -8.825   7.424 -11.245  1.00  0.00     0.148 A 
ATOM     69  C   UNL     1     -11.217   5.947 -11.238  1.00  0.00     0.002 A 
ATOM     70  C   UNL     1      -9.332   6.904 -12.430  1.00  0.00     0.091 A 
ATOM     71  F   UNL     1      -7.676   8.114 -11.207  1.00  0.00    -0.205 F 
ATOM     72  C   UNL     1     -10.524   6.161 -12.427  1.00  0.00     0.022 A 
BRANCH  70  73
ATOM     73  S   UNL     1      -8.554   7.182 -14.025  1.00  0.00     0.127 S 
ATOM     74  O   UNL     1      -8.084   5.839 -14.361  1.00  0.00    -0.237 OA
ATOM     75  O   UNL     1      -9.676   7.656 -14.835  1.00  0.00    -0.237 OA
ATOM     76  O   UNL     1      -7.507   8.168 -13.797  1.00  0.00    -0.744 OA
ENDBRANCH  70  73
ENDBRANCH  52  66
BRANCH  53  77
ATOM     77  C   UNL     1      -6.079  11.409  -1.662  1.00  0.00     0.023 A 
ATOM     78  C   UNL     1      -6.917  12.081  -0.752  1.00  0.00     0.012 A 
ATOM     79  C   UNL     1      -4.693  11.356  -1.409  1.00  0.00     0.148 A 
ATOM     80  C   UNL     1      -6.382  12.715   0.370  1.00  0.00     0.002 A 
ATOM     81  C   UNL     1      -4.174  11.944  -0.261  1.00  0.00     0.091 A 
ATOM     82  F   UNL     1      -3.905  10.737  -2.300  1.00  0.00    -0.205 F 
ATOM     83  C   UNL     1      -5.014  12.638   0.622  1.00  0.00     0.022 A 
BRANCH  81  84
ATOM     84  S   UNL     1      -2.441  11.780   0.185  1.00  0.00     0.127 S 
ATOM     85  O   UNL     1      -1.894  13.058  -0.262  1.00  0.00    -0.237 OA
ATOM     86  O   UNL     1      -2.504  11.614   1.638  1.00  0.00    -0.237 OA
ATOM     87  O   UNL     1      -1.969  10.598  -0.525  1.00  0.00    -0.744 OA
ENDBRANCH  81  84
ENDBRANCH  53  77
BRANCH  65  88
ATOM     88  C   UNL     1      -9.198  13.909  -7.389  1.00  0.00     0.023 A 
ATOM     89  C   UNL     1      -8.156  14.744  -7.837  1.00  0.00     0.012 A 
ATOM     90  C   UNL     1     -10.529  14.367  -7.457  1.00  0.00     0.148 A 
ATOM     91  C   UNL     1      -8.429  16.024  -8.317  1.00  0.00     0.002 A 
ATOM     92  C   UNL     1     -10.798  15.627  -7.979  1.00  0.00     0.091 A 
ATOM     93  F   UNL     1     -11.506  13.563  -7.012  1.00  0.00    -0.205 F 
ATOM     94  C   UNL     1      -9.749  16.461  -8.399  1.00  0.00     0.022 A 
BRANCH  92  95
ATOM     95  S   UNL     1     -12.472  16.239  -8.208  1.00  0.00     0.127 S 
ATOM     96  O   UNL     1     -12.572  17.239  -7.146  1.00  0.00    -0.237 OA
ATOM     97  O   UNL     1     -12.420  16.791  -9.562  1.00  0.00    -0.237 OA
ATOM     98  O   UNL     1     -13.345  15.082  -8.062  1.00  0.00    -0.744 OA
ENDBRANCH  92  95
ENDBRANCH  65  88
ENDBRANCH  39  40
ENDBRANCH  32  34
ENDBRANCH  31  32
ENDBRANCH  30  31
ENDBRANCH  29  30
ENDBRANCH  28  29
ENDBRANCH   1  28
TORSDOF 25
