REMARK SMILES C[C@@H]1[C@@H](C(=O)OCCOCCOC(=O)c2ccc(-c3c4nc(c(-c5cccc(S(=O)(=O)[O-])c5F)c5ccc([nH]5)c(-c5cccc(S(=O)(=O)[O-])c5F)c5nc(c(-c6cccc(S(=O)(=O)[O-])c6F)c6ccc3[nH]6)C=C5)C=C4)cc2)CCN1C(=O)Nc1nccs1
REMARK SMILES IDX 10 1 9 2 8 3 7 4 6 5 4 6 5 7 3 8 1 9 2 10 80 11 78 12 79 13
REMARK SMILES IDX 81 14 82 15 83 16 84 18 85 19 88 20 86 21 87 22 11 23 12 24
REMARK SMILES IDX 13 25 14 26 15 27 16 28 77 29 17 30 76 31 18 32 19 33 20 34
REMARK SMILES IDX 70 35 21 36 75 37 69 38 71 39 22 40 74 41 68 42 67 43 23 45
REMARK SMILES IDX 55 46 35 47 54 48 36 49 39 50 53 51 72 52 37 53 38 54 52 56
REMARK SMILES IDX 73 57 40 58 24 59 25 60 33 61 26 62 28 63 34 64 27 65 29 66
REMARK SMILES IDX 30 67 31 68 32 69 56 70 57 71 65 72 58 73 60 74 66 75 59 76
REMARK SMILES IDX 61 77 62 78 63 79 64 80 41 81 42 82 50 83 43 84 45 85 51 86
REMARK SMILES IDX 44 87 46 88 47 89 48 90 49 91
REMARK H PARENT 83 17 71 44 39 55
REMARK Flexibility Score: inf
ROOT
ATOM      1  C   UNL     1       0.620   2.845  -3.319  1.00  0.00     0.202 C 
ENDROOT
BRANCH   1   2
ATOM      2  O   UNL     1      -0.073   2.341  -4.461  1.00  0.00    -0.374 OA
BRANCH   2   3
ATOM      3  C   UNL     1      -1.499   2.387  -4.455  1.00  0.00     0.202 C 
BRANCH   3   4
ATOM      4  C   UNL     1      -2.234   1.325  -3.632  1.00  0.00     0.261 C 
BRANCH   4   5
ATOM      5  O   UNL     1      -1.914   1.416  -2.236  1.00  0.00    -0.463 OA
BRANCH   5   6
ATOM      6  C   UNL     1      -1.105   0.422  -1.777  1.00  0.00     0.311 C 
ATOM      7  O   UNL     1      -0.732  -0.533  -2.448  1.00  0.00    -0.252 OA
BRANCH   6   8
ATOM      8  C   UNL     1      -0.651   0.719  -0.354  1.00  0.00     0.123 C 
ATOM      9  C   UNL     1       1.424   0.455   1.096  1.00  0.00     0.032 C 
ATOM     10  C   UNL     1       0.601  -0.115  -0.063  1.00  0.00     0.098 C 
ATOM     11  N   UNL     1       0.051  -1.427   0.285  1.00  0.00    -0.321 N 
ATOM     12  C   UNL     1      -1.649   0.214   0.677  1.00  0.00     0.039 C 
ATOM     13  C   UNL     1      -1.315  -1.272   0.791  1.00  0.00     0.122 C 
BRANCH  11  14
ATOM     14  C   UNL     1       0.419  -2.672  -0.149  1.00  0.00     0.323 C 
ATOM     15  O   UNL     1      -0.279  -3.660   0.119  1.00  0.00    -0.248 OA
ATOM     16  N   UNL     1       1.431  -2.893  -1.012  1.00  0.00    -0.283 N 
ATOM     17  H   UNL     1       1.321  -3.708  -1.552  1.00  0.00     0.174 HD
BRANCH  16  18
ATOM     18  C   UNL     1       2.573  -2.208  -1.280  1.00  0.00     0.190 A 
ATOM     19  N   UNL     1       3.191  -1.279  -0.596  1.00  0.00    -0.228 NA
ATOM     20  S   UNL     1       3.324  -2.685  -2.743  1.00  0.00    -0.105 S 
ATOM     21  C   UNL     1       4.281  -0.827  -1.313  1.00  0.00     0.125 A 
ATOM     22  C   UNL     1       4.494  -1.449  -2.524  1.00  0.00     0.088 A 
ENDBRANCH  16  18
ENDBRANCH  11  14
ENDBRANCH   6   8
ENDBRANCH   5   6
ENDBRANCH   4   5
ENDBRANCH   3   4
ENDBRANCH   2   3
ENDBRANCH   1   2
BRANCH   1  23
ATOM     23  C   UNL     1       0.634   4.365  -3.111  1.00  0.00     0.261 C 
BRANCH  23  24
ATOM     24  O   UNL     1      -0.668   4.890  -2.800  1.00  0.00    -0.460 OA
BRANCH  24  25
ATOM     25  C   UNL     1      -1.196   5.698  -3.750  1.00  0.00     0.338 C 
ATOM     26  O   UNL     1      -0.656   6.067  -4.786  1.00  0.00    -0.246 OA
BRANCH  25  27
ATOM     27  C   UNL     1      -2.624   5.937  -3.479  1.00  0.00     0.060 A 
ATOM     28  C   UNL     1      -3.538   5.621  -4.494  1.00  0.00     0.016 A 
ATOM     29  C   UNL     1      -3.058   6.530  -2.292  1.00  0.00     0.016 A 
ATOM     30  C   UNL     1      -4.884   5.945  -4.347  1.00  0.00     0.010 A 
ATOM     31  C   UNL     1      -4.409   6.865  -2.151  1.00  0.00     0.010 A 
ATOM     32  C   UNL     1      -5.319   6.609  -3.193  1.00  0.00    -0.014 A 
BRANCH  32  33
ATOM     33  C   UNL     1      -6.693   7.163  -3.146  1.00  0.00     0.031 A 
ATOM     34  C   UNL     1      -6.898   8.627  -3.429  1.00  0.00     0.074 A 
ATOM     35  C   UNL     1      -7.743   6.373  -2.864  1.00  0.00     0.049 A 
ATOM     36  N   UNL     1      -8.006   9.321  -3.431  1.00  0.00    -0.248 NA
ATOM     37  C   UNL     1      -5.695   9.412  -3.751  1.00  0.00     0.031 C 
ATOM     38  C   UNL     1      -7.670   4.942  -2.576  1.00  0.00     0.029 A 
ATOM     39  N   UNL     1      -9.078   6.672  -2.753  1.00  0.00    -0.354 N 
ATOM     40  C   UNL     1      -7.633  10.627  -3.727  1.00  0.00     0.074 A 
ATOM     41  C   UNL     1      -6.195  10.632  -3.886  1.00  0.00     0.031 C 
ATOM     42  C   UNL     1      -8.904   4.491  -2.292  1.00  0.00     0.029 A 
ATOM     43  C   UNL     1      -9.849   5.605  -2.359  1.00  0.00     0.049 A 
ATOM     44  H   UNL     1      -9.448   7.566  -2.937  1.00  0.00     0.167 HD
ATOM     45  C   UNL     1      -8.419  11.720  -3.872  1.00  0.00     0.034 A 
ATOM     46  C   UNL     1     -11.163   5.540  -2.067  1.00  0.00     0.034 A 
ATOM     47  C   UNL     1      -9.850  11.709  -3.736  1.00  0.00     0.049 A 
ATOM     48  C   UNL     1     -12.012   6.776  -2.217  1.00  0.00     0.074 A 
ATOM     49  C   UNL     1     -10.739  12.755  -3.911  1.00  0.00     0.029 A 
ATOM     50  N   UNL     1     -10.601  10.600  -3.380  1.00  0.00    -0.354 N 
ATOM     51  N   UNL     1     -11.664   7.974  -2.620  1.00  0.00    -0.248 NA
ATOM     52  C   UNL     1     -13.443   6.642  -1.906  1.00  0.00     0.031 C 
ATOM     53  C   UNL     1     -12.027  12.283  -3.639  1.00  0.00     0.029 A 
ATOM     54  C   UNL     1     -11.943  10.937  -3.318  1.00  0.00     0.049 A 
ATOM     55  H   UNL     1     -10.235   9.705  -3.198  1.00  0.00     0.167 HD
ATOM     56  C   UNL     1     -12.834   8.725  -2.645  1.00  0.00     0.074 A 
ATOM     57  C   UNL     1     -13.906   7.840  -2.236  1.00  0.00     0.031 C 
ATOM     58  C   UNL     1     -13.006  10.032  -2.964  1.00  0.00     0.034 A 
BRANCH  45  59
ATOM     59  C   UNL     1      -7.747  13.021  -4.225  1.00  0.00     0.023 A 
ATOM     60  C   UNL     1      -7.254  13.216  -5.531  1.00  0.00     0.012 A 
ATOM     61  C   UNL     1      -7.654  14.066  -3.286  1.00  0.00     0.148 A 
ATOM     62  C   UNL     1      -6.652  14.422  -5.889  1.00  0.00     0.002 A 
ATOM     63  C   UNL     1      -7.091  15.280  -3.662  1.00  0.00     0.091 A 
ATOM     64  F   UNL     1      -8.107  13.851  -2.042  1.00  0.00    -0.205 F 
ATOM     65  C   UNL     1      -6.581  15.456  -4.959  1.00  0.00     0.022 A 
BRANCH  63  66
ATOM     66  S   UNL     1      -7.018  16.695  -2.559  1.00  0.00     0.127 S 
ATOM     67  O   UNL     1      -5.591  16.752  -2.246  1.00  0.00    -0.237 OA
ATOM     68  O   UNL     1      -7.498  17.780  -3.416  1.00  0.00    -0.237 OA
ATOM     69  O   UNL     1      -7.893  16.376  -1.439  1.00  0.00    -0.744 OA
ENDBRANCH  63  66
ENDBRANCH  45  59
BRANCH  46  70
ATOM     70  C   UNL     1     -11.767   4.247  -1.639  1.00  0.00     0.023 A 
ATOM     71  C   UNL     1     -12.663   3.579  -2.497  1.00  0.00     0.012 A 
ATOM     72  C   UNL     1     -11.445   3.667  -0.397  1.00  0.00     0.148 A 
ATOM     73  C   UNL     1     -13.249   2.373  -2.113  1.00  0.00     0.002 A 
ATOM     74  C   UNL     1     -11.990   2.438  -0.043  1.00  0.00     0.091 A 
ATOM     75  F   UNL     1     -10.606   4.328   0.414  1.00  0.00    -0.205 F 
ATOM     76  C   UNL     1     -12.905   1.797  -0.892  1.00  0.00     0.022 A 
BRANCH  74  77
ATOM     77  S   UNL     1     -11.502   1.566   1.449  1.00  0.00     0.127 S 
ATOM     78  O   UNL     1     -12.691   1.713   2.284  1.00  0.00    -0.237 OA
ATOM     79  O   UNL     1     -11.266   0.213   0.945  1.00  0.00    -0.237 OA
ATOM     80  O   UNL     1     -10.304   2.244   1.925  1.00  0.00    -0.744 OA
ENDBRANCH  74  77
ENDBRANCH  46  70
BRANCH  58  81
ATOM     81  C   UNL     1     -14.406  10.587  -2.921  1.00  0.00     0.023 A 
ATOM     82  C   UNL     1     -15.027  10.824  -1.679  1.00  0.00     0.012 A 
ATOM     83  C   UNL     1     -15.074  10.948  -4.108  1.00  0.00     0.148 A 
ATOM     84  C   UNL     1     -16.304  11.382  -1.620  1.00  0.00     0.002 A 
ATOM     85  C   UNL     1     -16.326  11.548  -4.040  1.00  0.00     0.091 A 
ATOM     86  F   UNL     1     -14.474  10.698  -5.281  1.00  0.00    -0.205 F 
ATOM     87  C   UNL     1     -16.947  11.755  -2.798  1.00  0.00     0.022 A 
BRANCH  85  88
ATOM     88  S   UNL     1     -17.185  12.148  -5.500  1.00  0.00     0.127 S 
ATOM     89  O   UNL     1     -18.237  11.146  -5.659  1.00  0.00    -0.237 OA
ATOM     90  O   UNL     1     -17.657  13.463  -5.066  1.00  0.00    -0.237 OA
ATOM     91  O   UNL     1     -16.189  12.186  -6.562  1.00  0.00    -0.744 OA
ENDBRANCH  85  88
ENDBRANCH  58  81
ENDBRANCH  32  33
ENDBRANCH  25  27
ENDBRANCH  24  25
ENDBRANCH  23  24
ENDBRANCH   1  23
TORSDOF 19
