REMARK SMILES O=C(OCCOCCOC(=O)c1ccc(-n2cc(CSc3nc4ccccc4c(=O)n3-c3ccccc3)nn2)cc1)c1ccc(-c2c3nc(c(-c4cccc(S(=O)(=O)[O-])c4F)c4ccc([nH]4)c(-c4cccc(S(=O)(=O)[O-])c4F)c4nc(c(-c5cccc(S(=O)(=O)[O-])c5F)c5ccc2[nH]5)C=C4)C=C3)cc1
REMARK SMILES IDX 7 1 6 2 5 3 4 4 3 5 2 6 1 7 42 8 43 9 104 10 44 11 103 12
REMARK SMILES IDX 45 13 46 14 47 15 97 16 48 17 102 18 96 19 98 20 49 21
REMARK SMILES IDX 101 22 95 23 94 24 50 26 82 27 62 28 81 29 63 30 66 31 80 32
REMARK SMILES IDX 99 33 64 34 65 35 79 37 100 38 67 39 51 40 52 41 60 42 53 43
REMARK SMILES IDX 55 44 61 45 54 46 56 47 57 48 58 49 59 50 83 51 84 52 92 53
REMARK SMILES IDX 85 54 87 55 93 56 86 57 88 58 89 59 90 60 91 61 68 62 69 63
REMARK SMILES IDX 77 64 70 65 72 66 78 67 71 68 73 69 74 70 75 71 76 72 8 73
REMARK SMILES IDX 9 74 10 75 11 76 12 77 13 78 41 79 14 80 40 81 15 82 16 83
REMARK SMILES IDX 17 84 39 85 18 86 38 87 19 88 20 89 21 90 22 91 31 92 23 93
REMARK SMILES IDX 29 94 24 95 28 96 30 97 25 98 27 99 26 100 32 101 33 102
REMARK SMILES IDX 37 103 34 104 36 105 35 106
REMARK H PARENT 98 25 66 36
REMARK Flexibility Score: inf
ROOT
ATOM      1  C   UNL     1       3.002  -1.579  -1.467  1.00  0.00     0.202 C 
ENDROOT
BRANCH   1   2
ATOM      2  O   UNL     1       4.186  -0.806  -1.226  1.00  0.00    -0.374 OA
BRANCH   2   3
ATOM      3  C   UNL     1       4.760  -0.886   0.072  1.00  0.00     0.202 C 
BRANCH   3   4
ATOM      4  C   UNL     1       4.426   0.189   1.102  1.00  0.00     0.261 C 
BRANCH   4   5
ATOM      5  O   UNL     1       3.039   0.202   1.478  1.00  0.00    -0.460 OA
BRANCH   5   6
ATOM      6  C   UNL     1       2.000   0.522   0.675  1.00  0.00     0.338 C 
ATOM      7  O   UNL     1       0.954  -0.120   0.754  1.00  0.00    -0.246 OA
BRANCH   6   8
ATOM      8  C   UNL     1       2.020   1.786  -0.101  1.00  0.00     0.060 A 
ATOM      9  C   UNL     1       3.165   2.487  -0.472  1.00  0.00     0.016 A 
ATOM     10  C   UNL     1       0.759   2.351  -0.356  1.00  0.00     0.016 A 
ATOM     11  C   UNL     1       3.070   3.826  -0.791  1.00  0.00     0.010 A 
ATOM     12  C   UNL     1       0.652   3.669  -0.756  1.00  0.00     0.010 A 
ATOM     13  C   UNL     1       1.811   4.421  -0.867  1.00  0.00    -0.014 A 
BRANCH  13  14
ATOM     14  C   UNL     1       1.764   5.820  -1.240  1.00  0.00     0.031 A 
ATOM     15  C   UNL     1       2.320   6.058  -2.594  1.00  0.00     0.074 A 
ATOM     16  C   UNL     1       1.229   6.771  -0.453  1.00  0.00     0.049 A 
ATOM     17  N   UNL     1       3.448   6.615  -2.883  1.00  0.00    -0.248 NA
ATOM     18  C   UNL     1       1.665   5.402  -3.736  1.00  0.00     0.031 C 
ATOM     19  C   UNL     1       0.437   6.594   0.767  1.00  0.00     0.029 A 
ATOM     20  N   UNL     1       1.174   8.115  -0.656  1.00  0.00    -0.354 N 
ATOM     21  C   UNL     1       3.511   6.616  -4.273  1.00  0.00     0.074 A 
ATOM     22  C   UNL     1       2.525   5.669  -4.720  1.00  0.00     0.031 C 
ATOM     23  C   UNL     1      -0.233   7.740   1.028  1.00  0.00     0.029 A 
ATOM     24  C   UNL     1       0.188   8.760   0.084  1.00  0.00     0.049 A 
ATOM     25  H   UNL     1       1.778   8.588  -1.273  1.00  0.00     0.167 HD
ATOM     26  C   UNL     1       4.165   7.608  -4.935  1.00  0.00     0.034 A 
ATOM     27  C   UNL     1      -0.295  10.010  -0.135  1.00  0.00     0.034 A 
ATOM     28  C   UNL     1       5.040   8.332  -4.045  1.00  0.00     0.049 A 
ATOM     29  C   UNL     1       0.712  10.734  -0.947  1.00  0.00     0.074 A 
ATOM     30  C   UNL     1       6.115   8.002  -3.245  1.00  0.00     0.029 A 
ATOM     31  N   UNL     1       4.577   9.542  -3.587  1.00  0.00    -0.354 N 
ATOM     32  N   UNL     1       1.889  11.063  -0.497  1.00  0.00    -0.248 NA
ATOM     33  C   UNL     1       0.585  10.678  -2.395  1.00  0.00     0.031 C 
ATOM     34  C   UNL     1       5.951   8.790  -2.069  1.00  0.00     0.029 A 
ATOM     35  C   UNL     1       4.839   9.615  -2.248  1.00  0.00     0.049 A 
ATOM     36  H   UNL     1       4.136  10.236  -4.129  1.00  0.00     0.167 HD
ATOM     37  C   UNL     1       2.745  10.774  -1.551  1.00  0.00     0.074 A 
ATOM     38  C   UNL     1       1.879  10.645  -2.723  1.00  0.00     0.031 C 
ATOM     39  C   UNL     1       4.027  10.366  -1.318  1.00  0.00     0.034 A 
BRANCH  26  40
ATOM     40  C   UNL     1       3.714   8.214  -6.247  1.00  0.00     0.023 A 
ATOM     41  C   UNL     1       4.554   9.200  -6.814  1.00  0.00     0.012 A 
ATOM     42  C   UNL     1       2.409   8.103  -6.782  1.00  0.00     0.148 A 
ATOM     43  C   UNL     1       4.094  10.080  -7.799  1.00  0.00     0.002 A 
ATOM     44  C   UNL     1       1.980   8.931  -7.812  1.00  0.00     0.091 A 
ATOM     45  F   UNL     1       1.518   7.283  -6.224  1.00  0.00    -0.205 F 
ATOM     46  C   UNL     1       2.806   9.945  -8.299  1.00  0.00     0.022 A 
BRANCH  44  47
ATOM     47  S   UNL     1       0.337   8.780  -8.528  1.00  0.00     0.127 S 
ATOM     48  O   UNL     1      -0.286  10.028  -8.095  1.00  0.00    -0.237 OA
ATOM     49  O   UNL     1       0.646   8.702  -9.956  1.00  0.00    -0.237 OA
ATOM     50  O   UNL     1      -0.231   7.560  -7.971  1.00  0.00    -0.744 OA
ENDBRANCH  44  47
ENDBRANCH  26  40
BRANCH  27  51
ATOM     51  C   UNL     1      -1.668  10.545   0.042  1.00  0.00     0.023 A 
ATOM     52  C   UNL     1      -1.877  11.940   0.065  1.00  0.00     0.012 A 
ATOM     53  C   UNL     1      -2.796   9.709  -0.115  1.00  0.00     0.148 A 
ATOM     54  C   UNL     1      -3.157  12.484  -0.101  1.00  0.00     0.002 A 
ATOM     55  C   UNL     1      -4.067  10.254  -0.276  1.00  0.00     0.091 A 
ATOM     56  F   UNL     1      -2.611   8.386  -0.205  1.00  0.00    -0.205 F 
ATOM     57  C   UNL     1      -4.250  11.642  -0.282  1.00  0.00     0.022 A 
BRANCH  55  58
ATOM     58  S   UNL     1      -5.519   9.230  -0.555  1.00  0.00     0.127 S 
ATOM     59  O   UNL     1      -6.460   9.767   0.428  1.00  0.00    -0.237 OA
ATOM     60  O   UNL     1      -5.842   9.538  -1.946  1.00  0.00    -0.237 OA
ATOM     61  O   UNL     1      -5.096   7.860  -0.295  1.00  0.00    -0.744 OA
ENDBRANCH  55  58
ENDBRANCH  27  51
BRANCH  39  62
ATOM     62  C   UNL     1       4.575  10.509   0.077  1.00  0.00     0.023 A 
ATOM     63  C   UNL     1       4.053   9.812   1.187  1.00  0.00     0.012 A 
ATOM     64  C   UNL     1       5.761  11.245   0.231  1.00  0.00     0.148 A 
ATOM     65  C   UNL     1       4.695   9.867   2.428  1.00  0.00     0.002 A 
ATOM     66  C   UNL     1       6.421  11.256   1.451  1.00  0.00     0.091 A 
ATOM     67  F   UNL     1       6.241  11.902  -0.836  1.00  0.00    -0.205 F 
ATOM     68  C   UNL     1       5.887  10.577   2.557  1.00  0.00     0.022 A 
BRANCH  66  69
ATOM     69  S   UNL     1       8.021  12.046   1.631  1.00  0.00     0.127 S 
ATOM     70  O   UNL     1       7.677  13.269   2.351  1.00  0.00    -0.237 OA
ATOM     71  O   UNL     1       8.771  11.062   2.414  1.00  0.00    -0.237 OA
ATOM     72  O   UNL     1       8.528  12.235   0.277  1.00  0.00    -0.744 OA
ENDBRANCH  66  69
ENDBRANCH  39  62
ENDBRANCH  13  14
ENDBRANCH   6   8
ENDBRANCH   5   6
ENDBRANCH   4   5
ENDBRANCH   3   4
ENDBRANCH   2   3
ENDBRANCH   1   2
BRANCH   1  73
ATOM     73  C   UNL     1       3.079  -3.117  -1.463  1.00  0.00     0.261 C 
BRANCH  73  74
ATOM     74  O   UNL     1       3.423  -3.663  -0.175  1.00  0.00    -0.460 OA
BRANCH  74  75
ATOM     75  C   UNL     1       4.686  -4.135  -0.063  1.00  0.00     0.338 C 
ATOM     76  O   UNL     1       5.506  -4.287  -0.960  1.00  0.00    -0.246 OA
BRANCH  75  77
ATOM     77  C   UNL     1       5.041  -4.239   1.365  1.00  0.00     0.060 A 
ATOM     78  C   UNL     1       6.101  -3.447   1.841  1.00  0.00     0.018 A 
ATOM     79  C   UNL     1       4.377  -5.122   2.215  1.00  0.00     0.018 A 
ATOM     80  C   UNL     1       6.501  -3.516   3.172  1.00  0.00     0.029 A 
ATOM     81  C   UNL     1       4.843  -5.273   3.523  1.00  0.00     0.029 A 
ATOM     82  C   UNL     1       5.906  -4.473   3.989  1.00  0.00     0.066 A 
BRANCH  82  83
ATOM     83  N   UNL     1       6.590  -4.840   5.160  1.00  0.00    -0.220 N 
ATOM     84  C   UNL     1       7.101  -6.091   5.364  1.00  0.00     0.141 A 
ATOM     85  N   UNL     1       7.073  -3.998   6.093  1.00  0.00    -0.062 NA
ATOM     86  C   UNL     1       7.886  -6.004   6.486  1.00  0.00     0.093 A 
ATOM     87  N   UNL     1       7.792  -4.715   6.957  1.00  0.00    -0.134 NA
BRANCH  86  88
ATOM     88  C   UNL     1       8.503  -7.095   7.272  1.00  0.00     0.138 C 
BRANCH  88  89
ATOM     89  S   UNL     1      10.130  -7.781   6.970  1.00  0.00    -0.081 SA
BRANCH  89  90
ATOM     90  C   UNL     1      10.741  -7.559   5.352  1.00  0.00     0.176 A 
ATOM     91  N   UNL     1      12.037  -7.414   5.341  1.00  0.00    -0.223 NA
ATOM     92  N   UNL     1      10.007  -7.540   4.178  1.00  0.00    -0.255 N 
ATOM     93  C   UNL     1      12.663  -7.088   4.131  1.00  0.00     0.079 A 
ATOM     94  C   UNL     1      10.468  -6.609   3.238  1.00  0.00     0.266 A 
ATOM     95  C   UNL     1      14.041  -7.229   3.965  1.00  0.00     0.029 A 
ATOM     96  C   UNL     1      11.928  -6.502   3.112  1.00  0.00     0.066 A 
ATOM     97  O   UNL     1       9.767  -5.889   2.529  1.00  0.00    -0.268 OA
ATOM     98  C   UNL     1      14.670  -6.719   2.821  1.00  0.00     0.002 A 
ATOM     99  C   UNL     1      12.543  -5.934   1.993  1.00  0.00     0.016 A 
ATOM    100  C   UNL     1      13.926  -6.035   1.856  1.00  0.00     0.001 A 
BRANCH  92 101
ATOM    101  C   UNL     1       8.849  -8.341   3.840  1.00  0.00     0.051 A 
ATOM    102  C   UNL     1       8.341  -8.321   2.523  1.00  0.00     0.027 A 
ATOM    103  C   UNL     1       8.162  -9.163   4.739  1.00  0.00     0.027 A 
ATOM    104  C   UNL     1       7.097  -8.866   2.195  1.00  0.00     0.002 A 
ATOM    105  C   UNL     1       6.877  -9.647   4.443  1.00  0.00     0.002 A 
ATOM    106  C   UNL     1       6.329  -9.463   3.180  1.00  0.00     0.000 A 
ENDBRANCH  92 101
ENDBRANCH  89  90
ENDBRANCH  88  89
ENDBRANCH  86  88
ENDBRANCH  82  83
ENDBRANCH  75  77
ENDBRANCH  74  75
ENDBRANCH  73  74
ENDBRANCH   1  73
TORSDOF 22
