REMARK SMILES C[C@H](C(=O)OCCOCCOC(=O)c1ccc(-c2c3nc(c(-c4cccc(S(=O)(=O)[O-])c4F)c4ccc([nH]4)c(-c4cccc(S(=O)(=O)[O-])c4F)c4nc(c(-c5cccc(S(=O)(=O)[O-])c5F)c5ccc2[nH]5)C=C4)C=C3)cc1)c1ccc2c3cc(Cl)ccc3n(C(=O)c3ccc(Cl)cc3)c2c1
REMARK SMILES IDX 8 1 7 2 6 3 5 4 3 5 4 6 2 7 1 8 77 9 78 10 99 11 79 12 98 13
REMARK SMILES IDX 80 14 88 15 81 16 87 17 82 18 86 19 83 20 85 21 84 22 89 23
REMARK SMILES IDX 90 24 91 25 92 26 97 27 93 28 96 29 94 30 95 31 9 32 10 33
REMARK SMILES IDX 11 34 12 35 13 36 14 37 15 38 76 39 16 40 75 41 17 42 18 43
REMARK SMILES IDX 19 44 69 45 20 46 74 47 68 48 70 49 21 50 73 51 67 52 66 53
REMARK SMILES IDX 22 55 54 56 34 57 53 58 35 59 38 60 52 61 71 62 36 63 37 64
REMARK SMILES IDX 51 66 72 67 39 68 23 69 24 70 32 71 25 72 27 73 33 74 26 75
REMARK SMILES IDX 28 76 29 77 30 78 31 79 55 80 56 81 64 82 57 83 59 84 65 85
REMARK SMILES IDX 58 86 60 87 61 88 62 89 63 90 40 91 41 92 49 93 42 94 44 95
REMARK SMILES IDX 50 96 43 97 45 98 46 99 47 100 48 101
REMARK H PARENT 70 54 38 65
REMARK Flexibility Score: inf
ROOT
ATOM      1  O   UNL     1       1.304   1.761  -2.233  1.00  0.00    -0.374 OA
ENDROOT
BRANCH   1   2
ATOM      2  C   UNL     1       1.382   0.429  -2.737  1.00  0.00     0.202 C 
BRANCH   2   3
ATOM      3  C   UNL     1       1.845  -0.677  -1.779  1.00  0.00     0.261 C 
BRANCH   3   4
ATOM      4  O   UNL     1       1.091  -0.743  -0.556  1.00  0.00    -0.463 OA
BRANCH   4   5
ATOM      5  C   UNL     1       1.756  -0.341   0.563  1.00  0.00     0.313 C 
ATOM      6  O   UNL     1       2.933   0.010   0.572  1.00  0.00    -0.252 OA
BRANCH   5   7
ATOM      7  C   UNL     1       0.915  -0.415   1.837  1.00  0.00     0.126 C 
ATOM      8  C   UNL     1       1.451   0.605   2.853  1.00  0.00     0.025 C 
BRANCH   7   9
ATOM      9  C   UNL     1      -0.600  -0.293   1.669  1.00  0.00    -0.032 A 
ATOM     10  C   UNL     1      -1.259   0.932   1.526  1.00  0.00     0.005 A 
ATOM     11  C   UNL     1      -1.372  -1.463   1.710  1.00  0.00     0.032 A 
ATOM     12  C   UNL     1      -2.648   1.000   1.344  1.00  0.00     0.011 A 
ATOM     13  C   UNL     1      -2.781  -1.381   1.663  1.00  0.00     0.057 A 
ATOM     14  C   UNL     1      -3.421  -0.176   1.409  1.00  0.00     0.008 A 
ATOM     15  N   UNL     1      -3.758  -2.371   1.860  1.00  0.00    -0.276 N 
ATOM     16  C   UNL     1      -4.811  -0.449   1.295  1.00  0.00     0.009 A 
ATOM     17  C   UNL     1      -5.019  -1.786   1.668  1.00  0.00     0.057 A 
ATOM     18  C   UNL     1      -5.917   0.373   0.979  1.00  0.00     0.031 A 
ATOM     19  C   UNL     1      -6.331  -2.261   1.874  1.00  0.00     0.029 A 
ATOM     20  C   UNL     1      -7.207  -0.134   1.105  1.00  0.00     0.041 A 
ATOM     21  C   UNL     1      -7.414  -1.424   1.571  1.00  0.00     0.023 A 
ATOM     22  Cl  UNL     1      -8.553   0.874   0.734  1.00  0.00    -0.084 Cl
BRANCH  15  23
ATOM     23  C   UNL     1      -3.428  -3.672   2.323  1.00  0.00     0.262 C 
ATOM     24  O   UNL     1      -2.431  -3.730   3.049  1.00  0.00    -0.268 OA
BRANCH  23  25
ATOM     25  C   UNL     1      -4.101  -4.977   2.060  1.00  0.00     0.040 A 
ATOM     26  C   UNL     1      -3.610  -6.093   2.770  1.00  0.00     0.015 A 
ATOM     27  C   UNL     1      -5.091  -5.186   1.096  1.00  0.00     0.015 A 
ATOM     28  C   UNL     1      -4.120  -7.374   2.559  1.00  0.00     0.021 A 
ATOM     29  C   UNL     1      -5.633  -6.469   0.912  1.00  0.00     0.021 A 
ATOM     30  C   UNL     1      -5.147  -7.554   1.643  1.00  0.00     0.041 A 
ATOM     31  Cl  UNL     1      -5.812  -9.122   1.410  1.00  0.00    -0.084 Cl
ENDBRANCH  23  25
ENDBRANCH  15  23
ENDBRANCH   7   9
ENDBRANCH   5   7
ENDBRANCH   4   5
ENDBRANCH   3   4
ENDBRANCH   2   3
ENDBRANCH   1   2
BRANCH   1  32
ATOM     32  C   UNL     1       0.215   2.057  -1.361  1.00  0.00     0.202 C 
BRANCH  32  33
ATOM     33  C   UNL     1      -1.187   2.132  -1.977  1.00  0.00     0.261 C 
BRANCH  33  34
ATOM     34  O   UNL     1      -1.637   0.859  -2.471  1.00  0.00    -0.460 OA
BRANCH  34  35
ATOM     35  C   UNL     1      -1.927   0.842  -3.792  1.00  0.00     0.338 C 
ATOM     36  O   UNL     1      -1.951   1.803  -4.553  1.00  0.00    -0.246 OA
BRANCH  35  37
ATOM     37  C   UNL     1      -2.038  -0.540  -4.285  1.00  0.00     0.060 A 
ATOM     38  C   UNL     1      -1.193  -0.909  -5.340  1.00  0.00     0.016 A 
ATOM     39  C   UNL     1      -3.017  -1.419  -3.816  1.00  0.00     0.016 A 
ATOM     40  C   UNL     1      -1.370  -2.132  -5.979  1.00  0.00     0.010 A 
ATOM     41  C   UNL     1      -3.196  -2.646  -4.465  1.00  0.00     0.010 A 
ATOM     42  C   UNL     1      -2.405  -2.986  -5.579  1.00  0.00    -0.014 A 
BRANCH  42  43
ATOM     43  C   UNL     1      -2.744  -4.156  -6.426  1.00  0.00     0.031 A 
ATOM     44  C   UNL     1      -3.914  -4.064  -7.368  1.00  0.00     0.074 A 
ATOM     45  C   UNL     1      -1.997  -5.274  -6.382  1.00  0.00     0.049 A 
ATOM     46  N   UNL     1      -4.375  -4.956  -8.205  1.00  0.00    -0.248 NA
ATOM     47  C   UNL     1      -4.666  -2.797  -7.367  1.00  0.00     0.031 C 
ATOM     48  C   UNL     1      -0.833  -5.477  -5.521  1.00  0.00     0.029 A 
ATOM     49  N   UNL     1      -2.118  -6.455  -7.070  1.00  0.00    -0.354 N 
ATOM     50  C   UNL     1      -5.485  -4.376  -8.807  1.00  0.00     0.074 A 
ATOM     51  C   UNL     1      -5.636  -3.056  -8.233  1.00  0.00     0.031 C 
ATOM     52  C   UNL     1      -0.359  -6.719  -5.716  1.00  0.00     0.029 A 
ATOM     53  C   UNL     1      -1.196  -7.404  -6.698  1.00  0.00     0.049 A 
ATOM     54  H   UNL     1      -2.800  -6.607  -7.763  1.00  0.00     0.167 HD
ATOM     55  C   UNL     1      -6.297  -4.888  -9.763  1.00  0.00     0.034 A 
ATOM     56  C   UNL     1      -1.056  -8.685  -7.094  1.00  0.00     0.034 A 
ATOM     57  C   UNL     1      -6.127  -6.188 -10.353  1.00  0.00     0.049 A 
ATOM     58  C   UNL     1      -1.985  -9.236  -8.145  1.00  0.00     0.074 A 
ATOM     59  C   UNL     1      -6.862  -6.774 -11.368  1.00  0.00     0.029 A 
ATOM     60  N   UNL     1      -5.163  -7.109  -9.975  1.00  0.00    -0.354 N 
ATOM     61  N   UNL     1      -2.952  -8.631  -8.792  1.00  0.00    -0.248 NA
ATOM     62  C   UNL     1      -1.781 -10.636  -8.546  1.00  0.00     0.031 C 
ATOM     63  C   UNL     1      -6.361  -8.062 -11.583  1.00  0.00     0.029 A 
ATOM     64  C   UNL     1      -5.294  -8.266 -10.723  1.00  0.00     0.049 A 
ATOM     65  H   UNL     1      -4.484  -6.961  -9.277  1.00  0.00     0.167 HD
ATOM     66  C   UNL     1      -3.446  -9.562  -9.699  1.00  0.00     0.074 A 
ATOM     67  C   UNL     1      -2.658 -10.766  -9.531  1.00  0.00     0.031 C 
ATOM     68  C   UNL     1      -4.468  -9.438 -10.583  1.00  0.00     0.034 A 
BRANCH  55  69
ATOM     69  C   UNL     1      -7.436  -4.031 -10.249  1.00  0.00     0.023 A 
ATOM     70  C   UNL     1      -7.174  -2.926 -11.084  1.00  0.00     0.012 A 
ATOM     71  C   UNL     1      -8.769  -4.356  -9.931  1.00  0.00     0.148 A 
ATOM     72  C   UNL     1      -8.220  -2.141 -11.571  1.00  0.00     0.002 A 
ATOM     73  C   UNL     1      -9.808  -3.595 -10.454  1.00  0.00     0.091 A 
ATOM     74  F   UNL     1      -8.995  -5.397  -9.116  1.00  0.00    -0.205 F 
ATOM     75  C   UNL     1      -9.535  -2.482 -11.265  1.00  0.00     0.022 A 
BRANCH  73  76
ATOM     76  S   UNL     1     -11.536  -3.999 -10.179  1.00  0.00     0.127 S 
ATOM     77  O   UNL     1     -11.950  -2.924  -9.279  1.00  0.00    -0.237 OA
ATOM     78  O   UNL     1     -12.092  -3.911 -11.530  1.00  0.00    -0.237 OA
ATOM     79  O   UNL     1     -11.550  -5.336  -9.603  1.00  0.00    -0.744 OA
ENDBRANCH  73  76
ENDBRANCH  55  69
BRANCH  56  80
ATOM     80  C   UNL     1       0.032  -9.527  -6.520  1.00  0.00     0.023 A 
ATOM     81  C   UNL     1       1.108  -9.925  -7.336  1.00  0.00     0.012 A 
ATOM     82  C   UNL     1       0.012  -9.920  -5.168  1.00  0.00     0.148 A 
ATOM     83  C   UNL     1       2.131 -10.725  -6.823  1.00  0.00     0.002 A 
ATOM     84  C   UNL     1       1.062 -10.669  -4.649  1.00  0.00     0.091 A 
ATOM     85  F   UNL     1      -1.031  -9.547  -4.413  1.00  0.00    -0.205 F 
ATOM     86  C   UNL     1       2.114 -11.087  -5.479  1.00  0.00     0.022 A 
BRANCH  84  87
ATOM     87  S   UNL     1       1.185 -11.069  -2.902  1.00  0.00     0.127 S 
ATOM     88  O   UNL     1       0.906 -12.502  -2.903  1.00  0.00    -0.237 OA
ATOM     89  O   UNL     1       2.573 -10.710  -2.608  1.00  0.00    -0.237 OA
ATOM     90  O   UNL     1       0.197 -10.230  -2.238  1.00  0.00    -0.744 OA
ENDBRANCH  84  87
ENDBRANCH  56  80
BRANCH  68  91
ATOM     91  C   UNL     1      -4.777 -10.617 -11.468  1.00  0.00     0.023 A 
ATOM     92  C   UNL     1      -5.398 -11.759 -10.924  1.00  0.00     0.012 A 
ATOM     93  C   UNL     1      -4.525 -10.561 -12.854  1.00  0.00     0.148 A 
ATOM     94  C   UNL     1      -5.733 -12.840 -11.739  1.00  0.00     0.002 A 
ATOM     95  C   UNL     1      -4.906 -11.622 -13.667  1.00  0.00     0.091 A 
ATOM     96  F   UNL     1      -3.917  -9.474 -13.350  1.00  0.00    -0.205 F 
ATOM     97  C   UNL     1      -5.499 -12.766 -13.110  1.00  0.00     0.022 A 
BRANCH  95  98
ATOM     98  S   UNL     1      -4.733 -11.573 -15.455  1.00  0.00     0.127 S 
ATOM     99  O   UNL     1      -3.620 -12.496 -15.671  1.00  0.00    -0.237 OA
ATOM    100  O   UNL     1      -6.034 -12.069 -15.907  1.00  0.00    -0.237 OA
ATOM    101  O   UNL     1      -4.468 -10.181 -15.794  1.00  0.00    -0.744 OA
ENDBRANCH  95  98
ENDBRANCH  68  91
ENDBRANCH  42  43
ENDBRANCH  35  37
ENDBRANCH  34  35
ENDBRANCH  33  34
ENDBRANCH  32  33
ENDBRANCH   1  32
TORSDOF 20
