REMARK SMILES CCC(CC)[C@@H](C)[NH2+]CC(C)(C)C(=O)OCCOCCOC(=O)c1ccc(-c2c3nc(c(-c4cccc(S(=O)(=O)[O-])c4F)c4ccc([nH]4)c(-c4cccc(S(=O)(=O)[O-])c4F)c4nc(c(-c5cccc(S(=O)(=O)[O-])c5F)c5ccc2[nH]5)C=C4)C=C3)cc1
REMARK SMILES IDX 17 1 16 2 15 3 13 4 14 5 10 6 11 7 12 8 9 9 8 10 6 13 7 14
REMARK SMILES IDX 3 15 2 16 1 17 4 18 5 19 18 20 19 21 20 22 21 23 22 24 23 25
REMARK SMILES IDX 24 26 25 27 86 28 26 29 85 30 27 31 28 32 29 33 79 34 30 35
REMARK SMILES IDX 84 36 78 37 80 38 31 39 83 40 77 41 76 42 32 44 64 45 44 46
REMARK SMILES IDX 63 47 45 48 48 49 62 50 81 51 46 52 47 53 61 55 82 56 49 57
REMARK SMILES IDX 33 58 34 59 42 60 35 61 37 62 43 63 36 64 38 65 39 66 40 67
REMARK SMILES IDX 41 68 65 69 66 70 74 71 67 72 69 73 75 74 68 75 70 76 71 77
REMARK SMILES IDX 72 78 73 79 50 80 51 81 59 82 52 83 54 84 60 85 53 86 55 87
REMARK SMILES IDX 56 88 57 89 58 90
REMARK H PARENT 8 11 8 12 80 43 48 54
REMARK Flexibility Score: inf
ROOT
ATOM      1  C   UNL     1      -0.951   3.210   5.063  1.00  0.00     0.202 C 
ENDROOT
BRANCH   1   2
ATOM      2  C   UNL     1       0.552   3.591   4.968  1.00  0.00     0.261 C 
BRANCH   2   3
ATOM      3  O   UNL     1       0.952   4.873   4.453  1.00  0.00    -0.463 OA
BRANCH   3   4
ATOM      4  C   UNL     1       0.778   4.929   3.113  1.00  0.00     0.317 C 
ATOM      5  O   UNL     1       0.029   4.143   2.552  1.00  0.00    -0.251 OA
BRANCH   4   6
ATOM      6  C   UNL     1       1.471   6.058   2.368  1.00  0.00     0.111 C 
ATOM      7  C   UNL     1       2.955   6.246   2.714  1.00  0.00     0.029 C 
ATOM      8  C   UNL     1       0.739   7.347   2.809  1.00  0.00     0.029 C 
BRANCH   6   9
ATOM      9  C   UNL     1       1.258   5.814   0.817  1.00  0.00     0.279 C 
BRANCH   9  10
ATOM     10  N   UNL     1       1.913   4.696   0.056  1.00  0.00    -0.343 N 
ATOM     11  H   UNL     1       1.674   4.802  -0.930  1.00  0.00     0.346 HD
ATOM     12  H   UNL     1       2.913   4.774   0.240  1.00  0.00     0.346 HD
BRANCH  10  13
ATOM     13  C   UNL     1       1.517   3.332   0.481  1.00  0.00     0.182 C 
ATOM     14  C   UNL     1       2.483   2.859   1.591  1.00  0.00     0.075 C 
BRANCH  13  15
ATOM     15  C   UNL     1       1.423   2.196  -0.593  1.00  0.00     0.046 C 
BRANCH  15  16
ATOM     16  C   UNL     1       0.848   0.909   0.090  1.00  0.00     0.006 C 
ATOM     17  C   UNL     1       1.104  -0.377  -0.670  1.00  0.00     0.004 C 
ENDBRANCH  15  16
BRANCH  15  18
ATOM     18  C   UNL     1       0.594   2.587  -1.840  1.00  0.00     0.006 C 
ATOM     19  C   UNL     1      -0.909   2.758  -1.632  1.00  0.00     0.004 C 
ENDBRANCH  15  18
ENDBRANCH  13  15
ENDBRANCH  10  13
ENDBRANCH   9  10
ENDBRANCH   6   9
ENDBRANCH   4   6
ENDBRANCH   3   4
ENDBRANCH   2   3
ENDBRANCH   1   2
BRANCH   1  20
ATOM     20  O   UNL     1      -1.935   3.529   4.086  1.00  0.00    -0.374 OA
BRANCH  20  21
ATOM     21  C   UNL     1      -2.294   4.889   3.853  1.00  0.00     0.202 C 
BRANCH  21  22
ATOM     22  C   UNL     1      -3.178   5.580   4.883  1.00  0.00     0.261 C 
BRANCH  22  23
ATOM     23  O   UNL     1      -2.480   5.724   6.125  1.00  0.00    -0.460 OA
BRANCH  23  24
ATOM     24  C   UNL     1      -2.920   4.890   7.098  1.00  0.00     0.338 C 
ATOM     25  O   UNL     1      -3.894   4.168   7.063  1.00  0.00    -0.246 OA
BRANCH  24  26
ATOM     26  C   UNL     1      -1.891   4.797   8.153  1.00  0.00     0.060 A 
ATOM     27  C   UNL     1      -1.591   3.513   8.629  1.00  0.00     0.016 A 
ATOM     28  C   UNL     1      -1.259   5.925   8.678  1.00  0.00     0.016 A 
ATOM     29  C   UNL     1      -0.728   3.357   9.702  1.00  0.00     0.010 A 
ATOM     30  C   UNL     1      -0.408   5.771   9.771  1.00  0.00     0.010 A 
ATOM     31  C   UNL     1      -0.196   4.493  10.318  1.00  0.00    -0.014 A 
BRANCH  31  32
ATOM     32  C   UNL     1       0.369   4.349  11.673  1.00  0.00     0.031 A 
ATOM     33  C   UNL     1      -0.522   4.660  12.843  1.00  0.00     0.074 A 
ATOM     34  C   UNL     1       1.622   3.903  11.850  1.00  0.00     0.049 A 
ATOM     35  N   UNL     1      -0.258   4.612  14.120  1.00  0.00    -0.248 NA
ATOM     36  C   UNL     1      -1.901   5.082  12.530  1.00  0.00     0.031 C 
ATOM     37  C   UNL     1       2.549   3.544  10.779  1.00  0.00     0.029 A 
ATOM     38  N   UNL     1       2.331   3.692  13.002  1.00  0.00    -0.354 N 
ATOM     39  C   UNL     1      -1.420   5.025  14.761  1.00  0.00     0.074 A 
ATOM     40  C   UNL     1      -2.389   5.332  13.734  1.00  0.00     0.031 C 
ATOM     41  C   UNL     1       3.722   3.183  11.326  1.00  0.00     0.029 A 
ATOM     42  C   UNL     1       3.631   3.312  12.779  1.00  0.00     0.049 A 
ATOM     43  H   UNL     1       1.946   3.802  13.902  1.00  0.00     0.167 HD
ATOM     44  C   UNL     1      -1.659   5.126  16.088  1.00  0.00     0.034 A 
ATOM     45  C   UNL     1       4.636   3.119  13.655  1.00  0.00     0.034 A 
ATOM     46  C   UNL     1      -0.690   4.802  17.096  1.00  0.00     0.049 A 
ATOM     47  C   UNL     1       4.354   3.274  15.126  1.00  0.00     0.074 A 
ATOM     48  C   UNL     1      -0.834   4.834  18.471  1.00  0.00     0.029 A 
ATOM     49  N   UNL     1       0.612   4.398  16.837  1.00  0.00    -0.354 N 
ATOM     50  N   UNL     1       3.225   3.573  15.725  1.00  0.00    -0.248 NA
ATOM     51  C   UNL     1       5.475   3.034  16.045  1.00  0.00     0.031 C 
ATOM     52  C   UNL     1       0.393   4.482  19.043  1.00  0.00     0.029 A 
ATOM     53  C   UNL     1       1.289   4.192  18.025  1.00  0.00     0.049 A 
ATOM     54  H   UNL     1       0.997   4.276  15.939  1.00  0.00     0.167 HD
ATOM     55  C   UNL     1       3.489   3.519  17.089  1.00  0.00     0.074 A 
ATOM     56  C   UNL     1       4.881   3.142  17.226  1.00  0.00     0.031 C 
ATOM     57  C   UNL     1       2.662   3.769  18.134  1.00  0.00     0.034 A 
BRANCH  44  58
ATOM     58  C   UNL     1      -3.021   5.603  16.518  1.00  0.00     0.023 A 
ATOM     59  C   UNL     1      -4.142   4.762  16.364  1.00  0.00     0.012 A 
ATOM     60  C   UNL     1      -3.183   6.870  17.111  1.00  0.00     0.148 A 
ATOM     61  C   UNL     1      -5.409   5.188  16.765  1.00  0.00     0.002 A 
ATOM     62  C   UNL     1      -4.439   7.268  17.551  1.00  0.00     0.091 A 
ATOM     63  F   UNL     1      -2.110   7.665  17.222  1.00  0.00    -0.205 F 
ATOM     64  C   UNL     1      -5.555   6.435  17.368  1.00  0.00     0.022 A 
BRANCH  62  65
ATOM     65  S   UNL     1      -4.716   8.822  18.408  1.00  0.00     0.127 S 
ATOM     66  O   UNL     1      -5.477   9.576  17.413  1.00  0.00    -0.237 OA
ATOM     67  O   UNL     1      -5.491   8.395  19.573  1.00  0.00    -0.237 OA
ATOM     68  O   UNL     1      -3.396   9.352  18.717  1.00  0.00    -0.744 OA
ENDBRANCH  62  65
ENDBRANCH  44  58
BRANCH  45  69
ATOM     69  C   UNL     1       5.987   2.737  13.162  1.00  0.00     0.023 A 
ATOM     70  C   UNL     1       6.491   1.451  13.432  1.00  0.00     0.012 A 
ATOM     71  C   UNL     1       6.764   3.635  12.403  1.00  0.00     0.148 A 
ATOM     72  C   UNL     1       7.758   1.076  12.982  1.00  0.00     0.002 A 
ATOM     73  C   UNL     1       7.999   3.236  11.910  1.00  0.00     0.091 A 
ATOM     74  F   UNL     1       6.271   4.859  12.169  1.00  0.00    -0.205 F 
ATOM     75  C   UNL     1       8.507   1.963  12.213  1.00  0.00     0.022 A 
BRANCH  73  76
ATOM     76  S   UNL     1       8.972   4.263  10.803  1.00  0.00     0.127 S 
ATOM     77  O   UNL     1      10.109   4.619  11.647  1.00  0.00    -0.237 OA
ATOM     78  O   UNL     1       9.276   3.331   9.717  1.00  0.00    -0.237 OA
ATOM     79  O   UNL     1       8.100   5.365  10.420  1.00  0.00    -0.744 OA
ENDBRANCH  73  76
ENDBRANCH  45  69
BRANCH  57  80
ATOM     80  C   UNL     1       3.224   3.603  19.522  1.00  0.00     0.023 A 
ATOM     81  C   UNL     1       4.149   4.539  20.025  1.00  0.00     0.012 A 
ATOM     82  C   UNL     1       2.775   2.557  20.353  1.00  0.00     0.148 A 
ATOM     83  C   UNL     1       4.645   4.416  21.322  1.00  0.00     0.002 A 
ATOM     84  C   UNL     1       3.233   2.472  21.661  1.00  0.00     0.091 A 
ATOM     85  F   UNL     1       1.906   1.668  19.850  1.00  0.00    -0.205 F 
ATOM     86  C   UNL     1       4.179   3.392  22.143  1.00  0.00     0.022 A 
BRANCH  84  87
ATOM     87  S   UNL     1       2.612   1.249  22.821  1.00  0.00     0.127 S 
ATOM     88  O   UNL     1       3.761   0.355  22.953  1.00  0.00    -0.237 OA
ATOM     89  O   UNL     1       2.331   2.061  24.006  1.00  0.00    -0.237 OA
ATOM     90  O   UNL     1       1.434   0.664  22.196  1.00  0.00    -0.744 OA
ENDBRANCH  84  87
ENDBRANCH  57  80
ENDBRANCH  31  32
ENDBRANCH  24  26
ENDBRANCH  23  24
ENDBRANCH  22  23
ENDBRANCH  21  22
ENDBRANCH  20  21
ENDBRANCH   1  20
TORSDOF 23
