REMARK SMILES CC(C)C[C@H](CNC(=O)NC[C@H]1CCC(=O)N1)C(=O)OCCOCCOC(=O)c1ccc(-c2c3nc(c(-c4cccc(S(=O)(=O)[O-])c4F)c4ccc([nH]4)c(-c4cccc(S(=O)(=O)[O-])c4F)c4nc(c(-c5cccc(S(=O)(=O)[O-])c5F)c5ccc2[nH]5)C=C4)C=C3)cc1
REMARK SMILES IDX 22 1 21 2 20 3 18 4 19 5 5 6 4 7 2 8 1 9 3 10 6 11 7 12 8 13
REMARK SMILES IDX 9 15 10 16 11 18 12 19 13 20 17 21 14 22 15 23 16 25 23 26
REMARK SMILES IDX 24 27 25 28 26 29 27 30 28 31 29 32 30 33 91 34 31 35 90 36
REMARK SMILES IDX 32 37 33 38 34 39 84 40 35 41 89 42 83 43 85 44 36 45 88 46
REMARK SMILES IDX 82 47 81 48 37 50 69 51 49 52 68 53 50 54 53 55 67 56 86 57
REMARK SMILES IDX 51 58 52 59 66 61 87 62 54 63 38 64 39 65 47 66 40 67 42 68
REMARK SMILES IDX 48 69 41 70 43 71 44 72 45 73 46 74 70 75 71 76 79 77 72 78
REMARK SMILES IDX 74 79 80 80 73 81 75 82 76 83 77 84 78 85 55 86 56 87 64 88
REMARK SMILES IDX 57 89 59 90 65 91 58 92 60 93 61 94 62 95 63 96
REMARK H PARENT 7 14 10 17 17 24 85 49 53 60
REMARK Flexibility Score: inf
ROOT
ATOM      1  C   UNL     1       0.872   9.631   0.235  1.00  0.00     0.202 C 
ENDROOT
BRANCH   1   2
ATOM      2  C   UNL     1      -0.535   9.142  -0.115  1.00  0.00     0.261 C 
BRANCH   2   3
ATOM      3  O   UNL     1      -0.728   7.761   0.228  1.00  0.00    -0.463 OA
BRANCH   3   4
ATOM      4  C   UNL     1      -0.575   6.868  -0.782  1.00  0.00     0.310 C 
ATOM      5  O   UNL     1      -0.281   7.147  -1.939  1.00  0.00    -0.252 OA
BRANCH   4   6
ATOM      6  C   UNL     1      -0.789   5.447  -0.313  1.00  0.00     0.119 C 
BRANCH   6   7
ATOM      7  C   UNL     1      -2.266   4.999  -0.356  1.00  0.00     0.020 C 
BRANCH   7   8
ATOM      8  C   UNL     1      -3.376   6.077  -0.431  1.00  0.00    -0.017 C 
ATOM      9  C   UNL     1      -3.489   6.752  -1.806  1.00  0.00     0.007 C 
ATOM     10  C   UNL     1      -4.729   5.427  -0.117  1.00  0.00     0.007 C 
ENDBRANCH   7   8
ENDBRANCH   6   7
BRANCH   6  11
ATOM     11  C   UNL     1       0.034   5.167   0.971  1.00  0.00     0.133 C 
BRANCH  11  12
ATOM     12  N   UNL     1      -0.704   4.742   2.138  1.00  0.00    -0.337 N 
ATOM     13  C   UNL     1      -0.850   3.595   2.805  1.00  0.00     0.314 C 
ATOM     14  H   UNL     1      -1.224   5.476   2.538  1.00  0.00     0.165 HD
ATOM     15  O   UNL     1      -1.496   3.615   3.853  1.00  0.00    -0.249 OA
ATOM     16  N   UNL     1      -0.360   2.416   2.419  1.00  0.00    -0.336 N 
ATOM     17  H   UNL     1      -0.599   1.693   3.043  1.00  0.00     0.165 HD
BRANCH  16  18
ATOM     18  C   UNL     1       0.438   1.935   1.307  1.00  0.00     0.142 C 
BRANCH  18  19
ATOM     19  C   UNL     1       1.884   1.558   1.707  1.00  0.00     0.101 C 
ATOM     20  C   UNL     1       2.930   1.952   0.664  1.00  0.00     0.036 C 
ATOM     21  N   UNL     1       2.365   2.193   2.905  1.00  0.00    -0.352 N 
ATOM     22  C   UNL     1       3.567   3.232   1.202  1.00  0.00     0.102 C 
ATOM     23  C   UNL     1       3.330   3.143   2.682  1.00  0.00     0.220 C 
ATOM     24  H   UNL     1       2.032   1.967   3.804  1.00  0.00     0.163 HD
ATOM     25  O   UNL     1       3.873   3.822   3.538  1.00  0.00    -0.275 OA
ENDBRANCH  18  19
ENDBRANCH  16  18
ENDBRANCH  11  12
ENDBRANCH   6  11
ENDBRANCH   4   6
ENDBRANCH   3   4
ENDBRANCH   2   3
ENDBRANCH   1   2
BRANCH   1  26
ATOM     26  O   UNL     1       1.952   9.154  -0.564  1.00  0.00    -0.374 OA
BRANCH  26  27
ATOM     27  C   UNL     1       2.481   7.859  -0.288  1.00  0.00     0.202 C 
BRANCH  27  28
ATOM     28  C   UNL     1       3.345   7.684   0.967  1.00  0.00     0.261 C 
BRANCH  28  29
ATOM     29  O   UNL     1       2.617   7.933   2.180  1.00  0.00    -0.460 OA
BRANCH  29  30
ATOM     30  C   UNL     1       2.954   9.095   2.792  1.00  0.00     0.338 C 
ATOM     31  O   UNL     1       3.817   9.883   2.440  1.00  0.00    -0.246 OA
BRANCH  30  32
ATOM     32  C   UNL     1       1.988   9.424   3.856  1.00  0.00     0.060 A 
ATOM     33  C   UNL     1       1.399  10.694   3.801  1.00  0.00     0.016 A 
ATOM     34  C   UNL     1       1.747   8.573   4.936  1.00  0.00     0.016 A 
ATOM     35  C   UNL     1       0.636  11.155   4.867  1.00  0.00     0.010 A 
ATOM     36  C   UNL     1       0.980   9.041   6.009  1.00  0.00     0.010 A 
ATOM     37  C   UNL     1       0.470  10.354   6.003  1.00  0.00    -0.014 A 
BRANCH  37  38
ATOM     38  C   UNL     1      -0.087  10.966   7.234  1.00  0.00     0.031 A 
ATOM     39  C   UNL     1       0.849  11.343   8.352  1.00  0.00     0.074 A 
ATOM     40  C   UNL     1      -1.401  11.234   7.334  1.00  0.00     0.049 A 
ATOM     41  N   UNL     1       0.580  11.898   9.505  1.00  0.00    -0.248 NA
ATOM     42  C   UNL     1       2.278  11.057   8.143  1.00  0.00     0.031 C 
ATOM     43  C   UNL     1      -2.403  10.937   6.311  1.00  0.00     0.029 A 
ATOM     44  N   UNL     1      -2.120  11.803   8.355  1.00  0.00    -0.354 N 
ATOM     45  C   UNL     1       1.796  11.997  10.172  1.00  0.00     0.074 A 
ATOM     46  C   UNL     1       2.803  11.434   9.300  1.00  0.00     0.031 C 
ATOM     47  C   UNL     1      -3.612  11.306   6.765  1.00  0.00     0.029 A 
ATOM     48  C   UNL     1      -3.474  11.836   8.120  1.00  0.00     0.049 A 
ATOM     49  H   UNL     1      -1.705  12.154   9.176  1.00  0.00     0.167 HD
ATOM     50  C   UNL     1       2.054  12.519  11.395  1.00  0.00     0.034 A 
ATOM     51  C   UNL     1      -4.487  12.224   8.919  1.00  0.00     0.034 A 
ATOM     52  C   UNL     1       1.052  13.093  12.252  1.00  0.00     0.049 A 
ATOM     53  C   UNL     1      -4.177  12.770  10.288  1.00  0.00     0.074 A 
ATOM     54  C   UNL     1       1.220  13.690  13.490  1.00  0.00     0.029 A 
ATOM     55  N   UNL     1      -0.305  13.129  11.973  1.00  0.00    -0.354 N 
ATOM     56  N   UNL     1      -3.012  12.954  10.861  1.00  0.00    -0.248 NA
ATOM     57  C   UNL     1      -5.321  13.196  11.108  1.00  0.00     0.031 C 
ATOM     58  C   UNL     1      -0.042  14.047  13.977  1.00  0.00     0.029 A 
ATOM     59  C   UNL     1      -0.990  13.720  13.021  1.00  0.00     0.049 A 
ATOM     60  H   UNL     1      -0.721  12.784  11.149  1.00  0.00     0.167 HD
ATOM     61  C   UNL     1      -3.279  13.552  12.089  1.00  0.00     0.074 A 
ATOM     62  C   UNL     1      -4.716  13.717  12.167  1.00  0.00     0.031 C 
ATOM     63  C   UNL     1      -2.415  13.922  13.067  1.00  0.00     0.034 A 
BRANCH  50  64
ATOM     64  C   UNL     1       3.481  12.499  11.880  1.00  0.00     0.023 A 
ATOM     65  C   UNL     1       4.438  13.351  11.291  1.00  0.00     0.012 A 
ATOM     66  C   UNL     1       3.860  11.679  12.961  1.00  0.00     0.148 A 
ATOM     67  C   UNL     1       5.757  13.360  11.746  1.00  0.00     0.002 A 
ATOM     68  C   UNL     1       5.164  11.729  13.441  1.00  0.00     0.091 A 
ATOM     69  F   UNL     1       2.942  10.862  13.496  1.00  0.00    -0.205 F 
ATOM     70  C   UNL     1       6.116  12.559  12.827  1.00  0.00     0.022 A 
BRANCH  68  71
ATOM     71  S   UNL     1       5.704  10.801  14.881  1.00  0.00     0.127 S 
ATOM     72  O   UNL     1       6.615   9.828  14.280  1.00  0.00    -0.237 OA
ATOM     73  O   UNL     1       6.358  11.835  15.684  1.00  0.00    -0.237 OA
ATOM     74  O   UNL     1       4.499  10.241  15.476  1.00  0.00    -0.744 OA
ENDBRANCH  68  71
ENDBRANCH  50  64
BRANCH  51  75
ATOM     75  C   UNL     1      -5.894  12.129   8.437  1.00  0.00     0.023 A 
ATOM     76  C   UNL     1      -6.632  13.304   8.196  1.00  0.00     0.012 A 
ATOM     77  C   UNL     1      -6.500  10.878   8.209  1.00  0.00     0.148 A 
ATOM     78  C   UNL     1      -7.959  13.234   7.771  1.00  0.00     0.002 A 
ATOM     79  C   UNL     1      -7.802  10.816   7.730  1.00  0.00     0.091 A 
ATOM     80  F   UNL     1      -5.785   9.772   8.458  1.00  0.00    -0.205 F 
ATOM     81  C   UNL     1      -8.541  11.993   7.529  1.00  0.00     0.022 A 
BRANCH  79  82
ATOM     82  S   UNL     1      -8.589   9.270   7.269  1.00  0.00     0.127 S 
ATOM     83  O   UNL     1      -9.639   9.155   8.278  1.00  0.00    -0.237 OA
ATOM     84  O   UNL     1      -9.064   9.568   5.917  1.00  0.00    -0.237 OA
ATOM     85  O   UNL     1      -7.542   8.260   7.330  1.00  0.00    -0.744 OA
ENDBRANCH  79  82
ENDBRANCH  51  75
BRANCH  63  86
ATOM     86  C   UNL     1      -2.987  14.594  14.290  1.00  0.00     0.023 A 
ATOM     87  C   UNL     1      -3.751  13.853  15.214  1.00  0.00     0.012 A 
ATOM     88  C   UNL     1      -2.710  15.950  14.555  1.00  0.00     0.148 A 
ATOM     89  C   UNL     1      -4.265  14.463  16.359  1.00  0.00     0.002 A 
ATOM     90  C   UNL     1      -3.178  16.536  15.725  1.00  0.00     0.091 A 
ATOM     91  F   UNL     1      -1.994  16.643  13.657  1.00  0.00    -0.205 F 
ATOM     92  C   UNL     1      -3.969  15.798  16.620  1.00  0.00     0.022 A 
BRANCH  90  93
ATOM     93  S   UNL     1      -2.764  18.220  16.193  1.00  0.00     0.127 S 
ATOM     94  O   UNL     1      -4.046  18.901  16.019  1.00  0.00    -0.237 OA
ATOM     95  O   UNL     1      -2.343  18.060  17.585  1.00  0.00    -0.237 OA
ATOM     96  O   UNL     1      -1.706  18.643  15.286  1.00  0.00    -0.744 OA
ENDBRANCH  90  93
ENDBRANCH  63  86
ENDBRANCH  37  38
ENDBRANCH  30  32
ENDBRANCH  29  30
ENDBRANCH  28  29
ENDBRANCH  27  28
ENDBRANCH  26  27
ENDBRANCH   1  26
TORSDOF 23
