REMARK SMILES COc1ccc(CCN2C(=O)C[C@@H](C(=O)OCCOCCOC(=O)c3ccc(-c4c5nc(c(-c6cccc(S(=O)(=O)[O-])c6F)c6ccc([nH]6)c(-c6cccc(S(=O)(=O)[O-])c6F)c6nc(c(-c7cccc(S(=O)(=O)[O-])c7F)c7ccc4[nH]7)C=C6)C=C5)cc3)S/C2=[NH+]\c2ccc(F)cc2)cc1OC
REMARK SMILES IDX 18 1 17 2 16 3 14 4 15 5 13 6 9 7 10 8 89 9 11 10 12 11
REMARK SMILES IDX 88 12 90 13 8 15 7 16 6 17 3 18 4 19 99 20 5 21 98 22 2 23
REMARK SMILES IDX 1 24 100 25 101 26 91 27 92 28 97 29 93 30 96 31 94 32 95 33
REMARK SMILES IDX 19 34 20 35 21 36 22 37 23 38 24 39 25 40 26 41 87 42 27 43
REMARK SMILES IDX 86 44 28 45 29 46 30 47 80 48 31 49 85 50 79 51 81 52 32 53
REMARK SMILES IDX 84 54 78 55 77 56 33 58 65 59 45 60 64 61 46 62 49 63 63 64
REMARK SMILES IDX 82 65 47 66 48 67 62 69 83 70 50 71 34 72 35 73 43 74 36 75
REMARK SMILES IDX 38 76 44 77 37 78 39 79 40 80 41 81 42 82 66 83 67 84 75 85
REMARK SMILES IDX 68 86 70 87 76 88 69 89 71 90 72 91 73 92 74 93 51 94 52 95
REMARK SMILES IDX 60 96 53 97 55 98 61 99 54 100 56 101 57 102 58 103 59 104
REMARK H PARENT 90 14 81 57 49 68
REMARK Flexibility Score: inf
ROOT
ATOM      1  C   UNL     1      -5.985  -6.348  -8.959  1.00  0.00     0.202 C 
ENDROOT
BRANCH   1   2
ATOM      2  C   UNL     1      -5.566  -4.930  -8.558  1.00  0.00     0.261 C 
BRANCH   2   3
ATOM      3  O   UNL     1      -4.293  -4.935  -7.883  1.00  0.00    -0.462 OA
BRANCH   3   4
ATOM      4  C   UNL     1      -4.274  -4.507  -6.590  1.00  0.00     0.320 C 
ATOM      5  O   UNL     1      -5.246  -4.087  -5.973  1.00  0.00    -0.251 OA
BRANCH   4   6
ATOM      6  C   UNL     1      -2.896  -4.626  -5.968  1.00  0.00     0.180 C 
ATOM      7  N   UNL     1      -0.062  -4.883  -5.438  1.00  0.00    -0.191 N 
ATOM      8  C   UNL     1      -0.629  -3.696  -5.921  1.00  0.00     0.311 C 
ATOM      9  C   UNL     1      -0.711  -6.134  -5.314  1.00  0.00     0.319 C 
ATOM     10  O   UNL     1      -0.173  -2.572  -5.721  1.00  0.00    -0.247 OA
ATOM     11  C   UNL     1      -1.898  -3.795  -6.714  1.00  0.00     0.155 C 
ATOM     12  S   UNL     1      -2.311  -6.316  -5.981  1.00  0.00    -0.022 SA
ATOM     13  N   UNL     1      -0.105  -7.115  -4.714  1.00  0.00    -0.235 N 
ATOM     14  H   UNL     1       0.812  -6.974  -4.383  1.00  0.00     0.313 HD
BRANCH   7  15
ATOM     15  C   UNL     1       1.367  -4.889  -5.054  1.00  0.00     0.251 C 
BRANCH  15  16
ATOM     16  C   UNL     1       2.122  -3.605  -4.680  1.00  0.00     0.082 C 
BRANCH  16  17
ATOM     17  C   UNL     1       1.848  -2.991  -3.324  1.00  0.00    -0.040 A 
ATOM     18  C   UNL     1       1.459  -1.694  -0.858  1.00  0.00     0.160 A 
ATOM     19  C   UNL     1       0.514  -2.608  -1.334  1.00  0.00     0.051 A 
ATOM     20  C   UNL     1       2.630  -1.450  -1.581  1.00  0.00     0.160 A 
ATOM     21  C   UNL     1       0.708  -3.252  -2.559  1.00  0.00     0.008 A 
ATOM     22  C   UNL     1       2.793  -2.080  -2.820  1.00  0.00     0.054 A 
BRANCH  18  23
ATOM     23  O   UNL     1       1.193  -1.077   0.336  1.00  0.00    -0.493 OA
ATOM     24  C   UNL     1       0.424   0.107   0.116  1.00  0.00     0.278 C 
ENDBRANCH  18  23
BRANCH  20  25
ATOM     25  O   UNL     1       3.664  -0.618  -1.253  1.00  0.00    -0.493 OA
ATOM     26  C   UNL     1       3.842  -0.305   0.120  1.00  0.00     0.278 C 
ENDBRANCH  20  25
ENDBRANCH  16  17
ENDBRANCH  15  16
ENDBRANCH   7  15
BRANCH  13  27
ATOM     27  C   UNL     1      -0.707  -8.368  -4.521  1.00  0.00     0.125 A 
ATOM     28  C   UNL     1      -1.286  -8.676  -3.283  1.00  0.00     0.055 A 
ATOM     29  C   UNL     1      -0.687  -9.341  -5.527  1.00  0.00     0.055 A 
ATOM     30  C   UNL     1      -1.873  -9.926  -3.066  1.00  0.00     0.043 A 
ATOM     31  C   UNL     1      -1.278 -10.589  -5.315  1.00  0.00     0.043 A 
ATOM     32  C   UNL     1      -1.867 -10.869  -4.087  1.00  0.00     0.123 A 
ATOM     33  F   UNL     1      -2.433 -12.065  -3.881  1.00  0.00    -0.207 F 
ENDBRANCH  13  27
ENDBRANCH   4   6
ENDBRANCH   3   4
ENDBRANCH   2   3
ENDBRANCH   1   2
BRANCH   1  34
ATOM     34  O   UNL     1      -6.484  -7.180  -7.910  1.00  0.00    -0.374 OA
BRANCH  34  35
ATOM     35  C   UNL     1      -5.520  -7.749  -7.027  1.00  0.00     0.202 C 
BRANCH  35  36
ATOM     36  C   UNL     1      -4.756  -8.980  -7.537  1.00  0.00     0.261 C 
BRANCH  36  37
ATOM     37  O   UNL     1      -3.948  -8.698  -8.694  1.00  0.00    -0.460 OA
BRANCH  37  38
ATOM     38  C   UNL     1      -4.414  -9.234  -9.850  1.00  0.00     0.338 C 
ATOM     39  O   UNL     1      -5.380  -9.965  -9.985  1.00  0.00    -0.246 OA
BRANCH  38  40
ATOM     40  C   UNL     1      -3.692  -8.668 -11.006  1.00  0.00     0.060 A 
ATOM     41  C   UNL     1      -4.460  -8.040 -11.995  1.00  0.00     0.016 A 
ATOM     42  C   UNL     1      -2.317  -8.838 -11.176  1.00  0.00     0.016 A 
ATOM     43  C   UNL     1      -3.866  -7.628 -13.184  1.00  0.00     0.010 A 
ATOM     44  C   UNL     1      -1.723  -8.431 -12.378  1.00  0.00     0.010 A 
ATOM     45  C   UNL     1      -2.503  -7.863 -13.403  1.00  0.00    -0.014 A 
BRANCH  45  46
ATOM     46  C   UNL     1      -1.941  -7.656 -14.761  1.00  0.00     0.031 A 
ATOM     47  C   UNL     1      -1.761  -8.845 -15.667  1.00  0.00     0.074 A 
ATOM     48  C   UNL     1      -1.618  -6.424 -15.194  1.00  0.00     0.049 A 
ATOM     49  N   UNL     1      -1.298  -8.891 -16.888  1.00  0.00    -0.248 NA
ATOM     50  C   UNL     1      -2.157 -10.155 -15.124  1.00  0.00     0.031 C 
ATOM     51  C   UNL     1      -1.753  -5.193 -14.416  1.00  0.00     0.029 A 
ATOM     52  N   UNL     1      -1.090  -6.010 -16.392  1.00  0.00    -0.354 N 
ATOM     53  C   UNL     1      -1.318 -10.233 -17.251  1.00  0.00     0.074 A 
ATOM     54  C   UNL     1      -1.831 -10.970 -16.117  1.00  0.00     0.031 C 
ATOM     55  C   UNL     1      -1.294  -4.164 -15.148  1.00  0.00     0.029 A 
ATOM     56  C   UNL     1      -0.815  -4.664 -16.436  1.00  0.00     0.049 A 
ATOM     57  H   UNL     1      -0.925  -6.619 -17.147  1.00  0.00     0.167 HD
ATOM     58  C   UNL     1      -0.958 -10.800 -18.427  1.00  0.00     0.034 A 
ATOM     59  C   UNL     1      -0.227  -3.925 -17.398  1.00  0.00     0.034 A 
ATOM     60  C   UNL     1      -0.476 -10.065 -19.564  1.00  0.00     0.049 A 
ATOM     61  C   UNL     1       0.184  -4.584 -18.689  1.00  0.00     0.074 A 
ATOM     62  C   UNL     1      -0.143 -10.545 -20.819  1.00  0.00     0.029 A 
ATOM     63  N   UNL     1      -0.246  -8.699 -19.585  1.00  0.00    -0.354 N 
ATOM     64  N   UNL     1       0.035  -5.832 -19.064  1.00  0.00    -0.248 NA
ATOM     65  C   UNL     1       0.814  -3.727 -19.705  1.00  0.00     0.031 C 
ATOM     66  C   UNL     1       0.314  -9.472 -21.590  1.00  0.00     0.029 A 
ATOM     67  C   UNL     1       0.241  -8.320 -20.824  1.00  0.00     0.049 A 
ATOM     68  H   UNL     1      -0.405  -8.088 -18.829  1.00  0.00     0.167 HD
ATOM     69  C   UNL     1       0.517  -5.901 -20.367  1.00  0.00     0.074 A 
ATOM     70  C   UNL     1       0.945  -4.565 -20.725  1.00  0.00     0.031 C 
ATOM     71  C   UNL     1       0.610  -6.976 -21.188  1.00  0.00     0.034 A 
BRANCH  58  72
ATOM     72  C   UNL     1      -1.097 -12.293 -18.555  1.00  0.00     0.023 A 
ATOM     73  C   UNL     1      -2.377 -12.865 -18.700  1.00  0.00     0.012 A 
ATOM     74  C   UNL     1       0.041 -13.122 -18.595  1.00  0.00     0.148 A 
ATOM     75  C   UNL     1      -2.523 -14.243 -18.857  1.00  0.00     0.002 A 
ATOM     76  C   UNL     1      -0.111 -14.489 -18.792  1.00  0.00     0.091 A 
ATOM     77  F   UNL     1       1.247 -12.561 -18.430  1.00  0.00    -0.205 F 
ATOM     78  C   UNL     1      -1.392 -15.053 -18.914  1.00  0.00     0.022 A 
BRANCH  76  79
ATOM     79  S   UNL     1       1.289 -15.604 -18.954  1.00  0.00     0.127 S 
ATOM     80  O   UNL     1       1.237 -16.327 -17.684  1.00  0.00    -0.237 OA
ATOM     81  O   UNL     1       0.918 -16.399 -20.125  1.00  0.00    -0.237 OA
ATOM     82  O   UNL     1       2.457 -14.755 -19.143  1.00  0.00    -0.744 OA
ENDBRANCH  76  79
ENDBRANCH  58  72
BRANCH  59  83
ATOM     83  C   UNL     1      -0.018  -2.463 -17.191  1.00  0.00     0.023 A 
ATOM     84  C   UNL     1      -0.755  -1.539 -17.955  1.00  0.00     0.012 A 
ATOM     85  C   UNL     1       0.896  -1.987 -16.232  1.00  0.00     0.148 A 
ATOM     86  C   UNL     1      -0.564  -0.166 -17.789  1.00  0.00     0.002 A 
ATOM     87  C   UNL     1       1.041  -0.620 -16.032  1.00  0.00     0.091 A 
ATOM     88  F   UNL     1       1.605  -2.882 -15.529  1.00  0.00    -0.205 F 
ATOM     89  C   UNL     1       0.325   0.293 -16.821  1.00  0.00     0.022 A 
BRANCH  87  90
ATOM     90  S   UNL     1       2.063   0.053 -14.716  1.00  0.00     0.127 S 
ATOM     91  O   UNL     1       3.203   0.578 -15.461  1.00  0.00    -0.237 OA
ATOM     92  O   UNL     1       1.182   1.068 -14.137  1.00  0.00    -0.237 OA
ATOM     93  O   UNL     1       2.344  -1.069 -13.829  1.00  0.00    -0.744 OA
ENDBRANCH  87  90
ENDBRANCH  59  83
BRANCH  71  94
ATOM     94  C   UNL     1       1.164  -6.758 -22.572  1.00  0.00     0.023 A 
ATOM     95  C   UNL     1       2.543  -6.529 -22.746  1.00  0.00     0.012 A 
ATOM     96  C   UNL     1       0.333  -6.863 -23.706  1.00  0.00     0.148 A 
ATOM     97  C   UNL     1       3.082  -6.379 -24.024  1.00  0.00     0.002 A 
ATOM     98  C   UNL     1       0.884  -6.760 -24.977  1.00  0.00     0.091 A 
ATOM     99  F   UNL     1      -0.980  -7.063 -23.520  1.00  0.00    -0.205 F 
ATOM    100  C   UNL     1       2.256  -6.506 -25.138  1.00  0.00     0.022 A 
BRANCH  98 101
ATOM    101  S   UNL     1      -0.087  -7.006 -26.469  1.00  0.00     0.127 S 
ATOM    102  O   UNL     1      -0.214  -5.638 -26.971  1.00  0.00    -0.237 OA
ATOM    103  O   UNL     1       0.782  -7.870 -27.268  1.00  0.00    -0.237 OA
ATOM    104  O   UNL     1      -1.329  -7.633 -26.039  1.00  0.00    -0.744 OA
ENDBRANCH  98 101
ENDBRANCH  71  94
ENDBRANCH  45  46
ENDBRANCH  38  40
ENDBRANCH  37  38
ENDBRANCH  36  37
ENDBRANCH  35  36
ENDBRANCH  34  35
ENDBRANCH   1  34
TORSDOF 23
