REMARK SMILES O=C(/C=C/c1cc(C(=O)Nc2ccc(F)cc2Cl)cs1)OCCOCCOC(=O)c1ccc(-c2c3nc(c(-c4cccc(S(=O)(=O)[O-])c4F)c4ccc([nH]4)c(-c4cccc(S(=O)(=O)[O-])c4F)c4nc(c(-c5cccc(S(=O)(=O)[O-])c5F)c5ccc2[nH]5)C=C4)C=C3)cc1
REMARK SMILES IDX 24 1 23 2 22 3 21 4 2 5 1 6 3 7 4 8 5 9 6 10 20 11 7 12
REMARK SMILES IDX 19 13 8 14 9 15 10 16 11 18 12 19 17 20 13 21 16 22 18 23
REMARK SMILES IDX 14 24 15 25 25 26 26 27 27 28 28 29 29 30 30 31 31 32 92 33
REMARK SMILES IDX 32 34 91 35 33 36 34 37 35 38 85 39 36 40 90 41 84 42 86 43
REMARK SMILES IDX 37 44 89 45 83 46 82 47 38 49 70 50 50 51 69 52 51 53 54 54
REMARK SMILES IDX 68 55 87 56 52 57 53 58 67 60 88 61 55 62 39 63 40 64 48 65
REMARK SMILES IDX 41 66 43 67 49 68 42 69 44 70 45 71 46 72 47 73 71 74 72 75
REMARK SMILES IDX 80 76 73 77 75 78 81 79 74 80 76 81 77 82 78 83 79 84 56 85
REMARK SMILES IDX 57 86 65 87 58 88 60 89 66 90 59 91 61 92 62 93 63 94 64 95
REMARK H PARENT 10 17 86 48 54 59
REMARK Flexibility Score: inf
ROOT
ATOM      1  O   UNL     1       4.184  -1.481  -0.410  1.00  0.00    -0.374 OA
ENDROOT
BRANCH   1   2
ATOM      2  C   UNL     1       4.495  -1.198   0.954  1.00  0.00     0.202 C 
BRANCH   2   3
ATOM      3  C   UNL     1       4.264   0.233   1.436  1.00  0.00     0.261 C 
BRANCH   3   4
ATOM      4  O   UNL     1       2.955   0.758   1.163  1.00  0.00    -0.460 OA
BRANCH   4   5
ATOM      5  C   UNL     1       2.455   1.182  -0.012  1.00  0.00     0.330 C 
ATOM      6  O   UNL     1       1.290   1.573  -0.077  1.00  0.00    -0.247 OA
BRANCH   5   7
ATOM      7  C   UNL     1       3.203   1.098  -1.278  1.00  0.00     0.095 C 
ATOM      8  C   UNL     1       4.524   1.114  -1.497  1.00  0.00     0.026 C 
BRANCH   8   9
ATOM      9  C   UNL     1       5.086   1.034  -2.796  1.00  0.00     0.028 A 
ATOM     10  C   UNL     1       4.540   1.360  -4.020  1.00  0.00     0.033 A 
ATOM     11  S   UNL     1       6.723   0.551  -3.021  1.00  0.00    -0.144 S 
ATOM     12  C   UNL     1       5.568   1.909  -4.856  1.00  0.00     0.051 A 
ATOM     13  C   UNL     1       6.771   1.294  -4.565  1.00  0.00     0.079 A 
BRANCH  12  14
ATOM     14  C   UNL     1       5.396   2.922  -5.893  1.00  0.00     0.256 C 
ATOM     15  O   UNL     1       6.087   2.934  -6.910  1.00  0.00    -0.269 OA
ATOM     16  N   UNL     1       4.385   3.859  -5.740  1.00  0.00    -0.321 N 
ATOM     17  H   UNL     1       4.169   4.374  -6.551  1.00  0.00     0.170 HD
BRANCH  16  18
ATOM     18  C   UNL     1       3.615   4.189  -4.598  1.00  0.00     0.060 A 
ATOM     19  C   UNL     1       4.181   4.288  -3.317  1.00  0.00     0.031 A 
ATOM     20  C   UNL     1       2.227   4.365  -4.741  1.00  0.00     0.067 A 
ATOM     21  C   UNL     1       3.362   4.454  -2.195  1.00  0.00     0.041 A 
ATOM     22  C   UNL     1       1.409   4.502  -3.619  1.00  0.00     0.062 A 
ATOM     23  Cl  UNL     1       1.476   4.287  -6.296  1.00  0.00    -0.082 Cl
ATOM     24  C   UNL     1       1.984   4.532  -2.356  1.00  0.00     0.124 A 
ATOM     25  F   UNL     1       1.198   4.633  -1.278  1.00  0.00    -0.207 F 
ENDBRANCH  16  18
ENDBRANCH  12  14
ENDBRANCH   8   9
ENDBRANCH   5   7
ENDBRANCH   4   5
ENDBRANCH   3   4
ENDBRANCH   2   3
ENDBRANCH   1   2
BRANCH   1  26
ATOM     26  C   UNL     1       2.884  -2.040  -0.631  1.00  0.00     0.202 C 
BRANCH  26  27
ATOM     27  C   UNL     1       2.851  -3.570  -0.593  1.00  0.00     0.261 C 
BRANCH  27  28
ATOM     28  O   UNL     1       3.285  -4.053   0.684  1.00  0.00    -0.460 OA
BRANCH  28  29
ATOM     29  C   UNL     1       4.603  -4.364   0.750  1.00  0.00     0.338 C 
ATOM     30  O   UNL     1       5.380  -4.481  -0.183  1.00  0.00    -0.246 OA
BRANCH  29  31
ATOM     31  C   UNL     1       5.029  -4.320   2.164  1.00  0.00     0.060 A 
ATOM     32  C   UNL     1       6.274  -3.742   2.447  1.00  0.00     0.016 A 
ATOM     33  C   UNL     1       4.213  -4.788   3.198  1.00  0.00     0.016 A 
ATOM     34  C   UNL     1       6.730  -3.675   3.759  1.00  0.00     0.010 A 
ATOM     35  C   UNL     1       4.676  -4.734   4.513  1.00  0.00     0.010 A 
ATOM     36  C   UNL     1       5.954  -4.218   4.790  1.00  0.00    -0.014 A 
BRANCH  36  37
ATOM     37  C   UNL     1       6.573  -4.443   6.114  1.00  0.00     0.031 A 
ATOM     38  C   UNL     1       7.078  -5.823   6.431  1.00  0.00     0.074 A 
ATOM     39  C   UNL     1       6.707  -3.440   6.998  1.00  0.00     0.049 A 
ATOM     40  N   UNL     1       7.644  -6.269   7.520  1.00  0.00    -0.248 NA
ATOM     41  C   UNL     1       6.920  -6.841   5.376  1.00  0.00     0.031 C 
ATOM     42  C   UNL     1       6.257  -2.064   6.793  1.00  0.00     0.029 A 
ATOM     43  N   UNL     1       7.244  -3.436   8.260  1.00  0.00    -0.354 N 
ATOM     44  C   UNL     1       7.892  -7.617   7.290  1.00  0.00     0.074 A 
ATOM     45  C   UNL     1       7.389  -7.926   5.971  1.00  0.00     0.031 C 
ATOM     46  C   UNL     1       6.510  -1.353   7.907  1.00  0.00     0.029 A 
ATOM     47  C   UNL     1       7.118  -2.230   8.906  1.00  0.00     0.049 A 
ATOM     48  H   UNL     1       7.678  -4.222   8.664  1.00  0.00     0.167 HD
ATOM     49  C   UNL     1       8.505  -8.514   8.097  1.00  0.00     0.034 A 
ATOM     50  C   UNL     1       7.438  -1.886  10.169  1.00  0.00     0.034 A 
ATOM     51  C   UNL     1       9.007  -8.198   9.405  1.00  0.00     0.049 A 
ATOM     52  C   UNL     1       8.088  -2.914  11.061  1.00  0.00     0.074 A 
ATOM     53  C   UNL     1       9.661  -9.025  10.299  1.00  0.00     0.029 A 
ATOM     54  N   UNL     1       8.900  -6.956  10.012  1.00  0.00    -0.354 N 
ATOM     55  N   UNL     1       8.410  -4.157  10.794  1.00  0.00    -0.248 NA
ATOM     56  C   UNL     1       8.455  -2.479  12.416  1.00  0.00     0.031 C 
ATOM     57  C   UNL     1       9.926  -8.289  11.459  1.00  0.00     0.029 A 
ATOM     58  C   UNL     1       9.472  -6.993  11.271  1.00  0.00     0.049 A 
ATOM     59  H   UNL     1       8.478  -6.164   9.607  1.00  0.00     0.167 HD
ATOM     60  C   UNL     1       9.051  -4.639  11.931  1.00  0.00     0.074 A 
ATOM     61  C   UNL     1       9.094  -3.545  12.879  1.00  0.00     0.031 C 
ATOM     62  C   UNL     1       9.550  -5.877  12.177  1.00  0.00     0.034 A 
BRANCH  49  63
ATOM     63  C   UNL     1       8.687  -9.913   7.571  1.00  0.00     0.023 A 
ATOM     64  C   UNL     1       9.615 -10.153   6.536  1.00  0.00     0.012 A 
ATOM     65  C   UNL     1       7.976 -10.994   8.126  1.00  0.00     0.148 A 
ATOM     66  C   UNL     1       9.808 -11.441   6.039  1.00  0.00     0.002 A 
ATOM     67  C   UNL     1       8.209 -12.282   7.659  1.00  0.00     0.091 A 
ATOM     68  F   UNL     1       7.081 -10.742   9.092  1.00  0.00    -0.205 F 
ATOM     69  C   UNL     1       9.114 -12.506   6.608  1.00  0.00     0.022 A 
BRANCH  67  70
ATOM     70  S   UNL     1       7.425 -13.731   8.374  1.00  0.00     0.127 S 
ATOM     71  O   UNL     1       6.563 -14.171   7.278  1.00  0.00    -0.237 OA
ATOM     72  O   UNL     1       8.572 -14.600   8.636  1.00  0.00    -0.237 OA
ATOM     73  O   UNL     1       6.728 -13.266   9.565  1.00  0.00    -0.744 OA
ENDBRANCH  67  70
ENDBRANCH  49  63
BRANCH  50  74
ATOM     74  C   UNL     1       7.168  -0.507  10.665  1.00  0.00     0.023 A 
ATOM     75  C   UNL     1       8.241   0.349  10.981  1.00  0.00     0.012 A 
ATOM     76  C   UNL     1       5.849  -0.043  10.835  1.00  0.00     0.148 A 
ATOM     77  C   UNL     1       8.007   1.624  11.497  1.00  0.00     0.002 A 
ATOM     78  C   UNL     1       5.622   1.250  11.292  1.00  0.00     0.091 A 
ATOM     79  F   UNL     1       4.840  -0.876  10.545  1.00  0.00    -0.205 F 
ATOM     80  C   UNL     1       6.699   2.078  11.644  1.00  0.00     0.022 A 
BRANCH  78  81
ATOM     81  S   UNL     1       3.975   1.960  11.387  1.00  0.00     0.127 S 
ATOM     82  O   UNL     1       3.761   2.026  12.830  1.00  0.00    -0.237 OA
ATOM     83  O   UNL     1       4.168   3.253  10.731  1.00  0.00    -0.237 OA
ATOM     84  O   UNL     1       3.110   1.041  10.659  1.00  0.00    -0.744 OA
ENDBRANCH  78  81
ENDBRANCH  50  74
BRANCH  62  85
ATOM     85  C   UNL     1      10.231  -6.101  13.502  1.00  0.00     0.023 A 
ATOM     86  C   UNL     1       9.474  -6.145  14.689  1.00  0.00     0.012 A 
ATOM     87  C   UNL     1      11.621  -6.329  13.560  1.00  0.00     0.148 A 
ATOM     88  C   UNL     1      10.095  -6.366  15.918  1.00  0.00     0.002 A 
ATOM     89  C   UNL     1      12.224  -6.604  14.781  1.00  0.00     0.091 A 
ATOM     90  F   UNL     1      12.327  -6.270  12.422  1.00  0.00    -0.205 F 
ATOM     91  C   UNL     1      11.466  -6.607  15.963  1.00  0.00     0.022 A 
BRANCH  89  92
ATOM     92  S   UNL     1      13.964  -7.025  14.921  1.00  0.00     0.127 S 
ATOM     93  O   UNL     1      14.512  -5.821  15.544  1.00  0.00    -0.237 OA
ATOM     94  O   UNL     1      13.930  -8.201  15.791  1.00  0.00    -0.237 OA
ATOM     95  O   UNL     1      14.425  -7.290  13.565  1.00  0.00    -0.744 OA
ENDBRANCH  89  92
ENDBRANCH  62  85
ENDBRANCH  36  37
ENDBRANCH  29  31
ENDBRANCH  28  29
ENDBRANCH  27  28
ENDBRANCH  26  27
ENDBRANCH   1  26
TORSDOF 20
