REMARK SMILES CC1=C(C)C[C@H](C(=O)OCCOCCOC(=O)c2ccc(-c3c4nc(c(-c5cccc(S(=O)(=O)[O-])c5F)c5ccc([nH]5)c(-c5cccc(S(=O)(=O)[O-])c5F)c5nc(c(-c6cccc(S(=O)(=O)[O-])c6F)c6ccc3[nH]6)C=C5)C=C4)cc2)[C@@H](C(=O)N[C@@H](C)CCc2ccccc2)C1
REMARK SMILES IDX 11 1 10 2 9 3 7 4 8 5 6 6 1 7 2 8 3 9 95 10 4 11 5 12 81 13
REMARK SMILES IDX 82 14 83 15 84 16 85 18 86 19 87 20 88 21 89 22 90 23 94 24
REMARK SMILES IDX 91 25 93 26 92 27 12 28 13 29 14 30 15 31 16 32 17 33 18 34
REMARK SMILES IDX 19 35 80 36 20 37 79 38 21 39 22 40 23 41 73 42 24 43 78 44
REMARK SMILES IDX 72 45 74 46 25 47 77 48 71 49 70 50 26 52 58 53 38 54 57 55
REMARK SMILES IDX 39 56 42 57 56 58 75 59 40 60 41 61 55 63 76 64 43 65 27 66
REMARK SMILES IDX 28 67 36 68 29 69 31 70 37 71 30 72 32 73 33 74 34 75 35 76
REMARK SMILES IDX 59 77 60 78 68 79 61 80 63 81 69 82 62 83 64 84 65 85 66 86
REMARK SMILES IDX 67 87 44 88 45 89 53 90 46 91 48 92 54 93 47 94 49 95 50 96
REMARK SMILES IDX 51 97 52 98
REMARK H PARENT 84 17 74 51 42 62
REMARK Flexibility Score: inf
ROOT
ATOM      1  C   UNL     1       2.189  -0.687  -7.476  1.00  0.00     0.202 C 
ENDROOT
BRANCH   1   2
ATOM      2  C   UNL     1       1.912   0.626  -6.737  1.00  0.00     0.261 C 
BRANCH   2   3
ATOM      3  O   UNL     1       1.273   0.370  -5.476  1.00  0.00    -0.463 OA
BRANCH   3   4
ATOM      4  C   UNL     1      -0.029   0.737  -5.366  1.00  0.00     0.310 C 
ATOM      5  O   UNL     1      -0.638   1.412  -6.187  1.00  0.00    -0.252 OA
BRANCH   4   6
ATOM      6  C   UNL     1      -0.654   0.260  -4.062  1.00  0.00     0.116 C 
ATOM      7  C   UNL     1       0.326  -0.591   0.216  1.00  0.00     0.039 C 
ATOM      8  C   UNL     1       0.058  -0.386  -1.255  1.00  0.00    -0.074 C 
ATOM      9  C   UNL     1       0.032  -1.384  -2.155  1.00  0.00    -0.073 C 
ATOM     10  C   UNL     1      -0.103   1.057  -1.643  1.00  0.00     0.045 C 
ATOM     11  C   UNL     1       0.294  -2.832  -1.821  1.00  0.00     0.039 C 
ATOM     12  C   UNL     1      -0.160  -1.127  -3.622  1.00  0.00     0.046 C 
ATOM     13  C   UNL     1      -0.488   1.419  -3.077  1.00  0.00     0.097 C 
BRANCH  13  14
ATOM     14  C   UNL     1      -1.790   2.221  -3.048  1.00  0.00     0.224 C 
ATOM     15  O   UNL     1      -2.893   1.675  -2.979  1.00  0.00    -0.275 OA
ATOM     16  N   UNL     1      -1.767   3.583  -3.052  1.00  0.00    -0.353 N 
ATOM     17  H   UNL     1      -2.654   4.008  -3.027  1.00  0.00     0.163 HD
BRANCH  16  18
ATOM     18  C   UNL     1      -0.646   4.518  -3.086  1.00  0.00     0.079 C 
ATOM     19  C   UNL     1      -0.715   5.344  -4.371  1.00  0.00     0.031 C 
BRANCH  18  20
ATOM     20  C   UNL     1      -0.671   5.441  -1.854  1.00  0.00     0.029 C 
BRANCH  20  21
ATOM     21  C   UNL     1      -0.417   4.728  -0.516  1.00  0.00     0.037 C 
BRANCH  21  22
ATOM     22  C   UNL     1       0.936   4.088  -0.293  1.00  0.00    -0.048 A 
ATOM     23  C   UNL     1       1.074   3.178   0.771  1.00  0.00     0.004 A 
ATOM     24  C   UNL     1       2.061   4.348  -1.088  1.00  0.00     0.004 A 
ATOM     25  C   UNL     1       2.276   2.498   0.984  1.00  0.00     0.000 A 
ATOM     26  C   UNL     1       3.259   3.661  -0.880  1.00  0.00     0.000 A 
ATOM     27  C   UNL     1       3.364   2.728   0.148  1.00  0.00     0.000 A 
ENDBRANCH  21  22
ENDBRANCH  20  21
ENDBRANCH  18  20
ENDBRANCH  16  18
ENDBRANCH  13  14
ENDBRANCH   4   6
ENDBRANCH   3   4
ENDBRANCH   2   3
ENDBRANCH   1   2
BRANCH   1  28
ATOM     28  O   UNL     1       1.058  -1.381  -8.006  1.00  0.00    -0.374 OA
BRANCH  28  29
ATOM     29  C   UNL     1       0.237  -2.110  -7.097  1.00  0.00     0.202 C 
BRANCH  29  30
ATOM     30  C   UNL     1       0.763  -3.458  -6.586  1.00  0.00     0.261 C 
BRANCH  30  31
ATOM     31  O   UNL     1       2.014  -3.349  -5.885  1.00  0.00    -0.460 OA
BRANCH  31  32
ATOM     32  C   UNL     1       3.079  -3.825  -6.569  1.00  0.00     0.338 C 
ATOM     33  O   UNL     1       3.059  -4.394  -7.658  1.00  0.00    -0.246 OA
BRANCH  32  34
ATOM     34  C   UNL     1       4.340  -3.416  -5.929  1.00  0.00     0.060 A 
ATOM     35  C   UNL     1       5.281  -2.760  -6.734  1.00  0.00     0.016 A 
ATOM     36  C   UNL     1       4.645  -3.744  -4.606  1.00  0.00     0.016 A 
ATOM     37  C   UNL     1       6.554  -2.488  -6.242  1.00  0.00     0.010 A 
ATOM     38  C   UNL     1       5.930  -3.477  -4.116  1.00  0.00     0.010 A 
ATOM     39  C   UNL     1       6.902  -2.890  -4.947  1.00  0.00    -0.014 A 
BRANCH  39  40
ATOM     40  C   UNL     1       8.327  -2.839  -4.536  1.00  0.00     0.031 A 
ATOM     41  C   UNL     1       9.146  -4.101  -4.582  1.00  0.00     0.074 A 
ATOM     42  C   UNL     1       8.896  -1.679  -4.161  1.00  0.00     0.049 A 
ATOM     43  N   UNL     1      10.406  -4.282  -4.282  1.00  0.00    -0.248 NA
ATOM     44  C   UNL     1       8.453  -5.322  -5.026  1.00  0.00     0.031 C 
ATOM     45  C   UNL     1       8.213  -0.389  -4.086  1.00  0.00     0.029 A 
ATOM     46  N   UNL     1      10.180  -1.407  -3.757  1.00  0.00    -0.354 N 
ATOM     47  C   UNL     1      10.651  -5.636  -4.474  1.00  0.00     0.074 A 
ATOM     48  C   UNL     1       9.406  -6.235  -4.904  1.00  0.00     0.031 C 
ATOM     49  C   UNL     1       9.079   0.535  -3.636  1.00  0.00     0.029 A 
ATOM     50  C   UNL     1      10.369  -0.101  -3.372  1.00  0.00     0.049 A 
ATOM     51  H   UNL     1      10.896  -2.082  -3.743  1.00  0.00     0.167 HD
ATOM     52  C   UNL     1      11.810  -6.319  -4.323  1.00  0.00     0.034 A 
ATOM     53  C   UNL     1      11.453   0.506  -2.848  1.00  0.00     0.034 A 
ATOM     54  C   UNL     1      13.054  -5.721  -3.921  1.00  0.00     0.049 A 
ATOM     55  C   UNL     1      12.725  -0.281  -2.668  1.00  0.00     0.074 A 
ATOM     56  C   UNL     1      14.294  -6.321  -3.789  1.00  0.00     0.029 A 
ATOM     57  N   UNL     1      13.215  -4.389  -3.572  1.00  0.00    -0.354 N 
ATOM     58  N   UNL     1      12.972  -1.533  -2.970  1.00  0.00    -0.248 NA
ATOM     59  C   UNL     1      13.879   0.437  -2.107  1.00  0.00     0.031 C 
ATOM     60  C   UNL     1      15.200  -5.357  -3.335  1.00  0.00     0.029 A 
ATOM     61  C   UNL     1      14.530  -4.150  -3.211  1.00  0.00     0.049 A 
ATOM     62  H   UNL     1      12.500  -3.713  -3.580  1.00  0.00     0.167 HD
ATOM     63  C   UNL     1      14.315  -1.742  -2.671  1.00  0.00     0.074 A 
ATOM     64  C   UNL     1      14.833  -0.481  -2.182  1.00  0.00     0.031 C 
ATOM     65  C   UNL     1      15.048  -2.878  -2.778  1.00  0.00     0.034 A 
BRANCH  52  66
ATOM     66  C   UNL     1      11.796  -7.795  -4.622  1.00  0.00     0.023 A 
ATOM     67  C   UNL     1      11.722  -8.236  -5.958  1.00  0.00     0.012 A 
ATOM     68  C   UNL     1      11.913  -8.742  -3.585  1.00  0.00     0.148 A 
ATOM     69  C   UNL     1      11.735  -9.598  -6.257  1.00  0.00     0.002 A 
ATOM     70  C   UNL     1      11.969 -10.096  -3.894  1.00  0.00     0.091 A 
ATOM     71  F   UNL     1      11.958  -8.302  -2.320  1.00  0.00    -0.205 F 
ATOM     72  C   UNL     1      11.870 -10.526  -5.228  1.00  0.00     0.022 A 
BRANCH  70  73
ATOM     73  S   UNL     1      12.217 -11.363  -2.645  1.00  0.00     0.127 S 
ATOM     74  O   UNL     1      10.898 -11.991  -2.596  1.00  0.00    -0.237 OA
ATOM     75  O   UNL     1      13.264 -12.189  -3.247  1.00  0.00    -0.237 OA
ATOM     76  O   UNL     1      12.620 -10.659  -1.435  1.00  0.00    -0.744 OA
ENDBRANCH  70  73
ENDBRANCH  52  66
BRANCH  53  77
ATOM     77  C   UNL     1      11.390   1.949  -2.483  1.00  0.00     0.023 A 
ATOM     78  C   UNL     1      12.131   2.890  -3.225  1.00  0.00     0.012 A 
ATOM     79  C   UNL     1      10.584   2.396  -1.418  1.00  0.00     0.148 A 
ATOM     80  C   UNL     1      12.092   4.245  -2.894  1.00  0.00     0.002 A 
ATOM     81  C   UNL     1      10.504   3.753  -1.132  1.00  0.00     0.091 A 
ATOM     82  F   UNL     1       9.903   1.483  -0.711  1.00  0.00    -0.205 F 
ATOM     83  C   UNL     1      11.271   4.678  -1.856  1.00  0.00     0.022 A 
BRANCH  81  84
ATOM     84  S   UNL     1       9.365   4.409   0.092  1.00  0.00     0.127 S 
ATOM     85  O   UNL     1      10.275   4.825   1.156  1.00  0.00    -0.237 OA
ATOM     86  O   UNL     1       8.731   5.505  -0.643  1.00  0.00    -0.237 OA
ATOM     87  O   UNL     1       8.464   3.311   0.419  1.00  0.00    -0.744 OA
ENDBRANCH  81  84
ENDBRANCH  53  77
BRANCH  65  88
ATOM     88  C   UNL     1      16.504  -2.813  -2.393  1.00  0.00     0.023 A 
ATOM     89  C   UNL     1      16.867  -2.720  -1.036  1.00  0.00     0.012 A 
ATOM     90  C   UNL     1      17.512  -2.927  -3.372  1.00  0.00     0.148 A 
ATOM     91  C   UNL     1      18.210  -2.709  -0.660  1.00  0.00     0.002 A 
ATOM     92  C   UNL     1      18.847  -2.964  -2.986  1.00  0.00     0.091 A 
ATOM     93  F   UNL     1      17.148  -2.998  -4.661  1.00  0.00    -0.205 F 
ATOM     94  C   UNL     1      19.198  -2.843  -1.633  1.00  0.00     0.022 A 
BRANCH  92  95
ATOM     95  S   UNL     1      20.181  -3.231  -4.160  1.00  0.00     0.127 S 
ATOM     96  O   UNL     1      20.783  -1.900  -4.234  1.00  0.00    -0.237 OA
ATOM     97  O   UNL     1      21.000  -4.233  -3.479  1.00  0.00    -0.237 OA
ATOM     98  O   UNL     1      19.548  -3.700  -5.386  1.00  0.00    -0.744 OA
ENDBRANCH  92  95
ENDBRANCH  65  88
ENDBRANCH  39  40
ENDBRANCH  32  34
ENDBRANCH  31  32
ENDBRANCH  30  31
ENDBRANCH  29  30
ENDBRANCH  28  29
ENDBRANCH   1  28
TORSDOF 22
