REMARK SMILES O=C(C[C@@H]1C(=O)NCC[N@@H+]1Cc1ccc(F)c(F)c1)OCCOCCOC(=O)c1ccc(-c2c3nc(c(-c4cccc(S(=O)(=O)[O-])c4F)c4ccc([nH]4)c(-c4cccc(S(=O)(=O)[O-])c4F)c4nc(c(-c5cccc(S(=O)(=O)[O-])c5F)c5ccc2[nH]5)C=C4)C=C3)cc1
REMARK SMILES IDX 23 1 22 2 21 3 20 4 2 5 1 6 3 7 4 8 5 9 10 10 6 11 7 12 9 13
REMARK SMILES IDX 8 15 11 17 12 18 13 19 19 20 14 21 17 22 15 23 18 24 16 25
REMARK SMILES IDX 24 26 25 27 26 28 27 29 28 30 29 31 30 32 91 33 31 34 90 35
REMARK SMILES IDX 32 36 33 37 34 38 84 39 35 40 89 41 83 42 85 43 36 44 88 45
REMARK SMILES IDX 82 46 81 47 37 49 69 50 49 51 68 52 50 53 53 54 67 55 86 56
REMARK SMILES IDX 51 57 52 58 66 60 87 61 54 62 38 63 39 64 47 65 40 66 42 67
REMARK SMILES IDX 48 68 41 69 43 70 44 71 45 72 46 73 70 74 71 75 79 76 72 77
REMARK SMILES IDX 74 78 80 79 73 80 75 81 76 82 77 83 78 84 55 85 56 86 64 87
REMARK SMILES IDX 57 88 59 89 65 90 58 91 60 92 61 93 62 94 63 95
REMARK H PARENT 10 14 7 16 85 48 53 59
REMARK Flexibility Score: inf
ROOT
ATOM      1  O   UNL     1       4.344  -1.292  -1.847  1.00  0.00    -0.374 OA
ENDROOT
BRANCH   1   2
ATOM      2  C   UNL     1       5.099  -1.310  -0.643  1.00  0.00     0.202 C 
BRANCH   2   3
ATOM      3  C   UNL     1       4.554  -0.605   0.605  1.00  0.00     0.261 C 
BRANCH   3   4
ATOM      4  O   UNL     1       3.140  -0.683   0.784  1.00  0.00    -0.463 OA
BRANCH   4   5
ATOM      5  C   UNL     1       2.279   0.264   0.343  1.00  0.00     0.312 C 
ATOM      6  O   UNL     1       1.083   0.186   0.621  1.00  0.00    -0.252 OA
BRANCH   5   7
ATOM      7  C   UNL     1       2.752   1.272  -0.681  1.00  0.00     0.198 C 
BRANCH   7   8
ATOM      8  C   UNL     1       3.567   2.479  -0.223  1.00  0.00     0.285 C 
ATOM      9  C   UNL     1       3.635   2.770   1.290  1.00  0.00     0.279 C 
ATOM     10  N   UNL     1       3.345   3.710  -1.035  1.00  0.00    -0.319 N 
ATOM     11  O   UNL     1       3.255   1.998   2.162  1.00  0.00    -0.268 OA
ATOM     12  N   UNL     1       4.306   3.906   1.659  1.00  0.00    -0.345 N 
ATOM     13  C   UNL     1       4.385   4.701  -0.732  1.00  0.00     0.284 C 
ATOM     14  H   UNL     1       3.454   3.424  -2.008  1.00  0.00     0.349 HD
ATOM     15  C   UNL     1       4.655   4.980   0.757  1.00  0.00     0.177 C 
ATOM     16  H   UNL     1       4.569   3.997   2.603  1.00  0.00     0.163 HD
BRANCH  10  17
ATOM     17  C   UNL     1       1.970   4.227  -1.134  1.00  0.00     0.299 C 
BRANCH  17  18
ATOM     18  C   UNL     1       1.148   4.270   0.134  1.00  0.00     0.009 A 
ATOM     19  C   UNL     1       1.306   5.309   1.061  1.00  0.00     0.013 A 
ATOM     20  C   UNL     1       0.244   3.237   0.439  1.00  0.00     0.052 A 
ATOM     21  C   UNL     1       0.688   5.247   2.312  1.00  0.00     0.043 A 
ATOM     22  C   UNL     1      -0.379   3.185   1.682  1.00  0.00     0.159 A 
ATOM     23  C   UNL     1      -0.136   4.172   2.623  1.00  0.00     0.158 A 
ATOM     24  F   UNL     1      -1.218   2.177   1.958  1.00  0.00    -0.204 F 
ATOM     25  F   UNL     1      -0.713   4.115   3.831  1.00  0.00    -0.204 F 
ENDBRANCH  17  18
ENDBRANCH  10  17
ENDBRANCH   7   8
ENDBRANCH   5   7
ENDBRANCH   4   5
ENDBRANCH   3   4
ENDBRANCH   2   3
ENDBRANCH   1   2
BRANCH   1  26
ATOM     26  C   UNL     1       3.097  -1.991  -1.907  1.00  0.00     0.202 C 
BRANCH  26  27
ATOM     27  C   UNL     1       3.063  -3.495  -1.638  1.00  0.00     0.261 C 
BRANCH  27  28
ATOM     28  O   UNL     1       3.423  -3.821  -0.288  1.00  0.00    -0.460 OA
BRANCH  28  29
ATOM     29  C   UNL     1       4.559  -4.542  -0.170  1.00  0.00     0.338 C 
ATOM     30  O   UNL     1       5.277  -4.944  -1.079  1.00  0.00    -0.246 OA
BRANCH  29  31
ATOM     31  C   UNL     1       4.965  -4.616   1.239  1.00  0.00     0.060 A 
ATOM     32  C   UNL     1       6.259  -4.182   1.559  1.00  0.00     0.016 A 
ATOM     33  C   UNL     1       4.145  -5.207   2.201  1.00  0.00     0.016 A 
ATOM     34  C   UNL     1       6.767  -4.409   2.829  1.00  0.00     0.010 A 
ATOM     35  C   UNL     1       4.663  -5.448   3.474  1.00  0.00     0.010 A 
ATOM     36  C   UNL     1       5.992  -5.099   3.770  1.00  0.00    -0.014 A 
BRANCH  36  37
ATOM     37  C   UNL     1       6.666  -5.626   4.975  1.00  0.00     0.031 A 
ATOM     38  C   UNL     1       7.149  -7.050   4.962  1.00  0.00     0.074 A 
ATOM     39  C   UNL     1       6.899  -4.824   6.027  1.00  0.00     0.049 A 
ATOM     40  N   UNL     1       7.818  -7.705   5.873  1.00  0.00    -0.248 NA
ATOM     41  C   UNL     1       6.843  -7.841   3.757  1.00  0.00     0.031 C 
ATOM     42  C   UNL     1       6.473  -3.429   6.135  1.00  0.00     0.029 A 
ATOM     43  N   UNL     1       7.543  -5.076   7.209  1.00  0.00    -0.354 N 
ATOM     44  C   UNL     1       8.004  -8.983   5.360  1.00  0.00     0.074 A 
ATOM     45  C   UNL     1       7.357  -9.022   4.067  1.00  0.00     0.031 C 
ATOM     46  C   UNL     1       6.843  -2.955   7.337  1.00  0.00     0.029 A 
ATOM     47  C   UNL     1       7.520  -4.015   8.081  1.00  0.00     0.049 A 
ATOM     48  H   UNL     1       7.980  -5.934   7.414  1.00  0.00     0.167 HD
ATOM     49  C   UNL     1       8.676 -10.023   5.906  1.00  0.00     0.034 A 
ATOM     50  C   UNL     1       7.983  -3.922   9.342  1.00  0.00     0.034 A 
ATOM     51  C   UNL     1       9.319  -9.971   7.190  1.00  0.00     0.049 A 
ATOM     52  C   UNL     1       8.714  -5.099   9.933  1.00  0.00     0.074 A 
ATOM     53  C   UNL     1      10.036 -10.961   7.837  1.00  0.00     0.029 A 
ATOM     54  N   UNL     1       9.315  -8.866   8.028  1.00  0.00    -0.354 N 
ATOM     55  N   UNL     1       8.977  -6.266   9.392  1.00  0.00    -0.248 NA
ATOM     56  C   UNL     1       9.252  -4.932  11.290  1.00  0.00     0.031 C 
ATOM     57  C   UNL     1      10.453 -10.458   9.075  1.00  0.00     0.029 A 
ATOM     58  C   UNL     1      10.017  -9.147   9.187  1.00  0.00     0.049 A 
ATOM     59  H   UNL     1       8.878  -8.007   7.828  1.00  0.00     0.167 HD
ATOM     60  C   UNL     1       9.733  -6.960  10.330  1.00  0.00     0.074 A 
ATOM     61  C   UNL     1       9.914  -6.069  11.458  1.00  0.00     0.031 C 
ATOM     62  C   UNL     1      10.220  -8.225  10.275  1.00  0.00     0.034 A 
BRANCH  49  63
ATOM     63  C   UNL     1       8.777 -11.290   5.097  1.00  0.00     0.023 A 
ATOM     64  C   UNL     1       9.620 -11.324   3.966  1.00  0.00     0.012 A 
ATOM     65  C   UNL     1       8.078 -12.453   5.472  1.00  0.00     0.148 A 
ATOM     66  C   UNL     1       9.744 -12.486   3.206  1.00  0.00     0.002 A 
ATOM     67  C   UNL     1       8.240 -13.621   4.734  1.00  0.00     0.091 A 
ATOM     68  F   UNL     1       7.263 -12.395   6.535  1.00  0.00    -0.205 F 
ATOM     69  C   UNL     1       9.063 -13.636   3.595  1.00  0.00     0.022 A 
BRANCH  67  70
ATOM     70  S   UNL     1       7.463 -15.175   5.190  1.00  0.00     0.127 S 
ATOM     71  O   UNL     1       6.491 -15.348   4.111  1.00  0.00    -0.237 OA
ATOM     72  O   UNL     1       8.592 -16.105   5.149  1.00  0.00    -0.237 OA
ATOM     73  O   UNL     1       6.894 -14.967   6.514  1.00  0.00    -0.744 OA
ENDBRANCH  67  70
ENDBRANCH  49  63
BRANCH  50  74
ATOM     74  C   UNL     1       7.798  -2.661  10.112  1.00  0.00     0.023 A 
ATOM     75  C   UNL     1       8.912  -1.861  10.428  1.00  0.00     0.012 A 
ATOM     76  C   UNL     1       6.515  -2.242  10.516  1.00  0.00     0.148 A 
ATOM     77  C   UNL     1       8.756  -0.684  11.162  1.00  0.00     0.002 A 
ATOM     78  C   UNL     1       6.361  -1.041  11.198  1.00  0.00     0.091 A 
ATOM     79  F   UNL     1       5.468  -3.027  10.223  1.00  0.00    -0.205 F 
ATOM     80  C   UNL     1       7.481  -0.269  11.537  1.00  0.00     0.022 A 
BRANCH  78  81
ATOM     81  S   UNL     1       4.744  -0.369  11.602  1.00  0.00     0.127 S 
ATOM     82  O   UNL     1       4.676  -0.604  13.042  1.00  0.00    -0.237 OA
ATOM     83  O   UNL     1       4.893   1.034  11.212  1.00  0.00    -0.237 OA
ATOM     84  O   UNL     1       3.797  -1.120  10.789  1.00  0.00    -0.744 OA
ENDBRANCH  78  81
ENDBRANCH  50  74
BRANCH  62  85
ATOM     85  C   UNL     1      11.016  -8.710  11.460  1.00  0.00     0.023 A 
ATOM     86  C   UNL     1      10.359  -8.995  12.673  1.00  0.00     0.012 A 
ATOM     87  C   UNL     1      12.403  -8.931  11.354  1.00  0.00     0.148 A 
ATOM     88  C   UNL     1      11.077  -9.451  13.777  1.00  0.00     0.002 A 
ATOM     89  C   UNL     1      13.104  -9.434  12.444  1.00  0.00     0.091 A 
ATOM     90  F   UNL     1      13.014  -8.637  10.198  1.00  0.00    -0.205 F 
ATOM     91  C   UNL     1      12.446  -9.681  13.660  1.00  0.00     0.022 A 
BRANCH  89  92
ATOM     92  S   UNL     1      14.849  -9.847  12.350  1.00  0.00     0.127 S 
ATOM     93  O   UNL     1      15.461  -8.720  13.050  1.00  0.00    -0.237 OA
ATOM     94  O   UNL     1      14.909 -11.119  13.071  1.00  0.00    -0.237 OA
ATOM     95  O   UNL     1      15.157  -9.948  10.929  1.00  0.00    -0.744 OA
ENDBRANCH  89  92
ENDBRANCH  62  85
ENDBRANCH  36  37
ENDBRANCH  29  31
ENDBRANCH  28  29
ENDBRANCH  27  28
ENDBRANCH  26  27
ENDBRANCH   1  26
TORSDOF 20
