REMARK SMILES O=C(OCCOCCOC(=O)C1CN(S(=O)(=O)c2ccc(F)cc2)C1)c1ccc(-c2c3nc(c(-c4cccc(S(=O)(=O)[O-])c4F)c4ccc([nH]4)c(-c4cccc(S(=O)(=O)[O-])c4F)c4nc(c(-c5cccc(S(=O)(=O)[O-])c5F)c5ccc2[nH]5)C=C4)C=C3)cc1
REMARK SMILES IDX 5 1 4 2 3 3 2 4 1 5 26 6 27 7 88 8 28 9 87 10 29 11 30 12
REMARK SMILES IDX 31 13 81 14 32 15 86 16 80 17 82 18 33 19 85 20 79 21 78 22
REMARK SMILES IDX 34 24 66 25 46 26 65 27 47 28 50 29 64 30 83 31 48 32 49 33
REMARK SMILES IDX 63 35 84 36 51 37 35 38 36 39 44 40 37 41 39 42 45 43 38 44
REMARK SMILES IDX 40 45 41 46 42 47 43 48 67 49 68 50 76 51 69 52 71 53 77 54
REMARK SMILES IDX 70 55 72 56 73 57 74 58 75 59 52 60 53 61 61 62 54 63 56 64
REMARK SMILES IDX 62 65 55 66 57 67 58 68 59 69 60 70 6 71 7 72 8 73 9 74
REMARK SMILES IDX 10 75 11 76 12 77 13 78 25 79 14 80 15 81 16 82 17 83 18 84
REMARK SMILES IDX 19 85 24 86 20 87 23 88 21 89 22 90
REMARK H PARENT 82 23 50 34
REMARK Flexibility Score: inf
ROOT
ATOM      1  C   UNL     1       4.616  -1.502  -0.018  1.00  0.00     0.202 C 
ENDROOT
BRANCH   1   2
ATOM      2  C   UNL     1       4.418  -0.519   1.142  1.00  0.00     0.261 C 
BRANCH   2   3
ATOM      3  O   UNL     1       3.029  -0.194   1.295  1.00  0.00    -0.460 OA
BRANCH   3   4
ATOM      4  C   UNL     1       2.365   0.866   0.778  1.00  0.00     0.338 C 
ATOM      5  O   UNL     1       1.149   0.933   0.945  1.00  0.00    -0.246 OA
BRANCH   4   6
ATOM      6  C   UNL     1       3.038   1.955   0.007  1.00  0.00     0.060 A 
ATOM      7  C   UNL     1       4.214   1.806  -0.734  1.00  0.00     0.016 A 
ATOM      8  C   UNL     1       2.382   3.194  -0.040  1.00  0.00     0.016 A 
ATOM      9  C   UNL     1       4.763   2.844  -1.454  1.00  0.00     0.010 A 
ATOM     10  C   UNL     1       2.917   4.250  -0.778  1.00  0.00     0.010 A 
ATOM     11  C   UNL     1       4.120   4.070  -1.468  1.00  0.00    -0.014 A 
BRANCH  11  12
ATOM     12  C   UNL     1       4.839   5.185  -2.085  1.00  0.00     0.031 A 
ATOM     13  C   UNL     1       5.552   6.127  -1.174  1.00  0.00     0.074 A 
ATOM     14  C   UNL     1       4.941   5.245  -3.423  1.00  0.00     0.049 A 
ATOM     15  N   UNL     1       6.169   7.235  -1.462  1.00  0.00    -0.248 NA
ATOM     16  C   UNL     1       5.588   5.766   0.258  1.00  0.00     0.031 C 
ATOM     17  C   UNL     1       4.389   4.261  -4.359  1.00  0.00     0.029 A 
ATOM     18  N   UNL     1       5.547   6.169  -4.226  1.00  0.00    -0.354 N 
ATOM     19  C   UNL     1       6.611   7.736  -0.246  1.00  0.00     0.074 A 
ATOM     20  C   UNL     1       6.221   6.803   0.783  1.00  0.00     0.031 C 
ATOM     21  C   UNL     1       4.664   4.650  -5.614  1.00  0.00     0.029 A 
ATOM     22  C   UNL     1       5.344   5.938  -5.566  1.00  0.00     0.049 A 
ATOM     23  H   UNL     1       6.075   6.924  -3.880  1.00  0.00     0.167 HD
ATOM     24  C   UNL     1       7.278   8.888  -0.028  1.00  0.00     0.034 A 
ATOM     25  C   UNL     1       5.632   6.723  -6.620  1.00  0.00     0.034 A 
ATOM     26  C   UNL     1       7.657   9.775  -1.089  1.00  0.00     0.049 A 
ATOM     27  C   UNL     1       6.304   8.040  -6.336  1.00  0.00     0.074 A 
ATOM     28  C   UNL     1       8.298  10.995  -1.004  1.00  0.00     0.029 A 
ATOM     29  N   UNL     1       7.422   9.530  -2.436  1.00  0.00    -0.354 N 
ATOM     30  N   UNL     1       6.711   8.526  -5.186  1.00  0.00    -0.248 NA
ATOM     31  C   UNL     1       6.566   8.913  -7.485  1.00  0.00     0.031 C 
ATOM     32  C   UNL     1       8.421  11.502  -2.300  1.00  0.00     0.029 A 
ATOM     33  C   UNL     1       7.897  10.580  -3.195  1.00  0.00     0.049 A 
ATOM     34  H   UNL     1       6.981   8.727  -2.795  1.00  0.00     0.167 HD
ATOM     35  C   UNL     1       7.298   9.751  -5.473  1.00  0.00     0.074 A 
ATOM     36  C   UNL     1       7.220   9.915  -6.912  1.00  0.00     0.031 C 
ATOM     37  C   UNL     1       7.834  10.671  -4.633  1.00  0.00     0.034 A 
BRANCH  24  38
ATOM     38  C   UNL     1       7.597   9.260   1.390  1.00  0.00     0.023 A 
ATOM     39  C   UNL     1       8.621   8.590   2.087  1.00  0.00     0.012 A 
ATOM     40  C   UNL     1       6.904  10.313   2.017  1.00  0.00     0.148 A 
ATOM     41  C   UNL     1       8.945   8.959   3.393  1.00  0.00     0.002 A 
ATOM     42  C   UNL     1       7.263  10.706   3.299  1.00  0.00     0.091 A 
ATOM     43  F   UNL     1       5.909  10.910   1.345  1.00  0.00    -0.205 F 
ATOM     44  C   UNL     1       8.276  10.023   3.993  1.00  0.00     0.022 A 
BRANCH  42  45
ATOM     45  S   UNL     1       6.513  12.109   4.130  1.00  0.00     0.127 S 
ATOM     46  O   UNL     1       5.933  11.476   5.315  1.00  0.00    -0.237 OA
ATOM     47  O   UNL     1       7.673  12.957   4.396  1.00  0.00    -0.237 OA
ATOM     48  O   UNL     1       5.543  12.664   3.196  1.00  0.00    -0.744 OA
ENDBRANCH  42  45
ENDBRANCH  24  38
BRANCH  25  49
ATOM     49  C   UNL     1       5.271   6.300  -8.003  1.00  0.00     0.023 A 
ATOM     50  C   UNL     1       6.288   6.059  -8.946  1.00  0.00     0.012 A 
ATOM     51  C   UNL     1       3.926   6.116  -8.387  1.00  0.00     0.148 A 
ATOM     52  C   UNL     1       5.973   5.675 -10.251  1.00  0.00     0.002 A 
ATOM     53  C   UNL     1       3.622   5.675  -9.670  1.00  0.00     0.091 A 
ATOM     54  F   UNL     1       2.967   6.367  -7.485  1.00  0.00    -0.205 F 
ATOM     55  C   UNL     1       4.643   5.472 -10.610  1.00  0.00     0.022 A 
BRANCH  53  56
ATOM     56  S   UNL     1       1.948   5.263 -10.178  1.00  0.00     0.127 S 
ATOM     57  O   UNL     1       1.650   6.336 -11.122  1.00  0.00    -0.237 OA
ATOM     58  O   UNL     1       2.133   3.943 -10.783  1.00  0.00    -0.237 OA
ATOM     59  O   UNL     1       1.156   5.257  -8.956  1.00  0.00    -0.744 OA
ENDBRANCH  53  56
ENDBRANCH  25  49
BRANCH  37  60
ATOM     60  C   UNL     1       8.400  11.919  -5.249  1.00  0.00     0.023 A 
ATOM     61  C   UNL     1       7.530  12.899  -5.765  1.00  0.00     0.012 A 
ATOM     62  C   UNL     1       9.786  12.165  -5.209  1.00  0.00     0.148 A 
ATOM     63  C   UNL     1       8.037  14.098  -6.261  1.00  0.00     0.002 A 
ATOM     64  C   UNL     1      10.276  13.386  -5.647  1.00  0.00     0.091 A 
ATOM     65  F   UNL     1      10.592  11.208  -4.726  1.00  0.00    -0.205 F 
ATOM     66  C   UNL     1       9.406  14.348  -6.186  1.00  0.00     0.022 A 
BRANCH  64  67
ATOM     67  S   UNL     1      12.004  13.842  -5.474  1.00  0.00     0.127 S 
ATOM     68  O   UNL     1      12.457  13.818  -6.864  1.00  0.00    -0.237 OA
ATOM     69  O   UNL     1      11.912  15.178  -4.884  1.00  0.00    -0.237 OA
ATOM     70  O   UNL     1      12.601  12.837  -4.606  1.00  0.00    -0.744 OA
ENDBRANCH  64  67
ENDBRANCH  37  60
ENDBRANCH  11  12
ENDBRANCH   4   6
ENDBRANCH   3   4
ENDBRANCH   2   3
ENDBRANCH   1   2
BRANCH   1  71
ATOM     71  O   UNL     1       4.182  -1.095  -1.320  1.00  0.00    -0.374 OA
BRANCH  71  72
ATOM     72  C   UNL     1       2.771  -1.165  -1.582  1.00  0.00     0.202 C 
BRANCH  72  73
ATOM     73  C   UNL     1       2.504  -2.033  -2.809  1.00  0.00     0.261 C 
BRANCH  73  74
ATOM     74  O   UNL     1       2.925  -3.360  -2.468  1.00  0.00    -0.463 OA
BRANCH  74  75
ATOM     75  C   UNL     1       4.240  -3.590  -2.732  1.00  0.00     0.311 C 
ATOM     76  O   UNL     1       4.840  -3.116  -3.695  1.00  0.00    -0.252 OA
BRANCH  75  77
ATOM     77  C   UNL     1       4.900  -4.446  -1.670  1.00  0.00     0.129 C 
ATOM     78  C   UNL     1       4.159  -4.956  -0.414  1.00  0.00     0.119 C 
ATOM     79  C   UNL     1       5.024  -5.929  -2.012  1.00  0.00     0.119 C 
ATOM     80  N   UNL     1       4.897  -6.263  -0.551  1.00  0.00    -0.196 NA
BRANCH  80  81
ATOM     81  S   UNL     1       6.246  -6.611   0.451  1.00  0.00     0.243 S 
ATOM     82  O   UNL     1       7.290  -5.656   0.161  1.00  0.00    -0.207 OA
ATOM     83  O   UNL     1       5.752  -6.808   1.800  1.00  0.00    -0.207 OA
BRANCH  81  84
ATOM     84  C   UNL     1       6.738  -8.182  -0.206  1.00  0.00     0.082 A 
ATOM     85  C   UNL     1       7.366  -8.229  -1.457  1.00  0.00     0.025 A 
ATOM     86  C   UNL     1       6.448  -9.354   0.496  1.00  0.00     0.025 A 
ATOM     87  C   UNL     1       7.603  -9.459  -2.061  1.00  0.00     0.040 A 
ATOM     88  C   UNL     1       6.731 -10.584  -0.096  1.00  0.00     0.040 A 
ATOM     89  C   UNL     1       7.279 -10.625  -1.377  1.00  0.00     0.123 A 
ATOM     90  F   UNL     1       7.499 -11.810  -1.961  1.00  0.00    -0.207 F 
ENDBRANCH  81  84
ENDBRANCH  80  81
ENDBRANCH  75  77
ENDBRANCH  74  75
ENDBRANCH  73  74
ENDBRANCH  72  73
ENDBRANCH  71  72
ENDBRANCH   1  71
TORSDOF 19
