REMARK SMILES NC(=O)CC[C@H](C(=O)OCCOCCOC(=O)c1ccc(-c2c3nc(c(-c4cccc(S(=O)(=O)[O-])c4F)c4ccc([nH]4)c(-c4cccc(S(=O)(=O)[O-])c4F)c4nc(c(-c5cccc(S(=O)(=O)[O-])c5F)c5ccc2[nH]5)C=C4)C=C3)cc1)N1CCOC1=O
REMARK SMILES IDX 12 1 11 2 10 3 9 4 7 5 8 6 6 7 5 8 4 9 2 10 1 11 3 14 81 15
REMARK SMILES IDX 82 16 85 17 83 18 84 19 86 20 13 21 14 22 15 23 16 24 17 25
REMARK SMILES IDX 18 26 19 27 80 28 20 29 79 30 21 31 22 32 23 33 73 34 24 35
REMARK SMILES IDX 78 36 72 37 74 38 25 39 77 40 71 41 70 42 26 44 58 45 38 46
REMARK SMILES IDX 57 47 39 48 42 49 56 50 75 51 40 52 41 53 55 55 76 56 43 57
REMARK SMILES IDX 27 58 28 59 36 60 29 61 31 62 37 63 30 64 32 65 33 66 34 67
REMARK SMILES IDX 35 68 59 69 60 70 68 71 61 72 63 73 69 74 62 75 64 76 65 77
REMARK SMILES IDX 66 78 67 79 44 80 45 81 53 82 46 83 48 84 54 85 47 86 49 87
REMARK SMILES IDX 50 88 51 89 52 90
REMARK H PARENT 1 12 1 13 74 43 42 54
REMARK Flexibility Score: inf
ROOT
ATOM      1  O   UNL     1      -0.904   2.801  -0.900  1.00  0.00    -0.374 OA
ENDROOT
BRANCH   1   2
ATOM      2  C   UNL     1      -0.352   3.967  -1.513  1.00  0.00     0.202 C 
BRANCH   2   3
ATOM      3  C   UNL     1       0.634   4.775  -0.666  1.00  0.00     0.261 C 
BRANCH   3   4
ATOM      4  O   UNL     1       1.848   4.035  -0.470  1.00  0.00    -0.462 OA
BRANCH   4   5
ATOM      5  C   UNL     1       1.963   3.379   0.711  1.00  0.00     0.329 C 
ATOM      6  O   UNL     1       1.172   3.458   1.645  1.00  0.00    -0.250 OA
BRANCH   5   7
ATOM      7  C   UNL     1       3.220   2.488   0.750  1.00  0.00     0.199 C 
BRANCH   7   8
ATOM      8  C   UNL     1       3.818   1.920  -0.557  1.00  0.00     0.047 C 
BRANCH   8   9
ATOM      9  C   UNL     1       4.198   2.843  -1.708  1.00  0.00     0.102 C 
BRANCH   9  10
ATOM     10  C   UNL     1       5.243   3.849  -1.318  1.00  0.00     0.217 C 
ATOM     11  N   UNL     1       4.759   5.049  -0.910  1.00  0.00    -0.370 N 
ATOM     12  H   UNL     1       5.379   5.763  -0.636  1.00  0.00     0.159 HD
ATOM     13  H   UNL     1       3.787   5.206  -0.887  1.00  0.00     0.159 HD
ATOM     14  O   UNL     1       6.440   3.591  -1.311  1.00  0.00    -0.275 OA
ENDBRANCH   9  10
ENDBRANCH   8   9
ENDBRANCH   7   8
BRANCH   7  15
ATOM     15  N   UNL     1       4.184   2.937   1.746  1.00  0.00    -0.291 N 
ATOM     16  C   UNL     1       4.996   2.038   2.501  1.00  0.00     0.165 C 
ATOM     17  C   UNL     1       4.341   4.227   2.193  1.00  0.00     0.410 C 
ATOM     18  C   UNL     1       5.930   2.980   3.216  1.00  0.00     0.256 C 
ATOM     19  O   UNL     1       5.266   4.247   3.202  1.00  0.00    -0.448 OA
ATOM     20  O   UNL     1       3.732   5.210   1.816  1.00  0.00    -0.224 OA
ENDBRANCH   7  15
ENDBRANCH   5   7
ENDBRANCH   4   5
ENDBRANCH   3   4
ENDBRANCH   2   3
ENDBRANCH   1   2
BRANCH   1  21
ATOM     21  C   UNL     1      -0.124   1.607  -0.937  1.00  0.00     0.202 C 
BRANCH  21  22
ATOM     22  C   UNL     1      -0.180   0.776  -2.222  1.00  0.00     0.261 C 
BRANCH  22  23
ATOM     23  O   UNL     1       0.461   1.447  -3.319  1.00  0.00    -0.460 OA
BRANCH  23  24
ATOM     24  C   UNL     1      -0.395   2.049  -4.179  1.00  0.00     0.338 C 
ATOM     25  O   UNL     1      -1.613   2.035  -4.133  1.00  0.00    -0.246 OA
BRANCH  24  26
ATOM     26  C   UNL     1       0.357   2.908  -5.111  1.00  0.00     0.060 A 
ATOM     27  C   UNL     1      -0.071   4.234  -5.261  1.00  0.00     0.016 A 
ATOM     28  C   UNL     1       1.408   2.406  -5.879  1.00  0.00     0.016 A 
ATOM     29  C   UNL     1       0.506   5.047  -6.233  1.00  0.00     0.010 A 
ATOM     30  C   UNL     1       1.981   3.222  -6.857  1.00  0.00     0.010 A 
ATOM     31  C   UNL     1       1.501   4.528  -7.068  1.00  0.00    -0.014 A 
BRANCH  31  32
ATOM     32  C   UNL     1       1.931   5.281  -8.269  1.00  0.00     0.031 A 
ATOM     33  C   UNL     1       1.425   4.840  -9.616  1.00  0.00     0.074 A 
ATOM     34  C   UNL     1       2.779   6.320  -8.164  1.00  0.00     0.049 A 
ATOM     35  N   UNL     1       1.748   5.275 -10.804  1.00  0.00    -0.248 NA
ATOM     36  C   UNL     1       0.426   3.755  -9.625  1.00  0.00     0.031 C 
ATOM     37  C   UNL     1       3.316   6.851  -6.912  1.00  0.00     0.029 A 
ATOM     38  N   UNL     1       3.364   7.091  -9.137  1.00  0.00    -0.354 N 
ATOM     39  C   UNL     1       1.040   4.485 -11.702  1.00  0.00     0.074 A 
ATOM     40  C   UNL     1       0.260   3.549 -10.924  1.00  0.00     0.031 C 
ATOM     41  C   UNL     1       4.180   7.841  -7.195  1.00  0.00     0.029 A 
ATOM     42  C   UNL     1       4.287   7.984  -8.645  1.00  0.00     0.049 A 
ATOM     43  H   UNL     1       3.146   7.012 -10.094  1.00  0.00     0.167 HD
ATOM     44  C   UNL     1       1.042   4.536 -13.054  1.00  0.00     0.034 A 
ATOM     45  C   UNL     1       5.145   8.795  -9.296  1.00  0.00     0.034 A 
ATOM     46  C   UNL     1       1.795   5.491 -13.820  1.00  0.00     0.049 A 
ATOM     47  C   UNL     1       5.144   8.805 -10.804  1.00  0.00     0.074 A 
ATOM     48  C   UNL     1       1.807   5.671 -15.191  1.00  0.00     0.029 A 
ATOM     49  N   UNL     1       2.685   6.408 -13.286  1.00  0.00    -0.354 N 
ATOM     50  N   UNL     1       4.384   8.136 -11.636  1.00  0.00    -0.248 NA
ATOM     51  C   UNL     1       6.103   9.705 -11.463  1.00  0.00     0.031 C 
ATOM     52  C   UNL     1       2.744   6.663 -15.491  1.00  0.00     0.029 A 
ATOM     53  C   UNL     1       3.271   7.140 -14.302  1.00  0.00     0.049 A 
ATOM     54  H   UNL     1       2.872   6.521 -12.326  1.00  0.00     0.167 HD
ATOM     55  C   UNL     1       4.735   8.572 -12.909  1.00  0.00     0.074 A 
ATOM     56  C   UNL     1       5.769   9.570 -12.739  1.00  0.00     0.031 C 
ATOM     57  C   UNL     1       4.250   8.178 -14.112  1.00  0.00     0.034 A 
BRANCH  44  58
ATOM     58  C   UNL     1       0.211   3.533 -13.808  1.00  0.00     0.023 A 
ATOM     59  C   UNL     1      -1.193   3.647 -13.832  1.00  0.00     0.012 A 
ATOM     60  C   UNL     1       0.838   2.531 -14.576  1.00  0.00     0.148 A 
ATOM     61  C   UNL     1      -1.961   2.767 -14.592  1.00  0.00     0.002 A 
ATOM     62  C   UNL     1       0.070   1.689 -15.369  1.00  0.00     0.091 A 
ATOM     63  F   UNL     1       2.174   2.428 -14.521  1.00  0.00    -0.205 F 
ATOM     64  C   UNL     1      -1.331   1.798 -15.371  1.00  0.00     0.022 A 
BRANCH  62  65
ATOM     65  S   UNL     1       0.792   0.469 -16.471  1.00  0.00     0.127 S 
ATOM     66  O   UNL     1       0.343  -0.782 -15.860  1.00  0.00    -0.237 OA
ATOM     67  O   UNL     1       0.150   0.790 -17.745  1.00  0.00    -0.237 OA
ATOM     68  O   UNL     1       2.230   0.693 -16.437  1.00  0.00    -0.744 OA
ENDBRANCH  62  65
ENDBRANCH  44  58
BRANCH  45  69
ATOM     69  C   UNL     1       6.077   9.678  -8.538  1.00  0.00     0.023 A 
ATOM     70  C   UNL     1       5.925  11.076  -8.618  1.00  0.00     0.012 A 
ATOM     71  C   UNL     1       7.128   9.146  -7.767  1.00  0.00     0.148 A 
ATOM     72  C   UNL     1       6.830  11.929  -7.987  1.00  0.00     0.002 A 
ATOM     73  C   UNL     1       7.993  10.000  -7.093  1.00  0.00     0.091 A 
ATOM     74  F   UNL     1       7.265   7.814  -7.713  1.00  0.00    -0.205 F 
ATOM     75  C   UNL     1       7.860  11.392  -7.219  1.00  0.00     0.022 A 
BRANCH  73  76
ATOM     76  S   UNL     1       9.276   9.401  -5.989  1.00  0.00     0.127 S 
ATOM     77  O   UNL     1      10.489   9.737  -6.731  1.00  0.00    -0.237 OA
ATOM     78  O   UNL     1       9.041  10.208  -4.792  1.00  0.00    -0.237 OA
ATOM     79  O   UNL     1       9.013   7.979  -5.819  1.00  0.00    -0.744 OA
ENDBRANCH  73  76
ENDBRANCH  45  69
BRANCH  57  80
ATOM     80  C   UNL     1       4.764   8.874 -15.346  1.00  0.00     0.023 A 
ATOM     81  C   UNL     1       6.072   8.634 -15.808  1.00  0.00     0.012 A 
ATOM     82  C   UNL     1       3.903   9.697 -16.101  1.00  0.00     0.148 A 
ATOM     83  C   UNL     1       6.526   9.227 -16.986  1.00  0.00     0.002 A 
ATOM     84  C   UNL     1       4.343  10.238 -17.302  1.00  0.00     0.091 A 
ATOM     85  F   UNL     1       2.666   9.924 -15.635  1.00  0.00    -0.205 F 
ATOM     86  C   UNL     1       5.658  10.016 -17.739  1.00  0.00     0.022 A 
BRANCH  84  87
ATOM     87  S   UNL     1       3.265  11.178 -18.389  1.00  0.00     0.127 S 
ATOM     88  O   UNL     1       3.844  12.517 -18.297  1.00  0.00    -0.237 OA
ATOM     89  O   UNL     1       3.469  10.511 -19.675  1.00  0.00    -0.237 OA
ATOM     90  O   UNL     1       1.921  11.043 -17.842  1.00  0.00    -0.744 OA
ENDBRANCH  84  87
ENDBRANCH  57  80
ENDBRANCH  31  32
ENDBRANCH  24  26
ENDBRANCH  23  24
ENDBRANCH  22  23
ENDBRANCH  21  22
ENDBRANCH   1  21
TORSDOF 21
