REMARK SMILES CC[NH+](CC)C[C@H](F)C(=O)OCCOCCOC(=O)c1ccc(-c2c3nc(c(-c4cccc(S(=O)(=O)[O-])c4F)c4ccc([nH]4)c(-c4cccc(S(=O)(=O)[O-])c4F)c4nc(c(-c5cccc(S(=O)(=O)[O-])c5F)c5ccc2[nH]5)C=C4)C=C3)cc1
REMARK SMILES IDX 14 1 13 2 12 3 11 4 9 5 10 6 7 7 8 8 6 9 3 10 2 12 1 13 4 14
REMARK SMILES IDX 5 15 15 16 16 17 17 18 18 19 19 20 20 21 21 22 82 23 22 24
REMARK SMILES IDX 81 25 23 26 24 27 25 28 75 29 26 30 80 31 74 32 76 33 27 34
REMARK SMILES IDX 79 35 73 36 72 37 28 39 60 40 40 41 59 42 41 43 44 44 58 45
REMARK SMILES IDX 77 46 42 47 43 48 57 50 78 51 45 52 29 53 30 54 38 55 31 56
REMARK SMILES IDX 33 57 39 58 32 59 34 60 35 61 36 62 37 63 61 64 62 65 70 66
REMARK SMILES IDX 63 67 65 68 71 69 64 70 66 71 67 72 68 73 69 74 46 75 47 76
REMARK SMILES IDX 55 77 48 78 50 79 56 80 49 81 51 82 52 83 53 84 54 85
REMARK H PARENT 3 11 76 38 44 49
REMARK Flexibility Score: inf
ROOT
ATOM      1  O   UNL     1       6.866   3.215  -3.028  1.00  0.00    -0.374 OA
ENDROOT
BRANCH   1   2
ATOM      2  C   UNL     1       7.441   2.348  -2.055  1.00  0.00     0.202 C 
BRANCH   2   3
ATOM      3  C   UNL     1       6.798   2.270  -0.666  1.00  0.00     0.261 C 
BRANCH   3   4
ATOM      4  O   UNL     1       5.423   1.864  -0.669  1.00  0.00    -0.461 OA
BRANCH   4   5
ATOM      5  C   UNL     1       4.536   2.897  -0.641  1.00  0.00     0.346 C 
ATOM      6  O   UNL     1       4.861   4.077  -0.725  1.00  0.00    -0.248 OA
BRANCH   5   7
ATOM      7  C   UNL     1       3.099   2.429  -0.590  1.00  0.00     0.330 C 
ATOM      8  F   UNL     1       2.970   1.107  -0.940  1.00  0.00    -0.228 F 
BRANCH   7   9
ATOM      9  C   UNL     1       2.422   2.612   0.776  1.00  0.00     0.312 C 
BRANCH   9  10
ATOM     10  N   UNL     1       2.542   3.832   1.584  1.00  0.00    -0.332 N 
ATOM     11  H   UNL     1       1.995   3.521   2.387  1.00  0.00     0.348 HD
BRANCH  10  12
ATOM     12  C   UNL     1       3.838   4.131   2.199  1.00  0.00     0.258 C 
ATOM     13  C   UNL     1       4.573   2.931   2.795  1.00  0.00     0.071 C 
ENDBRANCH  10  12
BRANCH  10  14
ATOM     14  C   UNL     1       1.827   5.014   1.096  1.00  0.00     0.258 C 
ATOM     15  C   UNL     1       2.319   5.679  -0.184  1.00  0.00     0.071 C 
ENDBRANCH  10  14
ENDBRANCH   9  10
ENDBRANCH   7   9
ENDBRANCH   5   7
ENDBRANCH   4   5
ENDBRANCH   3   4
ENDBRANCH   2   3
ENDBRANCH   1   2
BRANCH   1  16
ATOM     16  C   UNL     1       5.642   2.837  -3.656  1.00  0.00     0.202 C 
BRANCH  16  17
ATOM     17  C   UNL     1       5.629   1.594  -4.549  1.00  0.00     0.261 C 
BRANCH  17  18
ATOM     18  O   UNL     1       5.903   0.385  -3.822  1.00  0.00    -0.460 OA
BRANCH  18  19
ATOM     19  C   UNL     1       7.015  -0.271  -4.229  1.00  0.00     0.338 C 
ATOM     20  O   UNL     1       7.749   0.032  -5.163  1.00  0.00    -0.246 OA
BRANCH  19  21
ATOM     21  C   UNL     1       7.369  -1.334  -3.276  1.00  0.00     0.060 A 
ATOM     22  C   UNL     1       8.646  -1.283  -2.702  1.00  0.00     0.016 A 
ATOM     23  C   UNL     1       6.523  -2.418  -3.040  1.00  0.00     0.016 A 
ATOM     24  C   UNL     1       9.107  -2.351  -1.939  1.00  0.00     0.010 A 
ATOM     25  C   UNL     1       6.994  -3.496  -2.282  1.00  0.00     0.010 A 
ATOM     26  C   UNL     1       8.302  -3.484  -1.766  1.00  0.00    -0.014 A 
BRANCH  26  27
ATOM     27  C   UNL     1       8.900  -4.701  -1.171  1.00  0.00     0.031 A 
ATOM     28  C   UNL     1       9.419  -5.782  -2.082  1.00  0.00     0.074 A 
ATOM     29  C   UNL     1       9.019  -4.820   0.163  1.00  0.00     0.049 A 
ATOM     30  N   UNL     1      10.024  -6.899  -1.776  1.00  0.00    -0.248 NA
ATOM     31  C   UNL     1       9.237  -5.573  -3.529  1.00  0.00     0.031 C 
ATOM     32  C   UNL     1       8.550  -3.840   1.141  1.00  0.00     0.029 A 
ATOM     33  N   UNL     1       9.559  -5.825   0.923  1.00  0.00    -0.354 N 
ATOM     34  C   UNL     1      10.286  -7.532  -2.985  1.00  0.00     0.074 A 
ATOM     35  C   UNL     1       9.757  -6.684  -4.031  1.00  0.00     0.031 C 
ATOM     36  C   UNL     1       8.800  -4.306   2.377  1.00  0.00     0.029 A 
ATOM     37  C   UNL     1       9.438  -5.617   2.276  1.00  0.00     0.049 A 
ATOM     38  H   UNL     1       9.993  -6.620   0.536  1.00  0.00     0.167 HD
ATOM     39  C   UNL     1      10.931  -8.702  -3.207  1.00  0.00     0.034 A 
ATOM     40  C   UNL     1       9.793  -6.402   3.312  1.00  0.00     0.034 A 
ATOM     41  C   UNL     1      11.470  -9.536  -2.167  1.00  0.00     0.049 A 
ATOM     42  C   UNL     1      10.495  -7.706   3.035  1.00  0.00     0.074 A 
ATOM     43  C   UNL     1      12.166 -10.725  -2.291  1.00  0.00     0.029 A 
ATOM     44  N   UNL     1      11.367  -9.272  -0.810  1.00  0.00    -0.354 N 
ATOM     45  N   UNL     1      10.850  -8.227   1.885  1.00  0.00    -0.248 NA
ATOM     46  C   UNL     1      10.883  -8.512   4.203  1.00  0.00     0.031 C 
ATOM     47  C   UNL     1      12.474 -11.188  -1.006  1.00  0.00     0.029 A 
ATOM     48  C   UNL     1      11.982 -10.278  -0.084  1.00  0.00     0.049 A 
ATOM     49  H   UNL     1      10.923  -8.485  -0.420  1.00  0.00     0.167 HD
ATOM     50  C   UNL     1      11.524  -9.404   2.190  1.00  0.00     0.074 A 
ATOM     51  C   UNL     1      11.558  -9.502   3.635  1.00  0.00     0.031 C 
ATOM     52  C   UNL     1      12.051 -10.332   1.353  1.00  0.00     0.034 A 
BRANCH  39  53
ATOM     53  C   UNL     1      11.134  -9.130  -4.636  1.00  0.00     0.023 A 
ATOM     54  C   UNL     1      12.116  -8.486  -5.414  1.00  0.00     0.012 A 
ATOM     55  C   UNL     1      10.411 -10.207  -5.185  1.00  0.00     0.148 A 
ATOM     56  C   UNL     1      12.364  -8.893  -6.724  1.00  0.00     0.002 A 
ATOM     57  C   UNL     1      10.688 -10.630  -6.480  1.00  0.00     0.091 A 
ATOM     58  F   UNL     1       9.466 -10.790  -4.434  1.00  0.00    -0.205 F 
ATOM     59  C   UNL     1      11.658  -9.970  -7.253  1.00  0.00     0.022 A 
BRANCH  57  60
ATOM     60  S   UNL     1       9.883 -12.050  -7.231  1.00  0.00     0.127 S 
ATOM     61  O   UNL     1       9.059 -11.412  -8.258  1.00  0.00    -0.237 OA
ATOM     62  O   UNL     1      11.020 -12.811  -7.747  1.00  0.00    -0.237 OA
ATOM     63  O   UNL     1       9.145 -12.707  -6.161  1.00  0.00    -0.744 OA
ENDBRANCH  57  60
ENDBRANCH  39  53
BRANCH  40  64
ATOM     64  C   UNL     1       9.526  -5.959   4.709  1.00  0.00     0.023 A 
ATOM     65  C   UNL     1      10.603  -5.619   5.550  1.00  0.00     0.012 A 
ATOM     66  C   UNL     1       8.212  -5.866   5.206  1.00  0.00     0.148 A 
ATOM     67  C   UNL     1      10.377  -5.227   6.871  1.00  0.00     0.002 A 
ATOM     68  C   UNL     1       7.991  -5.421   6.504  1.00  0.00     0.091 A 
ATOM     69  F   UNL     1       7.199  -6.218   4.400  1.00  0.00    -0.205 F 
ATOM     70  C   UNL     1       9.073  -5.117   7.344  1.00  0.00     0.022 A 
BRANCH  68  71
ATOM     71  S   UNL     1       6.336  -5.126   7.136  1.00  0.00     0.127 S 
ATOM     72  O   UNL     1       6.103  -6.323   7.939  1.00  0.00    -0.237 OA
ATOM     73  O   UNL     1       6.513  -3.893   7.904  1.00  0.00    -0.237 OA
ATOM     74  O   UNL     1       5.497  -4.973   5.954  1.00  0.00    -0.744 OA
ENDBRANCH  68  71
ENDBRANCH  40  64
BRANCH  52  75
ATOM     75  C   UNL     1      12.721 -11.528   1.977  1.00  0.00     0.023 A 
ATOM     76  C   UNL     1      11.934 -12.526   2.587  1.00  0.00     0.012 A 
ATOM     77  C   UNL     1      14.118 -11.695   1.910  1.00  0.00     0.148 A 
ATOM     78  C   UNL     1      12.530 -13.652   3.152  1.00  0.00     0.002 A 
ATOM     79  C   UNL     1      14.701 -12.842   2.437  1.00  0.00     0.091 A 
ATOM     80  F   UNL     1      14.854 -10.727   1.345  1.00  0.00    -0.205 F 
ATOM     81  C   UNL     1      13.910 -13.816   3.068  1.00  0.00     0.022 A 
BRANCH  79  82
ATOM     82  S   UNL     1      16.461 -13.171   2.289  1.00  0.00     0.127 S 
ATOM     83  O   UNL     1      16.946 -12.804   3.618  1.00  0.00    -0.237 OA
ATOM     84  O   UNL     1      16.491 -14.607   2.005  1.00  0.00    -0.237 OA
ATOM     85  O   UNL     1      16.928 -12.334   1.192  1.00  0.00    -0.744 OA
ENDBRANCH  79  82
ENDBRANCH  52  75
ENDBRANCH  26  27
ENDBRANCH  19  21
ENDBRANCH  18  19
ENDBRANCH  17  18
ENDBRANCH  16  17
ENDBRANCH   1  16
TORSDOF 21
