REMARK SMILES Cc1cc(C)c2c(=O)n(CCCC(=O)OCCOCCOC(=O)c3ccc(-c4c5nc(c(-c6cccc(S(=O)(=O)[O-])c6F)c6ccc([nH]6)c(-c6cccc(S(=O)(=O)[O-])c6F)c6nc(c(-c7cccc(S(=O)(=O)[O-])c7F)c7ccc4[nH]7)C=C6)C=C5)cc3)sc2n1
REMARK SMILES IDX 18 1 17 2 16 3 15 4 13 5 14 6 12 7 11 8 10 9 9 10 1 11 2 12
REMARK SMILES IDX 3 13 89 14 4 15 88 16 5 17 6 18 87 19 7 20 8 21 19 22 20 23
REMARK SMILES IDX 21 24 22 25 23 26 24 27 25 28 86 29 26 30 85 31 27 32 28 33
REMARK SMILES IDX 29 34 79 35 30 36 84 37 78 38 80 39 31 40 83 41 77 42 76 43
REMARK SMILES IDX 32 45 64 46 44 47 63 48 45 49 48 50 62 51 81 52 46 53 47 54
REMARK SMILES IDX 61 56 82 57 49 58 33 59 34 60 42 61 35 62 37 63 43 64 36 65
REMARK SMILES IDX 38 66 39 67 40 68 41 69 65 70 66 71 74 72 67 73 69 74 75 75
REMARK SMILES IDX 68 76 70 77 71 78 72 79 73 80 50 81 51 82 59 83 52 84 54 85
REMARK SMILES IDX 60 86 53 87 55 88 56 89 57 90 58 91
REMARK H PARENT 80 44 48 55
REMARK Flexibility Score: inf
ROOT
ATOM      1  O   UNL     1       0.097  10.032   3.070  1.00  0.00    -0.374 OA
ENDROOT
BRANCH   1   2
ATOM      2  C   UNL     1      -0.926   9.181   2.549  1.00  0.00     0.202 C 
BRANCH   2   3
ATOM      3  C   UNL     1      -0.468   7.889   1.881  1.00  0.00     0.261 C 
BRANCH   3   4
ATOM      4  O   UNL     1       0.165   7.032   2.842  1.00  0.00    -0.463 OA
BRANCH   4   5
ATOM      5  C   UNL     1       1.454   6.693   2.605  1.00  0.00     0.305 C 
ATOM      6  O   UNL     1       2.103   7.042   1.626  1.00  0.00    -0.252 OA
BRANCH   5   7
ATOM      7  C   UNL     1       2.054   5.843   3.708  1.00  0.00     0.124 C 
BRANCH   7   8
ATOM      8  C   UNL     1       1.263   5.589   4.998  1.00  0.00     0.035 C 
BRANCH   8   9
ATOM      9  C   UNL     1      -0.164   5.019   4.913  1.00  0.00     0.139 C 
BRANCH   9  10
ATOM     10  N   UNL     1      -0.307   3.833   4.093  1.00  0.00    -0.262 N 
ATOM     11  C   UNL     1       0.829  -0.462  -0.016  1.00  0.00     0.067 C 
ATOM     12  C   UNL     1       0.294   0.219   1.205  1.00  0.00     0.039 A 
ATOM     13  C   UNL     1      -0.023  -0.505   2.365  1.00  0.00     0.027 A 
ATOM     14  N   UNL     1       0.215   1.564   1.136  1.00  0.00    -0.241 NA
ATOM     15  C   UNL     1      -0.385   0.173   3.541  1.00  0.00    -0.033 A 
ATOM     16  C   UNL     1      -0.122   2.180   2.279  1.00  0.00     0.146 A 
ATOM     17  C   UNL     1      -0.796  -0.569   4.774  1.00  0.00     0.045 C 
ATOM     18  C   UNL     1      -0.353   1.559   3.492  1.00  0.00     0.081 A 
ATOM     19  S   UNL     1      -0.295   3.929   2.386  1.00  0.00    -0.035 S 
ATOM     20  C   UNL     1      -0.434   2.543   4.594  1.00  0.00     0.270 A 
ATOM     21  O   UNL     1      -0.510   2.223   5.768  1.00  0.00    -0.268 OA
ENDBRANCH   9  10
ENDBRANCH   8   9
ENDBRANCH   7   8
ENDBRANCH   5   7
ENDBRANCH   4   5
ENDBRANCH   3   4
ENDBRANCH   2   3
ENDBRANCH   1   2
BRANCH   1  22
ATOM     22  C   UNL     1       0.862   9.605   4.195  1.00  0.00     0.202 C 
BRANCH  22  23
ATOM     23  C   UNL     1       0.179   9.594   5.554  1.00  0.00     0.261 C 
BRANCH  23  24
ATOM     24  O   UNL     1      -0.908   8.683   5.595  1.00  0.00    -0.460 OA
BRANCH  24  25
ATOM     25  C   UNL     1      -2.119   9.284   5.504  1.00  0.00     0.338 C 
ATOM     26  O   UNL     1      -2.353  10.414   5.126  1.00  0.00    -0.246 OA
BRANCH  25  27
ATOM     27  C   UNL     1      -3.127   8.393   6.084  1.00  0.00     0.060 A 
ATOM     28  C   UNL     1      -4.426   8.899   6.137  1.00  0.00     0.016 A 
ATOM     29  C   UNL     1      -2.720   7.280   6.835  1.00  0.00     0.016 A 
ATOM     30  C   UNL     1      -5.249   8.447   7.137  1.00  0.00     0.010 A 
ATOM     31  C   UNL     1      -3.540   6.834   7.836  1.00  0.00     0.010 A 
ATOM     32  C   UNL     1      -4.747   7.495   8.031  1.00  0.00    -0.014 A 
BRANCH  32  33
ATOM     33  C   UNL     1      -5.576   7.127   9.152  1.00  0.00     0.031 A 
ATOM     34  C   UNL     1      -6.678   6.244   8.725  1.00  0.00     0.074 A 
ATOM     35  C   UNL     1      -5.272   7.512  10.407  1.00  0.00     0.049 A 
ATOM     36  N   UNL     1      -7.927   6.553   8.621  1.00  0.00    -0.248 NA
ATOM     37  C   UNL     1      -6.324   4.955   8.104  1.00  0.00     0.031 C 
ATOM     38  C   UNL     1      -4.020   8.132  10.861  1.00  0.00     0.029 A 
ATOM     39  N   UNL     1      -5.943   7.295  11.570  1.00  0.00    -0.354 N 
ATOM     40  C   UNL     1      -8.539   5.378   8.198  1.00  0.00     0.074 A 
ATOM     41  C   UNL     1      -7.507   4.550   7.642  1.00  0.00     0.031 C 
ATOM     42  C   UNL     1      -3.912   7.975  12.200  1.00  0.00     0.029 A 
ATOM     43  C   UNL     1      -5.134   7.373  12.701  1.00  0.00     0.049 A 
ATOM     44  H   UNL     1      -6.908   7.101  11.608  1.00  0.00     0.167 HD
ATOM     45  C   UNL     1      -9.760   5.030   8.682  1.00  0.00     0.034 A 
ATOM     46  C   UNL     1      -5.427   6.861  13.923  1.00  0.00     0.034 A 
ATOM     47  C   UNL     1     -10.379   6.133   9.364  1.00  0.00     0.049 A 
ATOM     48  C   UNL     1      -6.896   6.684  13.975  1.00  0.00     0.074 A 
ATOM     49  C   UNL     1     -10.991   7.312   9.007  1.00  0.00     0.029 A 
ATOM     50  N   UNL     1      -9.997   6.237  10.677  1.00  0.00    -0.354 N 
ATOM     51  N   UNL     1      -7.742   7.676  13.936  1.00  0.00    -0.248 NA
ATOM     52  C   UNL     1      -7.460   5.366  13.705  1.00  0.00     0.031 C 
ATOM     53  C   UNL     1     -10.822   8.190  10.115  1.00  0.00     0.029 A 
ATOM     54  C   UNL     1     -10.153   7.514  11.136  1.00  0.00     0.049 A 
ATOM     55  H   UNL     1      -9.656   5.489  11.218  1.00  0.00     0.167 HD
ATOM     56  C   UNL     1      -8.803   7.176  13.202  1.00  0.00     0.074 A 
ATOM     57  C   UNL     1      -8.664   5.726  13.253  1.00  0.00     0.031 C 
ATOM     58  C   UNL     1      -9.493   7.975  12.340  1.00  0.00     0.034 A 
BRANCH  45  59
ATOM     59  C   UNL     1     -10.187   3.612   8.974  1.00  0.00     0.023 A 
ATOM     60  C   UNL     1     -11.552   3.390   9.251  1.00  0.00     0.012 A 
ATOM     61  C   UNL     1      -9.296   2.547   9.249  1.00  0.00     0.148 A 
ATOM     62  C   UNL     1     -12.004   2.171   9.769  1.00  0.00     0.002 A 
ATOM     63  C   UNL     1      -9.760   1.309   9.672  1.00  0.00     0.091 A 
ATOM     64  F   UNL     1      -7.978   2.763   9.247  1.00  0.00    -0.205 F 
ATOM     65  C   UNL     1     -11.112   1.122   9.960  1.00  0.00     0.022 A 
BRANCH  63  66
ATOM     66  S   UNL     1      -8.655  -0.095   9.873  1.00  0.00     0.127 S 
ATOM     67  O   UNL     1      -8.672  -0.281  11.321  1.00  0.00    -0.237 OA
ATOM     68  O   UNL     1      -9.351  -1.128   9.106  1.00  0.00    -0.237 OA
ATOM     69  O   UNL     1      -7.383   0.320   9.296  1.00  0.00    -0.744 OA
ENDBRANCH  63  66
ENDBRANCH  45  59
BRANCH  46  70
ATOM     70  C   UNL     1      -4.538   6.188  14.907  1.00  0.00     0.023 A 
ATOM     71  C   UNL     1      -5.015   5.954  16.215  1.00  0.00     0.012 A 
ATOM     72  C   UNL     1      -3.384   5.489  14.489  1.00  0.00     0.148 A 
ATOM     73  C   UNL     1      -4.408   5.007  17.049  1.00  0.00     0.002 A 
ATOM     74  C   UNL     1      -2.787   4.546  15.320  1.00  0.00     0.091 A 
ATOM     75  F   UNL     1      -2.930   5.674  13.243  1.00  0.00    -0.205 F 
ATOM     76  C   UNL     1      -3.306   4.290  16.595  1.00  0.00     0.022 A 
BRANCH  74  77
ATOM     77  S   UNL     1      -1.395   3.542  14.780  1.00  0.00     0.127 S 
ATOM     78  O   UNL     1      -0.462   3.695  15.897  1.00  0.00    -0.237 OA
ATOM     79  O   UNL     1      -2.006   2.221  14.668  1.00  0.00    -0.237 OA
ATOM     80  O   UNL     1      -0.937   4.136  13.531  1.00  0.00    -0.744 OA
ENDBRANCH  74  77
ENDBRANCH  46  70
BRANCH  58  81
ATOM     81  C   UNL     1      -9.442   9.458  12.559  1.00  0.00     0.023 A 
ATOM     82  C   UNL     1      -8.293  10.239  12.329  1.00  0.00     0.012 A 
ATOM     83  C   UNL     1     -10.660  10.095  12.847  1.00  0.00     0.148 A 
ATOM     84  C   UNL     1      -8.366  11.634  12.381  1.00  0.00     0.002 A 
ATOM     85  C   UNL     1     -10.742  11.477  12.836  1.00  0.00     0.091 A 
ATOM     86  F   UNL     1     -11.734   9.325  13.082  1.00  0.00    -0.205 F 
ATOM     87  C   UNL     1      -9.595  12.254  12.614  1.00  0.00     0.022 A 
BRANCH  85  88
ATOM     88  S   UNL     1     -12.322  12.315  12.972  1.00  0.00     0.127 S 
ATOM     89  O   UNL     1     -12.245  12.897  14.310  1.00  0.00    -0.237 OA
ATOM     90  O   UNL     1     -12.255  13.282  11.876  1.00  0.00    -0.237 OA
ATOM     91  O   UNL     1     -13.340  11.286  12.796  1.00  0.00    -0.744 OA
ENDBRANCH  85  88
ENDBRANCH  58  81
ENDBRANCH  32  33
ENDBRANCH  25  27
ENDBRANCH  24  25
ENDBRANCH  23  24
ENDBRANCH  22  23
ENDBRANCH   1  22
TORSDOF 20
