REMARK SMILES C[C@H]1CC[C@H](CNC(=O)NCc2ccc(C(=O)OCCOCCOC(=O)c3ccc(-c4c5nc(c(-c6cccc(S(=O)(=O)[O-])c6F)c6ccc([nH]6)c(-c6cccc(S(=O)(=O)[O-])c6F)c6nc(c(-c7cccc(S(=O)(=O)[O-])c7F)c7ccc4[nH]7)C=C6)C=C5)cc3)o2)CC1
REMARK SMILES IDX 20 1 19 2 18 3 16 4 17 5 15 6 12 7 13 8 90 9 14 10 11 11
REMARK SMILES IDX 10 12 7 13 8 14 9 16 6 18 5 19 1 20 2 21 92 22 3 23 91 24
REMARK SMILES IDX 4 25 21 26 22 27 23 28 24 29 25 30 26 31 27 32 28 33 89 34
REMARK SMILES IDX 29 35 88 36 30 37 31 38 32 39 82 40 33 41 87 42 81 43 83 44
REMARK SMILES IDX 34 45 86 46 80 47 79 48 35 50 67 51 47 52 66 53 48 54 51 55
REMARK SMILES IDX 65 56 84 57 49 58 50 59 64 61 85 62 52 63 36 64 37 65 45 66
REMARK SMILES IDX 38 67 40 68 46 69 39 70 41 71 42 72 43 73 44 74 68 75 69 76
REMARK SMILES IDX 77 77 70 78 72 79 78 80 71 81 73 82 74 83 75 84 76 85 53 86
REMARK SMILES IDX 54 87 62 88 55 89 57 90 63 91 56 92 58 93 59 94 60 95 61 96
REMARK H PARENT 7 15 10 17 83 49 51 60
REMARK Flexibility Score: inf
ROOT
ATOM      1  C   UNL     1     -10.325  -3.045   3.989  1.00  0.00     0.202 C 
ENDROOT
BRANCH   1   2
ATOM      2  C   UNL     1     -10.756  -3.379   2.558  1.00  0.00     0.261 C 
BRANCH   2   3
ATOM      3  O   UNL     1      -9.606  -3.719   1.762  1.00  0.00    -0.457 OA
BRANCH   3   4
ATOM      4  C   UNL     1      -9.304  -2.864   0.743  1.00  0.00     0.374 C 
ATOM      5  O   UNL     1     -10.033  -1.963   0.346  1.00  0.00    -0.242 OA
BRANCH   4   6
ATOM      6  C   UNL     1      -7.954  -3.117   0.288  1.00  0.00     0.211 A 
ATOM      7  C   UNL     1      -6.063  -2.542  -0.709  1.00  0.00     0.124 A 
ATOM      8  C   UNL     1      -5.834  -3.765  -0.114  1.00  0.00     0.048 A 
ATOM      9  O   UNL     1      -7.358  -2.166  -0.496  1.00  0.00    -0.452 OA
ATOM     10  C   UNL     1      -7.045  -4.132   0.530  1.00  0.00     0.058 A 
BRANCH   7  11
ATOM     11  C   UNL     1      -5.222  -1.628  -1.531  1.00  0.00     0.193 C 
BRANCH  11  12
ATOM     12  N   UNL     1      -5.731  -0.276  -1.444  1.00  0.00    -0.331 N 
ATOM     13  N   UNL     1      -4.125   1.036  -0.319  1.00  0.00    -0.338 N 
ATOM     14  C   UNL     1      -5.242   0.895  -1.040  1.00  0.00     0.315 C 
ATOM     15  H   UNL     1      -3.792   1.963  -0.300  1.00  0.00     0.165 HD
ATOM     16  O   UNL     1      -5.852   1.922  -1.346  1.00  0.00    -0.249 OA
ATOM     17  H   UNL     1      -6.661  -0.204  -1.759  1.00  0.00     0.165 HD
BRANCH  13  18
ATOM     18  C   UNL     1      -3.298   0.120   0.441  1.00  0.00     0.121 C 
BRANCH  18  19
ATOM     19  C   UNL     1      -1.870   0.059  -0.129  1.00  0.00     0.008 C 
ATOM     20  C   UNL     1       2.524  -0.060  -0.178  1.00  0.00     0.007 C 
ATOM     21  C   UNL     1       1.078  -0.002   0.312  1.00  0.00    -0.014 C 
ATOM     22  C   UNL     1       0.303  -1.253  -0.116  1.00  0.00     0.003 C 
ATOM     23  C   UNL     1       0.380   1.261  -0.203  1.00  0.00     0.003 C 
ATOM     24  C   UNL     1      -1.148  -1.202   0.364  1.00  0.00     0.006 C 
ATOM     25  C   UNL     1      -1.076   1.324   0.254  1.00  0.00     0.006 C 
ENDBRANCH  18  19
ENDBRANCH  13  18
ENDBRANCH  11  12
ENDBRANCH   7  11
ENDBRANCH   4   6
ENDBRANCH   3   4
ENDBRANCH   2   3
ENDBRANCH   1   2
BRANCH   1  26
ATOM     26  O   UNL     1      -9.622  -1.807   4.127  1.00  0.00    -0.374 OA
BRANCH  26  27
ATOM     27  C   UNL     1      -8.218  -1.837   3.864  1.00  0.00     0.202 C 
BRANCH  27  28
ATOM     28  C   UNL     1      -7.338  -2.283   5.037  1.00  0.00     0.261 C 
BRANCH  28  29
ATOM     29  O   UNL     1      -7.547  -3.670   5.358  1.00  0.00    -0.460 OA
BRANCH  29  30
ATOM     30  C   UNL     1      -8.234  -3.884   6.507  1.00  0.00     0.338 C 
ATOM     31  O   UNL     1      -8.592  -3.042   7.314  1.00  0.00    -0.246 OA
BRANCH  30  32
ATOM     32  C   UNL     1      -8.653  -5.297   6.599  1.00  0.00     0.060 A 
ATOM     33  C   UNL     1      -9.977  -5.544   6.982  1.00  0.00     0.016 A 
ATOM     34  C   UNL     1      -7.764  -6.356   6.399  1.00  0.00     0.016 A 
ATOM     35  C   UNL     1     -10.397  -6.846   7.241  1.00  0.00     0.010 A 
ATOM     36  C   UNL     1      -8.190  -7.665   6.659  1.00  0.00     0.010 A 
ATOM     37  C   UNL     1      -9.492  -7.909   7.130  1.00  0.00    -0.014 A 
BRANCH  37  38
ATOM     38  C   UNL     1      -9.874  -9.238   7.668  1.00  0.00     0.031 A 
ATOM     39  C   UNL     1      -9.367  -9.650   9.025  1.00  0.00     0.074 A 
ATOM     40  C   UNL     1     -10.690 -10.056   6.979  1.00  0.00     0.049 A 
ATOM     41  N   UNL     1      -9.616 -10.738   9.707  1.00  0.00    -0.248 NA
ATOM     42  C   UNL     1      -8.457  -8.712   9.703  1.00  0.00     0.031 C 
ATOM     43  C   UNL     1     -11.239  -9.779   5.653  1.00  0.00     0.029 A 
ATOM     44  N   UNL     1     -11.187 -11.294   7.299  1.00  0.00    -0.354 N 
ATOM     45  C   UNL     1      -8.878 -10.627  10.880  1.00  0.00     0.074 A 
ATOM     46  C   UNL     1      -8.154  -9.377  10.808  1.00  0.00     0.031 C 
ATOM     47  C   UNL     1     -11.983 -10.828   5.263  1.00  0.00     0.029 A 
ATOM     48  C   UNL     1     -11.956 -11.852   6.306  1.00  0.00     0.049 A 
ATOM     49  H   UNL     1     -11.009 -11.740   8.158  1.00  0.00     0.167 HD
ATOM     50  C   UNL     1      -8.822 -11.477  11.934  1.00  0.00     0.034 A 
ATOM     51  C   UNL     1     -12.565 -13.053   6.245  1.00  0.00     0.034 A 
ATOM     52  C   UNL     1      -9.561 -12.707  12.020  1.00  0.00     0.049 A 
ATOM     53  C   UNL     1     -12.497 -13.976   7.434  1.00  0.00     0.074 A 
ATOM     54  C   UNL     1      -9.610 -13.611  13.066  1.00  0.00     0.029 A 
ATOM     55  N   UNL     1     -10.375 -13.212  11.018  1.00  0.00    -0.354 N 
ATOM     56  N   UNL     1     -11.902 -13.796   8.588  1.00  0.00    -0.248 NA
ATOM     57  C   UNL     1     -13.223 -15.251   7.327  1.00  0.00     0.031 C 
ATOM     58  C   UNL     1     -10.440 -14.673  12.688  1.00  0.00     0.029 A 
ATOM     59  C   UNL     1     -10.927 -14.418  11.417  1.00  0.00     0.049 A 
ATOM     60  H   UNL     1     -10.537 -12.777  10.149  1.00  0.00     0.167 HD
ATOM     61  C   UNL     1     -12.214 -14.912   9.358  1.00  0.00     0.074 A 
ATOM     62  C   UNL     1     -13.067 -15.754   8.544  1.00  0.00     0.031 C 
ATOM     63  C   UNL     1     -11.820 -15.219  10.620  1.00  0.00     0.034 A 
BRANCH  50  64
ATOM     64  C   UNL     1      -7.953 -11.082  13.098  1.00  0.00     0.023 A 
ATOM     65  C   UNL     1      -8.364 -10.038  13.952  1.00  0.00     0.012 A 
ATOM     66  C   UNL     1      -6.751 -11.764  13.370  1.00  0.00     0.148 A 
ATOM     67  C   UNL     1      -7.578  -9.657  15.039  1.00  0.00     0.002 A 
ATOM     68  C   UNL     1      -5.993 -11.406  14.479  1.00  0.00     0.091 A 
ATOM     69  F   UNL     1      -6.362 -12.735  12.531  1.00  0.00    -0.205 F 
ATOM     70  C   UNL     1      -6.399 -10.347  15.307  1.00  0.00     0.022 A 
BRANCH  68  71
ATOM     71  S   UNL     1      -4.498 -12.285  14.948  1.00  0.00     0.127 S 
ATOM     72  O   UNL     1      -3.461 -11.335  14.551  1.00  0.00    -0.237 OA
ATOM     73  O   UNL     1      -4.667 -12.435  16.394  1.00  0.00    -0.237 OA
ATOM     74  O   UNL     1      -4.522 -13.537  14.204  1.00  0.00    -0.744 OA
ENDBRANCH  68  71
ENDBRANCH  50  64
BRANCH  51  75
ATOM     75  C   UNL     1     -13.343 -13.427   5.031  1.00  0.00     0.023 A 
ATOM     76  C   UNL     1     -14.748 -13.505   5.101  1.00  0.00     0.012 A 
ATOM     77  C   UNL     1     -12.701 -13.681   3.804  1.00  0.00     0.148 A 
ATOM     78  C   UNL     1     -15.496 -13.858   3.978  1.00  0.00     0.002 A 
ATOM     79  C   UNL     1     -13.456 -13.978   2.676  1.00  0.00     0.091 A 
ATOM     80  F   UNL     1     -11.362 -13.617   3.763  1.00  0.00    -0.205 F 
ATOM     81  C   UNL     1     -14.853 -14.084   2.764  1.00  0.00     0.022 A 
BRANCH  79  82
ATOM     82  S   UNL     1     -12.722 -14.155   1.046  1.00  0.00     0.127 S 
ATOM     83  O   UNL     1     -12.872 -15.587   0.804  1.00  0.00    -0.237 OA
ATOM     84  O   UNL     1     -13.586 -13.298   0.232  1.00  0.00    -0.237 OA
ATOM     85  O   UNL     1     -11.354 -13.674   1.177  1.00  0.00    -0.744 OA
ENDBRANCH  79  82
ENDBRANCH  51  75
BRANCH  63  86
ATOM     86  C   UNL     1     -12.335 -16.502  11.221  1.00  0.00     0.023 A 
ATOM     87  C   UNL     1     -11.845 -17.740  10.762  1.00  0.00     0.012 A 
ATOM     88  C   UNL     1     -13.260 -16.478  12.284  1.00  0.00     0.148 A 
ATOM     89  C   UNL     1     -12.294 -18.935  11.325  1.00  0.00     0.002 A 
ATOM     90  C   UNL     1     -13.668 -17.671  12.872  1.00  0.00     0.091 A 
ATOM     91  F   UNL     1     -13.735 -15.293  12.696  1.00  0.00    -0.205 F 
ATOM     92  C   UNL     1     -13.196 -18.900  12.386  1.00  0.00     0.022 A 
BRANCH  90  93
ATOM     93  S   UNL     1     -14.752 -17.705  14.305  1.00  0.00     0.127 S 
ATOM     94  O   UNL     1     -16.040 -18.031  13.697  1.00  0.00    -0.237 OA
ATOM     95  O   UNL     1     -14.171 -18.777  15.114  1.00  0.00    -0.237 OA
ATOM     96  O   UNL     1     -14.653 -16.381  14.905  1.00  0.00    -0.744 OA
ENDBRANCH  90  93
ENDBRANCH  63  86
ENDBRANCH  37  38
ENDBRANCH  30  32
ENDBRANCH  29  30
ENDBRANCH  28  29
ENDBRANCH  27  28
ENDBRANCH  26  27
ENDBRANCH   1  26
TORSDOF 21
