REMARK SMILES CN1C(=O)[C@@H]2CC=CC[C@]2(C(=O)OCCOCCOC(=O)c2ccc(-c3c4nc(c(-c5cccc(S(=O)(=O)[O-])c5F)c5ccc([nH]5)c(-c5cccc(S(=O)(=O)[O-])c5F)c5nc(c(-c6cccc(S(=O)(=O)[O-])c6F)c6ccc3[nH]6)C=C5)C=C4)cc2)[C@H]1c1ccccc1
REMARK SMILES IDX 17 1 16 2 15 3 14 4 13 5 11 6 12 7 10 8 1 9 2 10 3 11 85 12
REMARK SMILES IDX 4 13 5 14 6 15 9 16 7 17 8 18 86 19 87 20 91 21 88 22 90 23
REMARK SMILES IDX 89 24 18 25 19 26 20 27 21 28 22 29 23 30 84 31 24 32 83 33
REMARK SMILES IDX 25 34 26 35 27 36 77 37 28 38 82 39 76 40 78 41 29 42 81 43
REMARK SMILES IDX 75 44 74 45 30 47 62 48 42 49 61 50 43 51 46 52 60 53 79 54
REMARK SMILES IDX 44 55 45 56 59 58 80 59 47 60 31 61 32 62 40 63 33 64 35 65
REMARK SMILES IDX 41 66 34 67 36 68 37 69 38 70 39 71 63 72 64 73 72 74 65 75
REMARK SMILES IDX 67 76 73 77 66 78 68 79 69 80 70 81 71 82 48 83 49 84 57 85
REMARK SMILES IDX 50 86 52 87 58 88 51 89 53 90 54 91 55 92 56 93
REMARK H PARENT 78 46 46 57
REMARK Flexibility Score: inf
ROOT
ATOM      1  C   UNL     1      -2.891   4.174   4.644  1.00  0.00     0.202 C 
ENDROOT
BRANCH   1   2
ATOM      2  O   UNL     1      -1.520   4.038   5.030  1.00  0.00    -0.374 OA
BRANCH   2   3
ATOM      3  C   UNL     1      -0.593   4.997   4.508  1.00  0.00     0.202 C 
BRANCH   3   4
ATOM      4  C   UNL     1       0.839   4.447   4.664  1.00  0.00     0.261 C 
BRANCH   4   5
ATOM      5  O   UNL     1       0.851   3.200   3.951  1.00  0.00    -0.463 OA
BRANCH   5   6
ATOM      6  C   UNL     1       1.246   1.997   4.490  1.00  0.00     0.315 C 
ATOM      7  O   UNL     1       1.941   1.844   5.479  1.00  0.00    -0.251 OA
BRANCH   6   8
ATOM      8  C   UNL     1       0.421   0.916   3.753  1.00  0.00     0.108 C 
ATOM      9  C   UNL     1       0.550  -0.089   0.074  1.00  0.00     0.147 C 
ATOM     10  N   UNL     1       0.461   0.002   1.522  1.00  0.00    -0.337 N 
ATOM     11  C   UNL     1       0.611  -1.078   2.356  1.00  0.00     0.227 C 
ATOM     12  C   UNL     1       0.624   1.251   2.213  1.00  0.00     0.133 C 
ATOM     13  O   UNL     1       0.683  -2.243   1.987  1.00  0.00    -0.275 OA
ATOM     14  C   UNL     1       0.729  -0.605   3.810  1.00  0.00     0.102 C 
ATOM     15  C   UNL     1      -0.183  -1.543   4.636  1.00  0.00     0.041 C 
ATOM     16  C   UNL     1      -0.942   1.240   4.409  1.00  0.00     0.049 C 
ATOM     17  C   UNL     1      -1.581  -1.081   4.882  1.00  0.00    -0.030 C 
ATOM     18  C   UNL     1      -1.933   0.194   4.750  1.00  0.00    -0.030 C 
BRANCH  12  19
ATOM     19  C   UNL     1       2.009   1.848   1.882  1.00  0.00    -0.024 A 
ATOM     20  C   UNL     1       3.190   1.244   2.352  1.00  0.00     0.006 A 
ATOM     21  C   UNL     1       2.097   3.122   1.295  1.00  0.00     0.006 A 
ATOM     22  C   UNL     1       4.381   1.963   2.410  1.00  0.00     0.000 A 
ATOM     23  C   UNL     1       3.302   3.829   1.331  1.00  0.00     0.000 A 
ATOM     24  C   UNL     1       4.428   3.267   1.928  1.00  0.00     0.000 A 
ENDBRANCH  12  19
ENDBRANCH   6   8
ENDBRANCH   5   6
ENDBRANCH   4   5
ENDBRANCH   3   4
ENDBRANCH   2   3
ENDBRANCH   1   2
BRANCH   1  25
ATOM     25  C   UNL     1      -3.265   3.689   3.222  1.00  0.00     0.261 C 
BRANCH  25  26
ATOM     26  O   UNL     1      -2.644   4.422   2.167  1.00  0.00    -0.460 OA
BRANCH  26  27
ATOM     27  C   UNL     1      -3.037   5.713   2.084  1.00  0.00     0.338 C 
ATOM     28  O   UNL     1      -3.838   6.292   2.783  1.00  0.00    -0.246 OA
BRANCH  27  29
ATOM     29  C   UNL     1      -2.193   6.355   1.073  1.00  0.00     0.060 A 
ATOM     30  C   UNL     1      -1.353   7.399   1.473  1.00  0.00     0.016 A 
ATOM     31  C   UNL     1      -2.273   5.943  -0.257  1.00  0.00     0.016 A 
ATOM     32  C   UNL     1      -0.617   8.085   0.514  1.00  0.00     0.010 A 
ATOM     33  C   UNL     1      -1.536   6.630  -1.212  1.00  0.00     0.010 A 
ATOM     34  C   UNL     1      -0.742   7.729  -0.835  1.00  0.00    -0.014 A 
BRANCH  34  35
ATOM     35  C   UNL     1      -0.195   8.591  -1.900  1.00  0.00     0.031 A 
ATOM     36  C   UNL     1      -1.153   9.454  -2.669  1.00  0.00     0.074 A 
ATOM     37  C   UNL     1       1.107   8.532  -2.225  1.00  0.00     0.049 A 
ATOM     38  N   UNL     1      -0.954  10.141  -3.760  1.00  0.00    -0.248 NA
ATOM     39  C   UNL     1      -2.529   9.534  -2.146  1.00  0.00     0.031 C 
ATOM     40  C   UNL     1       2.116   7.732  -1.532  1.00  0.00     0.029 A 
ATOM     41  N   UNL     1       1.788   9.121  -3.258  1.00  0.00    -0.354 N 
ATOM     42  C   UNL     1      -2.188  10.692  -4.084  1.00  0.00     0.074 A 
ATOM     43  C   UNL     1      -3.130  10.259  -3.077  1.00  0.00     0.031 C 
ATOM     44  C   UNL     1       3.283   7.844  -2.189  1.00  0.00     0.029 A 
ATOM     45  C   UNL     1       3.087   8.685  -3.368  1.00  0.00     0.049 A 
ATOM     46  H   UNL     1       1.388   9.789  -3.860  1.00  0.00     0.167 HD
ATOM     47  C   UNL     1      -2.502  11.491  -5.130  1.00  0.00     0.034 A 
ATOM     48  C   UNL     1       3.995   8.905  -4.339  1.00  0.00     0.034 A 
ATOM     49  C   UNL     1      -1.548  11.920  -6.114  1.00  0.00     0.049 A 
ATOM     50  C   UNL     1       3.613   9.774  -5.510  1.00  0.00     0.074 A 
ATOM     51  C   UNL     1      -1.743  12.772  -7.184  1.00  0.00     0.029 A 
ATOM     52  N   UNL     1      -0.223  11.513  -6.156  1.00  0.00    -0.354 N 
ATOM     53  N   UNL     1       2.472  10.373  -5.756  1.00  0.00    -0.248 NA
ATOM     54  C   UNL     1       4.649  10.020  -6.524  1.00  0.00     0.031 C 
ATOM     55  C   UNL     1      -0.544  12.848  -7.899  1.00  0.00     0.029 A 
ATOM     56  C   UNL     1       0.410  12.085  -7.243  1.00  0.00     0.049 A 
ATOM     57  H   UNL     1       0.203  10.907  -5.508  1.00  0.00     0.167 HD
ATOM     58  C   UNL     1       2.667  11.104  -6.922  1.00  0.00     0.074 A 
ATOM     59  C   UNL     1       4.037  10.875  -7.333  1.00  0.00     0.031 C 
ATOM     60  C   UNL     1       1.793  11.892  -7.595  1.00  0.00     0.034 A 
BRANCH  47  61
ATOM     61  C   UNL     1      -3.929  11.952  -5.260  1.00  0.00     0.023 A 
ATOM     62  C   UNL     1      -4.455  12.885  -4.344  1.00  0.00     0.012 A 
ATOM     63  C   UNL     1      -4.734  11.499  -6.324  1.00  0.00     0.148 A 
ATOM     64  C   UNL     1      -5.770  13.333  -4.463  1.00  0.00     0.002 A 
ATOM     65  C   UNL     1      -6.026  11.987  -6.465  1.00  0.00     0.091 A 
ATOM     66  F   UNL     1      -4.223  10.594  -7.171  1.00  0.00    -0.205 F 
ATOM     67  C   UNL     1      -6.550  12.893  -5.529  1.00  0.00     0.022 A 
BRANCH  65  68
ATOM     68  S   UNL     1      -7.083  11.546  -7.848  1.00  0.00     0.127 S 
ATOM     69  O   UNL     1      -8.119  10.753  -7.186  1.00  0.00    -0.237 OA
ATOM     70  O   UNL     1      -7.528  12.856  -8.323  1.00  0.00    -0.237 OA
ATOM     71  O   UNL     1      -6.240  10.812  -8.782  1.00  0.00    -0.744 OA
ENDBRANCH  65  68
ENDBRANCH  47  61
BRANCH  48  72
ATOM     72  C   UNL     1       5.354   8.307  -4.239  1.00  0.00     0.023 A 
ATOM     73  C   UNL     1       6.465   9.144  -4.021  1.00  0.00     0.012 A 
ATOM     74  C   UNL     1       5.551   6.916  -4.339  1.00  0.00     0.148 A 
ATOM     75  C   UNL     1       7.752   8.610  -3.938  1.00  0.00     0.002 A 
ATOM     76  C   UNL     1       6.827   6.386  -4.200  1.00  0.00     0.091 A 
ATOM     77  F   UNL     1       4.480   6.138  -4.553  1.00  0.00    -0.205 F 
ATOM     78  C   UNL     1       7.932   7.232  -4.018  1.00  0.00     0.022 A 
BRANCH  76  79
ATOM     79  S   UNL     1       7.141   4.618  -4.163  1.00  0.00     0.127 S 
ATOM     80  O   UNL     1       7.899   4.424  -5.396  1.00  0.00    -0.237 OA
ATOM     81  O   UNL     1       7.920   4.480  -2.932  1.00  0.00    -0.237 OA
ATOM     82  O   UNL     1       5.830   3.986  -4.121  1.00  0.00    -0.744 OA
ENDBRANCH  76  79
ENDBRANCH  48  72
BRANCH  60  83
ATOM     83  C   UNL     1       2.294  12.637  -8.803  1.00  0.00     0.023 A 
ATOM     84  C   UNL     1       2.523  11.957 -10.014  1.00  0.00     0.012 A 
ATOM     85  C   UNL     1       2.410  14.042  -8.761  1.00  0.00     0.148 A 
ATOM     86  C   UNL     1       2.878  12.664 -11.163  1.00  0.00     0.002 A 
ATOM     87  C   UNL     1       2.709  14.743  -9.921  1.00  0.00     0.091 A 
ATOM     88  F   UNL     1       2.200  14.664  -7.592  1.00  0.00    -0.205 F 
ATOM     89  C   UNL     1       2.954  14.055 -11.120  1.00  0.00     0.022 A 
BRANCH  87  90
ATOM     90  S   UNL     1       2.722  16.538  -9.987  1.00  0.00     0.127 S 
ATOM     91  O   UNL     1       4.133  16.815 -10.253  1.00  0.00    -0.237 OA
ATOM     92  O   UNL     1       1.824  16.810 -11.110  1.00  0.00    -0.237 OA
ATOM     93  O   UNL     1       2.235  16.995  -8.693  1.00  0.00    -0.744 OA
ENDBRANCH  87  90
ENDBRANCH  60  83
ENDBRANCH  34  35
ENDBRANCH  27  29
ENDBRANCH  26  27
ENDBRANCH  25  26
ENDBRANCH   1  25
TORSDOF 18
