REMARK SMILES CC(=O)Nc1cnc(N2CC=C(c3ccccc3C)CC2)c(C(=O)OCCOCCOC(=O)c2ccc(-c3c4nc(c(-c5cccc(S(=O)(=O)[O-])c5F)c5ccc([nH]5)c(-c5cccc(S(=O)(=O)[O-])c5F)c5nc(c(-c6cccc(S(=O)(=O)[O-])c6F)c6ccc3[nH]6)C=C5)C=C4)cc2)c1
REMARK SMILES IDX 29 1 28 2 27 3 26 4 25 5 23 6 24 7 22 8 5 9 6 10 97 11 7 12
REMARK SMILES IDX 8 13 4 14 1 15 2 16 3 17 9 19 10 20 21 21 11 22 20 23 12 24
REMARK SMILES IDX 13 25 14 26 18 27 15 28 17 29 19 30 16 31 30 32 31 33 32 34
REMARK SMILES IDX 33 35 34 36 35 37 96 38 36 39 95 40 37 41 38 42 39 43 89 44
REMARK SMILES IDX 40 45 94 46 88 47 90 48 41 49 93 50 87 51 86 52 42 54 74 55
REMARK SMILES IDX 54 56 73 57 55 58 58 59 72 60 91 61 56 62 57 63 71 65 92 66
REMARK SMILES IDX 59 67 43 68 44 69 52 70 45 71 47 72 53 73 46 74 48 75 49 76
REMARK SMILES IDX 50 77 51 78 75 79 76 80 84 81 77 82 79 83 85 84 78 85 80 86
REMARK SMILES IDX 81 87 82 88 83 89 60 90 61 91 69 92 62 93 64 94 70 95 63 96
REMARK SMILES IDX 65 97 66 98 67 99 68 100
REMARK H PARENT 4 18 90 53 58 64
REMARK Flexibility Score: inf
ROOT
ATOM      1  C   UNL     1       7.111  -4.777   0.400  1.00  0.00     0.202 C 
ENDROOT
BRANCH   1   2
ATOM      2  O   UNL     1       6.574  -3.663  -0.264  1.00  0.00    -0.374 OA
BRANCH   2   3
ATOM      3  C   UNL     1       6.621  -2.434   0.449  1.00  0.00     0.202 C 
BRANCH   3   4
ATOM      4  C   UNL     1       5.773  -1.535  -0.374  1.00  0.00     0.261 C 
BRANCH   4   5
ATOM      5  O   UNL     1       4.423  -2.048  -0.376  1.00  0.00    -0.460 OA
BRANCH   5   6
ATOM      6  C   UNL     1       4.020  -2.899  -1.369  1.00  0.00     0.342 C 
ATOM      7  O   UNL     1       4.551  -3.084  -2.431  1.00  0.00    -0.246 OA
BRANCH   6   8
ATOM      8  C   UNL     1       2.787  -3.562  -0.929  1.00  0.00     0.104 A 
ATOM      9  C   UNL     1       0.873  -3.396   0.535  1.00  0.00     0.060 A 
ATOM     10  C   UNL     1       0.598  -4.702   0.175  1.00  0.00     0.139 A 
ATOM     11  C   UNL     1       1.999  -2.843  -0.023  1.00  0.00     0.047 A 
ATOM     12  N   UNL     1       1.302  -5.405  -0.757  1.00  0.00    -0.236 NA
ATOM     13  C   UNL     1       2.405  -4.843  -1.330  1.00  0.00     0.143 A 
BRANCH   9  14
ATOM     14  N   UNL     1       0.129  -2.693   1.496  1.00  0.00    -0.325 N 
ATOM     15  C   UNL     1       0.249  -0.429   0.446  1.00  0.00     0.114 C 
ATOM     16  C   UNL     1      -0.015  -1.332   1.633  1.00  0.00     0.221 C 
ATOM     17  O   UNL     1      -0.428  -0.872   2.699  1.00  0.00    -0.275 OA
ATOM     18  H   UNL     1      -0.351  -3.244   2.155  1.00  0.00     0.169 HD
ENDBRANCH   9  14
BRANCH  13  19
ATOM     19  N   UNL     1       3.102  -5.662  -2.196  1.00  0.00    -0.352 N 
ATOM     20  C   UNL     1       2.669  -5.692  -3.594  1.00  0.00     0.146 C 
ATOM     21  C   UNL     1       4.534  -5.876  -2.008  1.00  0.00     0.123 C 
ATOM     22  C   UNL     1       3.222  -6.939  -4.252  1.00  0.00    -0.002 C 
ATOM     23  C   UNL     1       4.910  -7.284  -2.459  1.00  0.00     0.057 C 
ATOM     24  C   UNL     1       4.209  -7.699  -3.731  1.00  0.00    -0.041 C 
BRANCH  24  25
ATOM     25  C   UNL     1       4.615  -8.977  -4.360  1.00  0.00    -0.020 A 
ATOM     26  C   UNL     1       5.062  -8.967  -5.694  1.00  0.00     0.008 A 
ATOM     27  C   UNL     1       4.559 -10.212  -3.673  1.00  0.00    -0.044 A 
ATOM     28  C   UNL     1       5.441 -10.150  -6.336  1.00  0.00     0.001 A 
ATOM     29  C   UNL     1       4.959 -11.389  -4.330  1.00  0.00     0.004 A 
ATOM     30  C   UNL     1       4.110 -10.335  -2.242  1.00  0.00     0.045 C 
ATOM     31  C   UNL     1       5.388 -11.360  -5.654  1.00  0.00     0.000 A 
ENDBRANCH  24  25
ENDBRANCH  13  19
ENDBRANCH   6   8
ENDBRANCH   5   6
ENDBRANCH   4   5
ENDBRANCH   3   4
ENDBRANCH   2   3
ENDBRANCH   1   2
BRANCH   1  32
ATOM     32  C   UNL     1       8.575  -4.576   0.770  1.00  0.00     0.261 C 
BRANCH  32  33
ATOM     33  O   UNL     1       9.337  -4.444  -0.448  1.00  0.00    -0.460 OA
BRANCH  33  34
ATOM     34  C   UNL     1       9.789  -3.184  -0.715  1.00  0.00     0.338 C 
ATOM     35  O   UNL     1      10.468  -2.532   0.061  1.00  0.00    -0.246 OA
BRANCH  34  36
ATOM     36  C   UNL     1       9.144  -2.658  -1.958  1.00  0.00     0.060 A 
ATOM     37  C   UNL     1       9.190  -1.283  -2.243  1.00  0.00     0.016 A 
ATOM     38  C   UNL     1       8.267  -3.475  -2.671  1.00  0.00     0.016 A 
ATOM     39  C   UNL     1       8.231  -0.695  -3.081  1.00  0.00     0.010 A 
ATOM     40  C   UNL     1       7.288  -2.884  -3.448  1.00  0.00     0.010 A 
ATOM     41  C   UNL     1       7.213  -1.484  -3.593  1.00  0.00    -0.014 A 
BRANCH  41  42
ATOM     42  C   UNL     1       6.059  -1.003  -4.359  1.00  0.00     0.031 A 
ATOM     43  C   UNL     1       6.112  -1.288  -5.801  1.00  0.00     0.074 A 
ATOM     44  C   UNL     1       4.894  -0.604  -3.784  1.00  0.00     0.049 A 
ATOM     45  N   UNL     1       5.229  -0.900  -6.646  1.00  0.00    -0.248 NA
ATOM     46  C   UNL     1       7.232  -1.990  -6.424  1.00  0.00     0.031 C 
ATOM     47  C   UNL     1       3.531  -0.824  -4.282  1.00  0.00     0.029 A 
ATOM     48  N   UNL     1       4.657  -0.032  -2.531  1.00  0.00    -0.354 N 
ATOM     49  C   UNL     1       5.475  -1.564  -7.823  1.00  0.00     0.074 A 
ATOM     50  C   UNL     1       6.811  -2.075  -7.686  1.00  0.00     0.031 C 
ATOM     51  C   UNL     1       2.640  -0.217  -3.471  1.00  0.00     0.029 A 
ATOM     52  C   UNL     1       3.394   0.565  -2.504  1.00  0.00     0.049 A 
ATOM     53  H   UNL     1       5.288  -0.048  -1.776  1.00  0.00     0.167 HD
ATOM     54  C   UNL     1       4.436  -1.727  -8.685  1.00  0.00     0.034 A 
ATOM     55  C   UNL     1       3.268   1.887  -2.202  1.00  0.00     0.034 A 
ATOM     56  C   UNL     1       3.258  -0.967  -8.193  1.00  0.00     0.049 A 
ATOM     57  C   UNL     1       2.845   2.588  -3.463  1.00  0.00     0.074 A 
ATOM     58  C   UNL     1       2.085  -1.338  -7.556  1.00  0.00     0.029 A 
ATOM     59  N   UNL     1       3.369   0.417  -8.009  1.00  0.00    -0.354 N 
ATOM     60  N   UNL     1       2.907   1.999  -4.626  1.00  0.00    -0.248 NA
ATOM     61  C   UNL     1       2.225   3.902  -3.546  1.00  0.00     0.031 C 
ATOM     62  C   UNL     1       1.548  -0.179  -6.909  1.00  0.00     0.029 A 
ATOM     63  C   UNL     1       2.371   0.908  -7.176  1.00  0.00     0.049 A 
ATOM     64  H   UNL     1       4.069   0.974  -8.420  1.00  0.00     0.167 HD
ATOM     65  C   UNL     1       2.334   2.759  -5.582  1.00  0.00     0.074 A 
ATOM     66  C   UNL     1       1.926   3.958  -4.859  1.00  0.00     0.031 C 
ATOM     67  C   UNL     1       2.276   2.345  -6.881  1.00  0.00     0.034 A 
BRANCH  54  68
ATOM     68  C   UNL     1       4.381  -2.733  -9.833  1.00  0.00     0.023 A 
ATOM     69  C   UNL     1       3.134  -2.896 -10.475  1.00  0.00     0.012 A 
ATOM     70  C   UNL     1       5.423  -3.571 -10.317  1.00  0.00     0.148 A 
ATOM     71  C   UNL     1       2.927  -3.826 -11.504  1.00  0.00     0.002 A 
ATOM     72  C   UNL     1       5.226  -4.487 -11.357  1.00  0.00     0.091 A 
ATOM     73  F   UNL     1       6.638  -3.523  -9.783  1.00  0.00    -0.205 F 
ATOM     74  C   UNL     1       3.973  -4.620 -11.950  1.00  0.00     0.022 A 
BRANCH  72  75
ATOM     75  S   UNL     1       6.546  -5.546 -11.993  1.00  0.00     0.127 S 
ATOM     76  O   UNL     1       5.985  -6.885 -11.802  1.00  0.00    -0.237 OA
ATOM     77  O   UNL     1       6.641  -5.122 -13.389  1.00  0.00    -0.237 OA
ATOM     78  O   UNL     1       7.731  -5.272 -11.188  1.00  0.00    -0.744 OA
ENDBRANCH  72  75
ENDBRANCH  54  68
BRANCH  55  79
ATOM     79  C   UNL     1       4.226   2.323  -1.129  1.00  0.00     0.023 A 
ATOM     80  C   UNL     1       3.968   1.843   0.186  1.00  0.00     0.012 A 
ATOM     81  C   UNL     1       5.536   2.730  -1.438  1.00  0.00     0.148 A 
ATOM     82  C   UNL     1       4.997   1.661   1.119  1.00  0.00     0.002 A 
ATOM     83  C   UNL     1       6.568   2.485  -0.526  1.00  0.00     0.091 A 
ATOM     84  F   UNL     1       5.768   3.272  -2.640  1.00  0.00    -0.205 F 
ATOM     85  C   UNL     1       6.305   1.938   0.743  1.00  0.00     0.022 A 
BRANCH  83  86
ATOM     86  S   UNL     1       8.303   2.607  -0.989  1.00  0.00     0.127 S 
ATOM     87  O   UNL     1       8.720   3.810  -0.275  1.00  0.00    -0.237 OA
ATOM     88  O   UNL     1       8.846   1.359  -0.448  1.00  0.00    -0.237 OA
ATOM     89  O   UNL     1       8.319   2.694  -2.441  1.00  0.00    -0.744 OA
ENDBRANCH  83  86
ENDBRANCH  55  79
BRANCH  67  90
ATOM     90  C   UNL     1       2.139   3.326  -8.009  1.00  0.00     0.023 A 
ATOM     91  C   UNL     1       2.504   4.678  -7.849  1.00  0.00     0.012 A 
ATOM     92  C   UNL     1       1.855   2.880  -9.318  1.00  0.00     0.148 A 
ATOM     93  C   UNL     1       2.507   5.568  -8.918  1.00  0.00     0.002 A 
ATOM     94  C   UNL     1       2.012   3.733 -10.397  1.00  0.00     0.091 A 
ATOM     95  F   UNL     1       1.431   1.625  -9.524  1.00  0.00    -0.205 F 
ATOM     96  C   UNL     1       2.291   5.088 -10.199  1.00  0.00     0.022 A 
BRANCH  94  97
ATOM     97  S   UNL     1       2.067   3.096 -12.073  1.00  0.00     0.127 S 
ATOM     98  O   UNL     1       0.723   3.405 -12.552  1.00  0.00    -0.237 OA
ATOM     99  O   UNL     1       3.133   3.903 -12.671  1.00  0.00    -0.237 OA
ATOM    100  O   UNL     1       2.392   1.683 -11.940  1.00  0.00    -0.744 OA
ENDBRANCH  94  97
ENDBRANCH  67  90
ENDBRANCH  41  42
ENDBRANCH  34  36
ENDBRANCH  33  34
ENDBRANCH  32  33
ENDBRANCH   1  32
TORSDOF 20
