REMARK SMILES COc1ccc(-c2ccc(CCC(=O)OCCOCCOC(=O)c3ccc(-c4c5nc(c(-c6cccc(S(=O)(=O)[O-])c6F)c6ccc([nH]6)c(-c6cccc(S(=O)(=O)[O-])c6F)c6nc(c(-c7cccc(S(=O)(=O)[O-])c7F)c7ccc4[nH]7)C=C6)C=C5)cc3)n2-c2ccc(C(C)=O)cc2)cc1
REMARK SMILES IDX 17 1 16 2 15 3 13 4 14 5 12 6 11 7 10 8 7 9 8 10 87 11 9 12
REMARK SMILES IDX 6 13 3 14 4 15 98 16 5 17 97 18 2 19 1 20 88 21 89 22 96 23
REMARK SMILES IDX 90 24 95 25 91 26 92 27 93 28 94 29 18 30 19 31 20 32 21 33
REMARK SMILES IDX 22 34 23 35 24 36 25 37 86 38 26 39 85 40 27 41 28 42 29 43
REMARK SMILES IDX 79 44 30 45 84 46 78 47 80 48 31 49 83 50 77 51 76 52 32 54
REMARK SMILES IDX 64 55 44 56 63 57 45 58 48 59 62 60 81 61 46 62 47 63 61 65
REMARK SMILES IDX 82 66 49 67 33 68 34 69 42 70 35 71 37 72 43 73 36 74 38 75
REMARK SMILES IDX 39 76 40 77 41 78 65 79 66 80 74 81 67 82 69 83 75 84 68 85
REMARK SMILES IDX 70 86 71 87 72 88 73 89 50 90 51 91 59 92 52 93 54 94 60 95
REMARK SMILES IDX 53 96 55 97 56 98 57 99 58 100
REMARK H PARENT 80 53 48 64
REMARK Flexibility Score: inf
ROOT
ATOM      1  C   UNL     1       5.311  -9.408   6.468  1.00  0.00     0.202 C 
ENDROOT
BRANCH   1   2
ATOM      2  C   UNL     1       5.705  -9.502   4.988  1.00  0.00     0.261 C 
BRANCH   2   3
ATOM      3  O   UNL     1       4.583  -9.238   4.122  1.00  0.00    -0.463 OA
BRANCH   3   4
ATOM      4  C   UNL     1       3.941 -10.294   3.572  1.00  0.00     0.306 C 
ATOM      5  O   UNL     1       4.324 -11.456   3.637  1.00  0.00    -0.252 OA
BRANCH   4   6
ATOM      6  C   UNL     1       2.680  -9.884   2.837  1.00  0.00     0.129 C 
BRANCH   6   7
ATOM      7  C   UNL     1       1.621  -9.093   3.616  1.00  0.00     0.066 C 
BRANCH   7   8
ATOM      8  C   UNL     1       1.911  -7.623   3.765  1.00  0.00     0.024 A 
ATOM      9  C   UNL     1       1.926  -5.406   3.296  1.00  0.00     0.053 A 
ATOM     10  C   UNL     1       2.852  -5.632   4.295  1.00  0.00     0.029 A 
ATOM     11  N   UNL     1       1.295  -6.617   3.026  1.00  0.00    -0.314 N 
ATOM     12  C   UNL     1       2.801  -6.997   4.618  1.00  0.00     0.024 A 
BRANCH   9  13
ATOM     13  C   UNL     1       1.548  -4.115   2.730  1.00  0.00    -0.001 A 
ATOM     14  C   UNL     1       0.819  -1.666   1.581  1.00  0.00     0.118 A 
ATOM     15  C   UNL     1      -0.085  -2.366   2.381  1.00  0.00     0.047 A 
ATOM     16  C   UNL     1       2.112  -2.161   1.410  1.00  0.00     0.047 A 
ATOM     17  C   UNL     1       0.273  -3.586   2.951  1.00  0.00     0.014 A 
ATOM     18  C   UNL     1       2.476  -3.381   1.986  1.00  0.00     0.014 A 
BRANCH  14  19
ATOM     19  O   UNL     1       0.331  -0.509   1.048  1.00  0.00    -0.497 OA
ATOM     20  C   UNL     1       1.018   0.018  -0.074  1.00  0.00     0.278 C 
ENDBRANCH  14  19
ENDBRANCH   9  13
BRANCH  11  21
ATOM     21  C   UNL     1       0.202  -6.799   2.147  1.00  0.00     0.046 A 
ATOM     22  C   UNL     1      -0.999  -7.308   2.649  1.00  0.00     0.027 A 
ATOM     23  C   UNL     1       0.320  -6.435   0.807  1.00  0.00     0.027 A 
ATOM     24  C   UNL     1      -2.091  -7.477   1.794  1.00  0.00     0.014 A 
ATOM     25  C   UNL     1      -0.767  -6.629  -0.046  1.00  0.00     0.014 A 
ATOM     26  C   UNL     1      -1.979  -7.153   0.436  1.00  0.00     0.017 A 
BRANCH  26  27
ATOM     27  C   UNL     1      -3.085  -7.354  -0.551  1.00  0.00     0.159 C 
ATOM     28  C   UNL     1      -4.472  -7.734  -0.102  1.00  0.00     0.093 C 
ATOM     29  O   UNL     1      -2.853  -7.210  -1.754  1.00  0.00    -0.295 OA
ENDBRANCH  26  27
ENDBRANCH  11  21
ENDBRANCH   7   8
ENDBRANCH   6   7
ENDBRANCH   4   6
ENDBRANCH   3   4
ENDBRANCH   2   3
ENDBRANCH   1   2
BRANCH   1  30
ATOM     30  O   UNL     1       4.580 -10.532   6.968  1.00  0.00    -0.374 OA
BRANCH  30  31
ATOM     31  C   UNL     1       3.179 -10.535   6.718  1.00  0.00     0.202 C 
BRANCH  31  32
ATOM     32  C   UNL     1       2.300  -9.810   7.726  1.00  0.00     0.261 C 
BRANCH  32  33
ATOM     33  O   UNL     1       2.402  -8.392   7.621  1.00  0.00    -0.460 OA
BRANCH  33  34
ATOM     34  C   UNL     1       3.266  -7.841   8.505  1.00  0.00     0.338 C 
ATOM     35  O   UNL     1       4.203  -8.392   9.047  1.00  0.00    -0.246 OA
BRANCH  34  36
ATOM     36  C   UNL     1       2.792  -6.507   8.889  1.00  0.00     0.060 A 
ATOM     37  C   UNL     1       3.595  -5.809   9.794  1.00  0.00     0.016 A 
ATOM     38  C   UNL     1       1.491  -6.089   8.582  1.00  0.00     0.016 A 
ATOM     39  C   UNL     1       3.043  -4.766  10.506  1.00  0.00     0.010 A 
ATOM     40  C   UNL     1       0.924  -5.074   9.328  1.00  0.00     0.010 A 
ATOM     41  C   UNL     1       1.696  -4.436  10.301  1.00  0.00    -0.014 A 
BRANCH  41  42
ATOM     42  C   UNL     1       1.205  -3.217  10.958  1.00  0.00     0.031 A 
ATOM     43  C   UNL     1       1.623  -2.003  10.059  1.00  0.00     0.074 A 
ATOM     44  C   UNL     1       0.626  -3.401  12.198  1.00  0.00     0.049 A 
ATOM     45  N   UNL     1       2.058  -0.829  10.395  1.00  0.00    -0.248 NA
ATOM     46  C   UNL     1       1.724  -2.160   8.569  1.00  0.00     0.031 C 
ATOM     47  C   UNL     1       0.252  -4.713  12.798  1.00  0.00     0.029 A 
ATOM     48  N   UNL     1       0.215  -2.557  13.215  1.00  0.00    -0.354 N 
ATOM     49  C   UNL     1       2.160  -0.051   9.208  1.00  0.00     0.074 A 
ATOM     50  C   UNL     1       2.134  -0.970   8.121  1.00  0.00     0.031 C 
ATOM     51  C   UNL     1      -0.207  -4.576  14.069  1.00  0.00     0.029 A 
ATOM     52  C   UNL     1      -0.211  -3.171  14.439  1.00  0.00     0.049 A 
ATOM     53  H   UNL     1       0.214  -1.579  13.102  1.00  0.00     0.167 HD
ATOM     54  C   UNL     1       2.041   1.312   9.218  1.00  0.00     0.034 A 
ATOM     55  C   UNL     1      -0.497  -2.571  15.651  1.00  0.00     0.034 A 
ATOM     56  C   UNL     1       1.817   1.716  10.566  1.00  0.00     0.049 A 
ATOM     57  C   UNL     1      -0.501  -1.142  15.326  1.00  0.00     0.074 A 
ATOM     58  C   UNL     1       2.644   1.746  11.657  1.00  0.00     0.029 A 
ATOM     59  N   UNL     1       0.498   1.691  10.960  1.00  0.00    -0.354 N 
ATOM     60  N   UNL     1      -1.434  -0.550  14.642  1.00  0.00    -0.248 NA
ATOM     61  C   UNL     1       0.694  -0.353  15.643  1.00  0.00     0.031 C 
ATOM     62  C   UNL     1       1.818   1.197  12.652  1.00  0.00     0.029 A 
ATOM     63  C   UNL     1       0.477   1.225  12.242  1.00  0.00     0.049 A 
ATOM     64  H   UNL     1      -0.281   1.958  10.419  1.00  0.00     0.167 HD
ATOM     65  C   UNL     1      -0.751   0.519  14.126  1.00  0.00     0.074 A 
ATOM     66  C   UNL     1       0.355   0.776  15.029  1.00  0.00     0.031 C 
ATOM     67  C   UNL     1      -0.763   0.740  12.783  1.00  0.00     0.034 A 
BRANCH  54  68
ATOM     68  C   UNL     1       1.786   2.390   8.189  1.00  0.00     0.023 A 
ATOM     69  C   UNL     1       1.933   3.723   8.682  1.00  0.00     0.012 A 
ATOM     70  C   UNL     1       1.101   2.227   6.976  1.00  0.00     0.148 A 
ATOM     71  C   UNL     1       1.272   4.809   8.120  1.00  0.00     0.002 A 
ATOM     72  C   UNL     1       0.495   3.338   6.374  1.00  0.00     0.091 A 
ATOM     73  F   UNL     1       0.975   1.004   6.453  1.00  0.00    -0.205 F 
ATOM     74  C   UNL     1       0.532   4.609   6.973  1.00  0.00     0.022 A 
BRANCH  72  75
ATOM     75  S   UNL     1      -0.399   3.259   4.819  1.00  0.00     0.127 S 
ATOM     76  O   UNL     1      -1.765   3.569   5.237  1.00  0.00    -0.237 OA
ATOM     77  O   UNL     1       0.254   4.322   4.051  1.00  0.00    -0.237 OA
ATOM     78  O   UNL     1      -0.174   1.919   4.301  1.00  0.00    -0.744 OA
ENDBRANCH  72  75
ENDBRANCH  54  68
BRANCH  55  79
ATOM     79  C   UNL     1      -0.716  -2.891  17.135  1.00  0.00     0.023 A 
ATOM     80  C   UNL     1      -1.056  -4.146  17.654  1.00  0.00     0.012 A 
ATOM     81  C   UNL     1      -0.497  -1.869  18.129  1.00  0.00     0.148 A 
ATOM     82  C   UNL     1      -1.073  -4.382  19.056  1.00  0.00     0.002 A 
ATOM     83  C   UNL     1      -0.374  -2.134  19.491  1.00  0.00     0.091 A 
ATOM     84  F   UNL     1      -0.468  -0.583  17.768  1.00  0.00    -0.205 F 
ATOM     85  C   UNL     1      -0.679  -3.399  19.968  1.00  0.00     0.022 A 
BRANCH  83  86
ATOM     86  S   UNL     1       0.314  -0.920  20.647  1.00  0.00     0.127 S 
ATOM     87  O   UNL     1      -0.697  -0.878  21.702  1.00  0.00    -0.237 OA
ATOM     88  O   UNL     1       1.571  -1.563  21.030  1.00  0.00    -0.237 OA
ATOM     89  O   UNL     1       0.475   0.319  19.897  1.00  0.00    -0.744 OA
ENDBRANCH  83  86
ENDBRANCH  55  79
BRANCH  67  90
ATOM     90  C   UNL     1      -1.980   0.201  12.021  1.00  0.00     0.023 A 
ATOM     91  C   UNL     1      -3.239   0.666  12.454  1.00  0.00     0.012 A 
ATOM     92  C   UNL     1      -1.983  -0.780  10.995  1.00  0.00     0.148 A 
ATOM     93  C   UNL     1      -4.437   0.183  11.918  1.00  0.00     0.002 A 
ATOM     94  C   UNL     1      -3.187  -1.289  10.477  1.00  0.00     0.091 A 
ATOM     95  F   UNL     1      -0.818  -1.212  10.514  1.00  0.00    -0.205 F 
ATOM     96  C   UNL     1      -4.413  -0.797  10.935  1.00  0.00     0.022 A 
BRANCH  94  97
ATOM     97  S   UNL     1      -3.293  -2.637   9.272  1.00  0.00     0.127 S 
ATOM     98  O   UNL     1      -4.232  -3.563   9.912  1.00  0.00    -0.237 OA
ATOM     99  O   UNL     1      -3.835  -1.965   8.094  1.00  0.00    -0.237 OA
ATOM    100  O   UNL     1      -1.944  -3.169   9.125  1.00  0.00    -0.744 OA
ENDBRANCH  94  97
ENDBRANCH  67  90
ENDBRANCH  41  42
ENDBRANCH  34  36
ENDBRANCH  33  34
ENDBRANCH  32  33
ENDBRANCH  31  32
ENDBRANCH  30  31
ENDBRANCH   1  30
TORSDOF 23
