REMARK SMILES C[C@H](CNC(=O)Cc1ccc(F)c(F)c1)C(=O)OCCOCCOC(=O)c1ccc(-c2c3nc(c(-c4cccc(S(=O)(=O)[O-])c4F)c4ccc([nH]4)c(-c4cccc(S(=O)(=O)[O-])c4F)c4nc(c(-c5cccc(S(=O)(=O)[O-])c5F)c5ccc2[nH]5)C=C4)C=C3)cc1
REMARK SMILES IDX 20 1 19 2 18 3 16 4 17 5 2 6 1 7 3 8 4 9 5 10 6 12 7 13 8 14
REMARK SMILES IDX 9 15 15 16 10 17 13 18 11 19 14 20 12 21 21 22 22 23 23 24
REMARK SMILES IDX 24 25 25 26 26 27 27 28 28 29 89 30 29 31 88 32 30 33 31 34
REMARK SMILES IDX 32 35 82 36 33 37 87 38 81 39 83 40 34 41 86 42 80 43 79 44
REMARK SMILES IDX 35 46 67 47 47 48 66 49 48 50 51 51 65 52 84 53 49 54 50 55
REMARK SMILES IDX 64 57 85 58 52 59 36 60 37 61 45 62 38 63 40 64 46 65 39 66
REMARK SMILES IDX 41 67 42 68 43 69 44 70 68 71 69 72 77 73 70 74 72 75 78 76
REMARK SMILES IDX 71 77 73 78 74 79 75 80 76 81 53 82 54 83 62 84 55 85 57 86
REMARK SMILES IDX 63 87 56 88 58 89 59 90 60 91 61 92
REMARK H PARENT 4 11 83 45 51 56
REMARK Flexibility Score: inf
ROOT
ATOM      1  C   UNL     1      -3.965   0.007  -0.605  1.00  0.00     0.202 C 
ENDROOT
BRANCH   1   2
ATOM      2  C   UNL     1      -3.289  -1.187  -1.282  1.00  0.00     0.261 C 
BRANCH   2   3
ATOM      3  O   UNL     1      -1.874  -1.191  -1.029  1.00  0.00    -0.463 OA
BRANCH   3   4
ATOM      4  C   UNL     1      -1.094  -0.819  -2.073  1.00  0.00     0.310 C 
ATOM      5  O   UNL     1      -1.498  -0.552  -3.200  1.00  0.00    -0.252 OA
BRANCH   4   6
ATOM      6  C   UNL     1       0.375  -0.762  -1.716  1.00  0.00     0.115 C 
ATOM      7  C   UNL     1       1.024  -2.054  -2.187  1.00  0.00     0.022 C 
BRANCH   6   8
ATOM      8  C   UNL     1       0.714  -0.346  -0.273  1.00  0.00     0.130 C 
BRANCH   8   9
ATOM      9  N   UNL     1       0.323  -1.286   0.759  1.00  0.00    -0.355 N 
ATOM     10  C   UNL     1       1.042  -1.863   1.764  1.00  0.00     0.224 C 
ATOM     11  H   UNL     1      -0.624  -1.554   0.729  1.00  0.00     0.163 HD
ATOM     12  O   UNL     1       0.429  -2.519   2.607  1.00  0.00    -0.275 OA
BRANCH  10  13
ATOM     13  C   UNL     1       2.550  -1.687   1.855  1.00  0.00     0.135 C 
BRANCH  13  14
ATOM     14  C   UNL     1       3.329  -2.587   0.922  1.00  0.00    -0.036 A 
ATOM     15  C   UNL     1       3.780  -2.111  -0.319  1.00  0.00     0.007 A 
ATOM     16  C   UNL     1       3.596  -3.922   1.264  1.00  0.00     0.046 A 
ATOM     17  C   UNL     1       4.405  -2.961  -1.232  1.00  0.00     0.043 A 
ATOM     18  C   UNL     1       4.263  -4.755   0.365  1.00  0.00     0.159 A 
ATOM     19  C   UNL     1       4.642  -4.282  -0.885  1.00  0.00     0.158 A 
ATOM     20  F   UNL     1       4.541  -6.018   0.714  1.00  0.00    -0.204 F 
ATOM     21  F   UNL     1       5.245  -5.091  -1.767  1.00  0.00    -0.204 F 
ENDBRANCH  13  14
ENDBRANCH  10  13
ENDBRANCH   8   9
ENDBRANCH   6   8
ENDBRANCH   4   6
ENDBRANCH   3   4
ENDBRANCH   2   3
ENDBRANCH   1   2
BRANCH   1  22
ATOM     22  O   UNL     1      -3.658   1.304  -1.119  1.00  0.00    -0.374 OA
BRANCH  22  23
ATOM     23  C   UNL     1      -2.414   1.894  -0.749  1.00  0.00     0.202 C 
BRANCH  23  24
ATOM     24  C   UNL     1      -2.290   2.467   0.668  1.00  0.00     0.261 C 
BRANCH  24  25
ATOM     25  O   UNL     1      -2.430   1.455   1.679  1.00  0.00    -0.460 OA
BRANCH  25  26
ATOM     26  C   UNL     1      -3.593   1.528   2.365  1.00  0.00     0.338 C 
ATOM     27  O   UNL     1      -4.446   2.409   2.267  1.00  0.00    -0.246 OA
BRANCH  26  28
ATOM     28  C   UNL     1      -3.842   0.297   3.132  1.00  0.00     0.060 A 
ATOM     29  C   UNL     1      -5.098  -0.300   2.962  1.00  0.00     0.016 A 
ATOM     30  C   UNL     1      -2.940  -0.195   4.079  1.00  0.00     0.016 A 
ATOM     31  C   UNL     1      -5.504  -1.316   3.816  1.00  0.00     0.010 A 
ATOM     32  C   UNL     1      -3.354  -1.218   4.941  1.00  0.00     0.010 A 
ATOM     33  C   UNL     1      -4.664  -1.726   4.858  1.00  0.00    -0.014 A 
BRANCH  33  34
ATOM     34  C   UNL     1      -5.270  -2.498   5.970  1.00  0.00     0.031 A 
ATOM     35  C   UNL     1      -5.681  -1.760   7.219  1.00  0.00     0.074 A 
ATOM     36  C   UNL     1      -5.549  -3.805   5.833  1.00  0.00     0.049 A 
ATOM     37  N   UNL     1      -6.335  -2.197   8.263  1.00  0.00    -0.248 NA
ATOM     38  C   UNL     1      -5.313  -0.335   7.298  1.00  0.00     0.031 C 
ATOM     39  C   UNL     1      -5.216  -4.622   4.667  1.00  0.00     0.029 A 
ATOM     40  N   UNL     1      -6.183  -4.673   6.685  1.00  0.00    -0.354 N 
ATOM     41  C   UNL     1      -6.430  -1.116   9.132  1.00  0.00     0.074 A 
ATOM     42  C   UNL     1      -5.755  -0.004   8.502  1.00  0.00     0.031 C 
ATOM     43  C   UNL     1      -5.644  -5.878   4.880  1.00  0.00     0.029 A 
ATOM     44  C   UNL     1      -6.269  -5.956   6.199  1.00  0.00     0.049 A 
ATOM     45  H   UNL     1      -6.542  -4.403   7.561  1.00  0.00     0.167 HD
ATOM     46  C   UNL     1      -7.042  -1.046  10.338  1.00  0.00     0.034 A 
ATOM     47  C   UNL     1      -6.793  -7.064   6.760  1.00  0.00     0.034 A 
ATOM     48  C   UNL     1      -7.740  -2.144  10.949  1.00  0.00     0.049 A 
ATOM     49  C   UNL     1      -7.463  -6.960   8.105  1.00  0.00     0.074 A 
ATOM     50  C   UNL     1      -8.434  -2.163  12.145  1.00  0.00     0.029 A 
ATOM     51  N   UNL     1      -7.824  -3.420  10.416  1.00  0.00    -0.354 N 
ATOM     52  N   UNL     1      -7.651  -5.902   8.857  1.00  0.00    -0.248 NA
ATOM     53  C   UNL     1      -8.031  -8.197   8.660  1.00  0.00     0.031 C 
ATOM     54  C   UNL     1      -8.914  -3.461  12.350  1.00  0.00     0.029 A 
ATOM     55  C   UNL     1      -8.549  -4.240  11.264  1.00  0.00     0.049 A 
ATOM     56  H   UNL     1      -7.427  -3.703   9.561  1.00  0.00     0.167 HD
ATOM     57  C   UNL     1      -8.396  -6.336   9.949  1.00  0.00     0.074 A 
ATOM     58  C   UNL     1      -8.639  -7.750   9.750  1.00  0.00     0.031 C 
ATOM     59  C   UNL     1      -8.832  -5.632  11.023  1.00  0.00     0.034 A 
BRANCH  46  60
ATOM     60  C   UNL     1      -6.996   0.269  11.071  1.00  0.00     0.023 A 
ATOM     61  C   UNL     1      -7.768   1.356  10.614  1.00  0.00     0.012 A 
ATOM     62  C   UNL     1      -6.223   0.414  12.240  1.00  0.00     0.148 A 
ATOM     63  C   UNL     1      -7.747   2.576  11.291  1.00  0.00     0.002 A 
ATOM     64  C   UNL     1      -6.242   1.618  12.934  1.00  0.00     0.091 A 
ATOM     65  F   UNL     1      -5.474  -0.623  12.644  1.00  0.00    -0.205 F 
ATOM     66  C   UNL     1      -6.994   2.703  12.455  1.00  0.00     0.022 A 
BRANCH  64  67
ATOM     67  S   UNL     1      -5.367   1.854  14.484  1.00  0.00     0.127 S 
ATOM     68  O   UNL     1      -4.280   2.743  14.077  1.00  0.00    -0.237 OA
ATOM     69  O   UNL     1      -6.388   2.483  15.322  1.00  0.00    -0.237 OA
ATOM     70  O   UNL     1      -4.958   0.526  14.921  1.00  0.00    -0.744 OA
ENDBRANCH  64  67
ENDBRANCH  46  60
BRANCH  47  71
ATOM     71  C   UNL     1      -6.755  -8.360   6.024  1.00  0.00     0.023 A 
ATOM     72  C   UNL     1      -7.952  -8.926   5.546  1.00  0.00     0.012 A 
ATOM     73  C   UNL     1      -5.538  -9.029   5.790  1.00  0.00     0.148 A 
ATOM     74  C   UNL     1      -7.943 -10.150   4.877  1.00  0.00     0.002 A 
ATOM     75  C   UNL     1      -5.529 -10.220   5.075  1.00  0.00     0.091 A 
ATOM     76  F   UNL     1      -4.411  -8.483   6.269  1.00  0.00    -0.205 F 
ATOM     77  C   UNL     1      -6.732 -10.792   4.633  1.00  0.00     0.022 A 
BRANCH  75  78
ATOM     78  S   UNL     1      -4.008 -11.053   4.608  1.00  0.00     0.127 S 
ATOM     79  O   UNL     1      -4.050 -12.246   5.449  1.00  0.00    -0.237 OA
ATOM     80  O   UNL     1      -4.224 -11.296   3.181  1.00  0.00    -0.237 OA
ATOM     81  O   UNL     1      -2.937 -10.110   4.902  1.00  0.00    -0.744 OA
ENDBRANCH  75  78
ENDBRANCH  47  71
BRANCH  59  82
ATOM     82  C   UNL     1      -9.664  -6.361  12.048  1.00  0.00     0.023 A 
ATOM     83  C   UNL     1      -9.064  -7.311  12.897  1.00  0.00     0.012 A 
ATOM     84  C   UNL     1     -11.030  -6.055  12.210  1.00  0.00     0.148 A 
ATOM     85  C   UNL     1      -9.819  -7.975  13.863  1.00  0.00     0.002 A 
ATOM     86  C   UNL     1     -11.764  -6.682  13.209  1.00  0.00     0.091 A 
ATOM     87  F   UNL     1     -11.589  -5.161  11.381  1.00  0.00    -0.205 F 
ATOM     88  C   UNL     1     -11.164  -7.653  14.027  1.00  0.00     0.022 A 
BRANCH  86  89
ATOM     89  S   UNL     1     -13.473  -6.251  13.554  1.00  0.00     0.127 S 
ATOM     90  O   UNL     1     -14.191  -7.376  12.958  1.00  0.00    -0.237 OA
ATOM     91  O   UNL     1     -13.499  -6.218  15.017  1.00  0.00    -0.237 OA
ATOM     92  O   UNL     1     -13.693  -4.958  12.921  1.00  0.00    -0.744 OA
ENDBRANCH  86  89
ENDBRANCH  59  82
ENDBRANCH  33  34
ENDBRANCH  26  28
ENDBRANCH  25  26
ENDBRANCH  24  25
ENDBRANCH  23  24
ENDBRANCH  22  23
ENDBRANCH   1  22
TORSDOF 21
