REMARK SMILES CC(C)Nc1ncc(C(=O)N2CCC[C@H](c3cccc(C(=O)OCCOCCOC(=O)c4ccc(-c5c6nc(c(-c7cccc(S(=O)(=O)[O-])c7F)c7ccc([nH]7)c(-c7cccc(S(=O)(=O)[O-])c7F)c7nc(c(-c8cccc(S(=O)(=O)[O-])c8F)c8ccc5[nH]8)C=C7)C=C6)cc4)c3)C2)cn1
REMARK SMILES IDX 25 1 24 2 23 3 21 4 22 5 20 6 16 7 17 8 95 9 18 10 19 11
REMARK SMILES IDX 15 12 11 13 12 14 96 15 13 16 14 17 9 18 10 19 8 20 5 21
REMARK SMILES IDX 6 22 98 23 7 24 97 25 4 26 2 28 1 29 3 30 26 31 27 32 28 33
REMARK SMILES IDX 29 34 30 35 31 36 32 37 33 38 94 39 34 40 93 41 35 42 36 43
REMARK SMILES IDX 37 44 87 45 38 46 92 47 86 48 88 49 39 50 91 51 85 52 84 53
REMARK SMILES IDX 40 55 72 56 52 57 71 58 53 59 56 60 70 61 89 62 54 63 55 64
REMARK SMILES IDX 69 66 90 67 57 68 41 69 42 70 50 71 43 72 45 73 51 74 44 75
REMARK SMILES IDX 46 76 47 77 48 78 49 79 73 80 74 81 82 82 75 83 77 84 83 85
REMARK SMILES IDX 76 86 78 87 79 88 80 89 81 90 58 91 59 92 67 93 60 94 62 95
REMARK SMILES IDX 68 96 61 97 63 98 64 99 65 100 66 101
REMARK H PARENT 4 27 88 54 56 65
REMARK Flexibility Score: inf
ROOT
ATOM      1  C   UNL     1      -3.414   5.482 -13.131  1.00  0.00     0.202 C 
ENDROOT
BRANCH   1   2
ATOM      2  C   UNL     1      -4.525   4.431 -13.024  1.00  0.00     0.261 C 
BRANCH   2   3
ATOM      3  O   UNL     1      -4.537   3.818 -11.726  1.00  0.00    -0.460 OA
BRANCH   3   4
ATOM      4  C   UNL     1      -4.147   2.522 -11.696  1.00  0.00     0.338 C 
ATOM      5  O   UNL     1      -3.957   1.789 -12.656  1.00  0.00    -0.246 OA
BRANCH   4   6
ATOM      6  C   UNL     1      -3.751   2.156 -10.316  1.00  0.00     0.060 A 
ATOM      7  C   UNL     1      -4.044   2.218  -7.889  1.00  0.00    -0.042 A 
ATOM      8  C   UNL     1      -2.864   1.462  -7.774  1.00  0.00     0.004 A 
ATOM      9  C   UNL     1      -4.433   2.623  -9.184  1.00  0.00     0.019 A 
ATOM     10  C   UNL     1      -2.165   1.024  -8.901  1.00  0.00     0.001 A 
ATOM     11  C   UNL     1      -2.623   1.345 -10.171  1.00  0.00     0.016 A 
BRANCH   7  12
ATOM     12  C   UNL     1      -4.911   2.569  -6.668  1.00  0.00     0.039 C 
ATOM     13  N   UNL     1      -5.021   0.322  -5.564  1.00  0.00    -0.338 N 
ATOM     14  C   UNL     1      -6.380   0.072  -6.037  1.00  0.00     0.120 C 
ATOM     15  C   UNL     1      -4.634   1.733  -5.383  1.00  0.00     0.128 C 
ATOM     16  C   UNL     1      -6.780   0.947  -7.217  1.00  0.00     0.022 C 
ATOM     17  C   UNL     1      -6.424   2.414  -6.963  1.00  0.00     0.012 C 
BRANCH  13  18
ATOM     18  C   UNL     1      -4.178  -0.765  -5.363  1.00  0.00     0.257 C 
ATOM     19  O   UNL     1      -4.253  -1.812  -6.001  1.00  0.00    -0.269 OA
BRANCH  18  20
ATOM     20  C   UNL     1      -3.221  -0.729  -4.250  1.00  0.00     0.076 A 
ATOM     21  C   UNL     1      -1.613  -0.993  -2.068  1.00  0.00     0.222 A 
ATOM     22  N   UNL     1      -2.779  -0.348  -1.921  1.00  0.00    -0.221 NA
ATOM     23  N   UNL     1      -1.185  -1.507  -3.232  1.00  0.00    -0.221 NA
ATOM     24  C   UNL     1      -3.559  -0.226  -3.017  1.00  0.00     0.130 A 
ATOM     25  C   UNL     1      -2.018  -1.394  -4.295  1.00  0.00     0.130 A 
BRANCH  21  26
ATOM     26  N   UNL     1      -0.881  -1.123  -0.922  1.00  0.00    -0.352 N 
ATOM     27  H   UNL     1      -1.353  -1.140  -0.058  1.00  0.00     0.163 HD
BRANCH  26  28
ATOM     28  C   UNL     1       0.558  -1.238  -0.928  1.00  0.00     0.076 C 
ATOM     29  C   UNL     1       1.123  -0.109  -0.065  1.00  0.00     0.030 C 
ATOM     30  C   UNL     1       0.972  -2.595  -0.369  1.00  0.00     0.030 C 
ENDBRANCH  26  28
ENDBRANCH  21  26
ENDBRANCH  18  20
ENDBRANCH  13  18
ENDBRANCH   7  12
ENDBRANCH   4   6
ENDBRANCH   3   4
ENDBRANCH   2   3
ENDBRANCH   1   2
BRANCH   1  31
ATOM     31  O   UNL     1      -2.068   5.022 -12.994  1.00  0.00    -0.374 OA
BRANCH  31  32
ATOM     32  C   UNL     1      -1.593   4.778 -11.670  1.00  0.00     0.202 C 
BRANCH  32  33
ATOM     33  C   UNL     1      -1.186   5.992 -10.826  1.00  0.00     0.261 C 
BRANCH  33  34
ATOM     34  O   UNL     1      -2.294   6.861 -10.540  1.00  0.00    -0.460 OA
BRANCH  34  35
ATOM     35  C   UNL     1      -2.293   8.023 -11.235  1.00  0.00     0.338 C 
ATOM     36  O   UNL     1      -1.430   8.421 -12.005  1.00  0.00    -0.246 OA
BRANCH  35  37
ATOM     37  C   UNL     1      -3.594   8.698 -11.086  1.00  0.00     0.060 A 
ATOM     38  C   UNL     1      -4.281   9.043 -12.257  1.00  0.00     0.016 A 
ATOM     39  C   UNL     1      -4.103   9.047  -9.834  1.00  0.00     0.016 A 
ATOM     40  C   UNL     1      -5.457   9.784 -12.183  1.00  0.00     0.010 A 
ATOM     41  C   UNL     1      -5.281   9.796  -9.762  1.00  0.00     0.010 A 
ATOM     42  C   UNL     1      -5.942  10.200 -10.937  1.00  0.00    -0.014 A 
BRANCH  42  43
ATOM     43  C   UNL     1      -7.069  11.162 -10.872  1.00  0.00     0.031 A 
ATOM     44  C   UNL     1      -6.784  12.606 -10.564  1.00  0.00     0.074 A 
ATOM     45  C   UNL     1      -8.332  10.752 -11.085  1.00  0.00     0.049 A 
ATOM     46  N   UNL     1      -7.618  13.603 -10.426  1.00  0.00    -0.248 NA
ATOM     47  C   UNL     1      -5.370  12.976 -10.383  1.00  0.00     0.031 C 
ATOM     48  C   UNL     1      -8.733   9.380 -11.393  1.00  0.00     0.029 A 
ATOM     49  N   UNL     1      -9.514  11.449 -11.046  1.00  0.00    -0.354 N 
ATOM     50  C   UNL     1      -6.838  14.709 -10.109  1.00  0.00     0.074 A 
ATOM     51  C   UNL     1      -5.464  14.258 -10.065  1.00  0.00     0.031 C 
ATOM     52  C   UNL     1     -10.072   9.329 -11.487  1.00  0.00     0.029 A 
ATOM     53  C   UNL     1     -10.623  10.656 -11.218  1.00  0.00     0.049 A 
ATOM     54  H   UNL     1      -9.562  12.423 -10.910  1.00  0.00     0.167 HD
ATOM     55  C   UNL     1      -7.229  15.986  -9.888  1.00  0.00     0.034 A 
ATOM     56  C   UNL     1     -11.934  10.961 -11.138  1.00  0.00     0.034 A 
ATOM     57  C   UNL     1      -8.594  16.434  -9.953  1.00  0.00     0.049 A 
ATOM     58  C   UNL     1     -12.344  12.385 -10.870  1.00  0.00     0.074 A 
ATOM     59  C   UNL     1      -9.085  17.719  -9.800  1.00  0.00     0.029 A 
ATOM     60  N   UNL     1      -9.688  15.612 -10.171  1.00  0.00    -0.354 N 
ATOM     61  N   UNL     1     -11.589  13.442 -10.690  1.00  0.00    -0.248 NA
ATOM     62  C   UNL     1     -13.787  12.666 -10.828  1.00  0.00     0.031 C 
ATOM     63  C   UNL     1     -10.480  17.667  -9.889  1.00  0.00     0.029 A 
ATOM     64  C   UNL     1     -10.855  16.357 -10.140  1.00  0.00     0.049 A 
ATOM     65  H   UNL     1      -9.642  14.641 -10.327  1.00  0.00     0.167 HD
ATOM     66  C   UNL     1     -12.462  14.517 -10.552  1.00  0.00     0.074 A 
ATOM     67  C   UNL     1     -13.802  13.984 -10.688  1.00  0.00     0.031 C 
ATOM     68  C   UNL     1     -12.181  15.824 -10.324  1.00  0.00     0.034 A 
BRANCH  55  69
ATOM     69  C   UNL     1      -6.162  17.001  -9.566  1.00  0.00     0.023 A 
ATOM     70  C   UNL     1      -5.274  17.430 -10.573  1.00  0.00     0.012 A 
ATOM     71  C   UNL     1      -6.077  17.571  -8.281  1.00  0.00     0.148 A 
ATOM     72  C   UNL     1      -4.298  18.387 -10.297  1.00  0.00     0.002 A 
ATOM     73  C   UNL     1      -5.132  18.557  -8.026  1.00  0.00     0.091 A 
ATOM     74  F   UNL     1      -6.916  17.133  -7.331  1.00  0.00    -0.205 F 
ATOM     75  C   UNL     1      -4.234  18.958  -9.029  1.00  0.00     0.022 A 
BRANCH  73  76
ATOM     76  S   UNL     1      -5.023  19.410  -6.449  1.00  0.00     0.127 S 
ATOM     77  O   UNL     1      -3.761  18.893  -5.921  1.00  0.00    -0.237 OA
ATOM     78  O   UNL     1      -4.983  20.813  -6.861  1.00  0.00    -0.237 OA
ATOM     79  O   UNL     1      -6.214  19.029  -5.702  1.00  0.00    -0.744 OA
ENDBRANCH  73  76
ENDBRANCH  55  69
BRANCH  56  80
ATOM     80  C   UNL     1     -12.957   9.896 -11.337  1.00  0.00     0.023 A 
ATOM     81  C   UNL     1     -13.776   9.918 -12.482  1.00  0.00     0.012 A 
ATOM     82  C   UNL     1     -13.109   8.852 -10.403  1.00  0.00     0.148 A 
ATOM     83  C   UNL     1     -14.750   8.939 -12.678  1.00  0.00     0.002 A 
ATOM     84  C   UNL     1     -14.041   7.848 -10.633  1.00  0.00     0.091 A 
ATOM     85  F   UNL     1     -12.330   8.858  -9.313  1.00  0.00    -0.205 F 
ATOM     86  C   UNL     1     -14.875   7.899 -11.760  1.00  0.00     0.022 A 
BRANCH  84  87
ATOM     87  S   UNL     1     -14.179   6.403  -9.575  1.00  0.00     0.127 S 
ATOM     88  O   UNL     1     -15.481   6.615  -8.948  1.00  0.00    -0.237 OA
ATOM     89  O   UNL     1     -14.133   5.312 -10.549  1.00  0.00    -0.237 OA
ATOM     90  O   UNL     1     -13.031   6.457  -8.680  1.00  0.00    -0.744 OA
ENDBRANCH  84  87
ENDBRANCH  56  80
BRANCH  68  91
ATOM     91  C   UNL     1     -13.337  16.789 -10.249  1.00  0.00     0.023 A 
ATOM     92  C   UNL     1     -14.200  16.773  -9.136  1.00  0.00     0.012 A 
ATOM     93  C   UNL     1     -13.521  17.762 -11.252  1.00  0.00     0.148 A 
ATOM     94  C   UNL     1     -15.249  17.687  -9.039  1.00  0.00     0.002 A 
ATOM     95  C   UNL     1     -14.535  18.703 -11.123  1.00  0.00     0.091 A 
ATOM     96  F   UNL     1     -12.700  17.752 -12.312  1.00  0.00    -0.205 F 
ATOM     97  C   UNL     1     -15.409  18.659 -10.024  1.00  0.00     0.022 A 
BRANCH  95  98
ATOM     98  S   UNL     1     -14.755  20.051 -12.290  1.00  0.00     0.127 S 
ATOM     99  O   UNL     1     -15.989  19.658 -12.969  1.00  0.00    -0.237 OA
ATOM    100  O   UNL     1     -14.888  21.208 -11.405  1.00  0.00    -0.237 OA
ATOM    101  O   UNL     1     -13.561  20.060 -13.124  1.00  0.00    -0.744 OA
ENDBRANCH  95  98
ENDBRANCH  68  91
ENDBRANCH  42  43
ENDBRANCH  35  37
ENDBRANCH  34  35
ENDBRANCH  33  34
ENDBRANCH  32  33
ENDBRANCH  31  32
ENDBRANCH   1  31
TORSDOF 22
