REMARK SMILES CC1CCN(S(=O)(=O)c2ccc(C(=O)N3CCC[C@@H]3C(=O)OCCOCCOC(=O)c3ccc(-c4c5nc(c(-c6cccc(S(=O)(=O)[O-])c6F)c6ccc([nH]6)c(-c6cccc(S(=O)(=O)[O-])c6F)c6nc(c(-c7cccc(S(=O)(=O)[O-])c7F)c7ccc4[nH]7)C=C6)C=C5)cc3)cc2)CC1
REMARK SMILES IDX 24 1 23 2 22 3 20 4 21 5 19 6 15 7 16 8 17 9 18 10 13 11
REMARK SMILES IDX 14 12 12 13 9 14 10 15 95 16 11 17 94 18 6 19 7 20 8 21 5 22
REMARK SMILES IDX 1 23 2 24 3 25 97 26 4 27 96 28 25 29 26 30 27 31 28 32
REMARK SMILES IDX 29 33 30 34 31 35 32 36 93 37 33 38 92 39 34 40 35 41 36 42
REMARK SMILES IDX 86 43 37 44 91 45 85 46 87 47 38 48 90 49 84 50 83 51 39 53
REMARK SMILES IDX 71 54 51 55 70 56 52 57 55 58 69 59 88 60 53 61 54 62 68 64
REMARK SMILES IDX 89 65 56 66 40 67 41 68 49 69 42 70 44 71 50 72 43 73 45 74
REMARK SMILES IDX 46 75 47 76 48 77 72 78 73 79 81 80 74 81 76 82 82 83 75 84
REMARK SMILES IDX 77 85 78 86 79 87 80 88 57 89 58 90 66 91 59 92 61 93 67 94
REMARK SMILES IDX 60 95 62 96 63 97 64 98 65 99
REMARK H PARENT 87 52 55 63
REMARK Flexibility Score: inf
ROOT
ATOM      1  C   UNL     1       6.828  -6.258   0.394  1.00  0.00     0.202 C 
ENDROOT
BRANCH   1   2
ATOM      2  C   UNL     1       6.170  -5.356  -0.655  1.00  0.00     0.261 C 
BRANCH   2   3
ATOM      3  O   UNL     1       5.294  -6.082  -1.533  1.00  0.00    -0.462 OA
BRANCH   3   4
ATOM      4  C   UNL     1       5.774  -6.266  -2.795  1.00  0.00     0.328 C 
ATOM      5  O   UNL     1       6.842  -5.821  -3.203  1.00  0.00    -0.250 OA
BRANCH   4   6
ATOM      6  C   UNL     1       4.796  -7.026  -3.698  1.00  0.00     0.195 C 
ATOM      7  N   UNL     1       3.778  -6.130  -4.216  1.00  0.00    -0.325 N 
ATOM      8  C   UNL     1       2.563  -6.873  -4.469  1.00  0.00     0.121 C 
ATOM      9  C   UNL     1       2.513  -7.788  -3.264  1.00  0.00     0.024 C 
ATOM     10  C   UNL     1       3.986  -8.162  -3.045  1.00  0.00     0.039 C 
BRANCH   7  11
ATOM     11  C   UNL     1       4.133  -4.983  -4.884  1.00  0.00     0.254 C 
ATOM     12  O   UNL     1       4.956  -4.954  -5.790  1.00  0.00    -0.269 OA
BRANCH  11  13
ATOM     13  C   UNL     1       3.623  -3.732  -4.243  1.00  0.00     0.040 A 
ATOM     14  C   UNL     1       2.696  -1.384  -3.029  1.00  0.00     0.082 A 
ATOM     15  C   UNL     1       3.863  -1.354  -3.801  1.00  0.00     0.022 A 
ATOM     16  C   UNL     1       2.004  -2.582  -2.864  1.00  0.00     0.022 A 
ATOM     17  C   UNL     1       4.317  -2.528  -4.420  1.00  0.00     0.015 A 
ATOM     18  C   UNL     1       2.491  -3.754  -3.422  1.00  0.00     0.015 A 
BRANCH  14  19
ATOM     19  S   UNL     1       1.905   0.130  -2.531  1.00  0.00     0.243 S 
ATOM     20  O   UNL     1       0.586   0.065  -3.132  1.00  0.00    -0.207 OA
ATOM     21  O   UNL     1       2.805   1.209  -2.873  1.00  0.00    -0.207 OA
BRANCH  19  22
ATOM     22  N   UNL     1       1.770   0.114  -0.822  1.00  0.00    -0.198 NA
ATOM     23  C   UNL     1      -2.492   0.046  -0.620  1.00  0.00     0.008 C 
ATOM     24  C   UNL     1      -1.077   0.124  -0.042  1.00  0.00    -0.012 C 
ATOM     25  C   UNL     1      -0.361   1.390  -0.541  1.00  0.00     0.020 C 
ATOM     26  C   UNL     1      -0.319  -1.167  -0.372  1.00  0.00     0.020 C 
ATOM     27  C   UNL     1       1.145   1.370  -0.281  1.00  0.00     0.103 C 
ATOM     28  C   UNL     1       1.171  -1.039  -0.102  1.00  0.00     0.103 C 
ENDBRANCH  19  22
ENDBRANCH  14  19
ENDBRANCH  11  13
ENDBRANCH   7  11
ENDBRANCH   4   6
ENDBRANCH   3   4
ENDBRANCH   2   3
ENDBRANCH   1   2
BRANCH   1  29
ATOM     29  O   UNL     1       7.644  -7.326  -0.086  1.00  0.00    -0.374 OA
BRANCH  29  30
ATOM     30  C   UNL     1       6.991  -8.481  -0.608  1.00  0.00     0.202 C 
BRANCH  30  31
ATOM     31  C   UNL     1       6.311  -9.417   0.397  1.00  0.00     0.261 C 
BRANCH  31  32
ATOM     32  O   UNL     1       5.223  -8.783   1.094  1.00  0.00    -0.460 OA
BRANCH  32  33
ATOM     33  C   UNL     1       5.405  -8.682   2.436  1.00  0.00     0.338 C 
ATOM     34  O   UNL     1       6.324  -9.153   3.087  1.00  0.00    -0.246 OA
BRANCH  33  35
ATOM     35  C   UNL     1       4.423  -7.755   3.031  1.00  0.00     0.060 A 
ATOM     36  C   UNL     1       4.928  -6.712   3.817  1.00  0.00     0.016 A 
ATOM     37  C   UNL     1       3.044  -7.952   2.919  1.00  0.00     0.016 A 
ATOM     38  C   UNL     1       4.060  -5.904   4.548  1.00  0.00     0.010 A 
ATOM     39  C   UNL     1       2.173  -7.141   3.660  1.00  0.00     0.010 A 
ATOM     40  C   UNL     1       2.679  -6.142   4.512  1.00  0.00    -0.014 A 
BRANCH  40  41
ATOM     41  C   UNL     1       1.809  -5.445   5.493  1.00  0.00     0.031 A 
ATOM     42  C   UNL     1       1.419  -6.157   6.766  1.00  0.00     0.074 A 
ATOM     43  C   UNL     1       1.416  -4.174   5.290  1.00  0.00     0.049 A 
ATOM     44  N   UNL     1       0.750  -5.704   7.795  1.00  0.00    -0.248 NA
ATOM     45  C   UNL     1       1.839  -7.562   6.896  1.00  0.00     0.031 C 
ATOM     46  C   UNL     1       1.710  -3.364   4.106  1.00  0.00     0.029 A 
ATOM     47  N   UNL     1       0.678  -3.340   6.091  1.00  0.00    -0.354 N 
ATOM     48  C   UNL     1       0.652  -6.767   8.685  1.00  0.00     0.074 A 
ATOM     49  C   UNL     1       1.317  -7.895   8.068  1.00  0.00     0.031 C 
ATOM     50  C   UNL     1       1.149  -2.150   4.258  1.00  0.00     0.029 A 
ATOM     51  C   UNL     1       0.465  -2.097   5.547  1.00  0.00     0.049 A 
ATOM     52  H   UNL     1       0.333  -3.607   6.973  1.00  0.00     0.167 HD
ATOM     53  C   UNL     1       0.085  -6.803   9.915  1.00  0.00     0.034 A 
ATOM     54  C   UNL     1      -0.203  -1.039   6.040  1.00  0.00     0.034 A 
ATOM     55  C   UNL     1      -0.549  -5.682  10.555  1.00  0.00     0.049 A 
ATOM     56  C   UNL     1      -0.837  -1.111   7.403  1.00  0.00     0.074 A 
ATOM     57  C   UNL     1      -1.083  -5.607  11.830  1.00  0.00     0.029 A 
ATOM     58  N   UNL     1      -0.747  -4.445   9.967  1.00  0.00    -0.354 N 
ATOM     59  N   UNL     1      -0.813  -2.087   8.275  1.00  0.00    -0.248 NA
ATOM     60  C   UNL     1      -1.559   0.089   7.856  1.00  0.00     0.031 C 
ATOM     61  C   UNL     1      -1.621  -4.326  12.006  1.00  0.00     0.029 A 
ATOM     62  C   UNL     1      -1.408  -3.603  10.845  1.00  0.00     0.049 A 
ATOM     63  H   UNL     1      -0.460  -4.199   9.058  1.00  0.00     0.167 HD
ATOM     64  C   UNL     1      -1.507  -1.614   9.384  1.00  0.00     0.074 A 
ATOM     65  C   UNL     1      -1.915  -0.259   9.084  1.00  0.00     0.031 C 
ATOM     66  C   UNL     1      -1.793  -2.251  10.545  1.00  0.00     0.034 A 
BRANCH  53  67
ATOM     67  C   UNL     1       0.160  -8.095  10.681  1.00  0.00     0.023 A 
ATOM     68  C   UNL     1       1.372  -8.465  11.297  1.00  0.00     0.012 A 
ATOM     69  C   UNL     1      -0.979  -8.906  10.849  1.00  0.00     0.148 A 
ATOM     70  C   UNL     1       1.456  -9.633  12.053  1.00  0.00     0.002 A 
ATOM     71  C   UNL     1      -0.896 -10.052  11.632  1.00  0.00     0.091 A 
ATOM     72  F   UNL     1      -2.114  -8.552  10.230  1.00  0.00    -0.205 F 
ATOM     73  C   UNL     1       0.320 -10.420  12.229  1.00  0.00     0.022 A 
BRANCH  71  74
ATOM     74  S   UNL     1      -2.325 -11.088  11.966  1.00  0.00     0.127 S 
ATOM     75  O   UNL     1      -2.091 -12.212  11.061  1.00  0.00    -0.237 OA
ATOM     76  O   UNL     1      -2.158 -11.404  13.385  1.00  0.00    -0.237 OA
ATOM     77  O   UNL     1      -3.489 -10.266  11.665  1.00  0.00    -0.744 OA
ENDBRANCH  71  74
ENDBRANCH  53  67
BRANCH  54  78
ATOM     78  C   UNL     1      -0.318   0.224   5.271  1.00  0.00     0.023 A 
ATOM     79  C   UNL     1       0.577   1.277   5.530  1.00  0.00     0.012 A 
ATOM     80  C   UNL     1      -1.405   0.427   4.405  1.00  0.00     0.148 A 
ATOM     81  C   UNL     1       0.375   2.530   4.951  1.00  0.00     0.002 A 
ATOM     82  C   UNL     1      -1.610   1.681   3.848  1.00  0.00     0.091 A 
ATOM     83  F   UNL     1      -2.252  -0.592   4.201  1.00  0.00    -0.205 F 
ATOM     84  C   UNL     1      -0.719   2.733   4.112  1.00  0.00     0.022 A 
BRANCH  82  85
ATOM     85  S   UNL     1      -3.034   2.031   2.814  1.00  0.00     0.127 S 
ATOM     86  O   UNL     1      -3.932   2.687   3.758  1.00  0.00    -0.237 OA
ATOM     87  O   UNL     1      -2.460   2.909   1.794  1.00  0.00    -0.237 OA
ATOM     88  O   UNL     1      -3.467   0.733   2.318  1.00  0.00    -0.744 OA
ENDBRANCH  82  85
ENDBRANCH  54  78
BRANCH  66  89
ATOM     89  C   UNL     1      -2.584  -1.489  11.573  1.00  0.00     0.023 A 
ATOM     90  C   UNL     1      -3.963  -1.279  11.371  1.00  0.00     0.012 A 
ATOM     91  C   UNL     1      -1.976  -1.009  12.748  1.00  0.00     0.148 A 
ATOM     92  C   UNL     1      -4.717  -0.574  12.308  1.00  0.00     0.002 A 
ATOM     93  C   UNL     1      -2.743  -0.343  13.698  1.00  0.00     0.091 A 
ATOM     94  F   UNL     1      -0.657  -1.191  12.909  1.00  0.00    -0.205 F 
ATOM     95  C   UNL     1      -4.110  -0.116  13.476  1.00  0.00     0.022 A 
BRANCH  93  96
ATOM     96  S   UNL     1      -2.046   0.202  15.261  1.00  0.00     0.127 S 
ATOM     97  O   UNL     1      -1.770   1.612  14.993  1.00  0.00    -0.237 OA
ATOM     98  O   UNL     1      -3.143  -0.037  16.200  1.00  0.00    -0.237 OA
ATOM     99  O   UNL     1      -0.878  -0.641  15.482  1.00  0.00    -0.744 OA
ENDBRANCH  93  96
ENDBRANCH  66  89
ENDBRANCH  40  41
ENDBRANCH  33  35
ENDBRANCH  32  33
ENDBRANCH  31  32
ENDBRANCH  30  31
ENDBRANCH  29  30
ENDBRANCH   1  29
TORSDOF 21
