REMARK SMILES CC[C@@H](C)[C@@H](NC(N)=O)C(=O)N1CCC[C@H](C(=O)OCCOCCOC(=O)c2ccc(-c3c4nc(c(-c5cccc(S(=O)(=O)[O-])c5F)c5ccc([nH]5)c(-c5cccc(S(=O)(=O)[O-])c5F)c5nc(c(-c6cccc(S(=O)(=O)[O-])c6F)c6ccc3[nH]6)C=C5)C=C4)cc2)C1
REMARK SMILES IDX 21 1 20 2 19 3 17 4 18 5 16 6 12 7 13 8 91 9 14 10 15 11
REMARK SMILES IDX 10 12 11 13 5 14 3 15 4 16 2 17 1 18 6 19 7 20 8 22 9 23
REMARK SMILES IDX 22 26 23 27 24 28 25 29 26 30 27 31 28 32 29 33 90 34 30 35
REMARK SMILES IDX 89 36 31 37 32 38 33 39 83 40 34 41 88 42 82 43 84 44 35 45
REMARK SMILES IDX 87 46 81 47 80 48 36 50 68 51 48 52 67 53 49 54 52 55 66 56
REMARK SMILES IDX 85 57 50 58 51 59 65 61 86 62 53 63 37 64 38 65 46 66 39 67
REMARK SMILES IDX 41 68 47 69 40 70 42 71 43 72 44 73 45 74 69 75 70 76 78 77
REMARK SMILES IDX 71 78 73 79 79 80 72 81 74 82 75 83 76 84 77 85 54 86 55 87
REMARK SMILES IDX 63 88 56 89 58 90 64 91 57 92 59 93 60 94 61 95 62 96
REMARK H PARENT 6 21 8 24 8 25 84 49 52 60
REMARK Flexibility Score: inf
ROOT
ATOM      1  C   UNL     1       1.664  -5.225   5.237  1.00  0.00     0.202 C 
ENDROOT
BRANCH   1   2
ATOM      2  C   UNL     1       1.410  -4.554   3.888  1.00  0.00     0.261 C 
BRANCH   2   3
ATOM      3  O   UNL     1       2.435  -4.888   2.939  1.00  0.00    -0.463 OA
BRANCH   3   4
ATOM      4  C   UNL     1       3.167  -3.878   2.409  1.00  0.00     0.310 C 
ATOM      5  O   UNL     1       3.028  -2.690   2.678  1.00  0.00    -0.252 OA
BRANCH   4   6
ATOM      6  C   UNL     1       4.199  -4.365   1.400  1.00  0.00     0.119 C 
ATOM      7  N   UNL     1       2.584  -5.168  -0.216  1.00  0.00    -0.340 N 
ATOM      8  C   UNL     1       2.999  -6.562  -0.141  1.00  0.00     0.119 C 
ATOM      9  C   UNL     1       3.642  -4.197  -0.011  1.00  0.00     0.134 C 
ATOM     10  C   UNL     1       3.713  -6.886   1.168  1.00  0.00     0.022 C 
ATOM     11  C   UNL     1       4.715  -5.803   1.585  1.00  0.00     0.019 C 
BRANCH   7  12
ATOM     12  C   UNL     1       1.224  -4.870  -0.176  1.00  0.00     0.245 C 
ATOM     13  O   UNL     1       0.462  -5.519   0.548  1.00  0.00    -0.272 OA
BRANCH  12  14
ATOM     14  C   UNL     1       0.695  -3.634  -0.982  1.00  0.00     0.176 C 
BRANCH  14  15
ATOM     15  C   UNL     1       0.760  -2.296  -0.175  1.00  0.00     0.018 C 
ATOM     16  C   UNL     1       0.045  -2.394   1.180  1.00  0.00     0.010 C 
BRANCH  15  17
ATOM     17  C   UNL     1       0.210  -1.071  -0.947  1.00  0.00     0.002 C 
ATOM     18  C   UNL     1       0.676   0.249  -0.333  1.00  0.00     0.004 C 
ENDBRANCH  15  17
ENDBRANCH  14  15
BRANCH  14  19
ATOM     19  N   UNL     1       1.417  -3.538  -2.267  1.00  0.00    -0.326 N 
ATOM     20  C   UNL     1       1.532  -4.615  -3.098  1.00  0.00     0.312 C 
ATOM     21  H   UNL     1       1.825  -2.681  -2.529  1.00  0.00     0.166 HD
ATOM     22  N   UNL     1       2.108  -4.317  -4.284  1.00  0.00    -0.352 N 
ATOM     23  O   UNL     1       1.232  -5.770  -2.833  1.00  0.00    -0.249 OA
ATOM     24  H   UNL     1       2.348  -3.386  -4.494  1.00  0.00     0.161 HD
ATOM     25  H   UNL     1       2.286  -5.031  -4.938  1.00  0.00     0.161 HD
ENDBRANCH  14  19
ENDBRANCH  12  14
ENDBRANCH   7  12
ENDBRANCH   4   6
ENDBRANCH   3   4
ENDBRANCH   2   3
ENDBRANCH   1   2
BRANCH   1  26
ATOM     26  O   UNL     1       2.852  -4.849   5.934  1.00  0.00    -0.374 OA
BRANCH  26  27
ATOM     27  C   UNL     1       4.099  -5.283   5.398  1.00  0.00     0.202 C 
BRANCH  27  28
ATOM     28  C   UNL     1       4.465  -6.767   5.537  1.00  0.00     0.261 C 
BRANCH  28  29
ATOM     29  O   UNL     1       3.555  -7.656   4.867  1.00  0.00    -0.460 OA
BRANCH  29  30
ATOM     30  C   UNL     1       2.756  -8.366   5.704  1.00  0.00     0.338 C 
ATOM     31  O   UNL     1       2.769  -8.342   6.924  1.00  0.00    -0.246 OA
BRANCH  30  32
ATOM     32  C   UNL     1       1.712  -9.084   4.949  1.00  0.00     0.060 A 
ATOM     33  C   UNL     1       0.380  -8.864   5.326  1.00  0.00     0.016 A 
ATOM     34  C   UNL     1       2.029 -10.046   3.989  1.00  0.00     0.016 A 
ATOM     35  C   UNL     1      -0.636  -9.654   4.797  1.00  0.00     0.010 A 
ATOM     36  C   UNL     1       1.006 -10.841   3.461  1.00  0.00     0.010 A 
ATOM     37  C   UNL     1      -0.322 -10.682   3.900  1.00  0.00    -0.014 A 
BRANCH  37  38
ATOM     38  C   UNL     1      -1.352 -11.693   3.555  1.00  0.00     0.031 A 
ATOM     39  C   UNL     1      -1.293 -13.048   4.209  1.00  0.00     0.074 A 
ATOM     40  C   UNL     1      -2.337 -11.405   2.687  1.00  0.00     0.049 A 
ATOM     41  N   UNL     1      -2.065 -14.089   4.037  1.00  0.00    -0.248 NA
ATOM     42  C   UNL     1      -0.211 -13.257   5.186  1.00  0.00     0.031 C 
ATOM     43  C   UNL     1      -2.519 -10.122   2.011  1.00  0.00     0.029 A 
ATOM     44  N   UNL     1      -3.362 -12.186   2.214  1.00  0.00    -0.354 N 
ATOM     45  C   UNL     1      -1.544 -15.087   4.853  1.00  0.00     0.074 A 
ATOM     46  C   UNL     1      -0.378 -14.531   5.505  1.00  0.00     0.031 C 
ATOM     47  C   UNL     1      -3.585 -10.207   1.198  1.00  0.00     0.029 A 
ATOM     48  C   UNL     1      -4.138 -11.558   1.271  1.00  0.00     0.049 A 
ATOM     49  H   UNL     1      -3.525 -13.107   2.522  1.00  0.00     0.167 HD
ATOM     50  C   UNL     1      -2.000 -16.348   5.054  1.00  0.00     0.034 A 
ATOM     51  C   UNL     1      -5.166 -12.027   0.536  1.00  0.00     0.034 A 
ATOM     52  C   UNL     1      -3.165 -16.892   4.409  1.00  0.00     0.049 A 
ATOM     53  C   UNL     1      -5.624 -13.449   0.735  1.00  0.00     0.074 A 
ATOM     54  C   UNL     1      -3.734 -18.142   4.569  1.00  0.00     0.029 A 
ATOM     55  N   UNL     1      -3.931 -16.223   3.465  1.00  0.00    -0.354 N 
ATOM     56  N   UNL     1      -5.181 -14.353   1.577  1.00  0.00    -0.248 NA
ATOM     57  C   UNL     1      -6.745 -13.907  -0.099  1.00  0.00     0.031 C 
ATOM     58  C   UNL     1      -4.819 -18.245   3.691  1.00  0.00     0.029 A 
ATOM     59  C   UNL     1      -4.956 -17.041   3.019  1.00  0.00     0.049 A 
ATOM     60  H   UNL     1      -3.770 -15.302   3.157  1.00  0.00     0.167 HD
ATOM     61  C   UNL     1      -5.996 -15.468   1.407  1.00  0.00     0.074 A 
ATOM     62  C   UNL     1      -6.965 -15.122   0.386  1.00  0.00     0.031 C 
ATOM     63  C   UNL     1      -5.944 -16.669   2.035  1.00  0.00     0.034 A 
BRANCH  50  64
ATOM     64  C   UNL     1      -1.228 -17.219   6.014  1.00  0.00     0.023 A 
ATOM     65  C   UNL     1      -1.229 -16.921   7.393  1.00  0.00     0.012 A 
ATOM     66  C   UNL     1      -0.506 -18.339   5.554  1.00  0.00     0.148 A 
ATOM     67  C   UNL     1      -0.482 -17.687   8.288  1.00  0.00     0.002 A 
ATOM     68  C   UNL     1       0.195 -19.128   6.459  1.00  0.00     0.091 A 
ATOM     69  F   UNL     1      -0.497 -18.599   4.239  1.00  0.00    -0.205 F 
ATOM     70  C   UNL     1       0.223 -18.793   7.823  1.00  0.00     0.022 A 
BRANCH  68  71
ATOM     71  S   UNL     1       1.065 -20.620   5.968  1.00  0.00     0.127 S 
ATOM     72  O   UNL     1       2.460 -20.190   6.051  1.00  0.00    -0.237 OA
ATOM     73  O   UNL     1       0.658 -21.570   7.004  1.00  0.00    -0.237 OA
ATOM     74  O   UNL     1       0.585 -20.942   4.631  1.00  0.00    -0.744 OA
ENDBRANCH  68  71
ENDBRANCH  50  64
BRANCH  51  75
ATOM     75  C   UNL     1      -5.871 -11.123  -0.416  1.00  0.00     0.023 A 
ATOM     76  C   UNL     1      -7.184 -10.707  -0.123  1.00  0.00     0.012 A 
ATOM     77  C   UNL     1      -5.244 -10.652  -1.587  1.00  0.00     0.148 A 
ATOM     78  C   UNL     1      -7.870  -9.856  -0.989  1.00  0.00     0.002 A 
ATOM     79  C   UNL     1      -5.916  -9.766  -2.420  1.00  0.00     0.091 A 
ATOM     80  F   UNL     1      -3.998 -11.069  -1.850  1.00  0.00    -0.205 F 
ATOM     81  C   UNL     1      -7.234  -9.378  -2.131  1.00  0.00     0.022 A 
BRANCH  79  82
ATOM     82  S   UNL     1      -5.153  -9.015  -3.863  1.00  0.00     0.127 S 
ATOM     83  O   UNL     1      -5.993  -9.526  -4.945  1.00  0.00    -0.237 OA
ATOM     84  O   UNL     1      -5.318  -7.590  -3.579  1.00  0.00    -0.237 OA
ATOM     85  O   UNL     1      -3.775  -9.483  -3.874  1.00  0.00    -0.744 OA
ENDBRANCH  79  82
ENDBRANCH  51  75
BRANCH  63  86
ATOM     86  C   UNL     1      -6.995 -17.693   1.685  1.00  0.00     0.023 A 
ATOM     87  C   UNL     1      -6.967 -18.339   0.433  1.00  0.00     0.012 A 
ATOM     88  C   UNL     1      -7.968 -18.070   2.633  1.00  0.00     0.148 A 
ATOM     89  C   UNL     1      -7.911 -19.318   0.118  1.00  0.00     0.002 A 
ATOM     90  C   UNL     1      -8.870 -19.084   2.333  1.00  0.00     0.091 A 
ATOM     91  F   UNL     1      -7.990 -17.434   3.813  1.00  0.00    -0.205 F 
ATOM     92  C   UNL     1      -8.853 -19.698   1.071  1.00  0.00     0.022 A 
BRANCH  90  93
ATOM     93  S   UNL     1     -10.053 -19.710   3.532  1.00  0.00     0.127 S 
ATOM     94  O   UNL     1     -11.320 -19.236   2.977  1.00  0.00    -0.237 OA
ATOM     95  O   UNL     1      -9.850 -21.157   3.438  1.00  0.00    -0.237 OA
ATOM     96  O   UNL     1      -9.678 -19.128   4.813  1.00  0.00    -0.744 OA
ENDBRANCH  90  93
ENDBRANCH  63  86
ENDBRANCH  37  38
ENDBRANCH  30  32
ENDBRANCH  29  30
ENDBRANCH  28  29
ENDBRANCH  27  28
ENDBRANCH  26  27
ENDBRANCH   1  26
TORSDOF 22
