REMARK SMILES Cc1ccc(S(=O)(=O)Nc2cc3c(cc2C(=O)OCCOCCOC(=O)c2ccc(-c4c5nc(c(-c6cccc(S(=O)(=O)[O-])c6F)c6ccc([nH]6)c(-c6cccc(S(=O)(=O)[O-])c6F)c6nc(c(-c7cccc(S(=O)(=O)[O-])c7F)c7ccc4[nH]7)C=C6)C=C5)cc2)OCCO3)s1
REMARK SMILES IDX 21 1 20 2 19 3 18 4 16 5 17 6 15 7 10 8 11 9 12 10 14 11
REMARK SMILES IDX 13 12 93 13 90 14 92 15 91 16 9 17 6 19 7 20 8 21 5 22 1 23
REMARK SMILES IDX 2 24 3 25 94 26 4 27 22 28 23 29 24 30 25 31 26 32 27 33
REMARK SMILES IDX 28 34 89 35 29 36 88 37 30 38 31 39 32 40 82 41 33 42 87 43
REMARK SMILES IDX 81 44 83 45 34 46 86 47 80 48 79 49 35 51 67 52 47 53 66 54
REMARK SMILES IDX 48 55 51 56 65 57 84 58 49 59 50 60 64 62 85 63 52 64 36 65
REMARK SMILES IDX 37 66 45 67 38 68 40 69 46 70 39 71 41 72 42 73 43 74 44 75
REMARK SMILES IDX 68 76 69 77 77 78 70 79 72 80 78 81 71 82 73 83 74 84 75 85
REMARK SMILES IDX 76 86 53 87 54 88 62 89 55 90 57 91 63 92 56 93 58 94 59 95
REMARK SMILES IDX 60 96 61 97
REMARK H PARENT 9 18 83 50 51 61
REMARK Flexibility Score: inf
ROOT
ATOM      1  O   UNL     1      -0.842   1.238   3.658  1.00  0.00    -0.374 OA
ENDROOT
BRANCH   1   2
ATOM      2  C   UNL     1      -0.700   0.017   4.378  1.00  0.00     0.202 C 
BRANCH   2   3
ATOM      3  C   UNL     1      -1.864  -0.976   4.344  1.00  0.00     0.261 C 
BRANCH   3   4
ATOM      4  O   UNL     1      -2.012  -1.632   3.067  1.00  0.00    -0.460 OA
BRANCH   4   5
ATOM      5  C   UNL     1      -3.239  -1.531   2.502  1.00  0.00     0.340 C 
ATOM      6  O   UNL     1      -4.182  -0.867   2.905  1.00  0.00    -0.246 OA
BRANCH   5   7
ATOM      7  C   UNL     1      -3.349  -2.356   1.284  1.00  0.00     0.088 A 
ATOM      8  C   UNL     1      -3.944  -1.820   0.127  1.00  0.00     0.067 A 
ATOM      9  C   UNL     1      -4.449  -2.688  -0.841  1.00  0.00     0.078 A 
ATOM     10  C   UNL     1      -4.174  -4.050  -0.756  1.00  0.00     0.163 A 
ATOM     11  C   UNL     1      -3.024  -3.716   1.345  1.00  0.00     0.068 A 
ATOM     12  C   UNL     1      -3.396  -4.550   0.293  1.00  0.00     0.162 A 
ATOM     13  O   UNL     1      -4.671  -4.834  -1.766  1.00  0.00    -0.486 OA
ATOM     14  O   UNL     1      -2.999  -5.859   0.363  1.00  0.00    -0.486 OA
ATOM     15  C   UNL     1      -4.563  -6.226  -1.445  1.00  0.00     0.271 C 
ATOM     16  C   UNL     1      -3.181  -6.529  -0.892  1.00  0.00     0.271 C 
BRANCH   8  17
ATOM     17  N   UNL     1      -4.048  -0.400  -0.035  1.00  0.00    -0.278 N 
ATOM     18  H   UNL     1      -4.417   0.153   0.691  1.00  0.00     0.180 HD
BRANCH  17  19
ATOM     19  S   UNL     1      -3.531   0.326  -1.482  1.00  0.00     0.271 S 
ATOM     20  O   UNL     1      -3.426   1.739  -1.194  1.00  0.00    -0.200 OA
ATOM     21  O   UNL     1      -4.365  -0.154  -2.564  1.00  0.00    -0.200 OA
BRANCH  19  22
ATOM     22  C   UNL     1      -1.885  -0.271  -1.865  1.00  0.00     0.140 A 
ATOM     23  C   UNL     1       2.004   0.163  -2.014  1.00  0.00     0.056 C 
ATOM     24  C   UNL     1       0.576  -0.261  -2.075  1.00  0.00     0.003 A 
ATOM     25  C   UNL     1       0.068  -1.541  -2.050  1.00  0.00     0.016 A 
ATOM     26  S   UNL     1      -0.678   0.903  -2.192  1.00  0.00    -0.127 S 
ATOM     27  C   UNL     1      -1.354  -1.545  -1.972  1.00  0.00     0.034 A 
ENDBRANCH  19  22
ENDBRANCH  17  19
ENDBRANCH   8  17
ENDBRANCH   5   7
ENDBRANCH   4   5
ENDBRANCH   3   4
ENDBRANCH   2   3
ENDBRANCH   1   2
BRANCH   1  28
ATOM     28  C   UNL     1      -1.223   1.186   2.294  1.00  0.00     0.202 C 
BRANCH  28  29
ATOM     29  C   UNL     1      -0.340   0.415   1.306  1.00  0.00     0.261 C 
BRANCH  29  30
ATOM     30  O   UNL     1       0.730  -0.341   1.862  1.00  0.00    -0.460 OA
BRANCH  30  31
ATOM     31  C   UNL     1       1.907   0.318   1.940  1.00  0.00     0.338 C 
ATOM     32  O   UNL     1       2.169   1.440   1.549  1.00  0.00    -0.246 OA
BRANCH  31  33
ATOM     33  C   UNL     1       2.837  -0.532   2.694  1.00  0.00     0.060 A 
ATOM     34  C   UNL     1       3.295  -0.059   3.925  1.00  0.00     0.016 A 
ATOM     35  C   UNL     1       3.251  -1.771   2.193  1.00  0.00     0.016 A 
ATOM     36  C   UNL     1       4.195  -0.825   4.656  1.00  0.00     0.010 A 
ATOM     37  C   UNL     1       4.154  -2.537   2.930  1.00  0.00     0.010 A 
ATOM     38  C   UNL     1       4.644  -2.057   4.155  1.00  0.00    -0.014 A 
BRANCH  38  39
ATOM     39  C   UNL     1       5.659  -2.809   4.924  1.00  0.00     0.031 A 
ATOM     40  C   UNL     1       7.105  -2.715   4.538  1.00  0.00     0.074 A 
ATOM     41  C   UNL     1       5.272  -3.530   5.992  1.00  0.00     0.049 A 
ATOM     42  N   UNL     1       8.155  -3.161   5.173  1.00  0.00    -0.248 NA
ATOM     43  C   UNL     1       7.412  -2.027   3.273  1.00  0.00     0.031 C 
ATOM     44  C   UNL     1       3.885  -3.721   6.418  1.00  0.00     0.029 A 
ATOM     45  N   UNL     1       6.006  -4.235   6.909  1.00  0.00    -0.354 N 
ATOM     46  C   UNL     1       9.248  -2.815   4.388  1.00  0.00     0.074 A 
ATOM     47  C   UNL     1       8.732  -2.142   3.216  1.00  0.00     0.031 C 
ATOM     48  C   UNL     1       3.869  -4.496   7.515  1.00  0.00     0.029 A 
ATOM     49  C   UNL     1       5.240  -4.854   7.867  1.00  0.00     0.049 A 
ATOM     50  H   UNL     1       6.989  -4.292   6.884  1.00  0.00     0.167 HD
ATOM     51  C   UNL     1      10.562  -3.023   4.638  1.00  0.00     0.034 A 
ATOM     52  C   UNL     1       5.609  -5.613   8.918  1.00  0.00     0.034 A 
ATOM     53  C   UNL     1      11.056  -3.687   5.814  1.00  0.00     0.049 A 
ATOM     54  C   UNL     1       7.077  -5.798   9.190  1.00  0.00     0.074 A 
ATOM     55  C   UNL     1      12.368  -3.903   6.196  1.00  0.00     0.029 A 
ATOM     56  N   UNL     1      10.255  -4.256   6.793  1.00  0.00    -0.354 N 
ATOM     57  N   UNL     1       8.104  -5.321   8.527  1.00  0.00    -0.248 NA
ATOM     58  C   UNL     1       7.441  -6.584  10.377  1.00  0.00     0.031 C 
ATOM     59  C   UNL     1      12.358  -4.624   7.396  1.00  0.00     0.029 A 
ATOM     60  C   UNL     1      11.041  -4.837   7.772  1.00  0.00     0.049 A 
ATOM     61  H   UNL     1       9.270  -4.248   6.791  1.00  0.00     0.167 HD
ATOM     62  C   UNL     1       9.234  -5.728   9.227  1.00  0.00     0.074 A 
ATOM     63  C   UNL     1       8.761  -6.463  10.383  1.00  0.00     0.031 C 
ATOM     64  C   UNL     1      10.543  -5.530   8.933  1.00  0.00     0.034 A 
BRANCH  51  65
ATOM     65  C   UNL     1      11.558  -2.494   3.640  1.00  0.00     0.023 A 
ATOM     66  C   UNL     1      11.804  -1.107   3.574  1.00  0.00     0.012 A 
ATOM     67  C   UNL     1      12.288  -3.365   2.809  1.00  0.00     0.148 A 
ATOM     68  C   UNL     1      12.743  -0.593   2.680  1.00  0.00     0.002 A 
ATOM     69  C   UNL     1      13.249  -2.849   1.946  1.00  0.00     0.091 A 
ATOM     70  F   UNL     1      12.024  -4.678   2.870  1.00  0.00    -0.205 F 
ATOM     71  C   UNL     1      13.472  -1.464   1.874  1.00  0.00     0.022 A 
BRANCH  69  72
ATOM     72  S   UNL     1      14.284  -3.891   0.911  1.00  0.00     0.127 S 
ATOM     73  O   UNL     1      13.768  -3.585  -0.423  1.00  0.00    -0.237 OA
ATOM     74  O   UNL     1      15.621  -3.364   1.183  1.00  0.00    -0.237 OA
ATOM     75  O   UNL     1      14.064  -5.256   1.366  1.00  0.00    -0.744 OA
ENDBRANCH  69  72
ENDBRANCH  51  65
BRANCH  52  76
ATOM     76  C   UNL     1       4.569  -6.188   9.818  1.00  0.00     0.023 A 
ATOM     77  C   UNL     1       4.431  -5.700  11.131  1.00  0.00     0.012 A 
ATOM     78  C   UNL     1       3.685  -7.184   9.361  1.00  0.00     0.148 A 
ATOM     79  C   UNL     1       3.449  -6.212  11.981  1.00  0.00     0.002 A 
ATOM     80  C   UNL     1       2.672  -7.649  10.193  1.00  0.00     0.091 A 
ATOM     81  F   UNL     1       3.842  -7.654   8.115  1.00  0.00    -0.205 F 
ATOM     82  C   UNL     1       2.562  -7.176  11.509  1.00  0.00     0.022 A 
BRANCH  80  83
ATOM     83  S   UNL     1       1.405  -8.779   9.606  1.00  0.00     0.127 S 
ATOM     84  O   UNL     1       1.847 -10.049  10.173  1.00  0.00    -0.237 OA
ATOM     85  O   UNL     1       0.192  -8.223  10.209  1.00  0.00    -0.237 OA
ATOM     86  O   UNL     1       1.443  -8.679   8.152  1.00  0.00    -0.744 OA
ENDBRANCH  80  83
ENDBRANCH  52  76
BRANCH  64  87
ATOM     87  C   UNL     1      11.557  -6.116   9.880  1.00  0.00     0.023 A 
ATOM     88  C   UNL     1      11.771  -7.508   9.892  1.00  0.00     0.012 A 
ATOM     89  C   UNL     1      12.340  -5.286  10.704  1.00  0.00     0.148 A 
ATOM     90  C   UNL     1      12.727  -8.070  10.737  1.00  0.00     0.002 A 
ATOM     91  C   UNL     1      13.323  -5.849  11.509  1.00  0.00     0.091 A 
ATOM     92  F   UNL     1      12.106  -3.966  10.694  1.00  0.00    -0.205 F 
ATOM     93  C   UNL     1      13.510  -7.240  11.536  1.00  0.00     0.022 A 
BRANCH  91  94
ATOM     94  S   UNL     1      14.438  -4.844  12.497  1.00  0.00     0.127 S 
ATOM     95  O   UNL     1      13.871  -4.997  13.835  1.00  0.00    -0.237 OA
ATOM     96  O   UNL     1      15.724  -5.515  12.299  1.00  0.00    -0.237 OA
ATOM     97  O   UNL     1      14.368  -3.503  11.932  1.00  0.00    -0.744 OA
ENDBRANCH  91  94
ENDBRANCH  64  87
ENDBRANCH  38  39
ENDBRANCH  31  33
ENDBRANCH  30  31
ENDBRANCH  29  30
ENDBRANCH  28  29
ENDBRANCH   1  28
TORSDOF 20
