REMARK SMILES Cc1ccc(S(=O)(=O)n2cc(C(=O)C(=O)N[C@@H](Cc3c[nH]c4ccccc34)C(=O)OCCOCCOC(=O)c3ccc(-c4c5nc(c(-c6cccc(S(=O)(=O)[O-])c6F)c6ccc([nH]6)c(-c6cccc(S(=O)(=O)[O-])c6F)c6nc(c(-c7cccc(S(=O)(=O)[O-])c7F)c7ccc4[nH]7)C=C6)C=C5)cc3)c3ccccc32)cc1
REMARK SMILES IDX 32 1 31 2 30 3 28 4 29 5 17 6 16 7 14 8 15 9 12 11 13 12
REMARK SMILES IDX 11 13 9 14 10 15 107 16 102 17 106 18 103 19 105 20 104 21
REMARK SMILES IDX 6 22 7 23 8 24 5 25 1 26 2 27 3 28 109 29 4 30 108 31 18 32
REMARK SMILES IDX 19 33 20 34 27 35 21 36 22 37 26 38 23 40 25 41 24 42 33 43
REMARK SMILES IDX 34 44 35 45 36 46 37 47 38 48 39 49 40 50 101 51 41 52
REMARK SMILES IDX 100 53 42 54 43 55 44 56 94 57 45 58 99 59 93 60 95 61 46 62
REMARK SMILES IDX 98 63 92 64 91 65 47 67 79 68 59 69 78 70 60 71 63 72 77 73
REMARK SMILES IDX 96 74 61 75 62 76 76 78 97 79 64 80 48 81 49 82 57 83 50 84
REMARK SMILES IDX 52 85 58 86 51 87 53 88 54 89 55 90 56 91 80 92 81 93 89 94
REMARK SMILES IDX 82 95 84 96 90 97 83 98 85 99 86 100 87 101 88 102 65 103
REMARK SMILES IDX 66 104 74 105 67 106 69 107 75 108 68 109 70 110 71 111
REMARK SMILES IDX 72 112 73 113
REMARK H PARENT 16 10 21 39 95 66 63 77
REMARK Flexibility Score: inf
ROOT
ATOM      1  C   UNL     1     -10.292   3.626  -2.977  1.00  0.00     0.202 C 
ENDROOT
BRANCH   1   2
ATOM      2  C   UNL     1     -11.514   3.460  -2.113  1.00  0.00     0.261 C 
BRANCH   2   3
ATOM      3  O   UNL     1     -11.070   3.192  -0.776  1.00  0.00    -0.462 OA
BRANCH   3   4
ATOM      4  C   UNL     1     -11.043   1.887  -0.357  1.00  0.00     0.329 C 
ATOM      5  O   UNL     1     -11.826   1.016  -0.682  1.00  0.00    -0.250 OA
BRANCH   4   6
ATOM      6  C   UNL     1      -9.942   1.718   0.696  1.00  0.00     0.197 C 
BRANCH   6   7
ATOM      7  N   UNL     1      -8.869   2.695   0.394  1.00  0.00    -0.335 N 
ATOM      8  C   UNL     1      -7.670   2.519  -0.271  1.00  0.00     0.293 C 
ATOM      9  O   UNL     1      -6.917   3.437  -0.500  1.00  0.00    -0.265 OA
ATOM     10  H   UNL     1      -9.036   3.610   0.716  1.00  0.00     0.164 HD
BRANCH   8  11
ATOM     11  C   UNL     1      -7.335   1.119  -0.759  1.00  0.00     0.252 C 
ATOM     12  O   UNL     1      -8.188   0.580  -1.456  1.00  0.00    -0.283 OA
BRANCH  11  13
ATOM     13  C   UNL     1      -6.164   0.382  -0.302  1.00  0.00     0.054 A 
ATOM     14  N   UNL     1      -4.258  -0.359   0.618  1.00  0.00    -0.240 N 
ATOM     15  C   UNL     1      -4.895   0.778   0.130  1.00  0.00     0.117 A 
ATOM     16  C   UNL     1      -5.219  -1.381   0.691  1.00  0.00     0.065 A 
ATOM     17  C   UNL     1      -6.168  -1.039  -0.260  1.00  0.00     0.012 A 
ATOM     18  C   UNL     1      -5.158  -2.677   1.233  1.00  0.00     0.028 A 
ATOM     19  C   UNL     1      -6.941  -2.056  -0.852  1.00  0.00     0.011 A 
ATOM     20  C   UNL     1      -5.899  -3.676   0.600  1.00  0.00     0.002 A 
ATOM     21  C   UNL     1      -6.740  -3.379  -0.465  1.00  0.00     0.001 A 
BRANCH  14  22
ATOM     22  S   UNL     1      -2.734  -1.016   0.117  1.00  0.00     0.268 S 
ATOM     23  O   UNL     1      -3.001  -1.492  -1.230  1.00  0.00    -0.201 OA
ATOM     24  O   UNL     1      -2.444  -1.942   1.206  1.00  0.00    -0.201 OA
BRANCH  22  25
ATOM     25  C   UNL     1      -1.202  -0.182  -0.021  1.00  0.00     0.088 A 
ATOM     26  C   UNL     1       2.997   0.797  -0.044  1.00  0.00     0.044 C 
ATOM     27  C   UNL     1       1.524   0.511  -0.103  1.00  0.00    -0.051 A 
ATOM     28  C   UNL     1       1.152  -0.805  -0.326  1.00  0.00     0.005 A 
ATOM     29  C   UNL     1       0.520   1.483   0.114  1.00  0.00     0.005 A 
ATOM     30  C   UNL     1      -0.187  -1.133  -0.299  1.00  0.00     0.022 A 
ATOM     31  C   UNL     1      -0.858   1.144   0.162  1.00  0.00     0.022 A 
ENDBRANCH  22  25
ENDBRANCH  14  22
ENDBRANCH  11  13
ENDBRANCH   8  11
ENDBRANCH   6   7
BRANCH   6  32
ATOM     32  C   UNL     1     -10.502   1.914   2.126  1.00  0.00     0.074 C 
BRANCH  32  33
ATOM     33  C   UNL     1     -11.312   3.169   2.315  1.00  0.00    -0.020 A 
ATOM     34  C   UNL     1     -12.683   3.211   2.482  1.00  0.00     0.087 A 
ATOM     35  C   UNL     1     -10.868   4.531   2.244  1.00  0.00     0.003 A 
ATOM     36  N   UNL     1     -13.092   4.511   2.368  1.00  0.00    -0.361 N 
ATOM     37  C   UNL     1     -12.008   5.332   2.164  1.00  0.00     0.046 A 
ATOM     38  C   UNL     1      -9.608   5.155   2.134  1.00  0.00     0.010 A 
ATOM     39  H   UNL     1     -14.027   4.814   2.424  1.00  0.00     0.166 HD
ATOM     40  C   UNL     1     -11.949   6.704   1.888  1.00  0.00     0.026 A 
ATOM     41  C   UNL     1      -9.531   6.514   1.817  1.00  0.00     0.001 A 
ATOM     42  C   UNL     1     -10.689   7.273   1.683  1.00  0.00     0.002 A 
ENDBRANCH  32  33
ENDBRANCH   6  32
ENDBRANCH   4   6
ENDBRANCH   3   4
ENDBRANCH   2   3
ENDBRANCH   1   2
BRANCH   1  43
ATOM     43  O   UNL     1      -9.780   2.312  -3.164  1.00  0.00    -0.374 OA
BRANCH  43  44
ATOM     44  C   UNL     1      -8.555   2.203  -3.868  1.00  0.00     0.202 C 
BRANCH  44  45
ATOM     45  C   UNL     1      -8.547   2.851  -5.251  1.00  0.00     0.261 C 
BRANCH  45  46
ATOM     46  O   UNL     1      -9.428   2.121  -6.117  1.00  0.00    -0.460 OA
BRANCH  46  47
ATOM     47  C   UNL     1     -10.543   2.810  -6.482  1.00  0.00     0.338 C 
ATOM     48  O   UNL     1     -10.523   3.901  -7.023  1.00  0.00    -0.246 OA
BRANCH  47  49
ATOM     49  C   UNL     1     -11.745   2.146  -5.907  1.00  0.00     0.060 A 
ATOM     50  C   UNL     1     -12.979   2.816  -5.917  1.00  0.00     0.016 A 
ATOM     51  C   UNL     1     -11.588   0.986  -5.144  1.00  0.00     0.016 A 
ATOM     52  C   UNL     1     -14.010   2.406  -5.065  1.00  0.00     0.010 A 
ATOM     53  C   UNL     1     -12.580   0.625  -4.258  1.00  0.00     0.010 A 
ATOM     54  C   UNL     1     -13.778   1.355  -4.190  1.00  0.00    -0.014 A 
BRANCH  54  55
ATOM     55  C   UNL     1     -14.701   0.877  -3.167  1.00  0.00     0.031 A 
ATOM     56  C   UNL     1     -15.323  -0.446  -3.391  1.00  0.00     0.074 A 
ATOM     57  C   UNL     1     -14.643   1.408  -1.923  1.00  0.00     0.049 A 
ATOM     58  N   UNL     1     -16.041  -1.056  -2.518  1.00  0.00    -0.248 NA
ATOM     59  C   UNL     1     -15.173  -1.210  -4.632  1.00  0.00     0.031 C 
ATOM     60  C   UNL     1     -14.897   0.732  -0.652  1.00  0.00     0.029 A 
ATOM     61  N   UNL     1     -14.346   2.718  -1.513  1.00  0.00    -0.354 N 
ATOM     62  C   UNL     1     -16.076  -2.376  -2.888  1.00  0.00     0.074 A 
ATOM     63  C   UNL     1     -15.696  -2.388  -4.274  1.00  0.00     0.031 C 
ATOM     64  C   UNL     1     -15.076   1.648   0.314  1.00  0.00     0.029 A 
ATOM     65  C   UNL     1     -15.096   2.941  -0.349  1.00  0.00     0.049 A 
ATOM     66  H   UNL     1     -13.735   3.352  -1.953  1.00  0.00     0.167 HD
ATOM     67  C   UNL     1     -16.249  -3.306  -1.911  1.00  0.00     0.034 A 
ATOM     68  C   UNL     1     -16.098   3.859  -0.312  1.00  0.00     0.034 A 
ATOM     69  C   UNL     1     -16.665  -2.663  -0.644  1.00  0.00     0.049 A 
ATOM     70  C   UNL     1     -17.357   3.137   0.065  1.00  0.00     0.074 A 
ATOM     71  C   UNL     1     -16.082  -2.511   0.601  1.00  0.00     0.029 A 
ATOM     72  N   UNL     1     -17.763  -1.788  -0.660  1.00  0.00    -0.354 N 
ATOM     73  N   UNL     1     -17.573   1.891  -0.271  1.00  0.00    -0.248 NA
ATOM     74  C   UNL     1     -18.302   3.629   1.063  1.00  0.00     0.031 C 
ATOM     75  C   UNL     1     -16.754  -1.434   1.267  1.00  0.00     0.029 A 
ATOM     76  C   UNL     1     -17.772  -0.957   0.449  1.00  0.00     0.049 A 
ATOM     77  H   UNL     1     -18.443  -1.768  -1.372  1.00  0.00     0.167 HD
ATOM     78  C   UNL     1     -18.521   1.369   0.554  1.00  0.00     0.074 A 
ATOM     79  C   UNL     1     -18.999   2.510   1.328  1.00  0.00     0.031 C 
ATOM     80  C   UNL     1     -18.827   0.042   0.641  1.00  0.00     0.034 A 
BRANCH  67  81
ATOM     81  C   UNL     1     -15.899  -4.782  -2.057  1.00  0.00     0.023 A 
ATOM     82  C   UNL     1     -16.290  -5.651  -1.017  1.00  0.00     0.012 A 
ATOM     83  C   UNL     1     -15.155  -5.379  -3.113  1.00  0.00     0.148 A 
ATOM     84  C   UNL     1     -16.003  -7.025  -1.039  1.00  0.00     0.002 A 
ATOM     85  C   UNL     1     -14.950  -6.762  -3.180  1.00  0.00     0.091 A 
ATOM     86  F   UNL     1     -14.533  -4.614  -4.015  1.00  0.00    -0.205 F 
ATOM     87  C   UNL     1     -15.363  -7.588  -2.135  1.00  0.00     0.022 A 
BRANCH  85  88
ATOM     88  S   UNL     1     -14.203  -7.567  -4.614  1.00  0.00     0.127 S 
ATOM     89  O   UNL     1     -12.926  -8.036  -4.078  1.00  0.00    -0.237 OA
ATOM     90  O   UNL     1     -15.163  -8.631  -4.911  1.00  0.00    -0.237 OA
ATOM     91  O   UNL     1     -14.106  -6.545  -5.649  1.00  0.00    -0.744 OA
ENDBRANCH  85  88
ENDBRANCH  67  81
BRANCH  68  92
ATOM     92  C   UNL     1     -15.830   5.038  -1.192  1.00  0.00     0.023 A 
ATOM     93  C   UNL     1     -14.743   5.854  -0.775  1.00  0.00     0.012 A 
ATOM     94  C   UNL     1     -16.227   5.109  -2.539  1.00  0.00     0.148 A 
ATOM     95  C   UNL     1     -13.968   6.574  -1.686  1.00  0.00     0.002 A 
ATOM     96  C   UNL     1     -15.460   5.853  -3.446  1.00  0.00     0.091 A 
ATOM     97  F   UNL     1     -17.303   4.413  -2.927  1.00  0.00    -0.205 F 
ATOM     98  C   UNL     1     -14.304   6.539  -3.030  1.00  0.00     0.022 A 
BRANCH  96  99
ATOM     99  S   UNL     1     -15.814   5.915  -5.210  1.00  0.00     0.127 S 
ATOM    100  O   UNL     1     -16.433   7.232  -5.336  1.00  0.00    -0.237 OA
ATOM    101  O   UNL     1     -14.480   5.813  -5.803  1.00  0.00    -0.237 OA
ATOM    102  O   UNL     1     -16.680   4.777  -5.476  1.00  0.00    -0.744 OA
ENDBRANCH  96  99
ENDBRANCH  68  92
BRANCH  80 103
ATOM    103  C   UNL     1     -20.260  -0.383   0.845  1.00  0.00     0.023 A 
ATOM    104  C   UNL     1     -21.322   0.533   0.667  1.00  0.00     0.012 A 
ATOM    105  C   UNL     1     -20.599  -1.748   0.952  1.00  0.00     0.148 A 
ATOM    106  C   UNL     1     -22.653   0.126   0.629  1.00  0.00     0.002 A 
ATOM    107  C   UNL     1     -21.914  -2.160   0.782  1.00  0.00     0.091 A 
ATOM    108  F   UNL     1     -19.650  -2.659   1.210  1.00  0.00    -0.205 F 
ATOM    109  C   UNL     1     -22.947  -1.227   0.651  1.00  0.00     0.022 A 
BRANCH 107 110
ATOM    110  S   UNL     1     -22.304  -3.893   0.516  1.00  0.00     0.127 S 
ATOM    111  O   UNL     1     -22.703  -4.317   1.856  1.00  0.00    -0.237 OA
ATOM    112  O   UNL     1     -23.398  -3.820  -0.454  1.00  0.00    -0.237 OA
ATOM    113  O   UNL     1     -21.081  -4.484  -0.009  1.00  0.00    -0.744 OA
ENDBRANCH 107 110
ENDBRANCH  80 103
ENDBRANCH  54  55
ENDBRANCH  47  49
ENDBRANCH  46  47
ENDBRANCH  45  46
ENDBRANCH  44  45
ENDBRANCH  43  44
ENDBRANCH   1  43
TORSDOF 24
