REMARK SMILES O=C(CCCN1C(=O)c2ccc3c4c(ccc(c24)C1=O)C(=O)NC3=O)OCCOCCOC(=O)c1ccc(-c2c3nc(c(-c4cccc(S(=O)(=O)[O-])c4F)c4ccc([nH]4)c(-c4cccc(S(=O)(=O)[O-])c4F)c4nc(c(-c5cccc(S(=O)(=O)[O-])c5F)c5ccc2[nH]5)C=C4)C=C3)cc1
REMARK SMILES IDX 29 1 28 2 27 3 26 4 2 5 1 6 3 7 4 8 5 9 6 10 19 11 7 12
REMARK SMILES IDX 20 13 17 14 9 15 8 16 16 17 18 18 10 19 15 20 13 21 11 22
REMARK SMILES IDX 14 23 12 24 21 25 24 26 23 27 22 28 25 29 30 31 31 32 32 33
REMARK SMILES IDX 33 34 34 35 35 36 36 37 97 38 37 39 96 40 38 41 39 42 40 43
REMARK SMILES IDX 90 44 41 45 95 46 89 47 91 48 42 49 94 50 88 51 87 52 43 54
REMARK SMILES IDX 75 55 55 56 74 57 56 58 59 59 73 60 92 61 57 62 58 63 72 65
REMARK SMILES IDX 93 66 60 67 44 68 45 69 53 70 46 71 48 72 54 73 47 74 49 75
REMARK SMILES IDX 50 76 51 77 52 78 76 79 77 80 85 81 78 82 80 83 86 84 79 85
REMARK SMILES IDX 81 86 82 87 83 88 84 89 61 90 62 91 70 92 63 93 65 94 71 95
REMARK SMILES IDX 64 96 66 97 67 98 68 99 69 100
REMARK H PARENT 23 30 91 53 59 64
REMARK Flexibility Score: inf
ROOT
ATOM      1  O   UNL     1       3.624  -0.649   1.422  1.00  0.00    -0.374 OA
ENDROOT
BRANCH   1   2
ATOM      2  C   UNL     1       3.660   0.779   1.437  1.00  0.00     0.202 C 
BRANCH   2   3
ATOM      3  C   UNL     1       3.660   1.426   0.060  1.00  0.00     0.261 C 
BRANCH   3   4
ATOM      4  O   UNL     1       2.501   1.133  -0.723  1.00  0.00    -0.463 OA
BRANCH   4   5
ATOM      5  C   UNL     1       2.186  -0.086  -1.191  1.00  0.00     0.305 C 
ATOM      6  O   UNL     1       0.997  -0.370  -1.351  1.00  0.00    -0.252 OA
BRANCH   5   7
ATOM      7  C   UNL     1       3.255  -1.116  -1.499  1.00  0.00     0.124 C 
BRANCH   7   8
ATOM      8  C   UNL     1       4.353  -0.804  -2.510  1.00  0.00     0.034 C 
BRANCH   8   9
ATOM      9  C   UNL     1       5.746  -0.338  -2.033  1.00  0.00     0.130 C 
BRANCH   9  10
ATOM     10  N   UNL     1       6.286  -0.814  -0.751  1.00  0.00    -0.274 N 
ATOM     11  C   UNL     1       7.071   0.093  -0.027  1.00  0.00     0.261 C 
ATOM     12  C   UNL     1       6.217  -2.169  -0.437  1.00  0.00     0.261 C 
ATOM     13  O   UNL     1       7.276   1.252  -0.379  1.00  0.00    -0.269 OA
ATOM     14  C   UNL     1       7.695  -0.377   1.232  1.00  0.00     0.049 A 
ATOM     15  C   UNL     1       6.735  -2.585   0.892  1.00  0.00     0.049 A 
ATOM     16  O   UNL     1       5.786  -3.030  -1.201  1.00  0.00    -0.269 OA
ATOM     17  C   UNL     1       8.483   0.502   1.993  1.00  0.00     0.015 A 
ATOM     18  C   UNL     1       7.461  -1.681   1.672  1.00  0.00     0.009 A 
ATOM     19  C   UNL     1       6.523  -3.897   1.338  1.00  0.00     0.015 A 
ATOM     20  C   UNL     1       8.984   0.104   3.233  1.00  0.00     0.015 A 
ATOM     21  C   UNL     1       7.983  -2.095   2.926  1.00  0.00     0.009 A 
ATOM     22  C   UNL     1       7.032  -4.309   2.569  1.00  0.00     0.015 A 
ATOM     23  C   UNL     1       8.716  -1.184   3.703  1.00  0.00     0.048 A 
ATOM     24  C   UNL     1       7.755  -3.410   3.359  1.00  0.00     0.048 A 
ATOM     25  C   UNL     1       9.209  -1.598   5.038  1.00  0.00     0.258 C 
ATOM     26  C   UNL     1       8.307  -3.855   4.660  1.00  0.00     0.258 C 
ATOM     27  N   UNL     1       8.960  -2.900   5.402  1.00  0.00    -0.288 N 
ATOM     28  O   UNL     1       9.820  -0.828   5.766  1.00  0.00    -0.269 OA
ATOM     29  O   UNL     1       8.204  -5.016   5.036  1.00  0.00    -0.269 OA
ATOM     30  H   UNL     1       9.284  -3.178   6.289  1.00  0.00     0.173 HD
ENDBRANCH   9  10
ENDBRANCH   8   9
ENDBRANCH   7   8
ENDBRANCH   5   7
ENDBRANCH   4   5
ENDBRANCH   3   4
ENDBRANCH   2   3
ENDBRANCH   1   2
BRANCH   1  31
ATOM     31  C   UNL     1       2.452  -1.198   2.044  1.00  0.00     0.202 C 
BRANCH  31  32
ATOM     32  C   UNL     1       2.575  -1.357   3.567  1.00  0.00     0.261 C 
BRANCH  32  33
ATOM     33  O   UNL     1       2.969  -0.127   4.196  1.00  0.00    -0.460 OA
BRANCH  33  34
ATOM     34  C   UNL     1       4.302  -0.013   4.407  1.00  0.00     0.338 C 
ATOM     35  O   UNL     1       5.143  -0.892   4.269  1.00  0.00    -0.246 OA
BRANCH  34  36
ATOM     36  C   UNL     1       4.665   1.408   4.608  1.00  0.00     0.060 A 
ATOM     37  C   UNL     1       5.860   1.831   4.016  1.00  0.00     0.016 A 
ATOM     38  C   UNL     1       3.892   2.313   5.332  1.00  0.00     0.016 A 
ATOM     39  C   UNL     1       6.343   3.117   4.201  1.00  0.00     0.010 A 
ATOM     40  C   UNL     1       4.378   3.612   5.533  1.00  0.00     0.010 A 
ATOM     41  C   UNL     1       5.633   3.995   5.019  1.00  0.00    -0.014 A 
BRANCH  41  42
ATOM     42  C   UNL     1       6.343   5.179   5.554  1.00  0.00     0.031 A 
ATOM     43  C   UNL     1       6.861   5.101   6.965  1.00  0.00     0.074 A 
ATOM     44  C   UNL     1       6.595   6.260   4.795  1.00  0.00     0.049 A 
ATOM     45  N   UNL     1       7.461   6.011   7.683  1.00  0.00    -0.248 NA
ATOM     46  C   UNL     1       6.667   3.817   7.664  1.00  0.00     0.031 C 
ATOM     47  C   UNL     1       6.214   6.421   3.393  1.00  0.00     0.029 A 
ATOM     48  N   UNL     1       7.229   7.434   5.109  1.00  0.00    -0.354 N 
ATOM     49  C   UNL     1       7.655   5.435   8.933  1.00  0.00     0.074 A 
ATOM     50  C   UNL     1       7.109   4.098   8.878  1.00  0.00     0.031 C 
ATOM     51  C   UNL     1       6.607   7.636   2.972  1.00  0.00     0.029 A 
ATOM     52  C   UNL     1       7.231   8.349   4.084  1.00  0.00     0.049 A 
ATOM     53  H   UNL     1       7.643   7.606   5.986  1.00  0.00     0.167 HD
ATOM     54  C   UNL     1       8.242   5.967  10.030  1.00  0.00     0.034 A 
ATOM     55  C   UNL     1       7.667   9.625   4.061  1.00  0.00     0.034 A 
ATOM     56  C   UNL     1       8.824   7.279  10.063  1.00  0.00     0.049 A 
ATOM     57  C   UNL     1       8.293  10.206   5.303  1.00  0.00     0.074 A 
ATOM     58  C   UNL     1       9.476   7.905  11.109  1.00  0.00     0.029 A 
ATOM     59  N   UNL     1       8.821   8.170   9.001  1.00  0.00    -0.354 N 
ATOM     60  N   UNL     1       8.518   9.635   6.462  1.00  0.00    -0.248 NA
ATOM     61  C   UNL     1       8.755  11.599   5.222  1.00  0.00     0.031 C 
ATOM     62  C   UNL     1       9.834   9.190  10.691  1.00  0.00     0.029 A 
ATOM     63  C   UNL     1       9.450   9.345   9.368  1.00  0.00     0.049 A 
ATOM     64  H   UNL     1       8.428   7.992   8.115  1.00  0.00     0.167 HD
ATOM     65  C   UNL     1       9.192  10.579   7.230  1.00  0.00     0.074 A 
ATOM     66  C   UNL     1       9.345  11.756   6.399  1.00  0.00     0.031 C 
ATOM     67  C   UNL     1       9.642  10.484   8.506  1.00  0.00     0.034 A 
BRANCH  54  68
ATOM     68  C   UNL     1       8.257   5.133  11.283  1.00  0.00     0.023 A 
ATOM     69  C   UNL     1       9.070   3.984  11.368  1.00  0.00     0.012 A 
ATOM     70  C   UNL     1       7.463   5.500  12.387  1.00  0.00     0.148 A 
ATOM     71  C   UNL     1       9.057   3.189  12.514  1.00  0.00     0.002 A 
ATOM     72  C   UNL     1       7.497   4.734  13.545  1.00  0.00     0.091 A 
ATOM     73  F   UNL     1       6.674   6.578  12.277  1.00  0.00    -0.205 F 
ATOM     74  C   UNL     1       8.280   3.570  13.605  1.00  0.00     0.022 A 
BRANCH  72  75
ATOM     75  S   UNL     1       6.595   5.191  15.028  1.00  0.00     0.127 S 
ATOM     76  O   UNL     1       5.540   4.179  15.056  1.00  0.00    -0.237 OA
ATOM     77  O   UNL     1       7.614   5.039  16.067  1.00  0.00    -0.237 OA
ATOM     78  O   UNL     1       6.143   6.560  14.818  1.00  0.00    -0.744 OA
ENDBRANCH  72  75
ENDBRANCH  54  68
BRANCH  55  79
ATOM     79  C   UNL     1       7.557  10.432   2.812  1.00  0.00     0.023 A 
ATOM     80  C   UNL     1       8.726  10.807   2.122  1.00  0.00     0.012 A 
ATOM     81  C   UNL     1       6.303  10.823   2.302  1.00  0.00     0.148 A 
ATOM     82  C   UNL     1       8.651  11.583   0.964  1.00  0.00     0.002 A 
ATOM     83  C   UNL     1       6.233  11.548   1.119  1.00  0.00     0.091 A 
ATOM     84  F   UNL     1       5.204  10.469   2.982  1.00  0.00    -0.205 F 
ATOM     85  C   UNL     1       7.405  11.945   0.457  1.00  0.00     0.022 A 
BRANCH  83  86
ATOM     86  S   UNL     1       4.673  11.956   0.326  1.00  0.00     0.127 S 
ATOM     87  O   UNL     1       4.651  13.412   0.442  1.00  0.00    -0.237 OA
ATOM     88  O   UNL     1       4.886  11.448  -1.029  1.00  0.00    -0.237 OA
ATOM     89  O   UNL     1       3.649  11.249   1.082  1.00  0.00    -0.744 OA
ENDBRANCH  83  86
ENDBRANCH  55  79
BRANCH  67  90
ATOM     90  C   UNL     1      10.412  11.652   9.066  1.00  0.00     0.023 A 
ATOM     91  C   UNL     1       9.754  12.857   9.380  1.00  0.00     0.012 A 
ATOM     92  C   UNL     1      11.788  11.523   9.346  1.00  0.00     0.148 A 
ATOM     93  C   UNL     1      10.461  13.930   9.922  1.00  0.00     0.002 A 
ATOM     94  C   UNL     1      12.474  12.576   9.939  1.00  0.00     0.091 A 
ATOM     95  F   UNL     1      12.402  10.375   9.025  1.00  0.00    -0.205 F 
ATOM     96  C   UNL     1      11.816  13.785  10.213  1.00  0.00     0.022 A 
BRANCH  94  97
ATOM     97  S   UNL     1      14.191  12.435  10.444  1.00  0.00     0.127 S 
ATOM     98  O   UNL     1      14.868  13.233   9.423  1.00  0.00    -0.237 OA
ATOM     99  O   UNL     1      14.174  13.038  11.777  1.00  0.00    -0.237 OA
ATOM    100  O   UNL     1      14.497  11.011  10.431  1.00  0.00    -0.744 OA
ENDBRANCH  94  97
ENDBRANCH  67  90
ENDBRANCH  41  42
ENDBRANCH  34  36
ENDBRANCH  33  34
ENDBRANCH  32  33
ENDBRANCH  31  32
ENDBRANCH   1  31
TORSDOF 20
