REMARK SMILES CCC(CC)N(CC(C)C)C(=O)N[C@H](C)C(=O)OCCOCCOC(=O)c1ccc(-c2c3nc(c(-c4cccc(S(=O)(=O)[O-])c4F)c4ccc([nH]4)c(-c4cccc(S(=O)(=O)[O-])c4F)c4nc(c(-c5cccc(S(=O)(=O)[O-])c5F)c5ccc2[nH]5)C=C4)C=C3)cc1
REMARK SMILES IDX 20 1 19 2 18 3 16 4 17 5 14 6 15 7 13 8 11 9 12 10 6 12 3 13
REMARK SMILES IDX 2 14 1 15 4 16 5 17 7 18 8 19 9 20 10 21 21 22 22 23 23 24
REMARK SMILES IDX 24 25 25 26 26 27 27 28 28 29 89 30 29 31 88 32 30 33 31 34
REMARK SMILES IDX 32 35 82 36 33 37 87 38 81 39 83 40 34 41 86 42 80 43 79 44
REMARK SMILES IDX 35 46 67 47 47 48 66 49 48 50 51 51 65 52 84 53 49 54 50 55
REMARK SMILES IDX 64 57 85 58 52 59 36 60 37 61 45 62 38 63 40 64 46 65 39 66
REMARK SMILES IDX 41 67 42 68 43 69 44 70 68 71 69 72 77 73 70 74 72 75 78 76
REMARK SMILES IDX 71 77 73 78 74 79 75 80 76 81 53 82 54 83 62 84 55 85 57 86
REMARK SMILES IDX 63 87 56 88 58 89 59 90 60 91 61 92
REMARK H PARENT 13 11 83 45 51 56
REMARK Flexibility Score: inf
ROOT
ATOM      1  C   UNL     1      -1.391   7.976   3.838  1.00  0.00     0.202 C 
ENDROOT
BRANCH   1   2
ATOM      2  C   UNL     1      -1.133   9.066   2.795  1.00  0.00     0.261 C 
BRANCH   2   3
ATOM      3  O   UNL     1      -1.621   8.558   1.547  1.00  0.00    -0.462 OA
BRANCH   3   4
ATOM      4  C   UNL     1      -0.728   8.264   0.578  1.00  0.00     0.328 C 
ATOM      5  O   UNL     1       0.389   8.758   0.479  1.00  0.00    -0.250 OA
BRANCH   4   6
ATOM      6  C   UNL     1      -1.260   7.137  -0.338  1.00  0.00     0.190 C 
ATOM      7  C   UNL     1      -2.657   6.618   0.032  1.00  0.00     0.043 C 
BRANCH   6   8
ATOM      8  N   UNL     1      -1.125   7.579  -1.713  1.00  0.00    -0.325 N 
ATOM      9  C   UNL     1      -1.338   7.079  -2.933  1.00  0.00     0.318 C 
ATOM     10  O   UNL     1      -1.257   7.935  -3.817  1.00  0.00    -0.249 OA
ATOM     11  H   UNL     1      -0.783   8.501  -1.759  1.00  0.00     0.166 HD
BRANCH   9  12
ATOM     12  N   UNL     1      -1.670   5.772  -3.186  1.00  0.00    -0.322 N 
BRANCH  12  13
ATOM     13  C   UNL     1      -2.376   5.492  -4.473  1.00  0.00     0.086 C 
BRANCH  13  14
ATOM     14  C   UNL     1      -3.627   6.393  -4.653  1.00  0.00     0.022 C 
ATOM     15  C   UNL     1      -4.538   5.974  -5.798  1.00  0.00     0.006 C 
ENDBRANCH  13  14
BRANCH  13  16
ATOM     16  C   UNL     1      -1.447   5.365  -5.701  1.00  0.00     0.022 C 
ATOM     17  C   UNL     1      -0.802   6.630  -6.240  1.00  0.00     0.006 C 
ENDBRANCH  13  16
ENDBRANCH  12  13
BRANCH  12  18
ATOM     18  C   UNL     1      -1.482   4.616  -2.296  1.00  0.00     0.124 C 
BRANCH  18  19
ATOM     19  C   UNL     1      -0.090   3.952  -2.240  1.00  0.00     0.002 C 
ATOM     20  C   UNL     1       1.071   4.874  -1.869  1.00  0.00     0.009 C 
ATOM     21  C   UNL     1      -0.152   2.814  -1.204  1.00  0.00     0.009 C 
ENDBRANCH  18  19
ENDBRANCH  12  18
ENDBRANCH   9  12
ENDBRANCH   6   8
ENDBRANCH   4   6
ENDBRANCH   3   4
ENDBRANCH   2   3
ENDBRANCH   1   2
BRANCH   1  22
ATOM     22  O   UNL     1      -0.365   6.984   3.944  1.00  0.00    -0.374 OA
BRANCH  22  23
ATOM     23  C   UNL     1      -0.404   5.891   3.026  1.00  0.00     0.202 C 
BRANCH  23  24
ATOM     24  C   UNL     1      -1.407   4.771   3.336  1.00  0.00     0.261 C 
BRANCH  24  25
ATOM     25  O   UNL     1      -2.767   5.193   3.119  1.00  0.00    -0.460 OA
BRANCH  25  26
ATOM     26  C   UNL     1      -3.498   5.364   4.244  1.00  0.00     0.338 C 
ATOM     27  O   UNL     1      -3.145   5.114   5.394  1.00  0.00    -0.246 OA
BRANCH  26  28
ATOM     28  C   UNL     1      -4.735   6.104   3.943  1.00  0.00     0.060 A 
ATOM     29  C   UNL     1      -4.968   7.279   4.670  1.00  0.00     0.016 A 
ATOM     30  C   UNL     1      -5.682   5.638   3.028  1.00  0.00     0.016 A 
ATOM     31  C   UNL     1      -6.170   7.965   4.526  1.00  0.00     0.010 A 
ATOM     32  C   UNL     1      -6.895   6.326   2.891  1.00  0.00     0.010 A 
ATOM     33  C   UNL     1      -7.160   7.468   3.669  1.00  0.00    -0.014 A 
BRANCH  33  34
ATOM     34  C   UNL     1      -8.515   8.072   3.711  1.00  0.00     0.031 A 
ATOM     35  C   UNL     1      -9.611   7.369   4.464  1.00  0.00     0.074 A 
ATOM     36  C   UNL     1      -8.765   9.247   3.108  1.00  0.00     0.049 A 
ATOM     37  N   UNL     1     -10.855   7.728   4.644  1.00  0.00    -0.248 NA
ATOM     38  C   UNL     1      -9.257   6.088   5.096  1.00  0.00     0.031 C 
ATOM     39  C   UNL     1      -7.793  10.023   2.340  1.00  0.00     0.029 A 
ATOM     40  N   UNL     1      -9.924   9.978   3.028  1.00  0.00    -0.354 N 
ATOM     41  C   UNL     1     -11.443   6.706   5.379  1.00  0.00     0.074 A 
ATOM     42  C   UNL     1     -10.421   5.705   5.600  1.00  0.00     0.031 C 
ATOM     43  C   UNL     1      -8.407  11.105   1.833  1.00  0.00     0.029 A 
ATOM     44  C   UNL     1      -9.816  11.087   2.225  1.00  0.00     0.049 A 
ATOM     45  H   UNL     1     -10.752   9.731   3.500  1.00  0.00     0.167 HD
ATOM     46  C   UNL     1     -12.712   6.613   5.843  1.00  0.00     0.034 A 
ATOM     47  C   UNL     1     -10.751  11.973   1.827  1.00  0.00     0.034 A 
ATOM     48  C   UNL     1     -13.723   7.615   5.637  1.00  0.00     0.049 A 
ATOM     49  C   UNL     1     -12.159  11.851   2.345  1.00  0.00     0.074 A 
ATOM     50  C   UNL     1     -15.017   7.645   6.127  1.00  0.00     0.029 A 
ATOM     51  N   UNL     1     -13.566   8.752   4.858  1.00  0.00    -0.354 N 
ATOM     52  N   UNL     1     -12.663  10.954   3.158  1.00  0.00    -0.248 NA
ATOM     53  C   UNL     1     -13.117  12.883   1.924  1.00  0.00     0.031 C 
ATOM     54  C   UNL     1     -15.653   8.780   5.613  1.00  0.00     0.029 A 
ATOM     55  C   UNL     1     -14.745   9.478   4.834  1.00  0.00     0.049 A 
ATOM     56  H   UNL     1     -12.737   9.005   4.391  1.00  0.00     0.167 HD
ATOM     57  C   UNL     1     -13.988  11.326   3.366  1.00  0.00     0.074 A 
ATOM     58  C   UNL     1     -14.201  12.543   2.610  1.00  0.00     0.031 C 
ATOM     59  C   UNL     1     -14.941  10.709   4.108  1.00  0.00     0.034 A 
BRANCH  46  60
ATOM     60  C   UNL     1     -13.072   5.378   6.628  1.00  0.00     0.023 A 
ATOM     61  C   UNL     1     -12.541   5.186   7.920  1.00  0.00     0.012 A 
ATOM     62  C   UNL     1     -13.950   4.415   6.093  1.00  0.00     0.148 A 
ATOM     63  C   UNL     1     -12.841   4.034   8.647  1.00  0.00     0.002 A 
ATOM     64  C   UNL     1     -14.280   3.293   6.843  1.00  0.00     0.091 A 
ATOM     65  F   UNL     1     -14.425   4.600   4.853  1.00  0.00    -0.205 F 
ATOM     66  C   UNL     1     -13.716   3.093   8.113  1.00  0.00     0.022 A 
BRANCH  64  67
ATOM     67  S   UNL     1     -15.460   2.067   6.267  1.00  0.00     0.127 S 
ATOM     68  O   UNL     1     -14.578   0.970   5.874  1.00  0.00    -0.237 OA
ATOM     69  O   UNL     1     -16.253   1.810   7.470  1.00  0.00    -0.237 OA
ATOM     70  O   UNL     1     -16.197   2.703   5.184  1.00  0.00    -0.744 OA
ENDBRANCH  64  67
ENDBRANCH  46  60
BRANCH  47  71
ATOM     71  C   UNL     1     -10.364  13.065   0.892  1.00  0.00     0.023 A 
ATOM     72  C   UNL     1     -10.284  14.392   1.352  1.00  0.00     0.012 A 
ATOM     73  C   UNL     1     -10.016  12.774  -0.442  1.00  0.00     0.148 A 
ATOM     74  C   UNL     1      -9.875  15.415   0.495  1.00  0.00     0.002 A 
ATOM     75  C   UNL     1      -9.556  13.787  -1.273  1.00  0.00     0.091 A 
ATOM     76  F   UNL     1     -10.115  11.504  -0.860  1.00  0.00    -0.205 F 
ATOM     77  C   UNL     1      -9.498  15.111  -0.812  1.00  0.00     0.022 A 
BRANCH  75  78
ATOM     78  S   UNL     1      -8.921  13.468  -2.922  1.00  0.00     0.127 S 
ATOM     79  O   UNL     1      -9.896  14.164  -3.757  1.00  0.00    -0.237 OA
ATOM     80  O   UNL     1      -7.601  14.096  -2.858  1.00  0.00    -0.237 OA
ATOM     81  O   UNL     1      -8.894  12.018  -3.063  1.00  0.00    -0.744 OA
ENDBRANCH  75  78
ENDBRANCH  47  71
BRANCH  59  82
ATOM     82  C   UNL     1     -16.307  11.346   4.169  1.00  0.00     0.023 A 
ATOM     83  C   UNL     1     -17.154  11.305   3.044  1.00  0.00     0.012 A 
ATOM     84  C   UNL     1     -16.781  11.917   5.368  1.00  0.00     0.148 A 
ATOM     85  C   UNL     1     -18.437  11.849   3.100  1.00  0.00     0.002 A 
ATOM     86  C   UNL     1     -18.078  12.412   5.432  1.00  0.00     0.091 A 
ATOM     87  F   UNL     1     -15.956  11.964   6.424  1.00  0.00    -0.205 F 
ATOM     88  C   UNL     1     -18.903  12.391   4.296  1.00  0.00     0.022 A 
BRANCH  86  89
ATOM     89  S   UNL     1     -18.797  13.040   6.955  1.00  0.00     0.127 S 
ATOM     90  O   UNL     1     -18.851  14.476   6.689  1.00  0.00    -0.237 OA
ATOM     91  O   UNL     1     -20.100  12.375   6.981  1.00  0.00    -0.237 OA
ATOM     92  O   UNL     1     -17.891  12.636   8.022  1.00  0.00    -0.744 OA
ENDBRANCH  86  89
ENDBRANCH  59  82
ENDBRANCH  33  34
ENDBRANCH  26  28
ENDBRANCH  25  26
ENDBRANCH  24  25
ENDBRANCH  23  24
ENDBRANCH  22  23
ENDBRANCH   1  22
TORSDOF 24
