REMARK SMILES C[C@H](c1cccc(-c2cc(C(=O)OCCOCCOC(=O)c3ccc(-c4c5nc(c(-c6cccc(S(=O)(=O)[O-])c6F)c6ccc([nH]6)c(-c6cccc(S(=O)(=O)[O-])c6F)c6nc(c(-c7cccc(S(=O)(=O)[O-])c7F)c7ccc4[nH]7)C=C6)C=C5)cc3)cc(S(=O)(=O)N3CCOCC3)c2)c1)[NH+](C)C
REMARK SMILES IDX 16 1 15 2 14 3 13 4 11 5 12 6 10 7 8 8 9 9 96 10 86 11 85 12
REMARK SMILES IDX 7 13 3 14 4 15 97 16 5 17 6 18 2 19 1 20 98 21 99 22 100 23
REMARK SMILES IDX 87 25 88 26 89 27 90 28 91 29 95 30 92 31 94 32 93 33 17 34
REMARK SMILES IDX 18 35 19 36 20 37 21 38 22 39 23 40 84 41 24 42 83 43 25 44
REMARK SMILES IDX 26 45 27 46 77 47 28 48 82 49 76 50 78 51 29 52 81 53 75 54
REMARK SMILES IDX 74 55 30 57 62 58 42 59 61 60 43 61 46 62 60 63 79 64 44 65
REMARK SMILES IDX 45 66 59 68 80 69 47 70 31 71 32 72 40 73 33 74 35 75 41 76
REMARK SMILES IDX 34 77 36 78 37 79 38 80 39 81 63 82 64 83 72 84 65 85 67 86
REMARK SMILES IDX 73 87 66 88 68 89 69 90 70 91 71 92 48 93 49 94 57 95 50 96
REMARK SMILES IDX 52 97 58 98 51 99 53 100 54 101 55 102 56 103
REMARK H PARENT 98 24 78 56 46 67
REMARK Flexibility Score: inf
ROOT
ATOM      1  O   UNL     1       8.623  -3.472   2.872  1.00  0.00    -0.374 OA
ENDROOT
BRANCH   1   2
ATOM      2  C   UNL     1       8.949  -3.743   4.238  1.00  0.00     0.202 C 
BRANCH   2   3
ATOM      3  C   UNL     1       8.472  -2.719   5.274  1.00  0.00     0.261 C 
BRANCH   3   4
ATOM      4  O   UNL     1       7.038  -2.650   5.294  1.00  0.00    -0.460 OA
BRANCH   4   5
ATOM      5  C   UNL     1       6.506  -1.502   4.814  1.00  0.00     0.338 C 
ATOM      6  O   UNL     1       7.093  -0.465   4.556  1.00  0.00    -0.246 OA
BRANCH   5   7
ATOM      7  C   UNL     1       5.115  -1.770   4.381  1.00  0.00     0.062 A 
ATOM      8  C   UNL     1       3.496  -1.520   2.593  1.00  0.00    -0.016 A 
ATOM      9  C   UNL     1       4.737  -1.219   3.139  1.00  0.00     0.024 A 
ATOM     10  C   UNL     1       2.655  -2.360   3.320  1.00  0.00     0.030 A 
ATOM     11  C   UNL     1       2.997  -2.902   4.549  1.00  0.00     0.084 A 
ATOM     12  C   UNL     1       4.249  -2.618   5.093  1.00  0.00     0.037 A 
BRANCH   8  13
ATOM     13  C   UNL     1       3.018  -1.029   1.300  1.00  0.00    -0.018 A 
ATOM     14  C   UNL     1       1.541   0.471   0.033  1.00  0.00     0.010 A 
ATOM     15  C   UNL     1       1.833  -0.264  -1.126  1.00  0.00     0.010 A 
ATOM     16  C   UNL     1       2.126   0.056   1.243  1.00  0.00     0.018 A 
ATOM     17  C   UNL     1       2.714  -1.346  -1.086  1.00  0.00     0.001 A 
ATOM     18  C   UNL     1       3.314  -1.718   0.117  1.00  0.00     0.009 A 
BRANCH  14  19
ATOM     19  C   UNL     1       0.681   1.737   0.011  1.00  0.00     0.211 C 
ATOM     20  C   UNL     1       1.124   2.676  -1.124  1.00  0.00     0.081 C 
BRANCH  19  21
ATOM     21  N   UNL     1      -0.776   1.487   0.114  1.00  0.00    -0.334 N 
ATOM     22  C   UNL     1      -1.514   2.722   0.397  1.00  0.00     0.333 C 
ATOM     23  C   UNL     1      -1.371   0.816  -1.040  1.00  0.00     0.333 C 
ATOM     24  H   UNL     1      -0.861   0.839   0.897  1.00  0.00     0.348 HD
ENDBRANCH  19  21
ENDBRANCH  14  19
ENDBRANCH   8  13
BRANCH  11  25
ATOM     25  S   UNL     1       1.848  -3.958   5.410  1.00  0.00     0.243 S 
ATOM     26  O   UNL     1       2.371  -5.296   5.278  1.00  0.00    -0.207 OA
ATOM     27  O   UNL     1       1.629  -3.327   6.695  1.00  0.00    -0.207 OA
BRANCH  25  28
ATOM     28  N   UNL     1       0.397  -3.881   4.561  1.00  0.00    -0.193 NA
ATOM     29  C   UNL     1       0.058  -4.802   3.456  1.00  0.00     0.131 C 
ATOM     30  C   UNL     1      -0.583  -2.796   4.749  1.00  0.00     0.131 C 
ATOM     31  C   UNL     1      -0.253  -4.031   2.164  1.00  0.00     0.177 C 
ATOM     32  C   UNL     1      -0.825  -2.059   3.425  1.00  0.00     0.177 C 
ATOM     33  O   UNL     1      -1.182  -2.954   2.359  1.00  0.00    -0.379 OA
ENDBRANCH  25  28
ENDBRANCH  11  25
ENDBRANCH   5   7
ENDBRANCH   4   5
ENDBRANCH   3   4
ENDBRANCH   2   3
ENDBRANCH   1   2
BRANCH   1  34
ATOM     34  C   UNL     1       7.319  -3.856   2.434  1.00  0.00     0.202 C 
BRANCH  34  35
ATOM     35  C   UNL     1       7.094  -5.337   2.107  1.00  0.00     0.261 C 
BRANCH  35  36
ATOM     36  O   UNL     1       7.143  -6.161   3.283  1.00  0.00    -0.460 OA
BRANCH  36  37
ATOM     37  C   UNL     1       8.266  -6.909   3.404  1.00  0.00     0.338 C 
ATOM     38  O   UNL     1       9.173  -7.010   2.594  1.00  0.00    -0.246 OA
BRANCH  37  39
ATOM     39  C   UNL     1       8.357  -7.449   4.774  1.00  0.00     0.060 A 
ATOM     40  C   UNL     1       9.531  -7.188   5.492  1.00  0.00     0.016 A 
ATOM     41  C   UNL     1       7.347  -8.239   5.325  1.00  0.00     0.016 A 
ATOM     42  C   UNL     1       9.723  -7.759   6.747  1.00  0.00     0.010 A 
ATOM     43  C   UNL     1       7.546  -8.819   6.582  1.00  0.00     0.010 A 
ATOM     44  C   UNL     1       8.749  -8.612   7.281  1.00  0.00    -0.014 A 
BRANCH  44  45
ATOM     45  C   UNL     1       9.052  -9.389   8.507  1.00  0.00     0.031 A 
ATOM     46  C   UNL     1       9.399 -10.848   8.381  1.00  0.00     0.074 A 
ATOM     47  C   UNL     1       9.028  -8.800   9.715  1.00  0.00     0.049 A 
ATOM     48  N   UNL     1       9.672 -11.717   9.319  1.00  0.00    -0.248 NA
ATOM     49  C   UNL     1       9.441 -11.402   7.018  1.00  0.00     0.031 C 
ATOM     50  C   UNL     1       8.713  -7.394   9.962  1.00  0.00     0.029 A 
ATOM     51  N   UNL     1       9.250  -9.320  10.965  1.00  0.00    -0.354 N 
ATOM     52  C   UNL     1       9.883 -12.926   8.666  1.00  0.00     0.074 A 
ATOM     53  C   UNL     1       9.697 -12.681   7.252  1.00  0.00     0.031 C 
ATOM     54  C   UNL     1       8.735  -7.168  11.286  1.00  0.00     0.029 A 
ATOM     55  C   UNL     1       9.036  -8.419  11.980  1.00  0.00     0.049 A 
ATOM     56  H   UNL     1       9.536 -10.250  11.120  1.00  0.00     0.167 HD
ATOM     57  C   UNL     1      10.214 -14.128   9.194  1.00  0.00     0.034 A 
ATOM     58  C   UNL     1       9.052  -8.591  13.317  1.00  0.00     0.034 A 
ATOM     59  C   UNL     1      10.413 -14.363  10.599  1.00  0.00     0.049 A 
ATOM     60  C   UNL     1       9.395  -9.946  13.880  1.00  0.00     0.074 A 
ATOM     61  C   UNL     1      10.801 -15.533  11.228  1.00  0.00     0.029 A 
ATOM     62  N   UNL     1      10.221 -13.418  11.595  1.00  0.00    -0.354 N 
ATOM     63  N   UNL     1       9.706 -11.050  13.245  1.00  0.00    -0.248 NA
ATOM     64  C   UNL     1       9.421 -10.070  15.345  1.00  0.00     0.031 C 
ATOM     65  C   UNL     1      10.803 -15.306  12.608  1.00  0.00     0.029 A 
ATOM     66  C   UNL     1      10.464 -13.982  12.836  1.00  0.00     0.049 A 
ATOM     67  H   UNL     1       9.952 -12.484  11.442  1.00  0.00     0.167 HD
ATOM     68  C   UNL     1      10.003 -11.987  14.230  1.00  0.00     0.074 A 
ATOM     69  C   UNL     1       9.852 -11.313  15.504  1.00  0.00     0.031 C 
ATOM     70  C   UNL     1      10.359 -13.288  14.094  1.00  0.00     0.034 A 
BRANCH  57  71
ATOM     71  C   UNL     1      10.395 -15.286   8.246  1.00  0.00     0.023 A 
ATOM     72  C   UNL     1      11.514 -15.326   7.390  1.00  0.00     0.012 A 
ATOM     73  C   UNL     1       9.485 -16.362   8.245  1.00  0.00     0.148 A 
ATOM     74  C   UNL     1      11.708 -16.402   6.525  1.00  0.00     0.002 A 
ATOM     75  C   UNL     1       9.711 -17.453   7.414  1.00  0.00     0.091 A 
ATOM     76  F   UNL     1       8.416 -16.296   9.050  1.00  0.00    -0.205 F 
ATOM     77  C   UNL     1      10.814 -17.469   6.545  1.00  0.00     0.022 A 
BRANCH  75  78
ATOM     78  S   UNL     1       8.664 -18.912   7.424  1.00  0.00     0.127 S 
ATOM     79  O   UNL     1       8.021 -18.823   6.114  1.00  0.00    -0.237 OA
ATOM     80  O   UNL     1       9.644 -19.991   7.550  1.00  0.00    -0.237 OA
ATOM     81  O   UNL     1       7.773 -18.762   8.566  1.00  0.00    -0.744 OA
ENDBRANCH  75  78
ENDBRANCH  57  71
BRANCH  58  82
ATOM     82  C   UNL     1       8.756  -7.443  14.220  1.00  0.00     0.023 A 
ATOM     83  C   UNL     1       9.779  -6.908  15.026  1.00  0.00     0.012 A 
ATOM     84  C   UNL     1       7.468  -6.877  14.279  1.00  0.00     0.148 A 
ATOM     85  C   UNL     1       9.517  -5.852  15.900  1.00  0.00     0.002 A 
ATOM     86  C   UNL     1       7.227  -5.789  15.108  1.00  0.00     0.091 A 
ATOM     87  F   UNL     1       6.505  -7.411  13.514  1.00  0.00    -0.205 F 
ATOM     88  C   UNL     1       8.245  -5.286  15.934  1.00  0.00     0.022 A 
BRANCH  86  89
ATOM     89  S   UNL     1       5.657  -4.918  15.128  1.00  0.00     0.127 S 
ATOM     90  O   UNL     1       5.157  -5.233  16.463  1.00  0.00    -0.237 OA
ATOM     91  O   UNL     1       6.083  -3.530  14.940  1.00  0.00    -0.237 OA
ATOM     92  O   UNL     1       4.888  -5.466  14.020  1.00  0.00    -0.744 OA
ENDBRANCH  86  89
ENDBRANCH  58  82
BRANCH  70  93
ATOM     93  C   UNL     1      10.665 -14.068  15.348  1.00  0.00     0.023 A 
ATOM     94  C   UNL     1       9.626 -14.431  16.228  1.00  0.00     0.012 A 
ATOM     95  C   UNL     1      11.979 -14.504  15.615  1.00  0.00     0.148 A 
ATOM     96  C   UNL     1       9.895 -15.181  17.372  1.00  0.00     0.002 A 
ATOM     97  C   UNL     1      12.231 -15.298  16.727  1.00  0.00     0.091 A 
ATOM     98  F   UNL     1      12.957 -14.137  14.774  1.00  0.00    -0.205 F 
ATOM     99  C   UNL     1      11.194 -15.625  17.615  1.00  0.00     0.022 A 
BRANCH  97 100
ATOM    100  S   UNL     1      13.850 -15.998  17.066  1.00  0.00     0.127 S 
ATOM    101  O   UNL     1      14.260 -15.240  18.248  1.00  0.00    -0.237 OA
ATOM    102  O   UNL     1      13.532 -17.402  17.323  1.00  0.00    -0.237 OA
ATOM    103  O   UNL     1      14.649 -15.766  15.870  1.00  0.00    -0.744 OA
ENDBRANCH  97 100
ENDBRANCH  70  93
ENDBRANCH  44  45
ENDBRANCH  37  39
ENDBRANCH  36  37
ENDBRANCH  35  36
ENDBRANCH  34  35
ENDBRANCH   1  34
TORSDOF 22
