REMARK SMILES O=C(OCCOCCOC(=O)[C@@H]1CS[C@H](c2ncc(-c3ccccc3)s2)[NH2+]1)c1ccc(-c2c3nc(c(-c4cccc(S(=O)(=O)[O-])c4F)c4ccc([nH]4)c(-c4cccc(S(=O)(=O)[O-])c4F)c4nc(c(-c5cccc(S(=O)(=O)[O-])c5F)c5ccc2[nH]5)C=C4)C=C3)cc1
REMARK SMILES IDX 5 1 4 2 3 3 2 4 1 5 28 6 29 7 90 8 30 9 89 10 31 11 32 12
REMARK SMILES IDX 33 13 83 14 34 15 88 16 82 17 84 18 35 19 87 20 81 21 80 22
REMARK SMILES IDX 36 24 68 25 48 26 67 27 49 28 52 29 66 30 85 31 50 32 51 33
REMARK SMILES IDX 65 35 86 36 53 37 37 38 38 39 46 40 39 41 41 42 47 43 40 44
REMARK SMILES IDX 42 45 43 46 44 47 45 48 69 49 70 50 78 51 71 52 73 53 79 54
REMARK SMILES IDX 72 55 74 56 75 57 76 58 77 59 54 60 55 61 63 62 56 63 58 64
REMARK SMILES IDX 64 65 57 66 59 67 60 68 61 69 62 70 6 71 7 72 8 73 9 74
REMARK SMILES IDX 10 75 11 76 12 77 13 78 27 79 14 80 15 81 16 84 17 85 26 86
REMARK SMILES IDX 18 87 19 88 20 89 21 90 25 91 22 92 24 93 23 94
REMARK H PARENT 84 23 52 34 27 82 27 83
REMARK Flexibility Score: inf
ROOT
ATOM      1  C   UNL     1       4.019   0.745  -1.669  1.00  0.00     0.202 C 
ENDROOT
BRANCH   1   2
ATOM      2  C   UNL     1       3.760  -0.566  -0.917  1.00  0.00     0.261 C 
BRANCH   2   3
ATOM      3  O   UNL     1       4.333  -1.681  -1.620  1.00  0.00    -0.460 OA
BRANCH   3   4
ATOM      4  C   UNL     1       3.730  -2.570  -2.445  1.00  0.00     0.338 C 
ATOM      5  O   UNL     1       4.415  -3.474  -2.922  1.00  0.00    -0.246 OA
BRANCH   4   6
ATOM      6  C   UNL     1       2.284  -2.509  -2.827  1.00  0.00     0.060 A 
ATOM      7  C   UNL     1       1.487  -1.367  -2.753  1.00  0.00     0.016 A 
ATOM      8  C   UNL     1       1.714  -3.665  -3.389  1.00  0.00     0.016 A 
ATOM      9  C   UNL     1       0.179  -1.353  -3.190  1.00  0.00     0.010 A 
ATOM     10  C   UNL     1       0.392  -3.665  -3.845  1.00  0.00     0.010 A 
ATOM     11  C   UNL     1      -0.375  -2.502  -3.732  1.00  0.00    -0.014 A 
BRANCH  11  12
ATOM     12  C   UNL     1      -1.813  -2.445  -4.011  1.00  0.00     0.031 A 
ATOM     13  C   UNL     1      -2.738  -3.019  -2.987  1.00  0.00     0.074 A 
ATOM     14  C   UNL     1      -2.248  -1.703  -5.044  1.00  0.00     0.049 A 
ATOM     15  N   UNL     1      -4.039  -3.050  -2.979  1.00  0.00    -0.248 NA
ATOM     16  C   UNL     1      -2.110  -3.612  -1.791  1.00  0.00     0.031 C 
ATOM     17  C   UNL     1      -1.385  -0.989  -5.992  1.00  0.00     0.029 A 
ATOM     18  N   UNL     1      -3.515  -1.398  -5.453  1.00  0.00    -0.354 N 
ATOM     19  C   UNL     1      -4.387  -3.697  -1.802  1.00  0.00     0.074 A 
ATOM     20  C   UNL     1      -3.164  -4.035  -1.112  1.00  0.00     0.031 C 
ATOM     21  C   UNL     1      -2.153  -0.337  -6.879  1.00  0.00     0.029 A 
ATOM     22  C   UNL     1      -3.550  -0.639  -6.598  1.00  0.00     0.049 A 
ATOM     23  H   UNL     1      -4.323  -1.693  -4.974  1.00  0.00     0.167 HD
ATOM     24  C   UNL     1      -5.626  -3.982  -1.348  1.00  0.00     0.034 A 
ATOM     25  C   UNL     1      -4.605  -0.279  -7.352  1.00  0.00     0.034 A 
ATOM     26  C   UNL     1      -6.816  -3.637  -2.072  1.00  0.00     0.049 A 
ATOM     27  C   UNL     1      -5.969  -0.702  -6.875  1.00  0.00     0.074 A 
ATOM     28  C   UNL     1      -8.129  -3.939  -1.776  1.00  0.00     0.029 A 
ATOM     29  N   UNL     1      -6.823  -2.909  -3.257  1.00  0.00    -0.354 N 
ATOM     30  N   UNL     1      -6.296  -1.338  -5.773  1.00  0.00    -0.248 NA
ATOM     31  C   UNL     1      -7.109  -0.351  -7.729  1.00  0.00     0.031 C 
ATOM     32  C   UNL     1      -8.929  -3.418  -2.798  1.00  0.00     0.029 A 
ATOM     33  C   UNL     1      -8.118  -2.754  -3.708  1.00  0.00     0.049 A 
ATOM     34  H   UNL     1      -6.022  -2.557  -3.707  1.00  0.00     0.167 HD
ATOM     35  C   UNL     1      -7.680  -1.437  -5.785  1.00  0.00     0.074 A 
ATOM     36  C   UNL     1      -8.129  -0.770  -6.993  1.00  0.00     0.031 C 
ATOM     37  C   UNL     1      -8.511  -2.037  -4.896  1.00  0.00     0.034 A 
BRANCH  24  38
ATOM     38  C   UNL     1      -5.725  -4.738  -0.053  1.00  0.00     0.023 A 
ATOM     39  C   UNL     1      -5.427  -4.097   1.167  1.00  0.00     0.012 A 
ATOM     40  C   UNL     1      -6.082  -6.100  -0.050  1.00  0.00     0.148 A 
ATOM     41  C   UNL     1      -5.445  -4.811   2.366  1.00  0.00     0.002 A 
ATOM     42  C   UNL     1      -6.141  -6.793   1.152  1.00  0.00     0.091 A 
ATOM     43  F   UNL     1      -6.330  -6.697  -1.224  1.00  0.00    -0.205 F 
ATOM     44  C   UNL     1      -5.809  -6.155   2.359  1.00  0.00     0.022 A 
BRANCH  42  45
ATOM     45  S   UNL     1      -6.648  -8.512   1.257  1.00  0.00     0.127 S 
ATOM     46  O   UNL     1      -5.422  -9.154   1.731  1.00  0.00    -0.237 OA
ATOM     47  O   UNL     1      -7.725  -8.450   2.244  1.00  0.00    -0.237 OA
ATOM     48  O   UNL     1      -7.067  -8.893  -0.084  1.00  0.00    -0.744 OA
ENDBRANCH  42  45
ENDBRANCH  24  38
BRANCH  25  49
ATOM     49  C   UNL     1      -4.414   0.469  -8.628  1.00  0.00     0.023 A 
ATOM     50  C   UNL     1      -4.955   1.760  -8.783  1.00  0.00     0.012 A 
ATOM     51  C   UNL     1      -3.705  -0.106  -9.704  1.00  0.00     0.148 A 
ATOM     52  C   UNL     1      -4.831   2.443  -9.995  1.00  0.00     0.002 A 
ATOM     53  C   UNL     1      -3.535   0.603 -10.887  1.00  0.00     0.091 A 
ATOM     54  F   UNL     1      -3.213  -1.344  -9.553  1.00  0.00    -0.205 F 
ATOM     55  C   UNL     1      -4.116   1.869 -11.043  1.00  0.00     0.022 A 
BRANCH  53  56
ATOM     56  S   UNL     1      -2.524  -0.015 -12.238  1.00  0.00     0.127 S 
ATOM     57  O   UNL     1      -3.536  -0.389 -13.222  1.00  0.00    -0.237 OA
ATOM     58  O   UNL     1      -1.729   1.163 -12.587  1.00  0.00    -0.237 OA
ATOM     59  O   UNL     1      -1.748  -1.112 -11.675  1.00  0.00    -0.744 OA
ENDBRANCH  53  56
ENDBRANCH  25  49
BRANCH  37  60
ATOM     60  C   UNL     1      -9.984  -1.950  -5.177  1.00  0.00     0.023 A 
ATOM     61  C   UNL     1     -10.549  -2.709  -6.219  1.00  0.00     0.012 A 
ATOM     62  C   UNL     1     -10.814  -1.171  -4.350  1.00  0.00     0.148 A 
ATOM     63  C   UNL     1     -11.921  -2.666  -6.456  1.00  0.00     0.002 A 
ATOM     64  C   UNL     1     -12.186  -1.180  -4.554  1.00  0.00     0.091 A 
ATOM     65  F   UNL     1     -10.247  -0.442  -3.377  1.00  0.00    -0.205 F 
ATOM     66  C   UNL     1     -12.740  -1.914  -5.615  1.00  0.00     0.022 A 
BRANCH  64  67
ATOM     67  S   UNL     1     -13.322  -0.335  -3.451  1.00  0.00     0.127 S 
ATOM     68  O   UNL     1     -13.764   0.784  -4.281  1.00  0.00    -0.237 OA
ATOM     69  O   UNL     1     -14.339  -1.360  -3.213  1.00  0.00    -0.237 OA
ATOM     70  O   UNL     1     -12.544   0.028  -2.274  1.00  0.00    -0.744 OA
ENDBRANCH  64  67
ENDBRANCH  37  60
ENDBRANCH  11  12
ENDBRANCH   4   6
ENDBRANCH   3   4
ENDBRANCH   2   3
ENDBRANCH   1   2
BRANCH   1  71
ATOM     71  O   UNL     1       3.432   0.821  -2.968  1.00  0.00    -0.374 OA
BRANCH  71  72
ATOM     72  C   UNL     1       4.190   0.223  -4.029  1.00  0.00     0.202 C 
BRANCH  72  73
ATOM     73  C   UNL     1       4.415   1.264  -5.113  1.00  0.00     0.261 C 
BRANCH  73  74
ATOM     74  O   UNL     1       5.146   2.325  -4.495  1.00  0.00    -0.459 OA
BRANCH  74  75
ATOM     75  C   UNL     1       4.431   3.363  -3.988  1.00  0.00     0.365 C 
ATOM     76  O   UNL     1       3.317   3.710  -4.367  1.00  0.00    -0.245 OA
BRANCH  75  77
ATOM     77  C   UNL     1       5.132   3.940  -2.749  1.00  0.00     0.304 C 
ATOM     78  C   UNL     1       5.051   5.462  -2.680  1.00  0.00     0.153 C 
ATOM     79  N   UNL     1       6.554   3.476  -2.592  1.00  0.00    -0.317 N 
ATOM     80  S   UNL     1       6.774   6.041  -2.677  1.00  0.00    -0.085 SA
ATOM     81  C   UNL     1       7.410   4.449  -3.300  1.00  0.00     0.303 C 
ATOM     82  H   UNL     1       6.666   2.548  -3.001  1.00  0.00     0.348 HD
ATOM     83  H   UNL     1       6.810   3.418  -1.606  1.00  0.00     0.348 HD
BRANCH  81  84
ATOM     84  C   UNL     1       7.360   4.346  -4.821  1.00  0.00     0.162 A 
ATOM     85  N   UNL     1       6.837   5.256  -5.624  1.00  0.00    -0.242 NA
ATOM     86  S   UNL     1       7.930   2.923  -5.641  1.00  0.00    -0.112 S 
ATOM     87  C   UNL     1       6.657   4.722  -6.881  1.00  0.00     0.132 A 
ATOM     88  C   UNL     1       7.058   3.412  -7.042  1.00  0.00     0.055 A 
BRANCH  88  89
ATOM     89  C   UNL     1       6.751   2.497  -8.138  1.00  0.00    -0.007 A 
ATOM     90  C   UNL     1       5.406   2.171  -8.389  1.00  0.00     0.009 A 
ATOM     91  C   UNL     1       7.740   1.964  -8.968  1.00  0.00     0.009 A 
ATOM     92  C   UNL     1       5.058   1.310  -9.430  1.00  0.00     0.001 A 
ATOM     93  C   UNL     1       7.387   1.120 -10.028  1.00  0.00     0.001 A 
ATOM     94  C   UNL     1       6.050   0.789 -10.254  1.00  0.00     0.000 A 
ENDBRANCH  88  89
ENDBRANCH  81  84
ENDBRANCH  75  77
ENDBRANCH  74  75
ENDBRANCH  73  74
ENDBRANCH  72  73
ENDBRANCH  71  72
ENDBRANCH   1  71
TORSDOF 19
