REMARK SMILES CCn1cc(CC(=O)OCCOCCOC(=O)c2ccc(-c3c4nc(c(-c5cccc(S(=O)(=O)[O-])c5F)c5ccc([nH]5)c(-c5cccc(S(=O)(=O)[O-])c5F)c5nc(c(-c6cccc(S(=O)(=O)[O-])c6F)c6ccc3[nH]6)C=C5)C=C4)cc2)c2ccccc21
REMARK SMILES IDX 13 1 12 2 11 3 10 4 9 5 7 6 8 7 6 8 5 9 3 10 4 11 86 12
REMARK SMILES IDX 81 13 85 14 82 15 84 16 83 17 2 18 1 19 14 20 15 21 16 22
REMARK SMILES IDX 17 23 18 24 19 25 80 26 20 27 79 28 21 29 22 30 23 31 73 32
REMARK SMILES IDX 24 33 78 34 72 35 74 36 25 37 77 38 71 39 70 40 26 42 58 43
REMARK SMILES IDX 38 44 57 45 39 46 42 47 56 48 75 49 40 50 41 51 55 53 76 54
REMARK SMILES IDX 43 55 27 56 28 57 36 58 29 59 31 60 37 61 30 62 32 63 33 64
REMARK SMILES IDX 34 65 35 66 59 67 60 68 68 69 61 70 63 71 69 72 62 73 64 74
REMARK SMILES IDX 65 75 66 76 67 77 44 78 45 79 53 80 46 81 48 82 54 83 47 84
REMARK SMILES IDX 49 85 50 86 51 87 52 88
REMARK H PARENT 74 41 42 52
REMARK Flexibility Score: inf
ROOT
ATOM      1  C   UNL     1       3.412  -2.860  -6.023  1.00  0.00     0.202 C 
ENDROOT
BRANCH   1   2
ATOM      2  O   UNL     1       4.550  -2.730  -6.862  1.00  0.00    -0.374 OA
BRANCH   2   3
ATOM      3  C   UNL     1       5.594  -1.873  -6.424  1.00  0.00     0.202 C 
BRANCH   3   4
ATOM      4  C   UNL     1       5.373  -0.357  -6.303  1.00  0.00     0.261 C 
BRANCH   4   5
ATOM      5  O   UNL     1       4.130   0.018  -5.686  1.00  0.00    -0.463 OA
BRANCH   5   6
ATOM      6  C   UNL     1       3.202   0.515  -6.546  1.00  0.00     0.310 C 
ATOM      7  O   UNL     1       3.400   0.706  -7.745  1.00  0.00    -0.252 OA
BRANCH   6   8
ATOM      8  C   UNL     1       1.862   0.854  -5.936  1.00  0.00     0.160 C 
BRANCH   8   9
ATOM      9  C   UNL     1       1.498   0.316  -4.583  1.00  0.00    -0.011 A 
ATOM     10  N   UNL     1       1.023   0.266  -2.393  1.00  0.00    -0.347 N 
ATOM     11  C   UNL     1       1.597   1.012  -3.392  1.00  0.00     0.091 A 
ATOM     12  C   UNL     1       0.678  -0.979  -2.877  1.00  0.00     0.048 A 
ATOM     13  C   UNL     1       0.861  -0.933  -4.265  1.00  0.00     0.003 A 
ATOM     14  C   UNL     1       0.192  -2.128  -2.229  1.00  0.00     0.027 A 
ATOM     15  C   UNL     1       0.428  -2.043  -5.029  1.00  0.00     0.010 A 
ATOM     16  C   UNL     1      -0.110  -3.252  -3.001  1.00  0.00     0.002 A 
ATOM     17  C   UNL     1      -0.021  -3.205  -4.386  1.00  0.00     0.001 A 
BRANCH  10  18
ATOM     18  C   UNL     1       0.641   0.816  -1.103  1.00  0.00     0.119 C 
ATOM     19  C   UNL     1       1.346   0.208   0.096  1.00  0.00     0.027 C 
ENDBRANCH  10  18
ENDBRANCH   8   9
ENDBRANCH   6   8
ENDBRANCH   5   6
ENDBRANCH   4   5
ENDBRANCH   3   4
ENDBRANCH   2   3
ENDBRANCH   1   2
BRANCH   1  20
ATOM     20  C   UNL     1       3.567  -3.456  -4.613  1.00  0.00     0.261 C 
BRANCH  20  21
ATOM     21  O   UNL     1       4.529  -2.774  -3.818  1.00  0.00    -0.460 OA
BRANCH  21  22
ATOM     22  C   UNL     1       5.291  -3.592  -3.036  1.00  0.00     0.338 C 
ATOM     23  O   UNL     1       5.034  -4.702  -2.640  1.00  0.00    -0.246 OA
BRANCH  22  24
ATOM     24  C   UNL     1       6.633  -2.993  -3.130  1.00  0.00     0.060 A 
ATOM     25  C   UNL     1       6.790  -1.624  -2.886  1.00  0.00     0.016 A 
ATOM     26  C   UNL     1       7.574  -3.734  -3.858  1.00  0.00     0.016 A 
ATOM     27  C   UNL     1       7.838  -0.965  -3.502  1.00  0.00     0.010 A 
ATOM     28  C   UNL     1       8.612  -3.065  -4.484  1.00  0.00     0.010 A 
ATOM     29  C   UNL     1       8.700  -1.677  -4.352  1.00  0.00    -0.014 A 
BRANCH  29  30
ATOM     30  C   UNL     1       9.802  -0.946  -4.961  1.00  0.00     0.031 A 
ATOM     31  C   UNL     1      10.809  -0.509  -3.956  1.00  0.00     0.074 A 
ATOM     32  C   UNL     1       9.991  -0.809  -6.289  1.00  0.00     0.049 A 
ATOM     33  N   UNL     1      11.151   0.697  -3.639  1.00  0.00    -0.248 NA
ATOM     34  C   UNL     1      11.376  -1.550  -3.082  1.00  0.00     0.031 C 
ATOM     35  C   UNL     1       9.269  -1.449  -7.385  1.00  0.00     0.029 A 
ATOM     36  N   UNL     1      11.003  -0.171  -6.940  1.00  0.00    -0.354 N 
ATOM     37  C   UNL     1      12.131   0.552  -2.659  1.00  0.00     0.074 A 
ATOM     38  C   UNL     1      12.099  -0.823  -2.233  1.00  0.00     0.031 C 
ATOM     39  C   UNL     1      10.013  -1.393  -8.511  1.00  0.00     0.029 A 
ATOM     40  C   UNL     1      11.226  -0.655  -8.228  1.00  0.00     0.049 A 
ATOM     41  H   UNL     1      11.527   0.560  -6.540  1.00  0.00     0.167 HD
ATOM     42  C   UNL     1      13.069   1.504  -2.413  1.00  0.00     0.034 A 
ATOM     43  C   UNL     1      12.396  -0.592  -8.916  1.00  0.00     0.034 A 
ATOM     44  C   UNL     1      12.745   2.769  -3.001  1.00  0.00     0.049 A 
ATOM     45  C   UNL     1      13.181   0.513  -8.307  1.00  0.00     0.074 A 
ATOM     46  C   UNL     1      11.695   3.656  -2.870  1.00  0.00     0.029 A 
ATOM     47  N   UNL     1      13.359   3.087  -4.189  1.00  0.00    -0.354 N 
ATOM     48  N   UNL     1      12.794   1.760  -8.322  1.00  0.00    -0.248 NA
ATOM     49  C   UNL     1      14.135   0.161  -7.264  1.00  0.00     0.031 C 
ATOM     50  C   UNL     1      11.421   4.086  -4.201  1.00  0.00     0.029 A 
ATOM     51  C   UNL     1      12.362   3.487  -5.040  1.00  0.00     0.049 A 
ATOM     52  H   UNL     1      14.322   3.037  -4.388  1.00  0.00     0.167 HD
ATOM     53  C   UNL     1      13.097   2.231  -7.052  1.00  0.00     0.074 A 
ATOM     54  C   UNL     1      13.984   1.224  -6.469  1.00  0.00     0.031 C 
ATOM     55  C   UNL     1      12.374   3.226  -6.460  1.00  0.00     0.034 A 
BRANCH  42  56
ATOM     56  C   UNL     1      14.448   1.179  -1.924  1.00  0.00     0.023 A 
ATOM     57  C   UNL     1      15.196   2.185  -1.286  1.00  0.00     0.012 A 
ATOM     58  C   UNL     1      15.121  -0.010  -2.291  1.00  0.00     0.148 A 
ATOM     59  C   UNL     1      16.557   2.009  -1.015  1.00  0.00     0.002 A 
ATOM     60  C   UNL     1      16.451  -0.209  -1.956  1.00  0.00     0.091 A 
ATOM     61  F   UNL     1      14.503  -0.898  -3.079  1.00  0.00    -0.205 F 
ATOM     62  C   UNL     1      17.181   0.806  -1.333  1.00  0.00     0.022 A 
BRANCH  60  63
ATOM     63  S   UNL     1      17.291  -1.752  -2.323  1.00  0.00     0.127 S 
ATOM     64  O   UNL     1      18.144  -1.361  -3.441  1.00  0.00    -0.237 OA
ATOM     65  O   UNL     1      17.994  -2.017  -1.067  1.00  0.00    -0.237 OA
ATOM     66  O   UNL     1      16.231  -2.704  -2.626  1.00  0.00    -0.744 OA
ENDBRANCH  60  63
ENDBRANCH  42  56
BRANCH  43  67
ATOM     67  C   UNL     1      13.031  -1.670  -9.732  1.00  0.00     0.023 A 
ATOM     68  C   UNL     1      14.170  -1.374 -10.511  1.00  0.00     0.012 A 
ATOM     69  C   UNL     1      12.705  -3.037  -9.555  1.00  0.00     0.148 A 
ATOM     70  C   UNL     1      14.968  -2.394 -11.054  1.00  0.00     0.002 A 
ATOM     71  C   UNL     1      13.485  -4.046 -10.116  1.00  0.00     0.091 A 
ATOM     72  F   UNL     1      11.688  -3.369  -8.751  1.00  0.00    -0.205 F 
ATOM     73  C   UNL     1      14.629  -3.729 -10.853  1.00  0.00     0.022 A 
BRANCH  71  74
ATOM     74  S   UNL     1      13.081  -5.786  -9.895  1.00  0.00     0.127 S 
ATOM     75  O   UNL     1      13.301  -6.326 -11.237  1.00  0.00    -0.237 OA
ATOM     76  O   UNL     1      14.061  -6.204  -8.898  1.00  0.00    -0.237 OA
ATOM     77  O   UNL     1      11.687  -5.815  -9.466  1.00  0.00    -0.744 OA
ENDBRANCH  71  74
ENDBRANCH  43  67
BRANCH  55  78
ATOM     78  C   UNL     1      11.320   3.942  -7.263  1.00  0.00     0.023 A 
ATOM     79  C   UNL     1      10.119   3.314  -7.658  1.00  0.00     0.012 A 
ATOM     80  C   UNL     1      11.436   5.335  -7.396  1.00  0.00     0.148 A 
ATOM     81  C   UNL     1       9.055   4.064  -8.170  1.00  0.00     0.002 A 
ATOM     82  C   UNL     1      10.366   6.080  -7.872  1.00  0.00     0.091 A 
ATOM     83  F   UNL     1      12.579   5.911  -6.995  1.00  0.00    -0.205 F 
ATOM     84  C   UNL     1       9.173   5.449  -8.262  1.00  0.00     0.022 A 
BRANCH  82  85
ATOM     85  S   UNL     1      10.409   7.873  -7.911  1.00  0.00     0.127 S 
ATOM     86  O   UNL     1      10.398   8.146  -9.347  1.00  0.00    -0.237 OA
ATOM     87  O   UNL     1       9.175   8.229  -7.210  1.00  0.00    -0.237 OA
ATOM     88  O   UNL     1      11.628   8.266  -7.214  1.00  0.00    -0.744 OA
ENDBRANCH  82  85
ENDBRANCH  55  78
ENDBRANCH  29  30
ENDBRANCH  22  24
ENDBRANCH  21  22
ENDBRANCH  20  21
ENDBRANCH   1  20
TORSDOF 19
