REMARK SMILES C[C@@H]1CC[C@H](C)[N@H+]1Cc1cc2c(cc1Cl)C=C(C(=O)OCCOCCOC(=O)c1ccc(-c3c4nc(c(-c5cccc(S(=O)(=O)[O-])c5F)c5ccc([nH]5)c(-c5cccc(S(=O)(=O)[O-])c5F)c5nc(c(-c6cccc(S(=O)(=O)[O-])c6F)c6ccc3[nH]6)C=C5)C=C4)cc1)[C@@H](C(F)(F)F)O2
REMARK SMILES IDX 24 1 23 2 22 3 21 4 20 5 18 6 19 7 17 8 9 9 10 10 14 11
REMARK SMILES IDX 11 12 13 13 15 14 12 15 97 16 16 17 92 18 8 19 7 20 6 21
REMARK SMILES IDX 5 22 4 23 3 24 2 25 1 27 93 28 94 29 95 30 96 31 25 32 26 33
REMARK SMILES IDX 27 34 28 35 29 36 30 37 91 38 31 39 90 40 32 41 33 42 34 43
REMARK SMILES IDX 84 44 35 45 89 46 83 47 85 48 36 49 88 50 82 51 81 52 37 54
REMARK SMILES IDX 69 55 49 56 68 57 50 58 53 59 67 60 86 61 51 62 52 63 66 65
REMARK SMILES IDX 87 66 54 67 38 68 39 69 47 70 40 71 42 72 48 73 41 74 43 75
REMARK SMILES IDX 44 76 45 77 46 78 70 79 71 80 79 81 72 82 74 83 80 84 73 85
REMARK SMILES IDX 75 86 76 87 77 88 78 89 55 90 56 91 64 92 57 93 59 94 65 95
REMARK SMILES IDX 58 96 60 97 61 98 62 99 63 100
REMARK H PARENT 7 26 85 53 53 64
REMARK Flexibility Score: inf
ROOT
ATOM      1  C   UNL     1       1.188  -2.811  -9.641  1.00  0.00     0.202 C 
ENDROOT
BRANCH   1   2
ATOM      2  O   UNL     1       1.572  -2.733 -11.013  1.00  0.00    -0.374 OA
BRANCH   2   3
ATOM      3  C   UNL     1       2.892  -3.124 -11.382  1.00  0.00     0.202 C 
BRANCH   3   4
ATOM      4  C   UNL     1       4.051  -2.187 -11.027  1.00  0.00     0.261 C 
BRANCH   4   5
ATOM      5  O   UNL     1       4.077  -1.862  -9.629  1.00  0.00    -0.460 OA
BRANCH   5   6
ATOM      6  C   UNL     1       3.740  -0.580  -9.367  1.00  0.00     0.338 C 
ATOM      7  O   UNL     1       3.558   0.312 -10.182  1.00  0.00    -0.246 OA
BRANCH   6   8
ATOM      8  C   UNL     1       3.454  -0.407  -7.934  1.00  0.00     0.087 C 
ATOM      9  C   UNL     1       1.962   1.868  -3.729  1.00  0.00     0.029 A 
ATOM     10  C   UNL     1       2.796   0.752  -3.992  1.00  0.00     0.058 A 
ATOM     11  C   UNL     1       1.345   2.492  -4.827  1.00  0.00     0.050 A 
ATOM     12  C   UNL     1       2.966   0.267  -5.293  1.00  0.00     0.128 A 
ATOM     13  C   UNL     1       1.398   1.917  -6.094  1.00  0.00     0.033 A 
ATOM     14  Cl  UNL     1       0.641   4.072  -4.767  1.00  0.00    -0.084 Cl
ATOM     15  C   UNL     1       2.219   0.818  -6.327  1.00  0.00     0.019 A 
ATOM     16  O   UNL     1       3.876  -0.738  -5.496  1.00  0.00    -0.475 OA
ATOM     17  C   UNL     1       2.387   0.358  -7.684  1.00  0.00     0.027 C 
ATOM     18  C   UNL     1       4.362  -0.948  -6.866  1.00  0.00     0.316 C 
BRANCH   9  19
ATOM     19  C   UNL     1       1.798   2.355  -2.298  1.00  0.00     0.301 C 
BRANCH  19  20
ATOM     20  N   UNL     1       0.608   1.899  -1.556  1.00  0.00    -0.327 N 
ATOM     21  C   UNL     1       1.081  -0.003  -0.044  1.00  0.00     0.075 C 
ATOM     22  C   UNL     1       0.483   0.444  -1.371  1.00  0.00     0.181 C 
ATOM     23  C   UNL     1      -1.018   0.162  -1.428  1.00  0.00     0.071 C 
ATOM     24  C   UNL     1      -1.522   1.227  -2.376  1.00  0.00     0.071 C 
ATOM     25  C   UNL     1      -0.678   2.439  -2.011  1.00  0.00     0.181 C 
ATOM     26  H   UNL     1       0.812   2.310  -0.645  1.00  0.00     0.348 HD
ATOM     27  C   UNL     1      -1.310   3.283  -0.904  1.00  0.00     0.075 C 
ENDBRANCH  19  20
ENDBRANCH   9  19
BRANCH  18  28
ATOM     28  C   UNL     1       5.792  -0.404  -7.015  1.00  0.00     0.430 C 
ATOM     29  F   UNL     1       6.599  -0.857  -6.028  1.00  0.00    -0.167 F 
ATOM     30  F   UNL     1       6.346  -0.794  -8.188  1.00  0.00    -0.167 F 
ATOM     31  F   UNL     1       5.824   0.948  -6.981  1.00  0.00    -0.167 F 
ENDBRANCH  18  28
ENDBRANCH   6   8
ENDBRANCH   5   6
ENDBRANCH   4   5
ENDBRANCH   3   4
ENDBRANCH   2   3
ENDBRANCH   1   2
BRANCH   1  32
ATOM     32  C   UNL     1       1.061  -4.186  -8.974  1.00  0.00     0.261 C 
BRANCH  32  33
ATOM     33  O   UNL     1       2.308  -4.893  -8.893  1.00  0.00    -0.460 OA
BRANCH  33  34
ATOM     34  C   UNL     1       2.401  -5.978  -9.705  1.00  0.00     0.338 C 
ATOM     35  O   UNL     1       1.540  -6.408 -10.458  1.00  0.00    -0.246 OA
BRANCH  34  36
ATOM     36  C   UNL     1       3.795  -6.455  -9.710  1.00  0.00     0.060 A 
ATOM     37  C   UNL     1       4.424  -6.840  -8.527  1.00  0.00     0.016 A 
ATOM     38  C   UNL     1       4.465  -6.542 -10.938  1.00  0.00     0.016 A 
ATOM     39  C   UNL     1       5.728  -7.337  -8.580  1.00  0.00     0.010 A 
ATOM     40  C   UNL     1       5.769  -7.035 -10.988  1.00  0.00     0.010 A 
ATOM     41  C   UNL     1       6.403  -7.454  -9.811  1.00  0.00    -0.014 A 
BRANCH  41  42
ATOM     42  C   UNL     1       7.714  -8.143  -9.874  1.00  0.00     0.031 A 
ATOM     43  C   UNL     1       8.989  -7.393 -10.116  1.00  0.00     0.074 A 
ATOM     44  C   UNL     1       7.736  -9.482  -9.730  1.00  0.00     0.049 A 
ATOM     45  N   UNL     1      10.215  -7.849 -10.117  1.00  0.00    -0.248 NA
ATOM     46  C   UNL     1       8.883  -5.953 -10.397  1.00  0.00     0.031 C 
ATOM     47  C   UNL     1       6.551 -10.326  -9.557  1.00  0.00     0.029 A 
ATOM     48  N   UNL     1       8.782 -10.368  -9.707  1.00  0.00    -0.354 N 
ATOM     49  C   UNL     1      11.028  -6.761 -10.399  1.00  0.00     0.074 A 
ATOM     50  C   UNL     1      10.155  -5.620 -10.586  1.00  0.00     0.031 C 
ATOM     51  C   UNL     1       6.939 -11.603  -9.420  1.00  0.00     0.029 A 
ATOM     52  C   UNL     1       8.394 -11.672  -9.518  1.00  0.00     0.049 A 
ATOM     53  H   UNL     1       9.722 -10.095  -9.816  1.00  0.00     0.167 HD
ATOM     54  C   UNL     1      12.379  -6.716 -10.471  1.00  0.00     0.034 A 
ATOM     55  C   UNL     1       9.123 -12.801  -9.425  1.00  0.00     0.034 A 
ATOM     56  C   UNL     1      13.243  -7.849 -10.272  1.00  0.00     0.049 A 
ATOM     57  C   UNL     1      10.620 -12.720  -9.503  1.00  0.00     0.074 A 
ATOM     58  C   UNL     1      14.627  -7.878 -10.264  1.00  0.00     0.029 A 
ATOM     59  N   UNL     1      12.814  -9.150 -10.064  1.00  0.00    -0.354 N 
ATOM     60  N   UNL     1      11.377 -11.659  -9.635  1.00  0.00    -0.248 NA
ATOM     61  C   UNL     1      11.364 -13.983  -9.394  1.00  0.00     0.031 C 
ATOM     62  C   UNL     1      15.035  -9.201 -10.073  1.00  0.00     0.029 A 
ATOM     63  C   UNL     1      13.906  -9.991  -9.938  1.00  0.00     0.049 A 
ATOM     64  H   UNL     1      11.873  -9.434 -10.013  1.00  0.00     0.167 HD
ATOM     65  C   UNL     1      12.686 -12.121  -9.605  1.00  0.00     0.074 A 
ATOM     66  C   UNL     1      12.622 -13.557  -9.429  1.00  0.00     0.031 C 
ATOM     67  C   UNL     1      13.835 -11.414  -9.724  1.00  0.00     0.034 A 
BRANCH  54  68
ATOM     68  C   UNL     1      13.035  -5.385 -10.716  1.00  0.00     0.023 A 
ATOM     69  C   UNL     1      13.151  -4.473  -9.649  1.00  0.00     0.012 A 
ATOM     70  C   UNL     1      13.649  -5.094 -11.950  1.00  0.00     0.148 A 
ATOM     71  C   UNL     1      13.866  -3.287  -9.805  1.00  0.00     0.002 A 
ATOM     72  C   UNL     1      14.384  -3.922 -12.090  1.00  0.00     0.091 A 
ATOM     73  F   UNL     1      13.519  -5.976 -12.951  1.00  0.00    -0.205 F 
ATOM     74  C   UNL     1      14.491  -3.018 -11.020  1.00  0.00     0.022 A 
BRANCH  72  75
ATOM     75  S   UNL     1      15.269  -3.500 -13.595  1.00  0.00     0.127 S 
ATOM     76  O   UNL     1      14.568  -2.288 -14.017  1.00  0.00    -0.237 OA
ATOM     77  O   UNL     1      16.627  -3.278 -13.099  1.00  0.00    -0.237 OA
ATOM     78  O   UNL     1      15.118  -4.641 -14.487  1.00  0.00    -0.744 OA
ENDBRANCH  72  75
ENDBRANCH  54  68
BRANCH  55  79
ATOM     79  C   UNL     1       8.429 -14.092  -9.175  1.00  0.00     0.023 A 
ATOM     80  C   UNL     1       8.469 -14.657  -7.887  1.00  0.00     0.012 A 
ATOM     81  C   UNL     1       7.667 -14.713 -10.183  1.00  0.00     0.148 A 
ATOM     82  C   UNL     1       7.763 -15.826  -7.606  1.00  0.00     0.002 A 
ATOM     83  C   UNL     1       6.937 -15.857  -9.887  1.00  0.00     0.091 A 
ATOM     84  F   UNL     1       7.645 -14.148 -11.398  1.00  0.00    -0.205 F 
ATOM     85  C   UNL     1       6.990 -16.420  -8.602  1.00  0.00     0.022 A 
BRANCH  83  86
ATOM     86  S   UNL     1       5.842 -16.642 -11.073  1.00  0.00     0.127 S 
ATOM     87  O   UNL     1       6.452 -17.962 -11.213  1.00  0.00    -0.237 OA
ATOM     88  O   UNL     1       4.567 -16.624 -10.356  1.00  0.00    -0.237 OA
ATOM     89  O   UNL     1       5.882 -15.807 -12.266  1.00  0.00    -0.744 OA
ENDBRANCH  83  86
ENDBRANCH  55  79
BRANCH  67  90
ATOM     90  C   UNL     1      15.139 -12.159  -9.660  1.00  0.00     0.023 A 
ATOM     91  C   UNL     1      15.586 -12.871 -10.790  1.00  0.00     0.012 A 
ATOM     92  C   UNL     1      15.979 -12.040  -8.535  1.00  0.00     0.148 A 
ATOM     93  C   UNL     1      16.852 -13.457 -10.799  1.00  0.00     0.002 A 
ATOM     94  C   UNL     1      17.251 -12.597  -8.564  1.00  0.00     0.091 A 
ATOM     95  F   UNL     1      15.526 -11.360  -7.471  1.00  0.00    -0.205 F 
ATOM     96  C   UNL     1      17.688 -13.309  -9.694  1.00  0.00     0.022 A 
BRANCH  94  97
ATOM     97  S   UNL     1      18.427 -12.405  -7.220  1.00  0.00     0.127 S 
ATOM     98  O   UNL     1      18.585 -13.785  -6.763  1.00  0.00    -0.237 OA
ATOM     99  O   UNL     1      19.593 -11.852  -7.907  1.00  0.00    -0.237 OA
ATOM    100  O   UNL     1      17.801 -11.506  -6.259  1.00  0.00    -0.744 OA
ENDBRANCH  94  97
ENDBRANCH  67  90
ENDBRANCH  41  42
ENDBRANCH  34  36
ENDBRANCH  33  34
ENDBRANCH  32  33
ENDBRANCH   1  32
TORSDOF 20
