REMARK SMILES Cc1cc(C)n2ncc(C(=O)N(C)CCCC(=O)OCCOCCOC(=O)c3ccc(-c4c5nc(c(-c6cccc(S(=O)(=O)[O-])c6F)c6ccc([nH]6)c(-c6cccc(S(=O)(=O)[O-])c6F)c6nc(c(-c7cccc(S(=O)(=O)[O-])c7F)c7ccc4[nH]7)C=C6)C=C5)cc3)c2n1
REMARK SMILES IDX 21 1 20 2 19 3 17 4 18 5 16 6 15 7 14 8 12 9 13 10 10 11
REMARK SMILES IDX 11 12 9 13 1 14 2 15 3 16 92 17 4 18 91 19 5 20 6 21 7 22
REMARK SMILES IDX 8 23 22 24 23 25 24 26 25 27 26 28 27 29 28 30 29 31 90 32
REMARK SMILES IDX 30 33 89 34 31 35 32 36 33 37 83 38 34 39 88 40 82 41 84 42
REMARK SMILES IDX 35 43 87 44 81 45 80 46 36 48 68 49 48 50 67 51 49 52 52 53
REMARK SMILES IDX 66 54 85 55 50 56 51 57 65 59 86 60 53 61 37 62 38 63 46 64
REMARK SMILES IDX 39 65 41 66 47 67 40 68 42 69 43 70 44 71 45 72 69 73 70 74
REMARK SMILES IDX 78 75 71 76 73 77 79 78 72 79 74 80 75 81 76 82 77 83 54 84
REMARK SMILES IDX 55 85 63 86 56 87 58 88 64 89 57 90 59 91 60 92 61 93 62 94
REMARK H PARENT 84 47 52 58
REMARK Flexibility Score: inf
ROOT
ATOM      1  C   UNL     1       4.369   3.790  -5.854  1.00  0.00     0.202 C 
ENDROOT
BRANCH   1   2
ATOM      2  C   UNL     1       3.555   3.462  -4.607  1.00  0.00     0.261 C 
BRANCH   2   3
ATOM      3  O   UNL     1       3.965   4.280  -3.506  1.00  0.00    -0.463 OA
BRANCH   3   4
ATOM      4  C   UNL     1       4.363   3.630  -2.388  1.00  0.00     0.305 C 
ATOM      5  O   UNL     1       4.487   2.413  -2.284  1.00  0.00    -0.252 OA
BRANCH   4   6
ATOM      6  C   UNL     1       4.747   4.572  -1.266  1.00  0.00     0.124 C 
BRANCH   6   7
ATOM      7  C   UNL     1       4.798   6.077  -1.545  1.00  0.00     0.033 C 
BRANCH   7   8
ATOM      8  C   UNL     1       3.505   6.783  -1.980  1.00  0.00     0.120 C 
BRANCH   8   9
ATOM      9  N   UNL     1       2.413   6.701  -1.005  1.00  0.00    -0.342 N 
ATOM     10  C   UNL     1       2.103   7.955  -0.340  1.00  0.00     0.147 C 
BRANCH   9  11
ATOM     11  C   UNL     1       1.637   5.532  -1.017  1.00  0.00     0.259 C 
ATOM     12  O   UNL     1       1.732   4.763  -1.975  1.00  0.00    -0.269 OA
BRANCH  11  13
ATOM     13  C   UNL     1       0.781   5.146   0.099  1.00  0.00     0.104 A 
ATOM     14  C   UNL     1       1.083   0.226  -0.131  1.00  0.00     0.067 C 
ATOM     15  C   UNL     1       0.544   1.533   0.398  1.00  0.00     0.042 A 
ATOM     16  C   UNL     1      -0.594   1.456   1.365  1.00  0.00     0.047 A 
ATOM     17  N   UNL     1       1.080   2.640  -0.026  1.00  0.00    -0.233 NA
ATOM     18  C   UNL     1      -1.037   2.625   1.857  1.00  0.00     0.043 A 
ATOM     19  C   UNL     1       0.555   3.816   0.448  1.00  0.00     0.168 A 
ATOM     20  C   UNL     1      -2.175   2.723   2.823  1.00  0.00     0.067 C 
ATOM     21  N   UNL     1      -0.446   3.820   1.421  1.00  0.00    -0.219 N 
ATOM     22  N   UNL     1      -0.746   5.080   1.815  1.00  0.00    -0.174 NA
ATOM     23  C   UNL     1      -0.043   5.857   0.991  1.00  0.00     0.151 A 
ENDBRANCH  11  13
ENDBRANCH   9  11
ENDBRANCH   8   9
ENDBRANCH   7   8
ENDBRANCH   6   7
ENDBRANCH   4   6
ENDBRANCH   3   4
ENDBRANCH   2   3
ENDBRANCH   1   2
BRANCH   1  24
ATOM     24  O   UNL     1       5.781   3.575  -5.793  1.00  0.00    -0.374 OA
BRANCH  24  25
ATOM     25  C   UNL     1       6.573   4.347  -4.893  1.00  0.00     0.202 C 
BRANCH  25  26
ATOM     26  C   UNL     1       6.794   5.819  -5.214  1.00  0.00     0.261 C 
BRANCH  26  27
ATOM     27  O   UNL     1       5.580   6.551  -5.255  1.00  0.00    -0.460 OA
BRANCH  27  28
ATOM     28  C   UNL     1       5.140   6.789  -6.514  1.00  0.00     0.338 C 
ATOM     29  O   UNL     1       5.507   6.242  -7.536  1.00  0.00    -0.246 OA
BRANCH  28  30
ATOM     30  C   UNL     1       4.261   7.961  -6.493  1.00  0.00     0.060 A 
ATOM     31  C   UNL     1       3.851   8.417  -7.745  1.00  0.00     0.016 A 
ATOM     32  C   UNL     1       4.216   8.766  -5.346  1.00  0.00     0.016 A 
ATOM     33  C   UNL     1       3.686   9.770  -7.903  1.00  0.00     0.010 A 
ATOM     34  C   UNL     1       4.052  10.117  -5.505  1.00  0.00     0.010 A 
ATOM     35  C   UNL     1       3.901  10.603  -6.798  1.00  0.00    -0.014 A 
BRANCH  35  36
ATOM     36  C   UNL     1       3.810  12.027  -7.008  1.00  0.00     0.031 A 
ATOM     37  C   UNL     1       2.404  12.421  -7.209  1.00  0.00     0.074 A 
ATOM     38  C   UNL     1       4.880  12.844  -6.966  1.00  0.00     0.049 A 
ATOM     39  N   UNL     1       1.832  12.684  -8.336  1.00  0.00    -0.248 NA
ATOM     40  C   UNL     1       1.469  12.227  -6.089  1.00  0.00     0.031 C 
ATOM     41  C   UNL     1       6.241  12.525  -6.518  1.00  0.00     0.029 A 
ATOM     42  N   UNL     1       4.948  14.180  -7.210  1.00  0.00    -0.354 N 
ATOM     43  C   UNL     1       0.522  12.992  -7.992  1.00  0.00     0.074 A 
ATOM     44  C   UNL     1       0.296  12.421  -6.693  1.00  0.00     0.031 C 
ATOM     45  C   UNL     1       6.916  13.677  -6.285  1.00  0.00     0.029 A 
ATOM     46  C   UNL     1       6.093  14.796  -6.711  1.00  0.00     0.049 A 
ATOM     47  H   UNL     1       4.247  14.670  -7.698  1.00  0.00     0.167 HD
ATOM     48  C   UNL     1      -0.118  14.013  -8.619  1.00  0.00     0.034 A 
ATOM     49  C   UNL     1       6.297  16.134  -6.619  1.00  0.00     0.034 A 
ATOM     50  C   UNL     1       0.580  14.393  -9.820  1.00  0.00     0.049 A 
ATOM     51  C   UNL     1       5.383  16.773  -7.589  1.00  0.00     0.074 A 
ATOM     52  C   UNL     1       0.770  13.859 -11.075  1.00  0.00     0.029 A 
ATOM     53  N   UNL     1       1.583  15.303  -9.599  1.00  0.00    -0.354 N 
ATOM     54  N   UNL     1       5.512  16.641  -8.878  1.00  0.00    -0.248 NA
ATOM     55  C   UNL     1       4.097  17.286  -7.132  1.00  0.00     0.031 C 
ATOM     56  C   UNL     1       2.024  14.361 -11.531  1.00  0.00     0.029 A 
ATOM     57  C   UNL     1       2.543  15.227 -10.569  1.00  0.00     0.049 A 
ATOM     58  H   UNL     1       1.607  15.930  -8.840  1.00  0.00     0.167 HD
ATOM     59  C   UNL     1       4.208  16.600  -9.334  1.00  0.00     0.074 A 
ATOM     60  C   UNL     1       3.406  17.192  -8.271  1.00  0.00     0.031 C 
ATOM     61  C   UNL     1       3.862  15.788 -10.371  1.00  0.00     0.034 A 
BRANCH  48  62
ATOM     62  C   UNL     1      -1.054  14.978  -7.926  1.00  0.00     0.023 A 
ATOM     63  C   UNL     1      -1.764  15.886  -8.738  1.00  0.00     0.012 A 
ATOM     64  C   UNL     1      -1.079  15.218  -6.532  1.00  0.00     0.148 A 
ATOM     65  C   UNL     1      -2.457  16.972  -8.190  1.00  0.00     0.002 A 
ATOM     66  C   UNL     1      -1.845  16.237  -5.984  1.00  0.00     0.091 A 
ATOM     67  F   UNL     1      -0.245  14.563  -5.721  1.00  0.00    -0.205 F 
ATOM     68  C   UNL     1      -2.515  17.137  -6.811  1.00  0.00     0.022 A 
BRANCH  66  69
ATOM     69  S   UNL     1      -1.996  16.445  -4.204  1.00  0.00     0.127 S 
ATOM     70  O   UNL     1      -1.252  17.681  -3.986  1.00  0.00    -0.237 OA
ATOM     71  O   UNL     1      -3.446  16.554  -4.042  1.00  0.00    -0.237 OA
ATOM     72  O   UNL     1      -1.422  15.240  -3.616  1.00  0.00    -0.744 OA
ENDBRANCH  66  69
ENDBRANCH  48  62
BRANCH  49  73
ATOM     73  C   UNL     1       7.028  16.965  -5.634  1.00  0.00     0.023 A 
ATOM     74  C   UNL     1       7.396  18.282  -5.985  1.00  0.00     0.012 A 
ATOM     75  C   UNL     1       7.027  16.613  -4.268  1.00  0.00     0.148 A 
ATOM     76  C   UNL     1       7.677  19.241  -5.006  1.00  0.00     0.002 A 
ATOM     77  C   UNL     1       7.294  17.575  -3.297  1.00  0.00     0.091 A 
ATOM     78  F   UNL     1       6.663  15.370  -3.927  1.00  0.00    -0.205 F 
ATOM     79  C   UNL     1       7.605  18.893  -3.661  1.00  0.00     0.022 A 
BRANCH  77  80
ATOM     80  S   UNL     1       7.146  17.234  -1.537  1.00  0.00     0.127 S 
ATOM     81  O   UNL     1       8.428  17.721  -1.026  1.00  0.00    -0.237 OA
ATOM     82  O   UNL     1       5.991  18.051  -1.171  1.00  0.00    -0.237 OA
ATOM     83  O   UNL     1       6.960  15.793  -1.425  1.00  0.00    -0.744 OA
ENDBRANCH  77  80
ENDBRANCH  49  73
BRANCH  61  84
ATOM     84  C   UNL     1       4.961  15.319 -11.282  1.00  0.00     0.023 A 
ATOM     85  C   UNL     1       5.960  14.407 -10.887  1.00  0.00     0.012 A 
ATOM     86  C   UNL     1       4.902  15.732 -12.621  1.00  0.00     0.148 A 
ATOM     87  C   UNL     1       6.887  13.924 -11.816  1.00  0.00     0.002 A 
ATOM     88  C   UNL     1       5.787  15.210 -13.551  1.00  0.00     0.091 A 
ATOM     89  F   UNL     1       3.954  16.617 -12.968  1.00  0.00    -0.205 F 
ATOM     90  C   UNL     1       6.790  14.312 -13.152  1.00  0.00     0.022 A 
BRANCH  88  91
ATOM     91  S   UNL     1       5.618  15.569 -15.299  1.00  0.00     0.127 S 
ATOM     92  O   UNL     1       6.742  16.472 -15.536  1.00  0.00    -0.237 OA
ATOM     93  O   UNL     1       5.756  14.244 -15.905  1.00  0.00    -0.237 OA
ATOM     94  O   UNL     1       4.295  16.160 -15.460  1.00  0.00    -0.744 OA
ENDBRANCH  88  91
ENDBRANCH  61  84
ENDBRANCH  35  36
ENDBRANCH  28  30
ENDBRANCH  27  28
ENDBRANCH  26  27
ENDBRANCH  25  26
ENDBRANCH  24  25
ENDBRANCH   1  24
TORSDOF 22
