REMARK SMILES CN1C(=O)CC[C@H]([NH2+]Cc2ccc(C(=O)OCCOCCOC(=O)c3ccc(-c4c5nc(c(-c6cccc(S(=O)(=O)[O-])c6F)c6ccc([nH]6)c(-c6cccc(S(=O)(=O)[O-])c6F)c6nc(c(-c7cccc(S(=O)(=O)[O-])c7F)c7ccc4[nH]7)C=C6)C=C5)cc3)cn2)C1=O
REMARK SMILES IDX 19 1 18 2 17 3 16 4 14 5 15 6 13 7 10 8 11 9 89 10 12 11
REMARK SMILES IDX 88 12 9 13 8 14 7 17 1 18 2 19 3 20 90 21 4 22 5 23 91 24
REMARK SMILES IDX 6 25 20 26 21 27 22 28 23 29 24 30 25 31 26 32 87 33 27 34
REMARK SMILES IDX 86 35 28 36 29 37 30 38 80 39 31 40 85 41 79 42 81 43 32 44
REMARK SMILES IDX 84 45 78 46 77 47 33 49 65 50 45 51 64 52 46 53 49 54 63 55
REMARK SMILES IDX 82 56 47 57 48 58 62 60 83 61 50 62 34 63 35 64 43 65 36 66
REMARK SMILES IDX 38 67 44 68 37 69 39 70 40 71 41 72 42 73 66 74 67 75 75 76
REMARK SMILES IDX 68 77 70 78 76 79 69 80 71 81 72 82 73 83 74 84 51 85 52 86
REMARK SMILES IDX 60 87 53 88 55 89 61 90 54 91 56 92 57 93 58 94 59 95
REMARK H PARENT 8 15 8 16 81 48 49 59
REMARK Flexibility Score: inf
ROOT
ATOM      1  O   UNL     1       3.101  -1.524 -12.520  1.00  0.00    -0.374 OA
ENDROOT
BRANCH   1   2
ATOM      2  C   UNL     1       2.838  -0.306 -13.216  1.00  0.00     0.202 C 
BRANCH   2   3
ATOM      3  C   UNL     1       1.548   0.443 -12.867  1.00  0.00     0.261 C 
BRANCH   3   4
ATOM      4  O   UNL     1       1.515   0.835 -11.485  1.00  0.00    -0.460 OA
BRANCH   4   5
ATOM      5  C   UNL     1       0.665   0.118 -10.715  1.00  0.00     0.339 C 
ATOM      6  O   UNL     1      -0.132  -0.729 -11.096  1.00  0.00    -0.246 OA
BRANCH   5   7
ATOM      7  C   UNL     1       0.936   0.351  -9.287  1.00  0.00     0.078 A 
ATOM      8  C   UNL     1       1.280   0.539  -6.554  1.00  0.00     0.094 A 
ATOM      9  C   UNL     1       1.537   1.654  -7.356  1.00  0.00     0.031 A 
ATOM     10  N   UNL     1       0.911  -0.655  -7.090  1.00  0.00    -0.254 NA
ATOM     11  C   UNL     1       1.377   1.556  -8.744  1.00  0.00     0.019 A 
ATOM     12  C   UNL     1       0.741  -0.719  -8.430  1.00  0.00     0.127 A 
BRANCH   8  13
ATOM     13  C   UNL     1       1.288   0.574  -5.034  1.00  0.00     0.318 C 
BRANCH  13  14
ATOM     14  N   UNL     1       1.954   1.732  -4.418  1.00  0.00    -0.331 N 
ATOM     15  H   UNL     1       2.961   1.590  -4.492  1.00  0.00     0.347 HD
ATOM     16  H   UNL     1       1.611   2.549  -4.924  1.00  0.00     0.347 HD
BRANCH  14  17
ATOM     17  C   UNL     1       1.633   1.980  -2.990  1.00  0.00     0.274 C 
ATOM     18  C   UNL     1       0.491  -0.120  -0.006  1.00  0.00     0.156 C 
ATOM     19  N   UNL     1       0.625   1.000  -0.923  1.00  0.00    -0.281 N 
ATOM     20  C   UNL     1      -0.008   2.192  -0.582  1.00  0.00     0.229 C 
ATOM     21  C   UNL     1       1.319   0.747  -2.115  1.00  0.00     0.287 C 
ATOM     22  O   UNL     1      -0.761   2.309   0.386  1.00  0.00    -0.274 OA
ATOM     23  C   UNL     1       0.334   3.395  -1.424  1.00  0.00     0.107 C 
ATOM     24  O   UNL     1       1.713  -0.387  -2.395  1.00  0.00    -0.267 OA
ATOM     25  C   UNL     1       0.535   3.031  -2.882  1.00  0.00     0.085 C 
ENDBRANCH  14  17
ENDBRANCH  13  14
ENDBRANCH   8  13
ENDBRANCH   5   7
ENDBRANCH   4   5
ENDBRANCH   3   4
ENDBRANCH   2   3
ENDBRANCH   1   2
BRANCH   1  26
ATOM     26  C   UNL     1       3.624  -1.429 -11.195  1.00  0.00     0.202 C 
BRANCH  26  27
ATOM     27  C   UNL     1       5.101  -1.045 -11.031  1.00  0.00     0.261 C 
BRANCH  27  28
ATOM     28  O   UNL     1       5.384   0.285 -11.494  1.00  0.00    -0.460 OA
BRANCH  28  29
ATOM     29  C   UNL     1       6.079   0.343 -12.655  1.00  0.00     0.338 C 
ATOM     30  O   UNL     1       6.526  -0.599 -13.295  1.00  0.00    -0.246 OA
BRANCH  29  31
ATOM     31  C   UNL     1       6.069   1.720 -13.178  1.00  0.00     0.060 A 
ATOM     32  C   UNL     1       5.591   1.916 -14.480  1.00  0.00     0.016 A 
ATOM     33  C   UNL     1       6.579   2.788 -12.438  1.00  0.00     0.016 A 
ATOM     34  C   UNL     1       5.670   3.174 -15.070  1.00  0.00     0.010 A 
ATOM     35  C   UNL     1       6.663   4.050 -13.035  1.00  0.00     0.010 A 
ATOM     36  C   UNL     1       6.246   4.239 -14.366  1.00  0.00    -0.014 A 
BRANCH  36  37
ATOM     37  C   UNL     1       6.535   5.512 -15.069  1.00  0.00     0.031 A 
ATOM     38  C   UNL     1       7.949   5.817 -15.480  1.00  0.00     0.074 A 
ATOM     39  C   UNL     1       5.548   6.384 -15.338  1.00  0.00     0.049 A 
ATOM     40  N   UNL     1       8.427   6.880 -16.072  1.00  0.00    -0.248 NA
ATOM     41  C   UNL     1       8.959   4.790 -15.177  1.00  0.00     0.031 C 
ATOM     42  C   UNL     1       4.140   6.198 -14.993  1.00  0.00     0.029 A 
ATOM     43  N   UNL     1       5.589   7.616 -15.942  1.00  0.00    -0.354 N 
ATOM     44  C   UNL     1       9.796   6.668 -16.180  1.00  0.00     0.074 A 
ATOM     45  C   UNL     1      10.074   5.381 -15.581  1.00  0.00     0.031 C 
ATOM     46  C   UNL     1       3.453   7.290 -15.365  1.00  0.00     0.029 A 
ATOM     47  C   UNL     1       4.377   8.263 -15.946  1.00  0.00     0.049 A 
ATOM     48  H   UNL     1       6.407   7.998 -16.333  1.00  0.00     0.167 HD
ATOM     49  C   UNL     1      10.736   7.467 -16.739  1.00  0.00     0.034 A 
ATOM     50  C   UNL     1       4.054   9.508 -16.348  1.00  0.00     0.034 A 
ATOM     51  C   UNL     1      10.453   8.740 -17.347  1.00  0.00     0.049 A 
ATOM     52  C   UNL     1       5.120  10.389 -16.945  1.00  0.00     0.074 A 
ATOM     53  C   UNL     1      11.326   9.599 -17.991  1.00  0.00     0.029 A 
ATOM     54  N   UNL     1       9.207   9.348 -17.368  1.00  0.00    -0.354 N 
ATOM     55  N   UNL     1       6.389  10.128 -17.148  1.00  0.00    -0.248 NA
ATOM     56  C   UNL     1       4.702  11.723 -17.401  1.00  0.00     0.031 C 
ATOM     57  C   UNL     1      10.616  10.745 -18.364  1.00  0.00     0.029 A 
ATOM     58  C   UNL     1       9.290  10.579 -17.995  1.00  0.00     0.049 A 
ATOM     59  H   UNL     1       8.384   8.960 -16.993  1.00  0.00     0.167 HD
ATOM     60  C   UNL     1       6.913  11.248 -17.786  1.00  0.00     0.074 A 
ATOM     61  C   UNL     1       5.818  12.182 -17.951  1.00  0.00     0.031 C 
ATOM     62  C   UNL     1       8.185  11.484 -18.192  1.00  0.00     0.034 A 
BRANCH  49  63
ATOM     63  C   UNL     1      12.163   6.982 -16.721  1.00  0.00     0.023 A 
ATOM     64  C   UNL     1      12.549   5.894 -17.531  1.00  0.00     0.012 A 
ATOM     65  C   UNL     1      13.132   7.630 -15.930  1.00  0.00     0.148 A 
ATOM     66  C   UNL     1      13.864   5.430 -17.519  1.00  0.00     0.002 A 
ATOM     67  C   UNL     1      14.451   7.193 -15.961  1.00  0.00     0.091 A 
ATOM     68  F   UNL     1      12.745   8.648 -15.149  1.00  0.00    -0.205 F 
ATOM     69  C   UNL     1      14.816   6.085 -16.744  1.00  0.00     0.022 A 
BRANCH  67  70
ATOM     70  S   UNL     1      15.766   8.023 -15.061  1.00  0.00     0.127 S 
ATOM     71  O   UNL     1      16.058   7.052 -14.006  1.00  0.00    -0.237 OA
ATOM     72  O   UNL     1      16.807   8.146 -16.081  1.00  0.00    -0.237 OA
ATOM     73  O   UNL     1      15.206   9.288 -14.608  1.00  0.00    -0.744 OA
ENDBRANCH  67  70
ENDBRANCH  49  63
BRANCH  50  74
ATOM     74  C   UNL     1       2.649   9.984 -16.219  1.00  0.00     0.023 A 
ATOM     75  C   UNL     1       1.870  10.182 -17.375  1.00  0.00     0.012 A 
ATOM     76  C   UNL     1       2.072  10.207 -14.954  1.00  0.00     0.148 A 
ATOM     77  C   UNL     1       0.549  10.620 -17.274  1.00  0.00     0.002 A 
ATOM     78  C   UNL     1       0.740  10.588 -14.858  1.00  0.00     0.091 A 
ATOM     79  F   UNL     1       2.836  10.023 -13.868  1.00  0.00    -0.205 F 
ATOM     80  C   UNL     1      -0.019  10.812 -16.017  1.00  0.00     0.022 A 
BRANCH  78  81
ATOM     81  S   UNL     1      -0.113  10.730 -13.284  1.00  0.00     0.127 S 
ATOM     82  O   UNL     1      -0.396  12.162 -13.225  1.00  0.00    -0.237 OA
ATOM     83  O   UNL     1      -1.282   9.877 -13.500  1.00  0.00    -0.237 OA
ATOM     84  O   UNL     1       0.819  10.231 -12.281  1.00  0.00    -0.744 OA
ENDBRANCH  78  81
ENDBRANCH  50  74
BRANCH  62  85
ATOM     85  C   UNL     1       8.467  12.787 -18.897  1.00  0.00     0.023 A 
ATOM     86  C   UNL     1       8.459  13.998 -18.178  1.00  0.00     0.012 A 
ATOM     87  C   UNL     1       8.812  12.799 -20.264  1.00  0.00     0.148 A 
ATOM     88  C   UNL     1       8.754  15.204 -18.815  1.00  0.00     0.002 A 
ATOM     89  C   UNL     1       9.157  13.996 -20.879  1.00  0.00     0.091 A 
ATOM     90  F   UNL     1       8.798  11.639 -20.937  1.00  0.00    -0.205 F 
ATOM     91  C   UNL     1       9.114  15.201 -20.161  1.00  0.00     0.022 A 
BRANCH  89  92
ATOM     92  S   UNL     1       9.729  14.077 -22.580  1.00  0.00     0.127 S 
ATOM     93  O   UNL     1       8.602  14.732 -23.243  1.00  0.00    -0.237 OA
ATOM     94  O   UNL     1      10.932  14.902 -22.463  1.00  0.00    -0.237 OA
ATOM     95  O   UNL     1       9.978  12.700 -22.988  1.00  0.00    -0.744 OA
ENDBRANCH  89  92
ENDBRANCH  62  85
ENDBRANCH  36  37
ENDBRANCH  29  31
ENDBRANCH  28  29
ENDBRANCH  27  28
ENDBRANCH  26  27
ENDBRANCH   1  26
TORSDOF 20
