REMARK SMILES CCc1cc(S(F)(F)(F)(F)F)cc2c1O[C@@H](C(F)(F)F)C(C(=O)OCCOCCOC(=O)c1ccc(-c3c4nc(c(-c5cccc(S(=O)(=O)[O-])c5F)c5ccc([nH]5)c(-c5cccc(S(=O)(=O)[O-])c5F)c5nc(c(-c6cccc(S(=O)(=O)[O-])c6F)c6ccc3[nH]6)C=C5)C=C4)cc1)=C2
REMARK SMILES IDX 28 1 27 2 26 3 25 4 24 5 22 6 23 7 21 8 3 9 4 10 14 11 5 12
REMARK SMILES IDX 13 13 15 14 12 15 96 16 16 17 2 18 1 19 6 20 7 21 8 22 9 23
REMARK SMILES IDX 10 24 11 25 17 26 18 27 19 28 20 29 29 30 30 31 31 32 32 33
REMARK SMILES IDX 33 34 34 35 95 36 35 37 94 38 36 39 37 40 38 41 88 42 39 43
REMARK SMILES IDX 93 44 87 45 89 46 40 47 92 48 86 49 85 50 41 52 73 53 53 54
REMARK SMILES IDX 72 55 54 56 57 57 71 58 90 59 55 60 56 61 70 63 91 64 58 65
REMARK SMILES IDX 42 66 43 67 51 68 44 69 46 70 52 71 45 72 47 73 48 74 49 75
REMARK SMILES IDX 50 76 74 77 75 78 83 79 76 80 78 81 84 82 77 83 79 84 80 85
REMARK SMILES IDX 81 86 82 87 59 88 60 89 68 90 61 91 63 92 69 93 62 94 64 95
REMARK SMILES IDX 65 96 66 97 67 98
REMARK H PARENT 89 51 57 62
REMARK Flexibility Score: inf
ROOT
ATOM      1  C   UNL     1      -3.787   6.795   1.597  1.00  0.00     0.202 C 
ENDROOT
BRANCH   1   2
ATOM      2  O   UNL     1      -4.629   7.826   2.092  1.00  0.00    -0.374 OA
BRANCH   2   3
ATOM      3  C   UNL     1      -3.911   9.051   2.122  1.00  0.00     0.202 C 
BRANCH   3   4
ATOM      4  C   UNL     1      -2.701   8.906   3.030  1.00  0.00     0.261 C 
BRANCH   4   5
ATOM      5  O   UNL     1      -1.859   7.876   2.536  1.00  0.00    -0.460 OA
BRANCH   5   6
ATOM      6  C   UNL     1      -2.355   6.551   2.412  1.00  0.00     0.338 C 
ATOM      7  O   UNL     1      -3.553   6.288   2.744  1.00  0.00    -0.246 OA
BRANCH   6   8
ATOM      8  C   UNL     1      -1.453   5.448   1.883  1.00  0.00     0.087 C 
ATOM      9  C   UNL     1       1.097   2.283   0.919  1.00  0.00    -0.004 A 
ATOM     10  C   UNL     1       2.339   2.541   0.366  1.00  0.00     0.032 A 
ATOM     11  C   UNL     1       0.301   3.344   1.276  1.00  0.00     0.131 A 
ATOM     12  C   UNL     1       2.774   3.827   0.181  1.00  0.00     0.108 A 
ATOM     13  C   UNL     1       0.699   4.655   1.086  1.00  0.00     0.019 A 
ATOM     14  O   UNL     1      -0.879   3.074   1.925  1.00  0.00    -0.475 OA
ATOM     15  C   UNL     1       1.954   4.879   0.533  1.00  0.00     0.036 A 
ATOM     16  C   UNL     1      -0.199   5.707   1.532  1.00  0.00     0.027 C 
ATOM     17  C   UNL     1      -1.968   4.021   1.744  1.00  0.00     0.316 C 
BRANCH   9  18
ATOM     18  C   UNL     1       0.591   0.865   1.125  1.00  0.00     0.036 C 
ATOM     19  C   UNL     1       1.097  -0.022  -0.000  1.00  0.00     0.009 C 
ENDBRANCH   9  18
BRANCH  12  20
ATOM     20  S   UNL     1       4.412   4.143  -0.522  1.00  0.00     0.310 S 
ATOM     21  F   UNL     1       5.094   4.192   0.909  1.00  0.00    -0.094 F 
ATOM     22  F   UNL     1       4.144   5.688  -0.370  1.00  0.00    -0.094 F 
ATOM     23  F   UNL     1       5.815   4.418  -1.132  1.00  0.00    -0.094 F 
ATOM     24  F   UNL     1       4.718   2.594  -0.535  1.00  0.00    -0.094 F 
ATOM     25  F   UNL     1       3.037   3.850   0.201  1.00  0.00    -0.094 F 
ENDBRANCH  12  20
BRANCH  17  26
ATOM     26  C   UNL     1      -3.026   3.770   2.807  1.00  0.00     0.430 C 
ATOM     27  F   UNL     1      -4.028   4.630   2.646  1.00  0.00    -0.167 F 
ATOM     28  F   UNL     1      -3.485   2.527   2.690  1.00  0.00    -0.167 F 
ATOM     29  F   UNL     1      -2.490   3.934   4.013  1.00  0.00    -0.167 F 
ENDBRANCH  17  26
ENDBRANCH   6   8
ENDBRANCH   5   6
ENDBRANCH   4   5
ENDBRANCH   3   4
ENDBRANCH   2   3
ENDBRANCH   1   2
BRANCH   1  30
ATOM     30  C   UNL     1      -3.326   7.148   0.192  1.00  0.00     0.261 C 
BRANCH  30  31
ATOM     31  O   UNL     1      -2.608   8.372   0.222  1.00  0.00    -0.460 OA
BRANCH  31  32
ATOM     32  C   UNL     1      -3.243   9.556   0.682  1.00  0.00     0.338 C 
ATOM     33  O   UNL     1      -4.454   9.520   1.067  1.00  0.00    -0.246 OA
BRANCH  32  34
ATOM     34  C   UNL     1      -2.474  10.867   0.714  1.00  0.00     0.060 A 
ATOM     35  C   UNL     1      -2.569  11.669   1.839  1.00  0.00     0.016 A 
ATOM     36  C   UNL     1      -1.728  11.223  -0.325  1.00  0.00     0.016 A 
ATOM     37  C   UNL     1      -2.061  12.977   1.655  1.00  0.00     0.010 A 
ATOM     38  C   UNL     1      -1.150  12.468  -0.377  1.00  0.00     0.010 A 
ATOM     39  C   UNL     1      -1.252  13.336   0.675  1.00  0.00    -0.014 A 
BRANCH  39  40
ATOM     40  C   UNL     1      -0.475  14.642   0.715  1.00  0.00     0.031 A 
ATOM     41  C   UNL     1      -0.702  15.569  -0.304  1.00  0.00     0.074 A 
ATOM     42  C   UNL     1       0.412  14.840   1.758  1.00  0.00     0.049 A 
ATOM     43  N   UNL     1      -0.156  16.779  -0.439  1.00  0.00    -0.248 NA
ATOM     44  C   UNL     1      -1.618  15.346  -1.433  1.00  0.00     0.031 C 
ATOM     45  C   UNL     1       0.639  13.913   2.795  1.00  0.00     0.029 A 
ATOM     46  N   UNL     1       1.218  15.933   1.986  1.00  0.00    -0.354 N 
ATOM     47  C   UNL     1      -0.633  17.380  -1.531  1.00  0.00     0.074 A 
ATOM     48  C   UNL     1      -1.575  16.465  -2.189  1.00  0.00     0.031 C 
ATOM     49  C   UNL     1       1.577  14.435   3.628  1.00  0.00     0.029 A 
ATOM     50  C   UNL     1       1.951  15.697   3.128  1.00  0.00     0.049 A 
ATOM     51  H   UNL     1       1.262  16.744   1.429  1.00  0.00     0.167 HD
ATOM     52  C   UNL     1      -0.320  18.656  -2.003  1.00  0.00     0.034 A 
ATOM     53  C   UNL     1       2.898  16.521   3.715  1.00  0.00     0.034 A 
ATOM     54  C   UNL     1       0.595  19.498  -1.391  1.00  0.00     0.049 A 
ATOM     55  C   UNL     1       3.254  17.774   3.211  1.00  0.00     0.074 A 
ATOM     56  C   UNL     1       0.916  20.791  -1.850  1.00  0.00     0.029 A 
ATOM     57  N   UNL     1       1.346  19.252  -0.264  1.00  0.00    -0.354 N 
ATOM     58  N   UNL     1       2.748  18.391   2.142  1.00  0.00    -0.248 NA
ATOM     59  C   UNL     1       4.279  18.642   3.805  1.00  0.00     0.031 C 
ATOM     60  C   UNL     1       1.854  21.313  -1.015  1.00  0.00     0.029 A 
ATOM     61  C   UNL     1       2.135  20.354  -0.022  1.00  0.00     0.049 A 
ATOM     62  H   UNL     1       1.322  18.429   0.277  1.00  0.00     0.167 HD
ATOM     63  C   UNL     1       3.325  19.584   1.984  1.00  0.00     0.074 A 
ATOM     64  C   UNL     1       4.323  19.760   3.048  1.00  0.00     0.031 C 
ATOM     65  C   UNL     1       3.056  20.535   0.998  1.00  0.00     0.034 A 
BRANCH  52  66
ATOM     66  C   UNL     1      -1.023  19.149  -3.257  1.00  0.00     0.023 A 
ATOM     67  C   UNL     1      -2.396  19.321  -3.202  1.00  0.00     0.012 A 
ATOM     68  C   UNL     1      -0.330  19.481  -4.340  1.00  0.00     0.148 A 
ATOM     69  C   UNL     1      -2.992  19.584  -4.458  1.00  0.00     0.002 A 
ATOM     70  C   UNL     1      -0.974  19.860  -5.494  1.00  0.00     0.091 A 
ATOM     71  F   UNL     1       0.999  19.445  -4.309  1.00  0.00    -0.205 F 
ATOM     72  C   UNL     1      -2.335  19.993  -5.528  1.00  0.00     0.022 A 
BRANCH  70  73
ATOM     73  S   UNL     1      -0.008  20.187  -6.989  1.00  0.00     0.127 S 
ATOM     74  O   UNL     1      -0.452  19.234  -8.101  1.00  0.00    -0.237 OA
ATOM     75  O   UNL     1      -0.233  21.633  -7.435  1.00  0.00    -0.237 OA
ATOM     76  O   UNL     1       1.652  19.944  -6.659  1.00  0.00    -0.744 OA
ENDBRANCH  70  73
ENDBRANCH  52  66
BRANCH  53  77
ATOM     77  C   UNL     1       3.588  16.034   4.979  1.00  0.00     0.023 A 
ATOM     78  C   UNL     1       3.534  16.831   6.111  1.00  0.00     0.012 A 
ATOM     79  C   UNL     1       4.296  14.911   4.960  1.00  0.00     0.148 A 
ATOM     80  C   UNL     1       4.503  16.502   7.089  1.00  0.00     0.002 A 
ATOM     81  C   UNL     1       5.119  14.585   6.011  1.00  0.00     0.091 A 
ATOM     82  F   UNL     1       4.207  14.094   3.914  1.00  0.00    -0.205 F 
ATOM     83  C   UNL     1       5.161  15.358   7.137  1.00  0.00     0.022 A 
BRANCH  81  84
ATOM     84  S   UNL     1       6.162  13.110   5.902  1.00  0.00     0.127 S 
ATOM     85  O   UNL     1       7.633  13.515   6.026  1.00  0.00    -0.237 OA
ATOM     86  O   UNL     1       5.802  12.146   7.034  1.00  0.00    -0.237 OA
ATOM     87  O   UNL     1       5.908  12.341   4.396  1.00  0.00    -0.744 OA
ENDBRANCH  81  84
ENDBRANCH  53  77
BRANCH  65  88
ATOM     88  C   UNL     1       3.819  21.849   1.046  1.00  0.00     0.023 A 
ATOM     89  C   UNL     1       5.201  21.823   0.956  1.00  0.00     0.012 A 
ATOM     90  C   UNL     1       3.158  22.994   1.171  1.00  0.00     0.148 A 
ATOM     91  C   UNL     1       5.821  23.048   1.299  1.00  0.00     0.002 A 
ATOM     92  C   UNL     1       3.834  24.174   1.369  1.00  0.00     0.091 A 
ATOM     93  F   UNL     1       1.830  22.999   1.105  1.00  0.00    -0.205 F 
ATOM     94  C   UNL     1       5.201  24.212   1.351  1.00  0.00     0.022 A 
BRANCH  92  95
ATOM     95  S   UNL     1       2.902  25.698   1.658  1.00  0.00     0.127 S 
ATOM     96  O   UNL     1       3.281  26.276   3.023  1.00  0.00    -0.237 OA
ATOM     97  O   UNL     1       3.235  26.715   0.563  1.00  0.00    -0.237 OA
ATOM     98  O   UNL     1       1.227  25.357   1.628  1.00  0.00    -0.744 OA
ENDBRANCH  92  95
ENDBRANCH  65  88
ENDBRANCH  39  40
ENDBRANCH  32  34
ENDBRANCH  31  32
ENDBRANCH  30  31
ENDBRANCH   1  30
TORSDOF 20
