REMARK SMILES CCCCc1nc(C[N@H+]2CC[NH2+][C@H](C(=O)OCCOCCOC(=O)c3ccc(-c4c5nc(c(-c6cccc(S(=O)(=O)[O-])c6F)c6ccc([nH]6)c(-c6cccc(S(=O)(=O)[O-])c6F)c6nc(c(-c7cccc(S(=O)(=O)[O-])c7F)c7ccc4[nH]7)C=C6)C=C5)cc3)C2)c(Cl)[nH]1
REMARK SMILES IDX 18 1 17 2 16 3 14 4 15 5 13 6 9 7 10 8 88 9 11 11 12 12 8 15
REMARK SMILES IDX 7 16 5 17 6 18 91 19 89 20 90 22 4 23 3 24 2 25 1 26 19 27
REMARK SMILES IDX 20 28 21 29 22 30 23 31 24 32 25 33 26 34 87 35 27 36 86 37
REMARK SMILES IDX 28 38 29 39 30 40 80 41 31 42 85 43 79 44 81 45 32 46 84 47
REMARK SMILES IDX 78 48 77 49 33 51 65 52 45 53 64 54 46 55 49 56 63 57 82 58
REMARK SMILES IDX 47 59 48 60 62 62 83 63 50 64 34 65 35 66 43 67 36 68 38 69
REMARK SMILES IDX 44 70 37 71 39 72 40 73 41 74 42 75 66 76 67 77 75 78 68 79
REMARK SMILES IDX 70 80 76 81 69 82 71 83 72 84 73 85 74 86 51 87 52 88 60 89
REMARK SMILES IDX 53 90 55 91 61 92 54 93 56 94 57 95 58 96 59 97
REMARK H PARENT 9 10 12 13 12 14 91 21 81 50 49 61
REMARK Flexibility Score: inf
ROOT
ATOM      1  C   UNL     1       2.529  -4.072   0.910  1.00  0.00     0.202 C 
ENDROOT
BRANCH   1   2
ATOM      2  C   UNL     1       1.354  -4.798   0.243  1.00  0.00     0.261 C 
BRANCH   2   3
ATOM      3  O   UNL     1       0.154  -4.028   0.429  1.00  0.00    -0.459 OA
BRANCH   3   4
ATOM      4  C   UNL     1      -1.015  -4.674   0.731  1.00  0.00     0.371 C 
ATOM      5  O   UNL     1      -1.142  -5.884   0.862  1.00  0.00    -0.245 OA
BRANCH   4   6
ATOM      6  C   UNL     1      -2.133  -3.634   0.889  1.00  0.00     0.348 C 
ATOM      7  N   UNL     1      -4.508  -3.173   1.703  1.00  0.00    -0.320 N 
ATOM      8  C   UNL     1      -4.678  -2.352   0.490  1.00  0.00     0.324 C 
ATOM      9  C   UNL     1      -3.417  -4.166   1.550  1.00  0.00     0.341 C 
ATOM     10  H   UNL     1      -5.362  -3.723   1.798  1.00  0.00     0.348 HD
ATOM     11  C   UNL     1      -3.377  -1.894  -0.211  1.00  0.00     0.323 C 
ATOM     12  N   UNL     1      -2.410  -2.983  -0.422  1.00  0.00    -0.325 N 
ATOM     13  H   UNL     1      -1.544  -2.605  -0.807  1.00  0.00     0.347 HD
ATOM     14  H   UNL     1      -2.791  -3.666  -1.077  1.00  0.00     0.347 HD
BRANCH   7  15
ATOM     15  C   UNL     1      -4.501  -2.409   2.973  1.00  0.00     0.323 C 
BRANCH  15  16
ATOM     16  C   UNL     1      -3.608  -1.211   3.012  1.00  0.00     0.132 A 
ATOM     17  C   UNL     1      -1.756  -0.141   2.790  1.00  0.00     0.107 A 
ATOM     18  N   UNL     1      -2.237  -1.341   3.053  1.00  0.00    -0.231 NA
ATOM     19  N   UNL     1      -2.744   0.808   2.861  1.00  0.00    -0.333 N 
ATOM     20  C   UNL     1      -3.918   0.127   2.974  1.00  0.00     0.135 A 
ATOM     21  H   UNL     1      -2.629   1.785   2.834  1.00  0.00     0.169 HD
ATOM     22  Cl  UNL     1      -5.367   0.997   2.936  1.00  0.00    -0.062 Cl
BRANCH  17  23
ATOM     23  C   UNL     1      -0.357   0.159   2.387  1.00  0.00     0.075 C 
BRANCH  23  24
ATOM     24  C   UNL     1       0.060  -0.635   1.138  1.00  0.00     0.008 C 
BRANCH  24  25
ATOM     25  C   UNL     1      -0.137  -0.061  -0.267  1.00  0.00    -0.003 C 
ATOM     26  C   UNL     1      -0.787   1.299  -0.389  1.00  0.00     0.004 C 
ENDBRANCH  24  25
ENDBRANCH  23  24
ENDBRANCH  17  23
ENDBRANCH  15  16
ENDBRANCH   7  15
ENDBRANCH   4   6
ENDBRANCH   3   4
ENDBRANCH   2   3
ENDBRANCH   1   2
BRANCH   1  27
ATOM     27  O   UNL     1       2.560  -4.342   2.316  1.00  0.00    -0.374 OA
BRANCH  27  28
ATOM     28  C   UNL     1       1.914  -3.356   3.122  1.00  0.00     0.202 C 
BRANCH  28  29
ATOM     29  C   UNL     1       2.904  -2.302   3.622  1.00  0.00     0.261 C 
BRANCH  29  30
ATOM     30  O   UNL     1       3.011  -1.208   2.702  1.00  0.00    -0.460 OA
BRANCH  30  31
ATOM     31  C   UNL     1       4.150  -0.994   2.010  1.00  0.00     0.338 C 
ATOM     32  O   UNL     1       5.124  -1.739   1.954  1.00  0.00    -0.246 OA
BRANCH  31  33
ATOM     33  C   UNL     1       4.038   0.324   1.328  1.00  0.00     0.060 A 
ATOM     34  C   UNL     1       5.070   0.837   0.542  1.00  0.00     0.016 A 
ATOM     35  C   UNL     1       2.875   1.082   1.490  1.00  0.00     0.016 A 
ATOM     36  C   UNL     1       4.921   2.099  -0.051  1.00  0.00     0.010 A 
ATOM     37  C   UNL     1       2.684   2.276   0.830  1.00  0.00     0.010 A 
ATOM     38  C   UNL     1       3.726   2.822   0.105  1.00  0.00    -0.014 A 
BRANCH  38  39
ATOM     39  C   UNL     1       3.528   4.128  -0.519  1.00  0.00     0.031 A 
ATOM     40  C   UNL     1       3.704   4.174  -1.988  1.00  0.00     0.074 A 
ATOM     41  C   UNL     1       3.059   5.228   0.113  1.00  0.00     0.049 A 
ATOM     42  N   UNL     1       4.739   4.611  -2.623  1.00  0.00    -0.248 NA
ATOM     43  C   UNL     1       2.670   3.592  -2.851  1.00  0.00     0.031 C 
ATOM     44  C   UNL     1       2.508   5.333   1.468  1.00  0.00     0.029 A 
ATOM     45  N   UNL     1       2.880   6.488  -0.384  1.00  0.00    -0.354 N 
ATOM     46  C   UNL     1       4.378   4.620  -3.965  1.00  0.00     0.074 A 
ATOM     47  C   UNL     1       3.201   3.794  -4.061  1.00  0.00     0.031 C 
ATOM     48  C   UNL     1       1.860   6.511   1.602  1.00  0.00     0.029 A 
ATOM     49  C   UNL     1       2.098   7.313   0.416  1.00  0.00     0.049 A 
ATOM     50  H   UNL     1       3.273   6.787  -1.236  1.00  0.00     0.167 HD
ATOM     51  C   UNL     1       4.923   5.525  -4.826  1.00  0.00     0.034 A 
ATOM     52  C   UNL     1       1.668   8.565   0.131  1.00  0.00     0.034 A 
ATOM     53  C   UNL     1       6.052   6.207  -4.230  1.00  0.00     0.049 A 
ATOM     54  C   UNL     1       2.595   9.125  -0.878  1.00  0.00     0.074 A 
ATOM     55  C   UNL     1       7.213   5.817  -3.587  1.00  0.00     0.029 A 
ATOM     56  N   UNL     1       5.886   7.535  -3.917  1.00  0.00    -0.354 N 
ATOM     57  N   UNL     1       3.830   9.453  -0.619  1.00  0.00    -0.248 NA
ATOM     58  C   UNL     1       2.262   8.995  -2.285  1.00  0.00     0.031 C 
ATOM     59  C   UNL     1       7.394   6.775  -2.545  1.00  0.00     0.029 A 
ATOM     60  C   UNL     1       6.380   7.726  -2.657  1.00  0.00     0.049 A 
ATOM     61  H   UNL     1       5.484   8.223  -4.495  1.00  0.00     0.167 HD
ATOM     62  C   UNL     1       4.521   9.104  -1.770  1.00  0.00     0.074 A 
ATOM     63  C   UNL     1       3.494   8.973  -2.799  1.00  0.00     0.031 C 
ATOM     64  C   UNL     1       5.812   8.660  -1.708  1.00  0.00     0.034 A 
BRANCH  51  65
ATOM     65  C   UNL     1       4.245   6.103  -6.053  1.00  0.00     0.023 A 
ATOM     66  C   UNL     1       5.036   6.932  -6.886  1.00  0.00     0.012 A 
ATOM     67  C   UNL     1       2.851   6.126  -6.274  1.00  0.00     0.148 A 
ATOM     68  C   UNL     1       4.465   7.804  -7.818  1.00  0.00     0.002 A 
ATOM     69  C   UNL     1       2.295   6.929  -7.266  1.00  0.00     0.091 A 
ATOM     70  F   UNL     1       2.025   5.484  -5.446  1.00  0.00    -0.205 F 
ATOM     71  C   UNL     1       3.092   7.800  -8.012  1.00  0.00     0.022 A 
BRANCH  69  72
ATOM     72  S   UNL     1       0.531   6.909  -7.608  1.00  0.00     0.127 S 
ATOM     73  O   UNL     1       0.096   8.146  -6.967  1.00  0.00    -0.237 OA
ATOM     74  O   UNL     1       0.508   6.924  -9.071  1.00  0.00    -0.237 OA
ATOM     75  O   UNL     1       0.039   5.670  -7.019  1.00  0.00    -0.744 OA
ENDBRANCH  69  72
ENDBRANCH  51  65
BRANCH  52  76
ATOM     76  C   UNL     1       0.477   9.312   0.592  1.00  0.00     0.023 A 
ATOM     77  C   UNL     1       0.450  10.718   0.485  1.00  0.00     0.012 A 
ATOM     78  C   UNL     1      -0.734   8.644   0.877  1.00  0.00     0.148 A 
ATOM     79  C   UNL     1      -0.748  11.431   0.609  1.00  0.00     0.002 A 
ATOM     80  C   UNL     1      -1.922   9.358   1.008  1.00  0.00     0.091 A 
ATOM     81  F   UNL     1      -0.738   7.305   0.925  1.00  0.00    -0.205 F 
ATOM     82  C   UNL     1      -1.936  10.750   0.861  1.00  0.00     0.022 A 
BRANCH  80  83
ATOM     83  S   UNL     1      -3.492   8.536   1.317  1.00  0.00     0.127 S 
ATOM     84  O   UNL     1      -4.099   9.401   2.329  1.00  0.00    -0.237 OA
ATOM     85  O   UNL     1      -4.127   8.590   0.003  1.00  0.00    -0.237 OA
ATOM     86  O   UNL     1      -3.149   7.203   1.801  1.00  0.00    -0.744 OA
ENDBRANCH  80  83
ENDBRANCH  52  76
BRANCH  64  87
ATOM     87  C   UNL     1       6.608   8.896  -0.449  1.00  0.00     0.023 A 
ATOM     88  C   UNL     1       6.195   8.421   0.812  1.00  0.00     0.012 A 
ATOM     89  C   UNL     1       7.890   9.464  -0.570  1.00  0.00     0.148 A 
ATOM     90  C   UNL     1       7.026   8.539   1.930  1.00  0.00     0.002 A 
ATOM     91  C   UNL     1       8.736   9.527   0.530  1.00  0.00     0.091 A 
ATOM     92  F   UNL     1       8.275   9.918  -1.774  1.00  0.00    -0.205 F 
ATOM     93  C   UNL     1       8.303   9.076   1.786  1.00  0.00     0.022 A 
BRANCH  91  94
ATOM     94  S   UNL     1      10.437  10.076   0.366  1.00  0.00     0.127 S 
ATOM     95  O   UNL     1      10.358  11.460   0.827  1.00  0.00    -0.237 OA
ATOM     96  O   UNL     1      11.153   9.171   1.268  1.00  0.00    -0.237 OA
ATOM     97  O   UNL     1      10.774   9.895  -1.041  1.00  0.00    -0.744 OA
ENDBRANCH  91  94
ENDBRANCH  64  87
ENDBRANCH  38  39
ENDBRANCH  31  33
ENDBRANCH  30  31
ENDBRANCH  29  30
ENDBRANCH  28  29
ENDBRANCH  27  28
ENDBRANCH   1  27
TORSDOF 22
