REMARK SMILES O=C(CCN1C(=O)[C@@H]2[C@@H](C1=O)[C@H]1c3ccccc3[C@]2(Br)c2ccccc21)OCCOCCOC(=O)c1ccc(-c2c3nc(c(-c4cccc(S(=O)(=O)[O-])c4F)c4ccc([nH]4)c(-c4cccc(S(=O)(=O)[O-])c4F)c4nc(c(-c5cccc(S(=O)(=O)[O-])c5F)c5ccc2[nH]5)C=C4)C=C3)cc1
REMARK SMILES IDX 31 1 30 2 29 3 28 4 27 5 2 6 1 7 3 8 4 9 5 10 6 11 10 12
REMARK SMILES IDX 7 13 8 14 9 15 11 16 19 17 12 18 21 19 20 20 18 21 26 22
REMARK SMILES IDX 13 23 22 24 17 25 25 26 14 27 23 28 16 29 24 30 15 31 32 32
REMARK SMILES IDX 33 33 34 34 35 35 36 36 37 37 98 38 38 39 97 40 39 41 40 42
REMARK SMILES IDX 41 43 91 44 42 45 96 46 90 47 92 48 43 49 95 50 89 51 88 52
REMARK SMILES IDX 44 54 76 55 56 56 75 57 57 58 60 59 74 60 93 61 58 62 59 63
REMARK SMILES IDX 73 65 94 66 61 67 45 68 46 69 54 70 47 71 49 72 55 73 48 74
REMARK SMILES IDX 50 75 51 76 52 77 53 78 77 79 78 80 86 81 79 82 81 83 87 84
REMARK SMILES IDX 80 85 82 86 83 87 84 88 85 89 62 90 63 91 71 92 64 93 66 94
REMARK SMILES IDX 72 95 65 96 67 97 68 98 69 99 70 100
REMARK H PARENT 92 53 60 64
REMARK Flexibility Score: inf
ROOT
ATOM      1  C   UNL     1       2.281   2.028   2.202  1.00  0.00     0.202 C 
ENDROOT
BRANCH   1   2
ATOM      2  O   UNL     1       3.510   1.306   2.145  1.00  0.00    -0.374 OA
BRANCH   2   3
ATOM      3  C   UNL     1       4.250   1.363   0.934  1.00  0.00     0.202 C 
BRANCH   3   4
ATOM      4  C   UNL     1       3.503   0.996  -0.353  1.00  0.00     0.261 C 
BRANCH   4   5
ATOM      5  O   UNL     1       2.298   0.221  -0.230  1.00  0.00    -0.463 OA
BRANCH   5   6
ATOM      6  C   UNL     1       2.189  -1.086   0.059  1.00  0.00     0.307 C 
ATOM      7  O   UNL     1       1.149  -1.692  -0.196  1.00  0.00    -0.252 OA
BRANCH   6   8
ATOM      8  C   UNL     1       3.305  -1.773   0.786  1.00  0.00     0.144 C 
BRANCH   8   9
ATOM      9  C   UNL     1       4.091  -2.712  -0.112  1.00  0.00     0.140 C 
BRANCH   9  10
ATOM     10  N   UNL     1       5.079  -2.032  -0.936  1.00  0.00    -0.281 N 
ATOM     11  C   UNL     1       6.390  -1.779  -0.531  1.00  0.00     0.235 C 
ATOM     12  C   UNL     1       4.830  -1.569  -2.224  1.00  0.00     0.234 C 
ATOM     13  O   UNL     1       6.909  -2.128   0.513  1.00  0.00    -0.274 OA
ATOM     14  C   UNL     1       6.910  -0.789  -1.536  1.00  0.00     0.118 C 
ATOM     15  C   UNL     1       6.188  -1.312  -2.778  1.00  0.00     0.105 C 
ATOM     16  O   UNL     1       3.763  -1.479  -2.796  1.00  0.00    -0.274 OA
ATOM     17  C   UNL     1       8.337  -0.400  -1.955  1.00  0.00     0.088 C 
ATOM     18  C   UNL     1       6.638  -0.518  -4.012  1.00  0.00     0.063 C 
ATOM     19  C   UNL     1       8.059   1.000  -2.595  1.00  0.00    -0.022 A 
ATOM     20  Br  UNL     1       9.519  -0.336  -0.437  1.00  0.00    -0.074 Br
ATOM     21  C   UNL     1       8.866  -1.237  -3.165  1.00  0.00    -0.022 A 
ATOM     22  C   UNL     1       7.177   0.898  -3.724  1.00  0.00    -0.035 A 
ATOM     23  C   UNL     1       7.952  -1.260  -4.287  1.00  0.00    -0.035 A 
ATOM     24  C   UNL     1       8.694   2.209  -2.310  1.00  0.00     0.006 A 
ATOM     25  C   UNL     1      10.141  -1.746  -3.366  1.00  0.00     0.006 A 
ATOM     26  C   UNL     1       7.167   1.919  -4.669  1.00  0.00     0.005 A 
ATOM     27  C   UNL     1       8.279  -1.790  -5.524  1.00  0.00     0.005 A 
ATOM     28  C   UNL     1       8.579   3.264  -3.217  1.00  0.00     0.000 A 
ATOM     29  C   UNL     1      10.476  -2.274  -4.624  1.00  0.00     0.000 A 
ATOM     30  C   UNL     1       7.877   3.098  -4.416  1.00  0.00     0.000 A 
ATOM     31  C   UNL     1       9.558  -2.300  -5.686  1.00  0.00     0.000 A 
ENDBRANCH   9  10
ENDBRANCH   8   9
ENDBRANCH   6   8
ENDBRANCH   5   6
ENDBRANCH   4   5
ENDBRANCH   3   4
ENDBRANCH   2   3
ENDBRANCH   1   2
BRANCH   1  32
ATOM     32  C   UNL     1       2.381   3.540   1.985  1.00  0.00     0.261 C 
BRANCH  32  33
ATOM     33  O   UNL     1       2.581   3.848   0.592  1.00  0.00    -0.460 OA
BRANCH  33  34
ATOM     34  C   UNL     1       3.549   4.760   0.317  1.00  0.00     0.338 C 
ATOM     35  O   UNL     1       4.257   5.347   1.105  1.00  0.00    -0.246 OA
BRANCH  34  36
ATOM     36  C   UNL     1       3.709   4.823  -1.148  1.00  0.00     0.060 A 
ATOM     37  C   UNL     1       2.937   5.683  -1.931  1.00  0.00     0.016 A 
ATOM     38  C   UNL     1       4.686   4.030  -1.739  1.00  0.00     0.016 A 
ATOM     39  C   UNL     1       3.158   5.751  -3.319  1.00  0.00     0.010 A 
ATOM     40  C   UNL     1       4.866   4.085  -3.118  1.00  0.00     0.010 A 
ATOM     41  C   UNL     1       4.143   4.958  -3.933  1.00  0.00    -0.014 A 
BRANCH  41  42
ATOM     42  C   UNL     1       4.581   5.172  -5.347  1.00  0.00     0.031 A 
ATOM     43  C   UNL     1       4.462   4.126  -6.430  1.00  0.00     0.074 A 
ATOM     44  C   UNL     1       5.266   6.298  -5.635  1.00  0.00     0.049 A 
ATOM     45  N   UNL     1       4.792   4.219  -7.697  1.00  0.00    -0.248 NA
ATOM     46  C   UNL     1       3.962   2.799  -6.044  1.00  0.00     0.031 C 
ATOM     47  C   UNL     1       5.651   7.320  -4.660  1.00  0.00     0.029 A 
ATOM     48  N   UNL     1       5.772   6.767  -6.824  1.00  0.00    -0.354 N 
ATOM     49  C   UNL     1       4.565   2.966  -8.257  1.00  0.00     0.074 A 
ATOM     50  C   UNL     1       4.103   2.116  -7.176  1.00  0.00     0.031 C 
ATOM     51  C   UNL     1       6.285   8.316  -5.296  1.00  0.00     0.029 A 
ATOM     52  C   UNL     1       6.350   8.010  -6.723  1.00  0.00     0.049 A 
ATOM     53  H   UNL     1       5.726   6.260  -7.667  1.00  0.00     0.167 HD
ATOM     54  C   UNL     1       4.690   2.570  -9.550  1.00  0.00     0.034 A 
ATOM     55  C   UNL     1       6.835   8.842  -7.665  1.00  0.00     0.034 A 
ATOM     56  C   UNL     1       5.070   3.432 -10.644  1.00  0.00     0.049 A 
ATOM     57  C   UNL     1       6.787   8.457  -9.114  1.00  0.00     0.074 A 
ATOM     58  C   UNL     1       5.066   3.147 -12.002  1.00  0.00     0.029 A 
ATOM     59  N   UNL     1       5.507   4.739 -10.520  1.00  0.00    -0.354 N 
ATOM     60  N   UNL     1       6.376   7.337  -9.651  1.00  0.00    -0.248 NA
ATOM     61  C   UNL     1       7.226   9.467 -10.090  1.00  0.00     0.031 C 
ATOM     62  C   UNL     1       5.490   4.284 -12.697  1.00  0.00     0.029 A 
ATOM     63  C   UNL     1       5.754   5.279 -11.773  1.00  0.00     0.049 A 
ATOM     64  H   UNL     1       5.626   5.216  -9.667  1.00  0.00     0.167 HD
ATOM     65  C   UNL     1       6.485   7.513 -11.026  1.00  0.00     0.074 A 
ATOM     66  C   UNL     1       6.983   8.854 -11.242  1.00  0.00     0.031 C 
ATOM     67  C   UNL     1       6.205   6.626 -12.011  1.00  0.00     0.034 A 
BRANCH  54  68
ATOM     68  C   UNL     1       4.282   1.161  -9.910  1.00  0.00     0.023 A 
ATOM     69  C   UNL     1       2.909   0.845  -9.933  1.00  0.00     0.012 A 
ATOM     70  C   UNL     1       5.216   0.210 -10.371  1.00  0.00     0.148 A 
ATOM     71  C   UNL     1       2.470  -0.397 -10.387  1.00  0.00     0.002 A 
ATOM     72  C   UNL     1       4.767  -1.016 -10.857  1.00  0.00     0.091 A 
ATOM     73  F   UNL     1       6.519   0.526 -10.343  1.00  0.00    -0.205 F 
ATOM     74  C   UNL     1       3.396  -1.321 -10.860  1.00  0.00     0.022 A 
BRANCH  72  75
ATOM     75  S   UNL     1       5.867  -2.256 -11.554  1.00  0.00     0.127 S 
ATOM     76  O   UNL     1       5.782  -3.318 -10.551  1.00  0.00    -0.237 OA
ATOM     77  O   UNL     1       5.216  -2.566 -12.827  1.00  0.00    -0.237 OA
ATOM     78  O   UNL     1       7.170  -1.619 -11.672  1.00  0.00    -0.744 OA
ENDBRANCH  72  75
ENDBRANCH  54  68
BRANCH  55  79
ATOM     79  C   UNL     1       7.253  10.207  -7.256  1.00  0.00     0.023 A 
ATOM     80  C   UNL     1       6.342  11.267  -7.431  1.00  0.00     0.012 A 
ATOM     81  C   UNL     1       8.484  10.444  -6.619  1.00  0.00     0.148 A 
ATOM     82  C   UNL     1       6.654  12.549  -6.984  1.00  0.00     0.002 A 
ATOM     83  C   UNL     1       8.775  11.717  -6.147  1.00  0.00     0.091 A 
ATOM     84  F   UNL     1       9.320   9.409  -6.454  1.00  0.00    -0.205 F 
ATOM     85  C   UNL     1       7.865  12.772  -6.336  1.00  0.00     0.022 A 
BRANCH  83  86
ATOM     86  S   UNL     1      10.265  12.093  -5.220  1.00  0.00     0.127 S 
ATOM     87  O   UNL     1      10.874  13.136  -6.044  1.00  0.00    -0.237 OA
ATOM     88  O   UNL     1       9.711  12.557  -3.948  1.00  0.00    -0.237 OA
ATOM     89  O   UNL     1      11.012  10.846  -5.146  1.00  0.00    -0.744 OA
ENDBRANCH  83  86
ENDBRANCH  55  79
BRANCH  67  90
ATOM     90  C   UNL     1       6.413   7.058 -13.440  1.00  0.00     0.023 A 
ATOM     91  C   UNL     1       7.720   7.115 -13.964  1.00  0.00     0.012 A 
ATOM     92  C   UNL     1       5.317   7.315 -14.287  1.00  0.00     0.148 A 
ATOM     93  C   UNL     1       7.933   7.434 -15.305  1.00  0.00     0.002 A 
ATOM     94  C   UNL     1       5.535   7.603 -15.631  1.00  0.00     0.091 A 
ATOM     95  F   UNL     1       4.083   7.267 -13.765  1.00  0.00    -0.205 F 
ATOM     96  C   UNL     1       6.843   7.667 -16.140  1.00  0.00     0.022 A 
BRANCH  94  97
ATOM     97  S   UNL     1       4.197   7.860 -16.802  1.00  0.00     0.127 S 
ATOM     98  O   UNL     1       4.361   9.274 -17.136  1.00  0.00    -0.237 OA
ATOM     99  O   UNL     1       4.546   6.934 -17.879  1.00  0.00    -0.237 OA
ATOM    100  O   UNL     1       2.968   7.532 -16.091  1.00  0.00    -0.744 OA
ENDBRANCH  94  97
ENDBRANCH  67  90
ENDBRANCH  41  42
ENDBRANCH  34  36
ENDBRANCH  33  34
ENDBRANCH  32  33
ENDBRANCH   1  32
TORSDOF 19
