REMARK SMILES C[C@@H]1C(C(=O)OCCOCCOC(=O)c2ccc(-c3c4nc(c(-c5cccc(S(=O)(=O)[O-])c5F)c5ccc([nH]5)c(-c5cccc(S(=O)(=O)[O-])c5F)c5nc(c(-c6cccc(S(=O)(=O)[O-])c6F)c6ccc3[nH]6)C=C5)C=C4)cc2)=NC2=C1C(=O)C[C@H](c1ccccc1)C2
REMARK SMILES IDX 10 1 9 2 8 3 7 4 6 5 4 6 5 7 3 8 1 9 2 10 80 11 78 12 79 13
REMARK SMILES IDX 81 14 91 15 82 16 83 17 84 18 85 19 86 20 90 21 87 22 89 23
REMARK SMILES IDX 88 24 11 25 12 26 13 27 14 28 15 29 16 30 77 31 17 32 76 33
REMARK SMILES IDX 18 34 19 35 20 36 70 37 21 38 75 39 69 40 71 41 22 42 74 43
REMARK SMILES IDX 68 44 67 45 23 47 55 48 35 49 54 50 36 51 39 52 53 53 72 54
REMARK SMILES IDX 37 55 38 56 52 58 73 59 40 60 24 61 25 62 33 63 26 64 28 65
REMARK SMILES IDX 34 66 27 67 29 68 30 69 31 70 32 71 56 72 57 73 65 74 58 75
REMARK SMILES IDX 60 76 66 77 59 78 61 79 62 80 63 81 64 82 41 83 42 84 50 85
REMARK SMILES IDX 43 86 45 87 51 88 44 89 46 90 47 91 48 92 49 93
REMARK H PARENT 71 46 39 57
REMARK Flexibility Score: inf
ROOT
ATOM      1  C   UNL     1       3.787   0.564  -2.650  1.00  0.00     0.202 C 
ENDROOT
BRANCH   1   2
ATOM      2  O   UNL     1       4.854   1.101  -1.872  1.00  0.00    -0.374 OA
BRANCH   2   3
ATOM      3  C   UNL     1       5.001   0.495  -0.589  1.00  0.00     0.202 C 
BRANCH   3   4
ATOM      4  C   UNL     1       4.045   1.100   0.447  1.00  0.00     0.261 C 
BRANCH   4   5
ATOM      5  O   UNL     1       2.668   0.916   0.042  1.00  0.00    -0.459 OA
BRANCH   5   6
ATOM      6  C   UNL     1       1.968   2.026  -0.297  1.00  0.00     0.353 C 
ATOM      7  O   UNL     1       2.260   3.180  -0.048  1.00  0.00    -0.245 OA
BRANCH   6   8
ATOM      8  C   UNL     1       0.828   1.641  -1.245  1.00  0.00     0.133 C 
ATOM      9  C   UNL     1      -0.991   0.295  -0.236  1.00  0.00     0.020 C 
ATOM     10  C   UNL     1       0.211   0.258  -1.183  1.00  0.00     0.078 C 
ATOM     11  C   UNL     1      -0.216   0.318  -2.604  1.00  0.00     0.026 C 
ATOM     12  N   UNL     1       0.366   2.435  -2.184  1.00  0.00    -0.249 NA
ATOM     13  C   UNL     1      -0.300   1.576  -3.029  1.00  0.00     0.049 C 
ATOM     14  C   UNL     1      -0.142  -0.746  -3.607  1.00  0.00     0.161 C 
ATOM     15  C   UNL     1      -0.667   1.885  -4.448  1.00  0.00     0.065 C 
ATOM     16  O   UNL     1      -0.321  -1.906  -3.251  1.00  0.00    -0.294 OA
ATOM     17  C   UNL     1       0.277  -0.370  -5.042  1.00  0.00     0.089 C 
ATOM     18  C   UNL     1       0.321   1.163  -5.386  1.00  0.00     0.033 C 
BRANCH  18  19
ATOM     19  C   UNL     1       1.706   1.841  -5.426  1.00  0.00    -0.044 A 
ATOM     20  C   UNL     1       1.939   3.098  -4.828  1.00  0.00     0.004 A 
ATOM     21  C   UNL     1       2.796   1.255  -6.086  1.00  0.00     0.004 A 
ATOM     22  C   UNL     1       3.216   3.653  -4.724  1.00  0.00     0.000 A 
ATOM     23  C   UNL     1       4.083   1.818  -5.995  1.00  0.00     0.000 A 
ATOM     24  C   UNL     1       4.299   2.991  -5.278  1.00  0.00     0.000 A 
ENDBRANCH  18  19
ENDBRANCH   6   8
ENDBRANCH   5   6
ENDBRANCH   4   5
ENDBRANCH   3   4
ENDBRANCH   2   3
ENDBRANCH   1   2
BRANCH   1  25
ATOM     25  C   UNL     1       4.274  -0.393  -3.714  1.00  0.00     0.261 C 
BRANCH  25  26
ATOM     26  O   UNL     1       4.339  -1.672  -3.125  1.00  0.00    -0.460 OA
BRANCH  26  27
ATOM     27  C   UNL     1       5.470  -2.082  -2.537  1.00  0.00     0.338 C 
ATOM     28  O   UNL     1       6.553  -1.519  -2.474  1.00  0.00    -0.246 OA
BRANCH  27  29
ATOM     29  C   UNL     1       5.148  -3.461  -2.172  1.00  0.00     0.060 A 
ATOM     30  C   UNL     1       6.143  -4.386  -2.457  1.00  0.00     0.016 A 
ATOM     31  C   UNL     1       3.784  -3.807  -2.059  1.00  0.00     0.016 A 
ATOM     32  C   UNL     1       5.735  -5.614  -2.913  1.00  0.00     0.010 A 
ATOM     33  C   UNL     1       3.379  -5.000  -2.588  1.00  0.00     0.010 A 
ATOM     34  C   UNL     1       4.362  -5.857  -3.067  1.00  0.00    -0.014 A 
BRANCH  34  35
ATOM     35  C   UNL     1       3.970  -7.171  -3.505  1.00  0.00     0.031 A 
ATOM     36  C   UNL     1       4.100  -8.123  -2.384  1.00  0.00     0.074 A 
ATOM     37  C   UNL     1       3.484  -7.443  -4.726  1.00  0.00     0.049 A 
ATOM     38  N   UNL     1       5.077  -8.942  -2.175  1.00  0.00    -0.248 NA
ATOM     39  C   UNL     1       3.225  -7.918  -1.216  1.00  0.00     0.031 C 
ATOM     40  C   UNL     1       3.034  -6.511  -5.760  1.00  0.00     0.029 A 
ATOM     41  N   UNL     1       3.166  -8.655  -5.241  1.00  0.00    -0.354 N 
ATOM     42  C   UNL     1       4.761  -9.550  -0.968  1.00  0.00     0.074 A 
ATOM     43  C   UNL     1       3.839  -8.673  -0.306  1.00  0.00     0.031 C 
ATOM     44  C   UNL     1       2.276  -7.188  -6.656  1.00  0.00     0.029 A 
ATOM     45  C   UNL     1       2.296  -8.603  -6.321  1.00  0.00     0.049 A 
ATOM     46  H   UNL     1       3.521  -9.500  -4.881  1.00  0.00     0.167 HD
ATOM     47  C   UNL     1       4.981 -10.880  -0.793  1.00  0.00     0.034 A 
ATOM     48  C   UNL     1       1.577  -9.648  -6.805  1.00  0.00     0.034 A 
ATOM     49  C   UNL     1       5.916 -11.379  -1.776  1.00  0.00     0.049 A 
ATOM     50  C   UNL     1       2.216 -10.891  -6.301  1.00  0.00     0.074 A 
ATOM     51  C   UNL     1       7.208 -11.056  -2.143  1.00  0.00     0.029 A 
ATOM     52  N   UNL     1       5.380 -12.077  -2.832  1.00  0.00    -0.354 N 
ATOM     53  N   UNL     1       3.406 -11.285  -6.659  1.00  0.00    -0.248 NA
ATOM     54  C   UNL     1       1.725 -11.450  -5.050  1.00  0.00     0.031 C 
ATOM     55  C   UNL     1       7.231 -11.183  -3.564  1.00  0.00     0.029 A 
ATOM     56  C   UNL     1       5.981 -11.645  -3.983  1.00  0.00     0.049 A 
ATOM     57  H   UNL     1       4.683 -12.769  -2.771  1.00  0.00     0.167 HD
ATOM     58  C   UNL     1       3.986 -11.747  -5.484  1.00  0.00     0.074 A 
ATOM     59  C   UNL     1       2.871 -11.928  -4.556  1.00  0.00     0.031 C 
ATOM     60  C   UNL     1       5.333 -11.645  -5.278  1.00  0.00     0.034 A 
BRANCH  47  61
ATOM     61  C   UNL     1       4.030 -11.802  -0.056  1.00  0.00     0.023 A 
ATOM     62  C   UNL     1       4.439 -13.145   0.085  1.00  0.00     0.012 A 
ATOM     63  C   UNL     1       2.676 -11.517   0.249  1.00  0.00     0.148 A 
ATOM     64  C   UNL     1       3.535 -14.155   0.429  1.00  0.00     0.002 A 
ATOM     65  C   UNL     1       1.800 -12.510   0.665  1.00  0.00     0.091 A 
ATOM     66  F   UNL     1       2.161 -10.310   0.023  1.00  0.00    -0.205 F 
ATOM     67  C   UNL     1       2.215 -13.839   0.721  1.00  0.00     0.022 A 
BRANCH  65  68
ATOM     68  S   UNL     1       0.091 -12.136   1.089  1.00  0.00     0.127 S 
ATOM     69  O   UNL     1      -0.622 -12.717  -0.044  1.00  0.00    -0.237 OA
ATOM     70  O   UNL     1      -0.062 -12.851   2.356  1.00  0.00    -0.237 OA
ATOM     71  O   UNL     1       0.019 -10.685   1.213  1.00  0.00    -0.744 OA
ENDBRANCH  65  68
ENDBRANCH  47  61
BRANCH  48  72
ATOM     72  C   UNL     1       0.218  -9.664  -7.397  1.00  0.00     0.023 A 
ATOM     73  C   UNL     1      -0.203 -10.784  -8.143  1.00  0.00     0.012 A 
ATOM     74  C   UNL     1      -0.760  -8.726  -6.999  1.00  0.00     0.148 A 
ATOM     75  C   UNL     1      -1.555 -10.981  -8.452  1.00  0.00     0.002 A 
ATOM     76  C   UNL     1      -2.102  -8.921  -7.315  1.00  0.00     0.091 A 
ATOM     77  F   UNL     1      -0.391  -7.695  -6.228  1.00  0.00    -0.205 F 
ATOM     78  C   UNL     1      -2.505 -10.054  -8.031  1.00  0.00     0.022 A 
BRANCH  76  79
ATOM     79  S   UNL     1      -3.387  -7.780  -6.786  1.00  0.00     0.127 S 
ATOM     80  O   UNL     1      -4.122  -7.554  -8.031  1.00  0.00    -0.237 OA
ATOM     81  O   UNL     1      -4.102  -8.572  -5.789  1.00  0.00    -0.237 OA
ATOM     82  O   UNL     1      -2.692  -6.603  -6.281  1.00  0.00    -0.744 OA
ENDBRANCH  76  79
ENDBRANCH  48  72
BRANCH  60  83
ATOM     83  C   UNL     1       6.200 -11.274  -6.456  1.00  0.00     0.023 A 
ATOM     84  C   UNL     1       6.108 -10.028  -7.113  1.00  0.00     0.012 A 
ATOM     85  C   UNL     1       7.249 -12.143  -6.796  1.00  0.00     0.148 A 
ATOM     86  C   UNL     1       7.030  -9.670  -8.101  1.00  0.00     0.002 A 
ATOM     87  C   UNL     1       8.192 -11.764  -7.742  1.00  0.00     0.091 A 
ATOM     88  F   UNL     1       7.324 -13.323  -6.160  1.00  0.00    -0.205 F 
ATOM     89  C   UNL     1       8.081 -10.532  -8.405  1.00  0.00     0.022 A 
BRANCH  87  90
ATOM     90  S   UNL     1       9.634 -12.776  -8.080  1.00  0.00     0.127 S 
ATOM     91  O   UNL     1       9.301 -13.358  -9.378  1.00  0.00    -0.237 OA
ATOM     92  O   UNL     1      10.712 -11.786  -8.110  1.00  0.00    -0.237 OA
ATOM     93  O   UNL     1       9.728 -13.721  -6.973  1.00  0.00    -0.744 OA
ENDBRANCH  87  90
ENDBRANCH  60  83
ENDBRANCH  34  35
ENDBRANCH  27  29
ENDBRANCH  26  27
ENDBRANCH  25  26
ENDBRANCH   1  25
TORSDOF 18
