REMARK SMILES CC(C)C[C@H](NC(=O)[C@@H](NC(=O)[C@H](C)NC(=O)CNC(=O)OCc1ccccc1)C(C)C)C(=O)OCCOCCOC(=O)c1ccc(-c2c3nc(c(-c4cccc(S(=O)(=O)[O-])c4F)c4ccc([nH]4)c(-c4cccc(S(=O)(=O)[O-])c4F)c4nc(c(-c5cccc(S(=O)(=O)[O-])c5F)c5ccc2[nH]5)C=C4)C=C3)cc1
REMARK SMILES IDX 33 1 34 2 5 3 4 4 2 5 1 6 3 7 6 8 7 9 8 11 9 12 10 13 11 14
REMARK SMILES IDX 12 16 13 17 14 18 15 19 16 20 17 22 18 23 19 24 20 25 21 27
REMARK SMILES IDX 22 28 23 29 24 30 25 31 29 32 26 33 28 34 27 35 30 36 31 37
REMARK SMILES IDX 32 38 35 39 36 40 37 41 38 42 39 43 40 44 41 45 42 46 43 47
REMARK SMILES IDX 44 48 45 49 106 50 46 51 105 52 47 53 48 54 49 55 99 56
REMARK SMILES IDX 50 57 104 58 98 59 100 60 51 61 103 62 97 63 96 64 52 66
REMARK SMILES IDX 84 67 64 68 83 69 65 70 68 71 82 72 101 73 66 74 67 75 81 77
REMARK SMILES IDX 102 78 69 79 53 80 54 81 62 82 55 83 57 84 63 85 56 86 58 87
REMARK SMILES IDX 59 88 60 89 61 90 85 91 86 92 94 93 87 94 89 95 95 96 88 97
REMARK SMILES IDX 90 98 91 99 92 100 93 101 70 102 71 103 79 104 72 105 74 106
REMARK SMILES IDX 80 107 73 108 75 109 76 110 77 111 78 112
REMARK H PARENT 6 10 10 15 15 21 19 26 100 65 68 76
REMARK Flexibility Score: inf
ROOT
ATOM      1  C   UNL     1      -3.593   2.461  -2.337  1.00  0.00     0.328 C 
ATOM      2  O   UNL     1      -3.765   1.808  -3.359  1.00  0.00    -0.250 OA
ENDROOT
BRANCH   1   3
ATOM      3  C   UNL     1      -4.194   3.873  -2.201  1.00  0.00     0.192 C 
BRANCH   3   4
ATOM      4  C   UNL     1      -3.406   4.734  -3.215  1.00  0.00     0.040 C 
BRANCH   4   5
ATOM      5  C   UNL     1      -4.310   5.246  -4.349  1.00  0.00    -0.015 C 
ATOM      6  C   UNL     1      -4.984   6.551  -3.930  1.00  0.00     0.007 C 
ATOM      7  C   UNL     1      -3.502   5.438  -5.631  1.00  0.00     0.007 C 
ENDBRANCH   4   5
ENDBRANCH   3   4
BRANCH   3   8
ATOM      8  N   UNL     1      -4.191   4.506  -0.883  1.00  0.00    -0.341 N 
ATOM      9  C   UNL     1      -5.117   4.839   0.048  1.00  0.00     0.243 C 
ATOM     10  H   UNL     1      -3.281   4.755  -0.599  1.00  0.00     0.164 HD
ATOM     11  O   UNL     1      -4.628   5.425   1.024  1.00  0.00    -0.273 OA
BRANCH   9  12
ATOM     12  C   UNL     1      -6.665   4.527   0.049  1.00  0.00     0.174 C 
BRANCH  12  13
ATOM     13  N   UNL     1      -7.318   4.280  -1.269  1.00  0.00    -0.342 N 
ATOM     14  C   UNL     1      -7.826   3.357  -2.112  1.00  0.00     0.242 C 
ATOM     15  H   UNL     1      -7.421   5.156  -1.707  1.00  0.00     0.164 HD
ATOM     16  O   UNL     1      -8.252   3.876  -3.161  1.00  0.00    -0.273 OA
BRANCH  14  17
ATOM     17  C   UNL     1      -7.832   1.799  -2.054  1.00  0.00     0.168 C 
ATOM     18  C   UNL     1      -8.099   1.130  -0.728  1.00  0.00     0.041 C 
BRANCH  17  19
ATOM     19  N   UNL     1      -6.684   1.267  -2.797  1.00  0.00    -0.343 N 
ATOM     20  C   UNL     1      -6.623   0.350  -3.802  1.00  0.00     0.240 C 
ATOM     21  H   UNL     1      -5.813   1.635  -2.523  1.00  0.00     0.164 HD
ATOM     22  O   UNL     1      -5.821   0.578  -4.716  1.00  0.00    -0.273 OA
BRANCH  20  23
ATOM     23  C   UNL     1      -7.532  -0.864  -3.952  1.00  0.00     0.219 C 
BRANCH  23  24
ATOM     24  N   UNL     1      -8.180  -1.408  -2.786  1.00  0.00    -0.312 N 
ATOM     25  C   UNL     1      -9.465  -1.161  -2.424  1.00  0.00     0.407 C 
ATOM     26  H   UNL     1      -7.651  -2.004  -2.208  1.00  0.00     0.167 HD
ATOM     27  O   UNL     1      -9.944  -1.616  -1.395  1.00  0.00    -0.225 OA
BRANCH  25  28
ATOM     28  O   UNL     1     -10.070  -0.292  -3.268  1.00  0.00    -0.445 OA
BRANCH  28  29
ATOM     29  C   UNL     1     -11.357   0.176  -2.858  1.00  0.00     0.270 C 
BRANCH  29  30
ATOM     30  C   UNL     1     -12.380  -0.905  -3.044  1.00  0.00    -0.011 A 
ATOM     31  C   UNL     1     -12.428  -1.634  -4.241  1.00  0.00     0.007 A 
ATOM     32  C   UNL     1     -13.238  -1.247  -1.993  1.00  0.00     0.007 A 
ATOM     33  C   UNL     1     -13.290  -2.719  -4.366  1.00  0.00     0.000 A 
ATOM     34  C   UNL     1     -14.106  -2.328  -2.124  1.00  0.00     0.000 A 
ATOM     35  C   UNL     1     -14.124  -3.068  -3.306  1.00  0.00     0.000 A 
ENDBRANCH  29  30
ENDBRANCH  28  29
ENDBRANCH  25  28
ENDBRANCH  23  24
ENDBRANCH  20  23
ENDBRANCH  17  19
ENDBRANCH  14  17
ENDBRANCH  12  13
BRANCH  12  36
ATOM     36  C   UNL     1      -7.207   3.701   1.263  1.00  0.00     0.015 C 
ATOM     37  C   UNL     1      -6.723   4.071   2.683  1.00  0.00     0.010 C 
ATOM     38  C   UNL     1      -8.743   3.683   1.329  1.00  0.00     0.010 C 
ENDBRANCH  12  36
ENDBRANCH   9  12
ENDBRANCH   3   8
ENDBRANCH   1   3
BRANCH   1  39
ATOM     39  O   UNL     1      -2.833   2.055  -1.296  1.00  0.00    -0.462 OA
BRANCH  39  40
ATOM     40  C   UNL     1      -2.320   0.713  -1.393  1.00  0.00     0.261 C 
BRANCH  40  41
ATOM     41  C   UNL     1      -2.788  -0.173  -0.240  1.00  0.00     0.202 C 
BRANCH  41  42
ATOM     42  O   UNL     1      -4.184  -0.187   0.011  1.00  0.00    -0.374 OA
BRANCH  42  43
ATOM     43  C   UNL     1      -4.820   0.949   0.582  1.00  0.00     0.202 C 
BRANCH  43  44
ATOM     44  C   UNL     1      -4.067   2.030   1.341  1.00  0.00     0.261 C 
BRANCH  44  45
ATOM     45  O   UNL     1      -2.986   1.555   2.079  1.00  0.00    -0.460 OA
BRANCH  45  46
ATOM     46  C   UNL     1      -3.212   1.088   3.319  1.00  0.00     0.338 C 
ATOM     47  O   UNL     1      -4.237   0.894   3.909  1.00  0.00    -0.246 OA
BRANCH  46  48
ATOM     48  C   UNL     1      -1.813   0.907   3.698  1.00  0.00     0.060 A 
ATOM     49  C   UNL     1      -1.223  -0.332   3.431  1.00  0.00     0.016 A 
ATOM     50  C   UNL     1      -1.067   2.083   3.855  1.00  0.00     0.016 A 
ATOM     51  C   UNL     1       0.157  -0.402   3.341  1.00  0.00     0.010 A 
ATOM     52  C   UNL     1       0.303   2.017   3.723  1.00  0.00     0.010 A 
ATOM     53  C   UNL     1       0.910   0.769   3.501  1.00  0.00    -0.014 A 
BRANCH  53  54
ATOM     54  C   UNL     1       2.358   0.693   3.717  1.00  0.00     0.031 A 
ATOM     55  C   UNL     1       2.802   0.763   5.144  1.00  0.00     0.074 A 
ATOM     56  C   UNL     1       3.209   0.699   2.682  1.00  0.00     0.049 A 
ATOM     57  N   UNL     1       4.001   0.888   5.631  1.00  0.00    -0.248 NA
ATOM     58  C   UNL     1       1.731   0.743   6.162  1.00  0.00     0.031 C 
ATOM     59  C   UNL     1       2.828   0.698   1.269  1.00  0.00     0.029 A 
ATOM     60  N   UNL     1       4.575   0.764   2.667  1.00  0.00    -0.354 N 
ATOM     61  C   UNL     1       3.825   1.017   7.002  1.00  0.00     0.074 A 
ATOM     62  C   UNL     1       2.408   0.984   7.270  1.00  0.00     0.031 C 
ATOM     63  C   UNL     1       3.940   0.806   0.520  1.00  0.00     0.029 A 
ATOM     64  C   UNL     1       5.099   0.903   1.405  1.00  0.00     0.049 A 
ATOM     65  H   UNL     1       5.128   0.717   3.480  1.00  0.00     0.167 HD
ATOM     66  C   UNL     1       4.773   1.134   7.955  1.00  0.00     0.034 A 
ATOM     67  C   UNL     1       6.375   1.111   1.028  1.00  0.00     0.034 A 
ATOM     68  C   UNL     1       6.172   1.137   7.651  1.00  0.00     0.049 A 
ATOM     69  C   UNL     1       7.427   1.164   2.104  1.00  0.00     0.074 A 
ATOM     70  C   UNL     1       7.245   1.160   8.517  1.00  0.00     0.029 A 
ATOM     71  N   UNL     1       6.685   1.125   6.360  1.00  0.00    -0.354 N 
ATOM     72  N   UNL     1       7.271   1.122   3.408  1.00  0.00    -0.248 NA
ATOM     73  C   UNL     1       8.826   1.248   1.670  1.00  0.00     0.031 C 
ATOM     74  C   UNL     1       8.412   1.178   7.746  1.00  0.00     0.029 A 
ATOM     75  C   UNL     1       8.064   1.142   6.402  1.00  0.00     0.049 A 
ATOM     76  H   UNL     1       6.145   1.107   5.537  1.00  0.00     0.167 HD
ATOM     77  C   UNL     1       8.550   1.141   3.951  1.00  0.00     0.074 A 
ATOM     78  C   UNL     1       9.470   1.188   2.830  1.00  0.00     0.031 C 
ATOM     79  C   UNL     1       8.935   1.131   5.252  1.00  0.00     0.034 A 
BRANCH  66  80
ATOM     80  C   UNL     1       4.302   1.242   9.378  1.00  0.00     0.023 A 
ATOM     81  C   UNL     1       3.693   0.132  10.001  1.00  0.00     0.012 A 
ATOM     82  C   UNL     1       4.419   2.452  10.086  1.00  0.00     0.148 A 
ATOM     83  C   UNL     1       3.161   0.239  11.285  1.00  0.00     0.002 A 
ATOM     84  C   UNL     1       3.931   2.536  11.385  1.00  0.00     0.091 A 
ATOM     85  F   UNL     1       4.960   3.510   9.466  1.00  0.00    -0.205 F 
ATOM     86  C   UNL     1       3.289   1.438  11.980  1.00  0.00     0.022 A 
BRANCH  84  87
ATOM     87  S   UNL     1       4.115   4.018  12.383  1.00  0.00     0.127 S 
ATOM     88  O   UNL     1       2.766   4.578  12.333  1.00  0.00    -0.237 OA
ATOM     89  O   UNL     1       4.499   3.468  13.684  1.00  0.00    -0.237 OA
ATOM     90  O   UNL     1       5.152   4.807  11.733  1.00  0.00    -0.744 OA
ENDBRANCH  84  87
ENDBRANCH  66  80
BRANCH  67  91
ATOM     91  C   UNL     1       6.706   1.219  -0.420  1.00  0.00     0.023 A 
ATOM     92  C   UNL     1       7.354   0.148  -1.065  1.00  0.00     0.012 A 
ATOM     93  C   UNL     1       6.301   2.334  -1.180  1.00  0.00     0.148 A 
ATOM     94  C   UNL     1       7.606   0.192  -2.438  1.00  0.00     0.002 A 
ATOM     95  C   UNL     1       6.510   2.350  -2.555  1.00  0.00     0.091 A 
ATOM     96  F   UNL     1       5.690   3.345  -0.546  1.00  0.00    -0.205 F 
ATOM     97  C   UNL     1       7.174   1.286  -3.184  1.00  0.00     0.022 A 
BRANCH  95  98
ATOM     98  S   UNL     1       5.868   3.650  -3.617  1.00  0.00     0.127 S 
ATOM     99  O   UNL     1       7.094   4.310  -4.058  1.00  0.00    -0.237 OA
ATOM    100  O   UNL     1       5.177   2.879  -4.651  1.00  0.00    -0.237 OA
ATOM    101  O   UNL     1       4.988   4.449  -2.776  1.00  0.00    -0.744 OA
ENDBRANCH  95  98
ENDBRANCH  67  91
BRANCH  79 102
ATOM    102  C   UNL     1      10.409   1.131   5.541  1.00  0.00     0.023 A 
ATOM    103  C   UNL     1      11.143   2.325   5.424  1.00  0.00     0.012 A 
ATOM    104  C   UNL     1      11.024  -0.022   6.067  1.00  0.00     0.148 A 
ATOM    105  C   UNL     1      12.479   2.369   5.815  1.00  0.00     0.002 A 
ATOM    106  C   UNL     1      12.341   0.043   6.500  1.00  0.00     0.091 A 
ATOM    107  F   UNL     1      10.304  -1.149   6.152  1.00  0.00    -0.205 F 
ATOM    108  C   UNL     1      13.072   1.235   6.367  1.00  0.00     0.022 A 
BRANCH 106 109
ATOM    109  S   UNL     1      13.147  -1.334   7.322  1.00  0.00     0.127 S 
ATOM    110  O   UNL     1      14.083  -1.787   6.294  1.00  0.00    -0.237 OA
ATOM    111  O   UNL     1      13.773  -0.685   8.474  1.00  0.00    -0.237 OA
ATOM    112  O   UNL     1      12.088  -2.275   7.662  1.00  0.00    -0.744 OA
ENDBRANCH 106 109
ENDBRANCH  79 102
ENDBRANCH  53  54
ENDBRANCH  46  48
ENDBRANCH  45  46
ENDBRANCH  44  45
ENDBRANCH  43  44
ENDBRANCH  42  43
ENDBRANCH  41  42
ENDBRANCH  40  41
ENDBRANCH  39  40
ENDBRANCH   1  39
TORSDOF 30
