REMARK SMILES Cc1cc(C(=O)OCCOCCOC(=O)c2ccc(-c3c4nc(c(-c5cccc(S(=O)(=O)[O-])c5F)c5ccc([nH]5)c(-c5cccc(S(=O)(=O)[O-])c5F)c5nc(c(-c6cccc(S(=O)(=O)[O-])c6F)c6ccc3[nH]6)C=C5)C=C4)cc2)ccc1NC(=O)c1ccc(=O)n(CCOc2ccccc2)n1
REMARK SMILES IDX 8 1 7 2 5 3 6 4 4 5 1 6 2 7 3 8 81 9 80 10 79 11 82 12 83 13
REMARK SMILES IDX 84 15 85 16 86 17 100 18 87 19 90 20 88 21 89 22 91 23 92 24
REMARK SMILES IDX 93 25 94 26 95 27 99 28 96 29 98 30 97 31 9 32 10 33 11 34
REMARK SMILES IDX 12 35 13 36 14 37 15 38 16 39 17 40 78 41 18 42 77 43 19 44
REMARK SMILES IDX 20 45 21 46 71 47 22 48 76 49 70 50 72 51 23 52 75 53 69 54
REMARK SMILES IDX 68 55 24 57 56 58 36 59 55 60 37 61 40 62 54 63 73 64 38 65
REMARK SMILES IDX 39 66 53 68 74 69 41 70 25 71 26 72 34 73 27 74 29 75 35 76
REMARK SMILES IDX 28 77 30 78 31 79 32 80 33 81 57 82 58 83 66 84 59 85 61 86
REMARK SMILES IDX 67 87 60 88 62 89 63 90 64 91 65 92 42 93 43 94 51 95 44 96
REMARK SMILES IDX 46 97 52 98 45 99 47 100 48 101 49 102 50 103
REMARK H PARENT 82 14 72 56 40 67
REMARK Flexibility Score: inf
ROOT
ATOM      1  C   UNL     1      -2.254  -3.397  -0.976  1.00  0.00     0.261 C 
ENDROOT
BRANCH   1   2
ATOM      2  O   UNL     1      -1.799  -2.254  -0.327  1.00  0.00    -0.460 OA
BRANCH   2   3
ATOM      3  C   UNL     1      -0.839  -2.454   0.595  1.00  0.00     0.338 C 
ATOM      4  O   UNL     1      -0.349  -3.491   0.989  1.00  0.00    -0.246 OA
BRANCH   3   5
ATOM      5  C   UNL     1      -0.288  -1.111   0.715  1.00  0.00     0.060 A 
ATOM      6  C   UNL     1       3.169   0.219   0.230  1.00  0.00     0.046 C 
ATOM      7  C   UNL     1       1.688   0.260   0.439  1.00  0.00    -0.027 A 
ATOM      8  C   UNL     1       1.092  -0.983   0.725  1.00  0.00     0.021 A 
ATOM      9  C   UNL     1       0.867   1.365   0.168  1.00  0.00     0.044 A 
ATOM     10  C   UNL     1      -0.472   1.105  -0.028  1.00  0.00     0.027 A 
ATOM     11  C   UNL     1      -1.095  -0.040   0.380  1.00  0.00     0.018 A 
BRANCH   9  12
ATOM     12  N   UNL     1       1.338   2.697   0.128  1.00  0.00    -0.320 N 
ATOM     13  C   UNL     1       0.626   3.902   0.186  1.00  0.00     0.276 C 
ATOM     14  H   UNL     1       2.315   2.792   0.048  1.00  0.00     0.170 HD
ATOM     15  O   UNL     1       1.203   4.985   0.233  1.00  0.00    -0.267 OA
BRANCH  13  16
ATOM     16  C   UNL     1      -0.897   3.909   0.063  1.00  0.00     0.149 A 
ATOM     17  C   UNL     1      -1.378   4.080  -1.329  1.00  0.00     0.042 A 
ATOM     18  N   UNL     1      -1.669   3.649   1.083  1.00  0.00    -0.164 NA
ATOM     19  C   UNL     1      -2.506   3.428  -1.616  1.00  0.00     0.076 A 
ATOM     20  N   UNL     1      -2.969   3.217   0.755  1.00  0.00    -0.226 N 
ATOM     21  C   UNL     1      -3.247   2.735  -0.530  1.00  0.00     0.266 A 
ATOM     22  O   UNL     1      -4.073   1.880  -0.830  1.00  0.00    -0.268 OA
BRANCH  20  23
ATOM     23  C   UNL     1      -3.879   2.885   1.857  1.00  0.00     0.190 C 
BRANCH  23  24
ATOM     24  C   UNL     1      -4.737   4.057   2.384  1.00  0.00     0.253 C 
BRANCH  24  25
ATOM     25  O   UNL     1      -5.956   4.349   1.653  1.00  0.00    -0.492 OA
BRANCH  25  26
ATOM     26  C   UNL     1      -5.787   5.256   0.645  1.00  0.00     0.119 A 
ATOM     27  C   UNL     1      -6.160   6.587   0.768  1.00  0.00     0.046 A 
ATOM     28  C   UNL     1      -5.379   4.804  -0.596  1.00  0.00     0.046 A 
ATOM     29  C   UNL     1      -5.939   7.471  -0.300  1.00  0.00     0.004 A 
ATOM     30  C   UNL     1      -5.045   5.682  -1.623  1.00  0.00     0.004 A 
ATOM     31  C   UNL     1      -5.312   7.031  -1.468  1.00  0.00     0.000 A 
ENDBRANCH  25  26
ENDBRANCH  24  25
ENDBRANCH  23  24
ENDBRANCH  20  23
ENDBRANCH  13  16
ENDBRANCH   9  12
ENDBRANCH   3   5
ENDBRANCH   2   3
ENDBRANCH   1   2
BRANCH   1  32
ATOM     32  C   UNL     1      -1.139  -4.095  -1.766  1.00  0.00     0.202 C 
BRANCH  32  33
ATOM     33  O   UNL     1      -0.334  -3.265  -2.567  1.00  0.00    -0.374 OA
BRANCH  33  34
ATOM     34  C   UNL     1      -1.114  -2.339  -3.279  1.00  0.00     0.202 C 
BRANCH  34  35
ATOM     35  C   UNL     1      -2.511  -2.719  -3.884  1.00  0.00     0.261 C 
BRANCH  35  36
ATOM     36  O   UNL     1      -3.405  -3.961  -3.639  1.00  0.00    -0.460 OA
BRANCH  36  37
ATOM     37  C   UNL     1      -4.163  -5.054  -3.379  1.00  0.00     0.338 C 
ATOM     38  O   UNL     1      -5.059  -5.345  -4.161  1.00  0.00    -0.246 OA
BRANCH  37  39
ATOM     39  C   UNL     1      -4.052  -5.883  -2.113  1.00  0.00     0.060 A 
ATOM     40  C   UNL     1      -5.156  -6.126  -1.298  1.00  0.00     0.016 A 
ATOM     41  C   UNL     1      -2.876  -6.393  -1.624  1.00  0.00     0.016 A 
ATOM     42  C   UNL     1      -5.012  -6.126   0.102  1.00  0.00     0.010 A 
ATOM     43  C   UNL     1      -2.693  -6.324  -0.245  1.00  0.00     0.010 A 
ATOM     44  C   UNL     1      -3.751  -5.952   0.607  1.00  0.00    -0.014 A 
BRANCH  44  45
ATOM     45  C   UNL     1      -3.392  -5.297   1.886  1.00  0.00     0.031 A 
ATOM     46  C   UNL     1      -2.565  -6.122   2.809  1.00  0.00     0.074 A 
ATOM     47  C   UNL     1      -3.500  -3.941   2.089  1.00  0.00     0.049 A 
ATOM     48  N   UNL     1      -2.205  -5.765   3.988  1.00  0.00    -0.248 NA
ATOM     49  C   UNL     1      -2.092  -7.470   2.475  1.00  0.00     0.031 C 
ATOM     50  C   UNL     1      -2.648  -3.143   2.996  1.00  0.00     0.029 A 
ATOM     51  N   UNL     1      -4.286  -2.932   1.502  1.00  0.00    -0.354 N 
ATOM     52  C   UNL     1      -1.228  -6.639   4.410  1.00  0.00     0.074 A 
ATOM     53  C   UNL     1      -1.285  -7.745   3.500  1.00  0.00     0.031 C 
ATOM     54  C   UNL     1      -3.062  -1.865   3.035  1.00  0.00     0.029 A 
ATOM     55  C   UNL     1      -4.334  -1.809   2.350  1.00  0.00     0.049 A 
ATOM     56  H   UNL     1      -4.735  -3.001   0.629  1.00  0.00     0.167 HD
ATOM     57  C   UNL     1      -0.412  -6.259   5.426  1.00  0.00     0.034 A 
ATOM     58  C   UNL     1      -5.463  -1.306   2.944  1.00  0.00     0.034 A 
ATOM     59  C   UNL     1      -0.908  -5.004   6.022  1.00  0.00     0.049 A 
ATOM     60  C   UNL     1      -5.487  -1.641   4.441  1.00  0.00     0.074 A 
ATOM     61  C   UNL     1      -0.490  -3.687   5.970  1.00  0.00     0.029 A 
ATOM     62  N   UNL     1      -2.215  -4.974   6.515  1.00  0.00    -0.354 N 
ATOM     63  N   UNL     1      -4.507  -2.262   5.047  1.00  0.00    -0.248 NA
ATOM     64  C   UNL     1      -6.556  -1.312   5.384  1.00  0.00     0.031 C 
ATOM     65  C   UNL     1      -1.609  -2.864   6.316  1.00  0.00     0.029 A 
ATOM     66  C   UNL     1      -2.690  -3.675   6.636  1.00  0.00     0.049 A 
ATOM     67  H   UNL     1      -2.736  -5.777   6.748  1.00  0.00     0.167 HD
ATOM     68  C   UNL     1      -4.833  -2.576   6.330  1.00  0.00     0.074 A 
ATOM     69  C   UNL     1      -6.101  -1.885   6.518  1.00  0.00     0.031 C 
ATOM     70  C   UNL     1      -4.066  -3.422   7.091  1.00  0.00     0.034 A 
BRANCH  57  71
ATOM     71  C   UNL     1       0.891  -6.935   5.828  1.00  0.00     0.023 A 
ATOM     72  C   UNL     1       1.490  -6.479   7.022  1.00  0.00     0.012 A 
ATOM     73  C   UNL     1       1.617  -7.927   5.109  1.00  0.00     0.148 A 
ATOM     74  C   UNL     1       2.717  -6.970   7.484  1.00  0.00     0.002 A 
ATOM     75  C   UNL     1       2.812  -8.466   5.607  1.00  0.00     0.091 A 
ATOM     76  F   UNL     1       1.216  -8.307   3.893  1.00  0.00    -0.205 F 
ATOM     77  C   UNL     1       3.370  -7.977   6.789  1.00  0.00     0.022 A 
BRANCH  75  78
ATOM     78  S   UNL     1       3.706  -9.814   4.800  1.00  0.00     0.127 S 
ATOM     79  O   UNL     1       4.961  -9.168   4.415  1.00  0.00    -0.237 OA
ATOM     80  O   UNL     1       3.837 -10.794   5.879  1.00  0.00    -0.237 OA
ATOM     81  O   UNL     1       2.873 -10.253   3.687  1.00  0.00    -0.744 OA
ENDBRANCH  75  78
ENDBRANCH  57  71
BRANCH  58  82
ATOM     82  C   UNL     1      -6.612  -1.165   2.004  1.00  0.00     0.023 A 
ATOM     83  C   UNL     1      -6.460  -0.177   0.994  1.00  0.00     0.012 A 
ATOM     84  C   UNL     1      -7.437  -2.258   1.747  1.00  0.00     0.148 A 
ATOM     85  C   UNL     1      -6.922  -0.369  -0.305  1.00  0.00     0.002 A 
ATOM     86  C   UNL     1      -7.840  -2.477   0.433  1.00  0.00     0.091 A 
ATOM     87  F   UNL     1      -7.635  -3.155   2.721  1.00  0.00    -0.205 F 
ATOM     88  C   UNL     1      -7.575  -1.547  -0.595  1.00  0.00     0.022 A 
BRANCH  86  89
ATOM     89  S   UNL     1      -8.053  -4.141  -0.174  1.00  0.00     0.127 S 
ATOM     90  O   UNL     1      -9.335  -4.098  -0.864  1.00  0.00    -0.237 OA
ATOM     91  O   UNL     1      -6.889  -4.163  -1.052  1.00  0.00    -0.237 OA
ATOM     92  O   UNL     1      -7.989  -5.012   0.989  1.00  0.00    -0.744 OA
ENDBRANCH  86  89
ENDBRANCH  58  82
BRANCH  70  93
ATOM     93  C   UNL     1      -4.572  -4.091   8.360  1.00  0.00     0.023 A 
ATOM     94  C   UNL     1      -5.947  -4.199   8.644  1.00  0.00     0.012 A 
ATOM     95  C   UNL     1      -3.692  -4.764   9.245  1.00  0.00     0.148 A 
ATOM     96  C   UNL     1      -6.421  -4.824   9.801  1.00  0.00     0.002 A 
ATOM     97  C   UNL     1      -4.179  -5.515  10.310  1.00  0.00     0.091 A 
ATOM     98  F   UNL     1      -2.365  -4.667   9.081  1.00  0.00    -0.205 F 
ATOM     99  C   UNL     1      -5.538  -5.500  10.626  1.00  0.00     0.022 A 
BRANCH  97 100
ATOM    100  S   UNL     1      -3.125  -6.658  11.212  1.00  0.00     0.127 S 
ATOM    101  O   UNL     1      -2.835  -5.902  12.428  1.00  0.00    -0.237 OA
ATOM    102  O   UNL     1      -4.012  -7.807  11.404  1.00  0.00    -0.237 OA
ATOM    103  O   UNL     1      -1.994  -6.919  10.332  1.00  0.00    -0.744 OA
ENDBRANCH  97 100
ENDBRANCH  70  93
ENDBRANCH  44  45
ENDBRANCH  37  39
ENDBRANCH  36  37
ENDBRANCH  35  36
ENDBRANCH  34  35
ENDBRANCH  33  34
ENDBRANCH  32  33
ENDBRANCH   1  32
TORSDOF 23
