REMARK SMILES O=C1CCCC2=C1[C@H](c1ccc([N+](=O)[O-])cc1)CC(=O)N2c1ccccc1C(=O)OCCOCCOC(=O)c1ccc(-c2c3nc(c(-c4cccc(S(=O)(=O)[O-])c4F)c4ccc([nH]4)c(-c4cccc(S(=O)(=O)[O-])c4F)c4nc(c(-c5cccc(S(=O)(=O)[O-])c5F)c5ccc2[nH]5)C=C4)C=C3)cc1
REMARK SMILES IDX 33 1 32 2 31 3 30 4 28 5 29 6 27 7 22 8 23 9 24 10 26 11
REMARK SMILES IDX 25 12 21 13 1 14 2 15 3 16 7 17 4 18 6 19 8 20 5 21 18 22
REMARK SMILES IDX 19 23 20 24 9 25 10 26 17 27 11 28 16 29 12 30 13 31 14 32
REMARK SMILES IDX 15 33 34 34 35 35 36 36 37 37 38 38 39 39 40 40 101 41 41 42
REMARK SMILES IDX 100 43 42 44 43 45 44 46 94 47 45 48 99 49 93 50 95 51 46 52
REMARK SMILES IDX 98 53 92 54 91 55 47 57 79 58 59 59 78 60 60 61 63 62 77 63
REMARK SMILES IDX 96 64 61 65 62 66 76 68 97 69 64 70 48 71 49 72 57 73 50 74
REMARK SMILES IDX 52 75 58 76 51 77 53 78 54 79 55 80 56 81 80 82 81 83 89 84
REMARK SMILES IDX 82 85 84 86 90 87 83 88 85 89 86 90 87 91 88 92 65 93 66 94
REMARK SMILES IDX 74 95 67 96 69 97 75 98 68 99 70 100 71 101 72 102 73 103
REMARK H PARENT 95 56 63 67
REMARK Flexibility Score: inf
ROOT
ATOM      1  O   UNL     1       7.865  -0.266   3.638  1.00  0.00    -0.374 OA
ENDROOT
BRANCH   1   2
ATOM      2  C   UNL     1       6.572   0.303   3.491  1.00  0.00     0.202 C 
BRANCH   2   3
ATOM      3  C   UNL     1       5.919   0.444   2.109  1.00  0.00     0.261 C 
BRANCH   3   4
ATOM      4  O   UNL     1       6.219  -0.590   1.166  1.00  0.00    -0.460 OA
BRANCH   4   5
ATOM      5  C   UNL     1       7.201  -0.245   0.299  1.00  0.00     0.340 C 
ATOM      6  O   UNL     1       7.847   0.795   0.329  1.00  0.00    -0.246 OA
BRANCH   5   7
ATOM      7  C   UNL     1       7.494  -1.288  -0.707  1.00  0.00     0.084 A 
ATOM      8  C   UNL     1       6.575  -2.125  -1.367  1.00  0.00     0.063 A 
ATOM      9  C   UNL     1       7.097  -3.014  -2.339  1.00  0.00     0.027 A 
ATOM     10  C   UNL     1       8.463  -3.103  -2.621  1.00  0.00     0.002 A 
ATOM     11  C   UNL     1       8.877  -1.402  -0.990  1.00  0.00     0.018 A 
ATOM     12  C   UNL     1       9.359  -2.306  -1.931  1.00  0.00     0.001 A 
BRANCH   8  13
ATOM     13  N   UNL     1       5.147  -2.205  -1.137  1.00  0.00    -0.284 N 
ATOM     14  O   UNL     1       0.798  -0.328  -0.780  1.00  0.00    -0.294 OA
ATOM     15  C   UNL     1       2.007  -0.153  -0.867  1.00  0.00     0.161 C 
ATOM     16  C   UNL     1       2.617   1.219  -0.781  1.00  0.00     0.081 C 
ATOM     17  C   UNL     1       2.951  -1.312  -0.858  1.00  0.00     0.023 C 
ATOM     18  C   UNL     1       3.687   1.336  -1.840  1.00  0.00     0.015 C 
ATOM     19  C   UNL     1       4.244  -1.121  -1.209  1.00  0.00     0.033 C 
ATOM     20  C   UNL     1       2.375  -2.639  -0.415  1.00  0.00     0.064 C 
ATOM     21  C   UNL     1       4.736   0.228  -1.713  1.00  0.00     0.055 C 
ATOM     22  C   UNL     1       3.188  -3.726  -1.095  1.00  0.00     0.114 C 
ATOM     23  C   UNL     1       4.666  -3.519  -0.873  1.00  0.00     0.232 C 
ATOM     24  O   UNL     1       5.379  -4.484  -0.585  1.00  0.00    -0.274 OA
BRANCH  20  25
ATOM     25  C   UNL     1       2.313  -2.779   1.114  1.00  0.00    -0.039 A 
ATOM     26  C   UNL     1       2.249  -4.399   1.866  1.00  0.00     0.011 A 
ATOM     27  C   UNL     1       2.240  -1.292   2.057  1.00  0.00     0.011 A 
ATOM     28  C   UNL     1       2.137  -4.668   3.609  1.00  0.00     0.086 A 
ATOM     29  C   UNL     1       2.125  -1.405   3.839  1.00  0.00     0.086 A 
ATOM     30  C   UNL     1       2.067  -3.234   4.708  1.00  0.00     0.269 A 
BRANCH  30  31
ATOM     31  N   UNL     1       2.248  -3.813   6.127  1.00  0.00     0.062 N 
ATOM     32  O   UNL     1       3.291  -4.462   6.305  1.00  0.00    -0.258 OA
ATOM     33  O   UNL     1       1.344  -3.703   6.965  1.00  0.00    -0.258 OA
ENDBRANCH  30  31
ENDBRANCH  20  25
ENDBRANCH   8  13
ENDBRANCH   5   7
ENDBRANCH   4   5
ENDBRANCH   3   4
ENDBRANCH   2   3
ENDBRANCH   1   2
BRANCH   1  34
ATOM     34  C   UNL     1       8.125  -1.596   3.202  1.00  0.00     0.202 C 
BRANCH  34  35
ATOM     35  C   UNL     1       7.356  -2.772   3.807  1.00  0.00     0.261 C 
BRANCH  35  36
ATOM     36  O   UNL     1       5.942  -2.607   3.755  1.00  0.00    -0.460 OA
BRANCH  36  37
ATOM     37  C   UNL     1       5.358  -2.275   4.927  1.00  0.00     0.338 C 
ATOM     38  O   UNL     1       5.884  -2.053   6.001  1.00  0.00    -0.246 OA
BRANCH  37  39
ATOM     39  C   UNL     1       3.930  -2.108   4.671  1.00  0.00     0.060 A 
ATOM     40  C   UNL     1       2.864  -1.400   5.897  1.00  0.00     0.016 A 
ATOM     41  C   UNL     1       3.179  -2.838   3.212  1.00  0.00     0.016 A 
ATOM     42  C   UNL     1       1.075  -1.409   5.761  1.00  0.00     0.010 A 
ATOM     43  C   UNL     1       1.163  -2.840   3.074  1.00  0.00     0.010 A 
ATOM     44  C   UNL     1       0.202  -2.118   4.401  1.00  0.00    -0.014 A 
BRANCH  44  45
ATOM     45  C   UNL     1      -1.264  -2.215   4.306  1.00  0.00     0.031 A 
ATOM     46  C   UNL     1      -1.981  -3.326   5.008  1.00  0.00     0.074 A 
ATOM     47  C   UNL     1      -1.925  -1.442   3.428  1.00  0.00     0.049 A 
ATOM     48  N   UNL     1      -3.248  -3.449   5.291  1.00  0.00    -0.248 NA
ATOM     49  C   UNL     1      -1.165  -4.457   5.460  1.00  0.00     0.031 C 
ATOM     50  C   UNL     1      -1.322  -0.437   2.553  1.00  0.00     0.029 A 
ATOM     51  N   UNL     1      -3.248  -1.437   3.073  1.00  0.00    -0.354 N 
ATOM     52  C   UNL     1      -3.348  -4.611   6.051  1.00  0.00     0.074 A 
ATOM     53  C   UNL     1      -2.029  -5.179   6.153  1.00  0.00     0.031 C 
ATOM     54  C   UNL     1      -2.255   0.027   1.704  1.00  0.00     0.029 A 
ATOM     55  C   UNL     1      -3.532  -0.602   2.018  1.00  0.00     0.049 A 
ATOM     56  H   UNL     1      -3.930  -1.981   3.529  1.00  0.00     0.167 HD
ATOM     57  C   UNL     1      -4.452  -5.168   6.596  1.00  0.00     0.034 A 
ATOM     58  C   UNL     1      -4.705  -0.360   1.403  1.00  0.00     0.034 A 
ATOM     59  C   UNL     1      -5.772  -4.719   6.265  1.00  0.00     0.049 A 
ATOM     60  C   UNL     1      -5.942  -0.985   1.996  1.00  0.00     0.074 A 
ATOM     61  C   UNL     1      -6.989  -5.152   6.750  1.00  0.00     0.029 A 
ATOM     62  N   UNL     1      -6.038  -3.785   5.272  1.00  0.00    -0.354 N 
ATOM     63  N   UNL     1      -6.040  -1.843   2.986  1.00  0.00    -0.248 NA
ATOM     64  C   UNL     1      -7.232  -0.544   1.452  1.00  0.00     0.031 C 
ATOM     65  C   UNL     1      -7.993  -4.522   6.004  1.00  0.00     0.029 A 
ATOM     66  C   UNL     1      -7.399  -3.658   5.093  1.00  0.00     0.049 A 
ATOM     67  H   UNL     1      -5.354  -3.287   4.769  1.00  0.00     0.167 HD
ATOM     68  C   UNL     1      -7.399  -2.004   3.223  1.00  0.00     0.074 A 
ATOM     69  C   UNL     1      -8.084  -1.149   2.271  1.00  0.00     0.031 C 
ATOM     70  C   UNL     1      -8.031  -2.778   4.142  1.00  0.00     0.034 A 
BRANCH  57  71
ATOM     71  C   UNL     1      -4.255  -6.298   7.571  1.00  0.00     0.023 A 
ATOM     72  C   UNL     1      -3.666  -6.020   8.825  1.00  0.00     0.012 A 
ATOM     73  C   UNL     1      -4.655  -7.615   7.280  1.00  0.00     0.148 A 
ATOM     74  C   UNL     1      -3.461  -7.033   9.761  1.00  0.00     0.002 A 
ATOM     75  C   UNL     1      -4.476  -8.616   8.231  1.00  0.00     0.091 A 
ATOM     76  F   UNL     1      -5.181  -7.871   6.074  1.00  0.00    -0.205 F 
ATOM     77  C   UNL     1      -3.873  -8.328   9.468  1.00  0.00     0.022 A 
BRANCH  75  78
ATOM     78  S   UNL     1      -5.008 -10.313   7.976  1.00  0.00     0.127 S 
ATOM     79  O   UNL     1      -3.732 -11.028   7.989  1.00  0.00    -0.237 OA
ATOM     80  O   UNL     1      -5.850 -10.548   9.149  1.00  0.00    -0.237 OA
ATOM     81  O   UNL     1      -5.712 -10.329   6.702  1.00  0.00    -0.744 OA
ENDBRANCH  75  78
ENDBRANCH  57  71
BRANCH  58  82
ATOM     82  C   UNL     1      -4.766   0.633   0.293  1.00  0.00     0.023 A 
ATOM     83  C   UNL     1      -5.299   1.912   0.550  1.00  0.00     0.012 A 
ATOM     84  C   UNL     1      -4.238   0.356  -0.985  1.00  0.00     0.148 A 
ATOM     85  C   UNL     1      -5.330   2.888  -0.447  1.00  0.00     0.002 A 
ATOM     86  C   UNL     1      -4.236   1.347  -1.964  1.00  0.00     0.091 A 
ATOM     87  F   UNL     1      -3.738  -0.866  -1.214  1.00  0.00    -0.205 F 
ATOM     88  C   UNL     1      -4.792   2.608  -1.699  1.00  0.00     0.022 A 
BRANCH  86  89
ATOM     89  S   UNL     1      -3.484   1.125  -3.583  1.00  0.00     0.127 S 
ATOM     90  O   UNL     1      -4.651   1.153  -4.462  1.00  0.00    -0.237 OA
ATOM     91  O   UNL     1      -2.618   2.302  -3.680  1.00  0.00    -0.237 OA
ATOM     92  O   UNL     1      -2.774  -0.145  -3.527  1.00  0.00    -0.744 OA
ENDBRANCH  86  89
ENDBRANCH  58  82
BRANCH  70  93
ATOM     93  C   UNL     1      -9.532  -2.722   4.174  1.00  0.00     0.023 A 
ATOM     94  C   UNL     1     -10.281  -3.320   3.143  1.00  0.00     0.012 A 
ATOM     95  C   UNL     1     -10.194  -2.154   5.280  1.00  0.00     0.148 A 
ATOM     96  C   UNL     1     -11.673  -3.322   3.196  1.00  0.00     0.002 A 
ATOM     97  C   UNL     1     -11.578  -2.211   5.353  1.00  0.00     0.091 A 
ATOM     98  F   UNL     1      -9.457  -1.577   6.240  1.00  0.00    -0.205 F 
ATOM     99  C   UNL     1     -12.320  -2.781   4.306  1.00  0.00     0.022 A 
BRANCH  97 100
ATOM    100  S   UNL     1     -12.484  -1.642   6.794  1.00  0.00     0.127 S 
ATOM    101  O   UNL     1     -13.108  -0.420   6.288  1.00  0.00    -0.237 OA
ATOM    102  O   UNL     1     -13.412  -2.748   7.032  1.00  0.00    -0.237 OA
ATOM    103  O   UNL     1     -11.492  -1.449   7.843  1.00  0.00    -0.744 OA
ENDBRANCH  97 100
ENDBRANCH  70  93
ENDBRANCH  44  45
ENDBRANCH  37  39
ENDBRANCH  36  37
ENDBRANCH  35  36
ENDBRANCH  34  35
ENDBRANCH   1  34
TORSDOF 20
