REMARK SMILES CC[C@](C)([NH3+])C(=O)N1CC[NH+]([C@H](C)C(=O)OCCOCCOC(=O)c2ccc(-c3c4nc(c(-c5cccc(S(=O)(=O)[O-])c5F)c5ccc([nH]5)c(-c5cccc(S(=O)(=O)[O-])c5F)c5nc(c(-c6cccc(S(=O)(=O)[O-])c6F)c6ccc3[nH]6)C=C5)C=C4)cc2)CC1
REMARK SMILES IDX 19 1 18 2 17 3 16 4 14 5 15 6 12 7 13 8 11 9 6 10 7 11 8 12
REMARK SMILES IDX 9 13 89 14 10 15 88 16 3 18 4 19 2 20 1 21 5 22 20 26 21 27
REMARK SMILES IDX 22 28 23 29 24 30 25 31 26 32 87 33 27 34 86 35 28 36 29 37
REMARK SMILES IDX 30 38 80 39 31 40 85 41 79 42 81 43 32 44 84 45 78 46 77 47
REMARK SMILES IDX 33 49 65 50 45 51 64 52 46 53 49 54 63 55 82 56 47 57 48 58
REMARK SMILES IDX 62 60 83 61 50 62 34 63 35 64 43 65 36 66 38 67 44 68 37 69
REMARK SMILES IDX 39 70 40 71 41 72 42 73 66 74 67 75 75 76 68 77 70 78 76 79
REMARK SMILES IDX 69 80 71 81 72 82 73 83 74 84 51 85 52 86 60 87 53 88 55 89
REMARK SMILES IDX 61 90 54 91 56 92 57 93 58 94 59 95
REMARK H PARENT 11 17 5 23 5 24 5 25 81 48 49 59
REMARK Flexibility Score: inf
ROOT
ATOM      1  O   UNL     1       7.601   4.267  -7.614  1.00  0.00    -0.374 OA
ENDROOT
BRANCH   1   2
ATOM      2  C   UNL     1       8.186   3.272  -6.775  1.00  0.00     0.202 C 
BRANCH   2   3
ATOM      3  C   UNL     1       8.270   3.580  -5.278  1.00  0.00     0.261 C 
BRANCH   3   4
ATOM      4  O   UNL     1       6.973   3.697  -4.668  1.00  0.00    -0.459 OA
BRANCH   4   5
ATOM      5  C   UNL     1       6.670   4.930  -4.173  1.00  0.00     0.364 C 
ATOM      6  O   UNL     1       7.416   5.904  -4.215  1.00  0.00    -0.245 OA
BRANCH   5   7
ATOM      7  C   UNL     1       5.270   4.986  -3.540  1.00  0.00     0.292 C 
ATOM      8  C   UNL     1       4.205   4.098  -4.201  1.00  0.00     0.088 C 
BRANCH   7   9
ATOM      9  N   UNL     1       5.381   4.877  -2.067  1.00  0.00    -0.321 N 
ATOM     10  C   UNL     1       3.825   3.023   1.291  1.00  0.00     0.283 C 
ATOM     11  O   UNL     1       4.405   2.158   1.960  1.00  0.00    -0.268 OA
ATOM     12  N   UNL     1       4.572   3.883   0.508  1.00  0.00    -0.326 N 
ATOM     13  C   UNL     1       5.841   3.417  -0.048  1.00  0.00     0.181 C 
ATOM     14  C   UNL     1       4.270   5.256   0.134  1.00  0.00     0.181 C 
ATOM     15  C   UNL     1       5.781   3.528  -1.590  1.00  0.00     0.284 C 
ATOM     16  C   UNL     1       4.169   5.378  -1.391  1.00  0.00     0.284 C 
ATOM     17  H   UNL     1       6.154   5.487  -1.802  1.00  0.00     0.348 HD
BRANCH  10  18
ATOM     18  C   UNL     1       2.260   2.960   1.142  1.00  0.00     0.171 C 
ATOM     19  C   UNL     1       1.679   2.111   2.288  1.00  0.00     0.090 C 
BRANCH  18  20
ATOM     20  C   UNL     1       1.895   2.356  -0.241  1.00  0.00     0.075 C 
ATOM     21  C   UNL     1       2.304   0.901  -0.448  1.00  0.00     0.011 C 
ENDBRANCH  18  20
BRANCH  18  22
ATOM     22  N   UNL     1       1.611   4.295   1.240  1.00  0.00    -0.345 N 
ATOM     23  H   UNL     1       1.835   4.716   2.142  1.00  0.00     0.345 HD
ATOM     24  H   UNL     1       0.600   4.189   1.156  1.00  0.00     0.345 HD
ATOM     25  H   UNL     1       1.954   4.896   0.490  1.00  0.00     0.345 HD
ENDBRANCH  18  22
ENDBRANCH  10  18
ENDBRANCH   7   9
ENDBRANCH   5   7
ENDBRANCH   4   5
ENDBRANCH   3   4
ENDBRANCH   2   3
ENDBRANCH   1   2
BRANCH   1  26
ATOM     26  C   UNL     1       6.188   4.444  -7.548  1.00  0.00     0.202 C 
BRANCH  26  27
ATOM     27  C   UNL     1       5.311   3.338  -8.151  1.00  0.00     0.261 C 
BRANCH  27  28
ATOM     28  O   UNL     1       5.465   2.066  -7.494  1.00  0.00    -0.460 OA
BRANCH  28  29
ATOM     29  C   UNL     1       5.951   1.081  -8.287  1.00  0.00     0.338 C 
ATOM     30  O   UNL     1       6.191   1.155  -9.487  1.00  0.00    -0.246 OA
BRANCH  29  31
ATOM     31  C   UNL     1       6.334  -0.102  -7.496  1.00  0.00     0.060 A 
ATOM     32  C   UNL     1       7.665  -0.530  -7.585  1.00  0.00     0.016 A 
ATOM     33  C   UNL     1       5.394  -0.856  -6.790  1.00  0.00     0.016 A 
ATOM     34  C   UNL     1       8.048  -1.743  -7.018  1.00  0.00     0.010 A 
ATOM     35  C   UNL     1       5.782  -2.079  -6.226  1.00  0.00     0.010 A 
ATOM     36  C   UNL     1       7.100  -2.549  -6.374  1.00  0.00    -0.014 A 
BRANCH  36  37
ATOM     37  C   UNL     1       7.476  -3.931  -5.981  1.00  0.00     0.031 A 
ATOM     38  C   UNL     1       7.077  -5.087  -6.862  1.00  0.00     0.074 A 
ATOM     39  C   UNL     1       8.203  -4.154  -4.871  1.00  0.00     0.049 A 
ATOM     40  N   UNL     1       7.353  -6.359  -6.731  1.00  0.00    -0.248 NA
ATOM     41  C   UNL     1       6.262  -4.769  -8.046  1.00  0.00     0.031 C 
ATOM     42  C   UNL     1       8.644  -3.126  -3.930  1.00  0.00     0.029 A 
ATOM     43  N   UNL     1       8.685  -5.325  -4.340  1.00  0.00    -0.354 N 
ATOM     44  C   UNL     1       6.731  -6.996  -7.798  1.00  0.00     0.074 A 
ATOM     45  C   UNL     1       6.051  -5.973  -8.562  1.00  0.00     0.031 C 
ATOM     46  C   UNL     1       9.313  -3.714  -2.924  1.00  0.00     0.029 A 
ATOM     47  C   UNL     1       9.339  -5.159  -3.143  1.00  0.00     0.049 A 
ATOM     48  H   UNL     1       8.572  -6.201  -4.776  1.00  0.00     0.167 HD
ATOM     49  C   UNL     1       6.742  -8.310  -8.126  1.00  0.00     0.034 A 
ATOM     50  C   UNL     1       9.889  -6.070  -2.314  1.00  0.00     0.034 A 
ATOM     51  C   UNL     1       7.444  -9.325  -7.388  1.00  0.00     0.049 A 
ATOM     52  C   UNL     1       9.884  -7.525  -2.704  1.00  0.00     0.074 A 
ATOM     53  C   UNL     1       7.565 -10.673  -7.683  1.00  0.00     0.029 A 
ATOM     54  N   UNL     1       8.135  -9.112  -6.207  1.00  0.00    -0.354 N 
ATOM     55  N   UNL     1       9.420  -8.087  -3.794  1.00  0.00    -0.248 NA
ATOM     56  C   UNL     1      10.514  -8.467  -1.766  1.00  0.00     0.031 C 
ATOM     57  C   UNL     1       8.313 -11.278  -6.668  1.00  0.00     0.029 A 
ATOM     58  C   UNL     1       8.673 -10.304  -5.751  1.00  0.00     0.049 A 
ATOM     59  H   UNL     1       8.230  -8.242  -5.757  1.00  0.00     0.167 HD
ATOM     60  C   UNL     1       9.730  -9.439  -3.688  1.00  0.00     0.074 A 
ATOM     61  C   UNL     1      10.444  -9.608  -2.440  1.00  0.00     0.031 C 
ATOM     62  C   UNL     1       9.432 -10.453  -4.537  1.00  0.00     0.034 A 
BRANCH  49  63
ATOM     63  C   UNL     1       6.004  -8.731  -9.368  1.00  0.00     0.023 A 
ATOM     64  C   UNL     1       6.567  -8.465 -10.632  1.00  0.00     0.012 A 
ATOM     65  C   UNL     1       4.803  -9.463  -9.284  1.00  0.00     0.148 A 
ATOM     66  C   UNL     1       5.936  -8.904 -11.796  1.00  0.00     0.002 A 
ATOM     67  C   UNL     1       4.200  -9.930 -10.446  1.00  0.00     0.091 A 
ATOM     68  F   UNL     1       4.275  -9.685  -8.072  1.00  0.00    -0.205 F 
ATOM     69  C   UNL     1       4.761  -9.646 -11.702  1.00  0.00     0.022 A 
BRANCH  67  70
ATOM     70  S   UNL     1       2.724 -10.953 -10.428  1.00  0.00     0.127 S 
ATOM     71  O   UNL     1       1.722 -10.034 -10.968  1.00  0.00    -0.237 OA
ATOM     72  O   UNL     1       3.095 -12.046 -11.327  1.00  0.00    -0.237 OA
ATOM     73  O   UNL     1       2.524 -11.347  -9.041  1.00  0.00    -0.744 OA
ENDBRANCH  67  70
ENDBRANCH  49  63
BRANCH  50  74
ATOM     74  C   UNL     1      10.526  -5.629  -1.042  1.00  0.00     0.023 A 
ATOM     75  C   UNL     1      11.923  -5.726  -0.889  1.00  0.00     0.012 A 
ATOM     76  C   UNL     1       9.754  -5.112   0.016  1.00  0.00     0.148 A 
ATOM     77  C   UNL     1      12.535  -5.345   0.306  1.00  0.00     0.002 A 
ATOM     78  C   UNL     1      10.377  -4.682   1.182  1.00  0.00     0.091 A 
ATOM     79  F   UNL     1       8.424  -5.052  -0.138  1.00  0.00    -0.205 F 
ATOM     80  C   UNL     1      11.764  -4.812   1.336  1.00  0.00     0.022 A 
BRANCH  78  81
ATOM     81  S   UNL     1       9.467  -3.865   2.497  1.00  0.00     0.127 S 
ATOM     82  O   UNL     1       9.346  -4.933   3.485  1.00  0.00    -0.237 OA
ATOM     83  O   UNL     1      10.377  -2.780   2.869  1.00  0.00    -0.237 OA
ATOM     84  O   UNL     1       8.225  -3.417   1.881  1.00  0.00    -0.744 OA
ENDBRANCH  78  81
ENDBRANCH  50  74
BRANCH  62  85
ATOM     85  C   UNL     1       9.898 -11.837  -4.167  1.00  0.00     0.023 A 
ATOM     86  C   UNL     1       9.253 -12.533  -3.124  1.00  0.00     0.012 A 
ATOM     87  C   UNL     1      10.923 -12.475  -4.892  1.00  0.00     0.148 A 
ATOM     88  C   UNL     1       9.644 -13.829  -2.788  1.00  0.00     0.002 A 
ATOM     89  C   UNL     1      11.277 -13.784  -4.581  1.00  0.00     0.091 A 
ATOM     90  F   UNL     1      11.539 -11.792  -5.868  1.00  0.00    -0.205 F 
ATOM     91  C   UNL     1      10.647 -14.457  -3.523  1.00  0.00     0.022 A 
BRANCH  89  92
ATOM     92  S   UNL     1      12.493 -14.699  -5.537  1.00  0.00     0.127 S 
ATOM     93  O   UNL     1      13.664 -14.641  -4.665  1.00  0.00    -0.237 OA
ATOM     94  O   UNL     1      11.877 -16.022  -5.644  1.00  0.00    -0.237 OA
ATOM     95  O   UNL     1      12.615 -13.990  -6.804  1.00  0.00    -0.744 OA
ENDBRANCH  89  92
ENDBRANCH  62  85
ENDBRANCH  36  37
ENDBRANCH  29  31
ENDBRANCH  28  29
ENDBRANCH  27  28
ENDBRANCH  26  27
ENDBRANCH   1  26
TORSDOF 21
