REMARK SMILES O=C(OCCOCCOC(=O)c1cc(NC(=O)c2ccccc2Cl)ccc1N1CCC[C@H](C[NH+]2CCCC2)C1)c1ccc(-c2c3nc(c(-c4cccc(S(=O)(=O)[O-])c4F)c4ccc([nH]4)c(-c4cccc(S(=O)(=O)[O-])c4F)c4nc(c(-c5cccc(S(=O)(=O)[O-])c5F)c5ccc2[nH]5)C=C4)C=C3)cc1
REMARK SMILES IDX 6 1 5 2 4 3 3 4 2 5 1 6 40 7 41 8 102 9 42 10 101 11 43 12
REMARK SMILES IDX 44 13 45 14 95 15 46 16 100 17 94 18 96 19 47 20 99 21 93 22
REMARK SMILES IDX 92 23 48 25 80 26 60 27 79 28 61 29 64 30 78 31 97 32 62 33
REMARK SMILES IDX 63 34 77 36 98 37 65 38 49 39 50 40 58 41 51 42 53 43 59 44
REMARK SMILES IDX 52 45 54 46 55 47 56 48 57 49 81 50 82 51 90 52 83 53 85 54
REMARK SMILES IDX 91 55 84 56 86 57 87 58 88 59 89 60 66 61 67 62 75 63 68 64
REMARK SMILES IDX 70 65 76 66 69 67 71 68 72 69 73 70 74 71 7 72 8 73 9 74
REMARK SMILES IDX 10 75 11 76 12 77 13 78 27 79 14 80 26 81 25 82 28 83 29 84
REMARK SMILES IDX 39 85 30 86 32 87 31 88 33 89 34 90 35 91 38 92 36 94 37 95
REMARK SMILES IDX 15 96 16 97 17 99 18 100 19 101 23 102 20 103 22 104 24 105
REMARK SMILES IDX 21 106
REMARK H PARENT 96 24 64 35 34 93 15 98
REMARK Flexibility Score: inf
ROOT
ATOM      1  O   UNL     1       3.828  -0.488   1.036  1.00  0.00    -0.374 OA
ENDROOT
BRANCH   1   2
ATOM      2  C   UNL     1       3.893   0.931   1.073  1.00  0.00     0.202 C 
BRANCH   2   3
ATOM      3  C   UNL     1       3.640   1.522  -0.312  1.00  0.00     0.261 C 
BRANCH   3   4
ATOM      4  O   UNL     1       2.322   1.183  -0.764  1.00  0.00    -0.460 OA
BRANCH   4   5
ATOM      5  C   UNL     1       1.952   0.156  -1.565  1.00  0.00     0.338 C 
ATOM      6  O   UNL     1       0.753   0.042  -1.824  1.00  0.00    -0.246 OA
BRANCH   5   7
ATOM      7  C   UNL     1       2.886  -0.872  -2.137  1.00  0.00     0.060 A 
ATOM      8  C   UNL     1       4.124  -1.236  -1.603  1.00  0.00     0.016 A 
ATOM      9  C   UNL     1       2.402  -1.631  -3.215  1.00  0.00     0.016 A 
ATOM     10  C   UNL     1       4.791  -2.378  -1.997  1.00  0.00     0.010 A 
ATOM     11  C   UNL     1       3.093  -2.761  -3.663  1.00  0.00     0.010 A 
ATOM     12  C   UNL     1       4.264  -3.156  -3.012  1.00  0.00    -0.014 A 
BRANCH  12  13
ATOM     13  C   UNL     1       5.045  -4.329  -3.405  1.00  0.00     0.031 A 
ATOM     14  C   UNL     1       5.950  -4.196  -4.579  1.00  0.00     0.074 A 
ATOM     15  C   UNL     1       5.023  -5.422  -2.623  1.00  0.00     0.049 A 
ATOM     16  N   UNL     1       6.677  -5.105  -5.157  1.00  0.00    -0.248 NA
ATOM     17  C   UNL     1       6.071  -2.849  -5.169  1.00  0.00     0.031 C 
ATOM     18  C   UNL     1       4.277  -5.546  -1.365  1.00  0.00     0.029 A 
ATOM     19  N   UNL     1       5.644  -6.632  -2.761  1.00  0.00    -0.354 N 
ATOM     20  C   UNL     1       7.282  -4.463  -6.227  1.00  0.00     0.074 A 
ATOM     21  C   UNL     1       6.888  -3.074  -6.186  1.00  0.00     0.031 C 
ATOM     22  C   UNL     1       4.458  -6.781  -0.868  1.00  0.00     0.029 A 
ATOM     23  C   UNL     1       5.264  -7.548  -1.807  1.00  0.00     0.049 A 
ATOM     24  H   UNL     1       6.297  -6.828  -3.472  1.00  0.00     0.167 HD
ATOM     25  C   UNL     1       8.066  -5.016  -7.174  1.00  0.00     0.034 A 
ATOM     26  C   UNL     1       5.492  -8.873  -1.759  1.00  0.00     0.034 A 
ATOM     27  C   UNL     1       8.427  -6.403  -7.171  1.00  0.00     0.049 A 
ATOM     28  C   UNL     1       6.305  -9.472  -2.877  1.00  0.00     0.074 A 
ATOM     29  C   UNL     1       9.194  -7.095  -8.086  1.00  0.00     0.029 A 
ATOM     30  N   UNL     1       8.015  -7.316  -6.209  1.00  0.00    -0.354 N 
ATOM     31  N   UNL     1       6.898  -8.865  -3.880  1.00  0.00    -0.248 NA
ATOM     32  C   UNL     1       6.483 -10.928  -2.865  1.00  0.00     0.031 C 
ATOM     33  C   UNL     1       9.207  -8.439  -7.701  1.00  0.00     0.029 A 
ATOM     34  C   UNL     1       8.488  -8.574  -6.521  1.00  0.00     0.049 A 
ATOM     35  H   UNL     1       7.467  -7.097  -5.421  1.00  0.00     0.167 HD
ATOM     36  C   UNL     1       7.536  -9.861  -4.606  1.00  0.00     0.074 A 
ATOM     37  C   UNL     1       7.286 -11.106  -3.905  1.00  0.00     0.031 C 
ATOM     38  C   UNL     1       8.244  -9.772  -5.758  1.00  0.00     0.034 A 
BRANCH  25  39
ATOM     39  C   UNL     1       8.492  -4.144  -8.316  1.00  0.00     0.023 A 
ATOM     40  C   UNL     1       9.495  -3.170  -8.147  1.00  0.00     0.012 A 
ATOM     41  C   UNL     1       7.886  -4.310  -9.576  1.00  0.00     0.148 A 
ATOM     42  C   UNL     1       9.876  -2.361  -9.217  1.00  0.00     0.002 A 
ATOM     43  C   UNL     1       8.302  -3.534 -10.647  1.00  0.00     0.091 A 
ATOM     44  F   UNL     1       6.906  -5.217  -9.696  1.00  0.00    -0.205 F 
ATOM     45  C   UNL     1       9.289  -2.550 -10.467  1.00  0.00     0.022 A 
BRANCH  43  46
ATOM     46  S   UNL     1       7.653  -3.747 -12.306  1.00  0.00     0.127 S 
ATOM     47  O   UNL     1       7.055  -2.436 -12.560  1.00  0.00    -0.237 OA
ATOM     48  O   UNL     1       8.868  -4.023 -13.071  1.00  0.00    -0.237 OA
ATOM     49  O   UNL     1       6.705  -4.850 -12.233  1.00  0.00    -0.744 OA
ENDBRANCH  43  46
ENDBRANCH  25  39
BRANCH  26  50
ATOM     50  C   UNL     1       4.895  -9.724  -0.687  1.00  0.00     0.023 A 
ATOM     51  C   UNL     1       5.732 -10.446   0.185  1.00  0.00     0.012 A 
ATOM     52  C   UNL     1       3.497  -9.855  -0.552  1.00  0.00     0.148 A 
ATOM     53  C   UNL     1       5.191 -11.320   1.131  1.00  0.00     0.002 A 
ATOM     54  C   UNL     1       2.964 -10.680   0.432  1.00  0.00     0.091 A 
ATOM     55  F   UNL     1       2.708  -9.181  -1.401  1.00  0.00    -0.205 F 
ATOM     56  C   UNL     1       3.810 -11.432   1.259  1.00  0.00     0.022 A 
BRANCH  54  57
ATOM     57  S   UNL     1       1.198 -10.787   0.742  1.00  0.00     0.127 S 
ATOM     58  O   UNL     1       0.875 -12.100   0.191  1.00  0.00    -0.237 OA
ATOM     59  O   UNL     1       1.139 -10.699   2.202  1.00  0.00    -0.237 OA
ATOM     60  O   UNL     1       0.611  -9.645   0.053  1.00  0.00    -0.744 OA
ENDBRANCH  54  57
ENDBRANCH  26  50
BRANCH  38  61
ATOM     61  C   UNL     1       8.819 -11.046  -6.307  1.00  0.00     0.023 A 
ATOM     62  C   UNL     1       7.972 -11.995  -6.910  1.00  0.00     0.012 A 
ATOM     63  C   UNL     1      10.212 -11.247  -6.313  1.00  0.00     0.148 A 
ATOM     64  C   UNL     1       8.504 -13.144  -7.488  1.00  0.00     0.002 A 
ATOM     65  C   UNL     1      10.738 -12.363  -6.945  1.00  0.00     0.091 A 
ATOM     66  F   UNL     1      10.992 -10.332  -5.718  1.00  0.00    -0.205 F 
ATOM     67  C   UNL     1       9.886 -13.320  -7.520  1.00  0.00     0.022 A 
BRANCH  65  68
ATOM     68  S   UNL     1      12.505 -12.611  -7.137  1.00  0.00     0.127 S 
ATOM     69  O   UNL     1      12.740 -13.759  -6.263  1.00  0.00    -0.237 OA
ATOM     70  O   UNL     1      12.621 -12.898  -8.567  1.00  0.00    -0.237 OA
ATOM     71  O   UNL     1      13.137 -11.368  -6.715  1.00  0.00    -0.744 OA
ENDBRANCH  65  68
ENDBRANCH  38  61
ENDBRANCH  12  13
ENDBRANCH   5   7
ENDBRANCH   4   5
ENDBRANCH   3   4
ENDBRANCH   2   3
ENDBRANCH   1   2
BRANCH   1  72
ATOM     72  C   UNL     1       2.587  -1.084   1.418  1.00  0.00     0.202 C 
BRANCH  72  73
ATOM     73  C   UNL     1       2.909  -1.921   2.632  1.00  0.00     0.261 C 
BRANCH  73  74
ATOM     74  O   UNL     1       3.502  -0.971   3.523  1.00  0.00    -0.460 OA
BRANCH  74  75
ATOM     75  C   UNL     1       4.827  -0.993   3.756  1.00  0.00     0.340 C 
ATOM     76  O   UNL     1       5.628  -1.820   3.387  1.00  0.00    -0.246 OA
BRANCH  75  77
ATOM     77  C   UNL     1       5.167   0.280   4.453  1.00  0.00     0.085 A 
ATOM     78  C   UNL     1       6.402   0.833   4.035  1.00  0.00     0.044 A 
ATOM     79  C   UNL     1       4.342   0.946   5.395  1.00  0.00     0.051 A 
ATOM     80  C   UNL     1       6.867   2.032   4.560  1.00  0.00     0.042 A 
ATOM     81  C   UNL     1       4.875   2.133   5.939  1.00  0.00     0.029 A 
ATOM     82  C   UNL     1       6.114   2.657   5.548  1.00  0.00     0.028 A 
BRANCH  79  83
ATOM     83  N   UNL     1       3.094   0.539   5.872  1.00  0.00    -0.370 N 
ATOM     84  C   UNL     1       1.963   1.467   5.743  1.00  0.00     0.116 C 
ATOM     85  C   UNL     1       2.696  -0.871   5.907  1.00  0.00     0.126 C 
ATOM     86  C   UNL     1       0.973   1.230   6.888  1.00  0.00     0.022 C 
ATOM     87  C   UNL     1       1.836  -1.168   7.116  1.00  0.00     0.064 C 
ATOM     88  C   UNL     1       0.606  -0.247   7.050  1.00  0.00     0.013 C 
BRANCH  87  89
ATOM     89  C   UNL     1       2.737  -1.104   8.363  1.00  0.00     0.267 C 
BRANCH  89  90
ATOM     90  N   UNL     1       2.317  -1.833   9.560  1.00  0.00    -0.335 N 
ATOM     91  C   UNL     1       2.100  -3.267   9.344  1.00  0.00     0.262 C 
ATOM     92  C   UNL     1       1.132  -1.297  10.213  1.00  0.00     0.262 C 
ATOM     93  H   UNL     1       3.120  -1.702  10.174  1.00  0.00     0.348 HD
ATOM     94  C   UNL     1       0.601  -3.445   9.203  1.00  0.00     0.067 C 
ATOM     95  C   UNL     1       0.006  -2.300  10.002  1.00  0.00     0.067 C 
ENDBRANCH  89  90
ENDBRANCH  87  89
ENDBRANCH  79  83
BRANCH  80  96
ATOM     96  N   UNL     1       8.090   2.626   4.211  1.00  0.00    -0.322 N 
ATOM     97  C   UNL     1       8.876   2.515   3.088  1.00  0.00     0.257 C 
ATOM     98  H   UNL     1       8.452   3.233   4.896  1.00  0.00     0.170 HD
ATOM     99  O   UNL     1      10.034   2.930   3.099  1.00  0.00    -0.269 OA
BRANCH  97 100
ATOM    100  C   UNL     1       8.328   2.028   1.811  1.00  0.00     0.058 A 
ATOM    101  C   UNL     1       8.825   0.826   1.292  1.00  0.00     0.015 A 
ATOM    102  C   UNL     1       7.438   2.802   1.058  1.00  0.00     0.053 A 
ATOM    103  C   UNL     1       8.385   0.369   0.048  1.00  0.00     0.001 A 
ATOM    104  C   UNL     1       7.033   2.357  -0.205  1.00  0.00     0.021 A 
ATOM    105  Cl  UNL     1       6.814   4.316   1.609  1.00  0.00    -0.083 Cl
ATOM    106  C   UNL     1       7.492   1.135  -0.701  1.00  0.00     0.002 A 
ENDBRANCH  97 100
ENDBRANCH  80  96
ENDBRANCH  75  77
ENDBRANCH  74  75
ENDBRANCH  73  74
ENDBRANCH  72  73
ENDBRANCH   1  72
TORSDOF 22
