REMARK SMILES CC(C)N1C(=O)C[C@@H](Sc2csc(C(=O)OCCOCCOC(=O)c3ccc(-c4c5nc(c(-c6cccc(S(=O)(=O)[O-])c6F)c6ccc([nH]6)c(-c6cccc(S(=O)(=O)[O-])c6F)c6nc(c(-c7cccc(S(=O)(=O)[O-])c7F)c7ccc4[nH]7)C=C6)C=C5)cc3)c2)C1=O
REMARK SMILES IDX 19 1 18 2 17 3 16 4 14 5 15 6 13 7 10 8 11 9 88 10 12 11
REMARK SMILES IDX 9 12 8 13 4 14 5 15 89 16 6 17 7 18 90 19 2 20 1 21 3 22
REMARK SMILES IDX 20 23 21 24 22 25 23 26 24 27 25 28 26 29 87 30 27 31 86 32
REMARK SMILES IDX 28 33 29 34 30 35 80 36 31 37 85 38 79 39 81 40 32 41 84 42
REMARK SMILES IDX 78 43 77 44 33 46 65 47 45 48 64 49 46 50 49 51 63 52 82 53
REMARK SMILES IDX 47 54 48 55 62 57 83 58 50 59 34 60 35 61 43 62 36 63 38 64
REMARK SMILES IDX 44 65 37 66 39 67 40 68 41 69 42 70 66 71 67 72 75 73 68 74
REMARK SMILES IDX 70 75 76 76 69 77 71 78 72 79 73 80 74 81 51 82 52 83 60 84
REMARK SMILES IDX 53 85 55 86 61 87 54 88 56 89 57 90 58 91 59 92
REMARK H PARENT 81 45 49 56
REMARK Flexibility Score: inf
ROOT
ATOM      1  O   UNL     1      -3.008   0.853 -10.210  1.00  0.00    -0.374 OA
ENDROOT
BRANCH   1   2
ATOM      2  C   UNL     1      -3.538  -0.445 -10.496  1.00  0.00     0.202 C 
BRANCH   2   3
ATOM      3  C   UNL     1      -2.661  -1.588  -9.974  1.00  0.00     0.261 C 
BRANCH   3   4
ATOM      4  O   UNL     1      -2.688  -1.605  -8.536  1.00  0.00    -0.459 OA
BRANCH   4   5
ATOM      5  C   UNL     1      -1.536  -1.227  -7.915  1.00  0.00     0.348 C 
ATOM      6  O   UNL     1      -0.445  -1.127  -8.465  1.00  0.00    -0.245 OA
BRANCH   5   7
ATOM      7  C   UNL     1      -1.838  -0.819  -6.557  1.00  0.00     0.113 A 
ATOM      8  C   UNL     1      -2.847  -0.492  -4.469  1.00  0.00     0.020 A 
ATOM      9  C   UNL     1      -1.921   0.523  -4.496  1.00  0.00     0.080 A 
ATOM     10  C   UNL     1      -2.830  -1.241  -5.688  1.00  0.00     0.042 A 
ATOM     11  S   UNL     1      -0.920   0.458  -5.878  1.00  0.00    -0.136 S 
BRANCH   8  12
ATOM     12  S   UNL     1      -4.032  -0.828  -3.217  1.00  0.00    -0.111 SA
BRANCH  12  13
ATOM     13  C   UNL     1      -3.263  -0.433  -1.621  1.00  0.00     0.150 C 
ATOM     14  N   UNL     1      -1.027   0.183  -1.328  1.00  0.00    -0.279 N 
ATOM     15  C   UNL     1      -1.745   1.332  -1.145  1.00  0.00     0.231 C 
ATOM     16  C   UNL     1      -1.840  -0.910  -1.488  1.00  0.00     0.243 C 
ATOM     17  O   UNL     1      -1.295   2.438  -0.883  1.00  0.00    -0.274 OA
ATOM     18  C   UNL     1      -3.208   1.051  -1.306  1.00  0.00     0.125 C 
ATOM     19  O   UNL     1      -1.492  -2.081  -1.481  1.00  0.00    -0.273 OA
BRANCH  14  20
ATOM     20  C   UNL     1       0.432   0.147  -1.204  1.00  0.00     0.087 C 
ATOM     21  C   UNL     1       0.854  -0.213   0.218  1.00  0.00     0.031 C 
ATOM     22  C   UNL     1       1.106  -0.772  -2.224  1.00  0.00     0.031 C 
ENDBRANCH  14  20
ENDBRANCH  12  13
ENDBRANCH   8  12
ENDBRANCH   5   7
ENDBRANCH   4   5
ENDBRANCH   3   4
ENDBRANCH   2   3
ENDBRANCH   1   2
BRANCH   1  23
ATOM     23  C   UNL     1      -3.458   1.446  -8.987  1.00  0.00     0.202 C 
BRANCH  23  24
ATOM     24  C   UNL     1      -4.769   2.228  -9.117  1.00  0.00     0.261 C 
BRANCH  24  25
ATOM     25  O   UNL     1      -5.880   1.323  -9.248  1.00  0.00    -0.460 OA
BRANCH  25  26
ATOM     26  C   UNL     1      -6.460   1.292 -10.471  1.00  0.00     0.338 C 
ATOM     27  O   UNL     1      -6.229   2.032 -11.412  1.00  0.00    -0.246 OA
BRANCH  26  28
ATOM     28  C   UNL     1      -7.317   0.092 -10.583  1.00  0.00     0.060 A 
ATOM     29  C   UNL     1      -7.253  -0.633 -11.779  1.00  0.00     0.016 A 
ATOM     30  C   UNL     1      -8.184  -0.308  -9.561  1.00  0.00     0.016 A 
ATOM     31  C   UNL     1      -8.087  -1.732 -11.977  1.00  0.00     0.010 A 
ATOM     32  C   UNL     1      -9.025  -1.408  -9.764  1.00  0.00     0.010 A 
ATOM     33  C   UNL     1      -9.003  -2.104 -10.985  1.00  0.00    -0.014 A 
BRANCH  33  34
ATOM     34  C   UNL     1     -10.022  -3.139 -11.280  1.00  0.00     0.031 A 
ATOM     35  C   UNL     1     -11.400  -2.708 -11.702  1.00  0.00     0.074 A 
ATOM     36  C   UNL     1      -9.724  -4.446 -11.180  1.00  0.00     0.049 A 
ATOM     37  N   UNL     1     -12.433  -3.441 -12.023  1.00  0.00    -0.248 NA
ATOM     38  C   UNL     1     -11.646  -1.257 -11.772  1.00  0.00     0.031 C 
ATOM     39  C   UNL     1      -8.430  -4.989 -10.772  1.00  0.00     0.029 A 
ATOM     40  N   UNL     1     -10.503  -5.556 -11.396  1.00  0.00    -0.354 N 
ATOM     41  C   UNL     1     -13.456  -2.548 -12.315  1.00  0.00     0.074 A 
ATOM     42  C   UNL     1     -12.924  -1.216 -12.119  1.00  0.00     0.031 C 
ATOM     43  C   UNL     1      -8.510  -6.330 -10.741  1.00  0.00     0.029 A 
ATOM     44  C   UNL     1      -9.863  -6.740 -11.116  1.00  0.00     0.049 A 
ATOM     45  H   UNL     1     -11.431  -5.508 -11.720  1.00  0.00     0.167 HD
ATOM     46  C   UNL     1     -14.717  -2.809 -12.732  1.00  0.00     0.034 A 
ATOM     47  C   UNL     1     -10.321  -8.007 -11.149  1.00  0.00     0.034 A 
ATOM     48  C   UNL     1     -15.240  -4.130 -12.950  1.00  0.00     0.049 A 
ATOM     49  C   UNL     1     -11.734  -8.271 -11.601  1.00  0.00     0.074 A 
ATOM     50  C   UNL     1     -16.488  -4.493 -13.423  1.00  0.00     0.029 A 
ATOM     51  N   UNL     1     -14.548  -5.304 -12.701  1.00  0.00    -0.354 N 
ATOM     52  N   UNL     1     -12.642  -7.419 -12.011  1.00  0.00    -0.248 NA
ATOM     53  C   UNL     1     -12.175  -9.674 -11.627  1.00  0.00     0.031 C 
ATOM     54  C   UNL     1     -16.556  -5.891 -13.447  1.00  0.00     0.029 A 
ATOM     55  C   UNL     1     -15.346  -6.396 -12.999  1.00  0.00     0.049 A 
ATOM     56  H   UNL     1     -13.626  -5.356 -12.362  1.00  0.00     0.167 HD
ATOM     57  C   UNL     1     -13.747  -8.182 -12.374  1.00  0.00     0.074 A 
ATOM     58  C   UNL     1     -13.388  -9.568 -12.153  1.00  0.00     0.031 C 
ATOM     59  C   UNL     1     -14.956  -7.772 -12.831  1.00  0.00     0.034 A 
BRANCH  46  60
ATOM     60  C   UNL     1     -15.608  -1.634 -13.026  1.00  0.00     0.023 A 
ATOM     61  C   UNL     1     -15.417  -0.907 -14.219  1.00  0.00     0.012 A 
ATOM     62  C   UNL     1     -16.659  -1.281 -12.159  1.00  0.00     0.148 A 
ATOM     63  C   UNL     1     -16.245   0.169 -14.534  1.00  0.00     0.002 A 
ATOM     64  C   UNL     1     -17.502  -0.228 -12.496  1.00  0.00     0.091 A 
ATOM     65  F   UNL     1     -16.804  -1.966 -11.016  1.00  0.00    -0.205 F 
ATOM     66  C   UNL     1     -17.293   0.501 -13.679  1.00  0.00     0.022 A 
BRANCH  64  67
ATOM     67  S   UNL     1     -18.915   0.233 -11.487  1.00  0.00     0.127 S 
ATOM     68  O   UNL     1     -18.423   1.439 -10.825  1.00  0.00    -0.237 OA
ATOM     69  O   UNL     1     -19.953   0.469 -12.492  1.00  0.00    -0.237 OA
ATOM     70  O   UNL     1     -19.167  -0.907 -10.616  1.00  0.00    -0.744 OA
ENDBRANCH  64  67
ENDBRANCH  46  60
BRANCH  47  71
ATOM     71  C   UNL     1      -9.414  -9.132 -10.789  1.00  0.00     0.023 A 
ATOM     72  C   UNL     1      -8.962 -10.007 -11.795  1.00  0.00     0.012 A 
ATOM     73  C   UNL     1      -8.978  -9.325  -9.464  1.00  0.00     0.148 A 
ATOM     74  C   UNL     1      -8.110 -11.068 -11.484  1.00  0.00     0.002 A 
ATOM     75  C   UNL     1      -8.088 -10.353  -9.170  1.00  0.00     0.091 A 
ATOM     76  F   UNL     1      -9.439  -8.497  -8.515  1.00  0.00    -0.205 F 
ATOM     77  C   UNL     1      -7.664 -11.234 -10.175  1.00  0.00     0.022 A 
BRANCH  75  78
ATOM     78  S   UNL     1      -7.369 -10.553  -7.536  1.00  0.00     0.127 S 
ATOM     79  O   UNL     1      -8.126 -11.687  -7.012  1.00  0.00    -0.237 OA
ATOM     80  O   UNL     1      -5.969 -10.839  -7.850  1.00  0.00    -0.237 OA
ATOM     81  O   UNL     1      -7.580  -9.278  -6.862  1.00  0.00    -0.744 OA
ENDBRANCH  75  78
ENDBRANCH  47  71
BRANCH  59  82
ATOM     82  C   UNL     1     -15.982  -8.828 -13.146  1.00  0.00     0.023 A 
ATOM     83  C   UNL     1     -16.653  -9.479 -12.093  1.00  0.00     0.012 A 
ATOM     84  C   UNL     1     -16.343  -9.113 -14.478  1.00  0.00     0.148 A 
ATOM     85  C   UNL     1     -17.652 -10.414 -12.360  1.00  0.00     0.002 A 
ATOM     86  C   UNL     1     -17.368 -10.017 -14.735  1.00  0.00     0.091 A 
ATOM     87  F   UNL     1     -15.679  -8.499 -15.468  1.00  0.00    -0.205 F 
ATOM     88  C   UNL     1     -18.018 -10.674 -13.678  1.00  0.00     0.022 A 
BRANCH  86  89
ATOM     89  S   UNL     1     -17.961 -10.339 -16.401  1.00  0.00     0.127 S 
ATOM     90  O   UNL     1     -17.323 -11.620 -16.702  1.00  0.00    -0.237 OA
ATOM     91  O   UNL     1     -19.411 -10.410 -16.213  1.00  0.00    -0.237 OA
ATOM     92  O   UNL     1     -17.516  -9.208 -17.204  1.00  0.00    -0.744 OA
ENDBRANCH  86  89
ENDBRANCH  59  82
ENDBRANCH  33  34
ENDBRANCH  26  28
ENDBRANCH  25  26
ENDBRANCH  24  25
ENDBRANCH  23  24
ENDBRANCH   1  23
TORSDOF 20
