REMARK SMILES O=C(OCCOCCOC(=O)c1ccccc1C(=O)Nc1ccc(N2C(=O)[C@H]3[C@@H]4CC[C@@H](C4)[C@@H]3C2=O)cc1)c1ccc(-c2c3nc(c(-c4cccc(S(=O)(=O)[O-])c4F)c4ccc([nH]4)c(-c4cccc(S(=O)(=O)[O-])c4F)c4nc(c(-c5cccc(S(=O)(=O)[O-])c5F)c5ccc2[nH]5)C=C4)C=C3)cc1
REMARK SMILES IDX 6 1 5 2 4 3 3 4 2 5 1 6 39 7 40 8 101 9 41 10 100 11 42 12
REMARK SMILES IDX 43 13 44 14 94 15 45 16 99 17 93 18 95 19 46 20 98 21 92 22
REMARK SMILES IDX 91 23 47 25 79 26 59 27 78 28 60 29 63 30 77 31 96 32 61 33
REMARK SMILES IDX 62 34 76 36 97 37 64 38 48 39 49 40 57 41 50 42 52 43 58 44
REMARK SMILES IDX 51 45 53 46 54 47 55 48 56 49 80 50 81 51 89 52 82 53 84 54
REMARK SMILES IDX 90 55 83 56 85 57 86 58 87 59 88 60 65 61 66 62 74 63 67 64
REMARK SMILES IDX 69 65 75 66 68 67 70 68 71 69 72 70 73 71 7 72 8 73 9 74
REMARK SMILES IDX 10 75 11 76 12 77 13 78 17 79 14 80 16 81 15 82 18 83 19 84
REMARK SMILES IDX 20 85 21 87 22 88 38 89 23 90 37 91 24 92 25 93 26 94 35 95
REMARK SMILES IDX 27 96 28 97 34 98 36 99 29 100 32 101 30 102 33 103 31 104
REMARK H PARENT 95 24 63 35 20 86
REMARK Flexibility Score: inf
ROOT
ATOM      1  O   UNL     1       6.394  -2.113   0.648  1.00  0.00    -0.374 OA
ENDROOT
BRANCH   1   2
ATOM      2  C   UNL     1       6.503  -0.368   0.844  1.00  0.00     0.202 C 
BRANCH   2   3
ATOM      3  C   UNL     1       5.228   1.002   0.751  1.00  0.00     0.261 C 
BRANCH   3   4
ATOM      4  O   UNL     1       3.688   1.132  -0.099  1.00  0.00    -0.460 OA
BRANCH   4   5
ATOM      5  C   UNL     1       2.727   0.854  -1.135  1.00  0.00     0.338 C 
ATOM      6  O   UNL     1       1.845   1.696  -1.332  1.00  0.00    -0.246 OA
BRANCH   5   7
ATOM      7  C   UNL     1       2.562  -0.446  -2.048  1.00  0.00     0.060 A 
ATOM      8  C   UNL     1       2.393  -1.730  -1.556  1.00  0.00     0.016 A 
ATOM      9  C   UNL     1       2.505  -0.449  -3.444  1.00  0.00     0.016 A 
ATOM     10  C   UNL     1       2.790  -2.875  -2.273  1.00  0.00     0.010 A 
ATOM     11  C   UNL     1       2.690  -1.675  -4.209  1.00  0.00     0.010 A 
ATOM     12  C   UNL     1       3.098  -2.891  -3.625  1.00  0.00    -0.014 A 
BRANCH  12  13
ATOM     13  C   UNL     1       3.944  -4.062  -4.252  1.00  0.00     0.031 A 
ATOM     14  C   UNL     1       4.910  -3.833  -5.447  1.00  0.00     0.074 A 
ATOM     15  C   UNL     1       4.090  -5.299  -3.675  1.00  0.00     0.049 A 
ATOM     16  N   UNL     1       5.887  -4.602  -5.901  1.00  0.00    -0.248 NA
ATOM     17  C   UNL     1       4.807  -2.584  -6.207  1.00  0.00     0.031 C 
ATOM     18  C   UNL     1       3.370  -5.821  -2.510  1.00  0.00     0.029 A 
ATOM     19  N   UNL     1       4.944  -6.364  -3.974  1.00  0.00    -0.354 N 
ATOM     20  C   UNL     1       6.529  -3.890  -6.916  1.00  0.00     0.074 A 
ATOM     21  C   UNL     1       5.827  -2.647  -7.048  1.00  0.00     0.031 C 
ATOM     22  C   UNL     1       3.895  -6.985  -2.110  1.00  0.00     0.029 A 
ATOM     23  C   UNL     1       4.802  -7.460  -3.139  1.00  0.00     0.049 A 
ATOM     24  H   UNL     1       5.591  -6.338  -4.715  1.00  0.00     0.167 HD
ATOM     25  C   UNL     1       7.586  -4.198  -7.709  1.00  0.00     0.034 A 
ATOM     26  C   UNL     1       5.204  -8.752  -3.220  1.00  0.00     0.034 A 
ATOM     27  C   UNL     1       8.164  -5.500  -7.841  1.00  0.00     0.049 A 
ATOM     28  C   UNL     1       6.040  -9.193  -4.385  1.00  0.00     0.074 A 
ATOM     29  C   UNL     1       9.086  -5.936  -8.779  1.00  0.00     0.029 A 
ATOM     30  N   UNL     1       7.776  -6.604  -7.112  1.00  0.00    -0.354 N 
ATOM     31  N   UNL     1       6.698  -8.459  -5.243  1.00  0.00    -0.248 NA
ATOM     32  C   UNL     1       6.160 -10.642  -4.619  1.00  0.00     0.031 C 
ATOM     33  C   UNL     1       9.150  -7.331  -8.703  1.00  0.00     0.029 A 
ATOM     34  C   UNL     1       8.333  -7.743  -7.665  1.00  0.00     0.049 A 
ATOM     35  H   UNL     1       7.193  -6.585  -6.319  1.00  0.00     0.167 HD
ATOM     36  C   UNL     1       7.296  -9.351  -6.123  1.00  0.00     0.074 A 
ATOM     37  C   UNL     1       6.966 -10.684  -5.671  1.00  0.00     0.031 C 
ATOM     38  C   UNL     1       8.029  -9.076  -7.226  1.00  0.00     0.034 A 
BRANCH  25  39
ATOM     39  C   UNL     1       8.098  -3.128  -8.642  1.00  0.00     0.023 A 
ATOM     40  C   UNL     1       9.106  -2.239  -8.220  1.00  0.00     0.012 A 
ATOM     41  C   UNL     1       7.606  -3.049  -9.958  1.00  0.00     0.148 A 
ATOM     42  C   UNL     1       9.610  -1.278  -9.099  1.00  0.00     0.002 A 
ATOM     43  C   UNL     1       8.118  -2.097 -10.829  1.00  0.00     0.091 A 
ATOM     44  F   UNL     1       6.638  -3.901 -10.322  1.00  0.00    -0.205 F 
ATOM     45  C   UNL     1       9.119  -1.209 -10.402  1.00  0.00     0.022 A 
BRANCH  43  46
ATOM     46  S   UNL     1       7.546  -1.932 -12.521  1.00  0.00     0.127 S 
ATOM     47  O   UNL     1       7.036  -0.561 -12.526  1.00  0.00    -0.237 OA
ATOM     48  O   UNL     1       8.780  -2.129 -13.280  1.00  0.00    -0.237 OA
ATOM     49  O   UNL     1       6.532  -2.961 -12.708  1.00  0.00    -0.744 OA
ENDBRANCH  43  46
ENDBRANCH  25  39
BRANCH  26  50
ATOM     50  C   UNL     1       4.627  -9.785  -2.287  1.00  0.00     0.023 A 
ATOM     51  C   UNL     1       5.449 -10.630  -1.515  1.00  0.00     0.012 A 
ATOM     52  C   UNL     1       3.227  -9.959  -2.206  1.00  0.00     0.148 A 
ATOM     53  C   UNL     1       4.886 -11.615  -0.693  1.00  0.00     0.002 A 
ATOM     54  C   UNL     1       2.675 -10.863  -1.310  1.00  0.00     0.091 A 
ATOM     55  F   UNL     1       2.443  -9.230  -3.014  1.00  0.00    -0.205 F 
ATOM     56  C   UNL     1       3.500 -11.714  -0.569  1.00  0.00     0.022 A 
BRANCH  54  57
ATOM     57  S   UNL     1       0.909 -10.873  -0.976  1.00  0.00     0.127 S 
ATOM     58  O   UNL     1       0.451 -11.991  -1.793  1.00  0.00    -0.237 OA
ATOM     59  O   UNL     1       0.869 -11.104   0.469  1.00  0.00    -0.237 OA
ATOM     60  O   UNL     1       0.441  -9.550  -1.371  1.00  0.00    -0.744 OA
ENDBRANCH  54  57
ENDBRANCH  26  50
BRANCH  38  61
ATOM     61  C   UNL     1       8.528 -10.224  -8.054  1.00  0.00     0.023 A 
ATOM     62  C   UNL     1       7.625 -10.964  -8.841  1.00  0.00     0.012 A 
ATOM     63  C   UNL     1       9.905 -10.504  -8.127  1.00  0.00     0.148 A 
ATOM     64  C   UNL     1       8.085 -11.983  -9.675  1.00  0.00     0.002 A 
ATOM     65  C   UNL     1      10.361 -11.482  -9.000  1.00  0.00     0.091 A 
ATOM     66  F   UNL     1      10.742  -9.800  -7.352  1.00  0.00    -0.205 F 
ATOM     67  C   UNL     1       9.453 -12.231  -9.765  1.00  0.00     0.022 A 
BRANCH  65  68
ATOM     68  S   UNL     1      12.110 -11.790  -9.262  1.00  0.00     0.127 S 
ATOM     69  O   UNL     1      12.278 -13.102  -8.640  1.00  0.00    -0.237 OA
ATOM     70  O   UNL     1      12.209 -11.788 -10.722  1.00  0.00    -0.237 OA
ATOM     71  O   UNL     1      12.814 -10.695  -8.607  1.00  0.00    -0.744 OA
ENDBRANCH  65  68
ENDBRANCH  38  61
ENDBRANCH  12  13
ENDBRANCH   5   7
ENDBRANCH   4   5
ENDBRANCH   3   4
ENDBRANCH   2   3
ENDBRANCH   1   2
BRANCH   1  72
ATOM     72  C   UNL     1       5.068  -3.229   1.036  1.00  0.00     0.202 C 
BRANCH  72  73
ATOM     73  C   UNL     1       3.573  -2.671   2.052  1.00  0.00     0.261 C 
BRANCH  73  74
ATOM     74  O   UNL     1       3.685  -0.777   2.821  1.00  0.00    -0.460 OA
BRANCH  74  75
ATOM     75  C   UNL     1       4.488   0.192   3.553  1.00  0.00     0.339 C 
ATOM     76  O   UNL     1       5.733   0.231   3.571  1.00  0.00    -0.246 OA
BRANCH  75  77
ATOM     77  C   UNL     1       3.941   1.105   4.575  1.00  0.00     0.072 A 
ATOM     78  C   UNL     1       4.760   2.282   4.525  1.00  0.00     0.016 A 
ATOM     79  C   UNL     1       3.718   0.509   5.831  1.00  0.00     0.054 A 
ATOM     80  C   UNL     1       5.578   2.635   5.605  1.00  0.00     0.001 A 
ATOM     81  C   UNL     1       4.463   0.975   6.942  1.00  0.00     0.015 A 
ATOM     82  C   UNL     1       5.439   1.968   6.812  1.00  0.00     0.001 A 
BRANCH  79  83
ATOM     83  C   UNL     1       2.609  -0.440   6.159  1.00  0.00     0.256 C 
ATOM     84  O   UNL     1       2.008  -0.240   7.220  1.00  0.00    -0.269 OA
ATOM     85  N   UNL     1       2.142  -1.447   5.339  1.00  0.00    -0.322 N 
ATOM     86  H   UNL     1       1.337  -1.922   5.648  1.00  0.00     0.170 HD
BRANCH  85  87
ATOM     87  C   UNL     1       2.679  -1.870   4.119  1.00  0.00     0.041 A 
ATOM     88  C   UNL     1       1.770  -1.268   2.750  1.00  0.00     0.028 A 
ATOM     89  C   UNL     1       4.411  -2.168   4.021  1.00  0.00     0.028 A 
ATOM     90  C   UNL     1       2.555  -0.832   1.227  1.00  0.00     0.029 A 
ATOM     91  C   UNL     1       5.267  -1.724   2.482  1.00  0.00     0.029 A 
ATOM     92  C   UNL     1       4.308  -1.104   0.918  1.00  0.00     0.052 A 
BRANCH  92  93
ATOM     93  N   UNL     1       4.953  -1.058  -0.793  1.00  0.00    -0.250 N 
ATOM     94  C   UNL     1       5.697  -2.113  -1.536  1.00  0.00     0.237 C 
ATOM     95  C   UNL     1       5.309   0.108  -1.637  1.00  0.00     0.237 C 
ATOM     96  O   UNL     1       5.561  -3.321  -1.617  1.00  0.00    -0.274 OA
ATOM     97  C   UNL     1       6.788  -1.391  -2.338  1.00  0.00     0.095 C 
ATOM     98  C   UNL     1       5.878  -0.367  -2.898  1.00  0.00     0.095 C 
ATOM     99  O   UNL     1       5.369   1.330  -1.555  1.00  0.00    -0.274 OA
ATOM    100  C   UNL     1       7.814  -1.472  -3.490  1.00  0.00     0.002 C 
ATOM    101  C   UNL     1       6.768   0.495  -3.795  1.00  0.00     0.002 C 
ATOM    102  C   UNL     1       8.906  -0.414  -3.116  1.00  0.00     0.005 C 
ATOM    103  C   UNL     1       7.234  -0.658  -4.670  1.00  0.00     0.009 C 
ATOM    104  C   UNL     1       8.102   0.915  -3.144  1.00  0.00     0.005 C 
ENDBRANCH  92  93
ENDBRANCH  85  87
ENDBRANCH  79  83
ENDBRANCH  75  77
ENDBRANCH  74  75
ENDBRANCH  73  74
ENDBRANCH  72  73
ENDBRANCH   1  72
TORSDOF 20
