REMARK SMILES O=C(COc1ccccc1/C=C1\C(=O)Nc2ccccc21)OCCOCCOC(=O)c1ccc(-c2c3nc(c(-c4cccc(S(=O)(=O)[O-])c4F)c4ccc([nH]4)c(-c4cccc(S(=O)(=O)[O-])c4F)c4nc(c(-c5cccc(S(=O)(=O)[O-])c5F)c5ccc2[nH]5)C=C4)C=C3)cc1
REMARK SMILES IDX 25 1 24 2 23 3 22 4 2 5 1 6 3 7 4 8 5 9 6 10 10 11 7 12 9 13
REMARK SMILES IDX 8 14 11 15 12 16 13 17 21 18 14 19 15 20 16 21 20 22 17 24
REMARK SMILES IDX 19 25 18 26 26 27 27 28 28 29 29 30 30 31 31 32 32 33 93 34
REMARK SMILES IDX 33 35 92 36 34 37 35 38 36 39 86 40 37 41 91 42 85 43 87 44
REMARK SMILES IDX 38 45 90 46 84 47 83 48 39 50 71 51 51 52 70 53 52 54 55 55
REMARK SMILES IDX 69 56 88 57 53 58 54 59 68 61 89 62 56 63 40 64 41 65 49 66
REMARK SMILES IDX 42 67 44 68 50 69 43 70 45 71 46 72 47 73 48 74 72 75 73 76
REMARK SMILES IDX 81 77 74 78 76 79 82 80 75 81 77 82 78 83 79 84 80 85 57 86
REMARK SMILES IDX 58 87 66 88 59 89 61 90 67 91 60 92 62 93 63 94 64 95 65 96
REMARK H PARENT 15 23 87 49 55 60
REMARK Flexibility Score: inf
ROOT
ATOM      1  O   UNL     1       4.605   2.247  -0.660  1.00  0.00    -0.374 OA
ENDROOT
BRANCH   1   2
ATOM      2  C   UNL     1       5.048   0.909  -0.834  1.00  0.00     0.202 C 
BRANCH   2   3
ATOM      3  C   UNL     1       4.126  -0.245  -0.426  1.00  0.00     0.261 C 
BRANCH   3   4
ATOM      4  O   UNL     1       2.760  -0.105  -0.853  1.00  0.00    -0.461 OA
BRANCH   4   5
ATOM      5  C   UNL     1       1.695   0.270  -0.111  1.00  0.00     0.344 C 
ATOM      6  O   UNL     1       0.619   0.473  -0.680  1.00  0.00    -0.248 OA
BRANCH   5   7
ATOM      7  C   UNL     1       1.816   0.548   1.385  1.00  0.00     0.351 C 
BRANCH   7   8
ATOM      8  O   UNL     1       2.856   0.012   2.158  1.00  0.00    -0.481 OA
BRANCH   8   9
ATOM      9  C   UNL     1       2.648  -1.083   2.948  1.00  0.00     0.127 A 
ATOM     10  C   UNL     1       3.375  -0.976   4.148  1.00  0.00     0.047 A 
ATOM     11  C   UNL     1       1.944  -2.267   2.648  1.00  0.00     0.017 A 
ATOM     12  C   UNL     1       3.424  -2.023   5.059  1.00  0.00     0.004 A 
ATOM     13  C   UNL     1       2.079  -3.337   3.551  1.00  0.00     0.012 A 
ATOM     14  C   UNL     1       2.787  -3.214   4.751  1.00  0.00     0.001 A 
BRANCH  11  15
ATOM     15  C   UNL     1       1.177  -2.494   1.405  1.00  0.00     0.026 C 
ATOM     16  C   UNL     1      -0.026  -3.077   1.244  1.00  0.00     0.050 C 
ATOM     17  C   UNL     1      -0.909  -3.747   2.280  1.00  0.00     0.256 C 
ATOM     18  C   UNL     1      -0.732  -3.217  -0.045  1.00  0.00     0.011 A 
ATOM     19  O   UNL     1      -0.781  -3.789   3.487  1.00  0.00    -0.269 OA
ATOM     20  N   UNL     1      -1.948  -4.314   1.559  1.00  0.00    -0.321 N 
ATOM     21  C   UNL     1      -1.870  -3.988   0.211  1.00  0.00     0.049 A 
ATOM     22  C   UNL     1      -0.515  -2.713  -1.316  1.00  0.00     0.011 A 
ATOM     23  H   UNL     1      -2.652  -4.877   1.953  1.00  0.00     0.170 HD
ATOM     24  C   UNL     1      -2.794  -4.313  -0.763  1.00  0.00     0.027 A 
ATOM     25  C   UNL     1      -1.452  -3.008  -2.316  1.00  0.00     0.001 A 
ATOM     26  C   UNL     1      -2.577  -3.807  -2.044  1.00  0.00     0.002 A 
ENDBRANCH  11  15
ENDBRANCH   8   9
ENDBRANCH   7   8
ENDBRANCH   5   7
ENDBRANCH   4   5
ENDBRANCH   3   4
ENDBRANCH   2   3
ENDBRANCH   1   2
BRANCH   1  27
ATOM     27  C   UNL     1       3.468   2.710  -1.381  1.00  0.00     0.202 C 
BRANCH  27  28
ATOM     28  C   UNL     1       3.339   2.532  -2.904  1.00  0.00     0.261 C 
BRANCH  28  29
ATOM     29  O   UNL     1       3.662   1.233  -3.416  1.00  0.00    -0.460 OA
BRANCH  29  30
ATOM     30  C   UNL     1       4.789   1.185  -4.169  1.00  0.00     0.338 C 
ATOM     31  O   UNL     1       5.563   2.098  -4.400  1.00  0.00    -0.246 OA
BRANCH  30  32
ATOM     32  C   UNL     1       5.060  -0.206  -4.567  1.00  0.00     0.060 A 
ATOM     33  C   UNL     1       6.242  -0.809  -4.118  1.00  0.00     0.016 A 
ATOM     34  C   UNL     1       4.205  -0.873  -5.445  1.00  0.00     0.016 A 
ATOM     35  C   UNL     1       6.584  -2.084  -4.564  1.00  0.00     0.010 A 
ATOM     36  C   UNL     1       4.559  -2.144  -5.903  1.00  0.00     0.010 A 
ATOM     37  C   UNL     1       5.759  -2.744  -5.483  1.00  0.00    -0.014 A 
BRANCH  37  38
ATOM     38  C   UNL     1       6.189  -4.026  -6.086  1.00  0.00     0.031 A 
ATOM     39  C   UNL     1       6.830  -4.018  -7.444  1.00  0.00     0.074 A 
ATOM     40  C   UNL     1       5.955  -5.184  -5.444  1.00  0.00     0.049 A 
ATOM     41  N   UNL     1       7.202  -5.026  -8.187  1.00  0.00    -0.248 NA
ATOM     42  C   UNL     1       7.083  -2.698  -8.050  1.00  0.00     0.031 C 
ATOM     43  C   UNL     1       5.329  -5.306  -4.127  1.00  0.00     0.029 A 
ATOM     44  N   UNL     1       6.176  -6.481  -5.834  1.00  0.00    -0.354 N 
ATOM     45  C   UNL     1       7.699  -4.470  -9.359  1.00  0.00     0.074 A 
ATOM     46  C   UNL     1       7.589  -3.034  -9.229  1.00  0.00     0.031 C 
ATOM     47  C   UNL     1       5.168  -6.609  -3.841  1.00  0.00     0.029 A 
ATOM     48  C   UNL     1       5.656  -7.409  -4.962  1.00  0.00     0.049 A 
ATOM     49  H   UNL     1       6.659  -6.723  -6.657  1.00  0.00     0.167 HD
ATOM     50  C   UNL     1       8.208  -5.103 -10.441  1.00  0.00     0.034 A 
ATOM     51  C   UNL     1       5.551  -8.748  -5.077  1.00  0.00     0.034 A 
ATOM     52  C   UNL     1       8.337  -6.530 -10.552  1.00  0.00     0.049 A 
ATOM     53  C   UNL     1       6.107  -9.422  -6.304  1.00  0.00     0.074 A 
ATOM     54  C   UNL     1       8.922  -7.264 -11.568  1.00  0.00     0.029 A 
ATOM     55  N   UNL     1       7.853  -7.440  -9.626  1.00  0.00    -0.354 N 
ATOM     56  N   UNL     1       6.725  -8.889  -7.330  1.00  0.00    -0.248 NA
ATOM     57  C   UNL     1       5.973 -10.885  -6.380  1.00  0.00     0.031 C 
ATOM     58  C   UNL     1       8.765  -8.621 -11.270  1.00  0.00     0.029 A 
ATOM     59  C   UNL     1       8.099  -8.731 -10.060  1.00  0.00     0.049 A 
ATOM     60  H   UNL     1       7.401  -7.204  -8.784  1.00  0.00     0.167 HD
ATOM     61  C   UNL     1       7.071  -9.949  -8.161  1.00  0.00     0.074 A 
ATOM     62  C   UNL     1       6.621 -11.158  -7.504  1.00  0.00     0.031 C 
ATOM     63  C   UNL     1       7.686  -9.925  -9.370  1.00  0.00     0.034 A 
BRANCH  50  64
ATOM     64  C   UNL     1       8.695  -4.263 -11.590  1.00  0.00     0.023 A 
ATOM     65  C   UNL     1       9.935  -3.601 -11.490  1.00  0.00     0.012 A 
ATOM     66  C   UNL     1       7.973  -4.209 -12.798  1.00  0.00     0.148 A 
ATOM     67  C   UNL     1      10.444  -2.886 -12.573  1.00  0.00     0.002 A 
ATOM     68  C   UNL     1       8.503  -3.523 -13.884  1.00  0.00     0.091 A 
ATOM     69  F   UNL     1       6.787  -4.830 -12.861  1.00  0.00    -0.205 F 
ATOM     70  C   UNL     1       9.735  -2.856 -13.772  1.00  0.00     0.022 A 
BRANCH  68  71
ATOM     71  S   UNL     1       7.703  -3.479 -15.492  1.00  0.00     0.127 S 
ATOM     72  O   UNL     1       7.336  -2.068 -15.600  1.00  0.00    -0.237 OA
ATOM     73  O   UNL     1       8.784  -3.898 -16.384  1.00  0.00    -0.237 OA
ATOM     74  O   UNL     1       6.583  -4.406 -15.411  1.00  0.00    -0.744 OA
ENDBRANCH  68  71
ENDBRANCH  50  64
BRANCH  51  75
ATOM     75  C   UNL     1       4.896  -9.543  -4.000  1.00  0.00     0.023 A 
ATOM     76  C   UNL     1       5.667 -10.419  -3.213  1.00  0.00     0.012 A 
ATOM     77  C   UNL     1       3.514  -9.433  -3.750  1.00  0.00     0.148 A 
ATOM     78  C   UNL     1       5.069 -11.194  -2.218  1.00  0.00     0.002 A 
ATOM     79  C   UNL     1       2.934 -10.167  -2.721  1.00  0.00     0.091 A 
ATOM     80  F   UNL     1       2.788  -8.615  -4.526  1.00  0.00    -0.205 F 
ATOM     81  C   UNL     1       3.706 -11.060  -1.964  1.00  0.00     0.022 A 
BRANCH  79  82
ATOM     82  S   UNL     1       1.213  -9.949  -2.254  1.00  0.00     0.127 S 
ATOM     83  O   UNL     1       0.581 -11.102  -2.886  1.00  0.00    -0.237 OA
ATOM     84  O   UNL     1       1.279 -10.006  -0.793  1.00  0.00    -0.237 OA
ATOM     85  O   UNL     1       0.836  -8.643  -2.780  1.00  0.00    -0.744 OA
ENDBRANCH  79  82
ENDBRANCH  51  75
BRANCH  63  86
ATOM     86  C   UNL     1       7.917 -11.241 -10.063  1.00  0.00     0.023 A 
ATOM     87  C   UNL     1       6.829 -11.907 -10.661  1.00  0.00     0.012 A 
ATOM     88  C   UNL     1       9.215 -11.770 -10.200  1.00  0.00     0.148 A 
ATOM     89  C   UNL     1       7.026 -13.095 -11.363  1.00  0.00     0.002 A 
ATOM     90  C   UNL     1       9.410 -12.930 -10.940  1.00  0.00     0.091 A 
ATOM     91  F   UNL     1      10.233 -11.127  -9.609  1.00  0.00    -0.205 F 
ATOM     92  C   UNL     1       8.316 -13.599 -11.513  1.00  0.00     0.022 A 
BRANCH  90  93
ATOM     93  S   UNL     1      11.044 -13.601 -11.265  1.00  0.00     0.127 S 
ATOM     94  O   UNL     1      11.051 -14.792 -10.417  1.00  0.00    -0.237 OA
ATOM     95  O   UNL     1      10.987 -13.876 -12.701  1.00  0.00    -0.237 OA
ATOM     96  O   UNL     1      11.989 -12.559 -10.887  1.00  0.00    -0.744 OA
ENDBRANCH  90  93
ENDBRANCH  63  86
ENDBRANCH  37  38
ENDBRANCH  30  32
ENDBRANCH  29  30
ENDBRANCH  28  29
ENDBRANCH  27  28
ENDBRANCH   1  27
TORSDOF 20
