REMARK SMILES Cc1ccc(S(=O)(=O)N2c3ccc(C(=O)OCCOCCOC(=O)c4ccc(-c5c6nc(c(-c7cccc(S(=O)(=O)[O-])c7F)c7ccc([nH]7)c(-c7cccc(S(=O)(=O)[O-])c7F)c7nc(c(-c8cccc(S(=O)(=O)[O-])c8F)c8ccc5[nH]8)C=C7)C=C6)cc4)cc3C[C@H]2C)cc1
REMARK SMILES IDX 20 1 19 2 18 3 17 4 16 5 14 6 15 7 13 8 9 9 10 10 91 11
REMARK SMILES IDX 11 12 89 13 90 14 92 15 12 16 88 17 6 18 7 19 8 20 5 21 1 22
REMARK SMILES IDX 2 23 3 24 94 25 4 26 93 27 21 28 22 29 23 30 24 31 25 32
REMARK SMILES IDX 26 33 87 34 27 35 86 36 28 37 29 38 30 39 80 40 31 41 85 42
REMARK SMILES IDX 79 43 81 44 32 45 84 46 78 47 77 48 33 50 65 51 45 52 64 53
REMARK SMILES IDX 46 54 49 55 63 56 82 57 47 58 48 59 62 61 83 62 50 63 34 64
REMARK SMILES IDX 35 65 43 66 36 67 38 68 44 69 37 70 39 71 40 72 41 73 42 74
REMARK SMILES IDX 66 75 67 76 75 77 68 78 70 79 76 80 69 81 71 82 72 83 73 84
REMARK SMILES IDX 74 85 51 86 52 87 60 88 53 89 55 90 61 91 54 92 56 93 57 94
REMARK SMILES IDX 58 95 59 96
REMARK H PARENT 81 49 49 60
REMARK Flexibility Score: inf
ROOT
ATOM      1  C   UNL     1      -9.518   5.985   1.434  1.00  0.00     0.202 C 
ENDROOT
BRANCH   1   2
ATOM      2  O   UNL     1     -10.062   4.729   1.136  1.00  0.00    -0.374 OA
BRANCH   2   3
ATOM      3  C   UNL     1     -10.423   3.908   2.231  1.00  0.00     0.202 C 
BRANCH   3   4
ATOM      4  C   UNL     1     -10.809   2.619   1.596  1.00  0.00     0.261 C 
BRANCH   4   5
ATOM      5  O   UNL     1      -9.659   2.010   0.984  1.00  0.00    -0.460 OA
BRANCH   5   6
ATOM      6  C   UNL     1      -9.177   2.447  -0.219  1.00  0.00     0.338 C 
ATOM      7  O   UNL     1      -9.653   3.184  -1.039  1.00  0.00    -0.246 OA
BRANCH   6   8
ATOM      8  C   UNL     1      -7.775   2.014  -0.246  1.00  0.00     0.060 A 
ATOM      9  N   UNL     1      -3.705   1.676   0.393  1.00  0.00    -0.263 N 
ATOM     10  C   UNL     1      -5.133   1.687   0.250  1.00  0.00     0.055 A 
ATOM     11  C   UNL     1      -3.277   2.967  -0.285  1.00  0.00     0.101 C 
ATOM     12  C   UNL     1      -6.008   0.842   0.900  1.00  0.00     0.028 A 
ATOM     13  C   UNL     1      -5.546   2.637  -0.685  1.00  0.00    -0.021 A 
ATOM     14  C   UNL     1      -4.388   3.355  -1.278  1.00  0.00     0.063 C 
ATOM     15  C   UNL     1      -3.149   4.026   0.829  1.00  0.00     0.032 C 
ATOM     16  C   UNL     1      -7.348   0.986   0.617  1.00  0.00     0.018 A 
ATOM     17  C   UNL     1      -6.880   2.809  -0.964  1.00  0.00     0.021 A 
BRANCH   9  18
ATOM     18  S   UNL     1      -3.114   0.183  -0.223  1.00  0.00     0.264 S 
ATOM     19  O   UNL     1      -3.287   0.187  -1.661  1.00  0.00    -0.201 OA
ATOM     20  O   UNL     1      -3.652  -0.888   0.598  1.00  0.00    -0.201 OA
BRANCH  18  21
ATOM     21  C   UNL     1      -1.373   0.113   0.055  1.00  0.00     0.088 A 
ATOM     22  C   UNL     1       2.885  -0.238   0.012  1.00  0.00     0.044 C 
ATOM     23  C   UNL     1       1.396  -0.126   0.086  1.00  0.00    -0.051 A 
ATOM     24  C   UNL     1       0.602  -1.262  -0.102  1.00  0.00     0.005 A 
ATOM     25  C   UNL     1       0.790   1.107   0.352  1.00  0.00     0.005 A 
ATOM     26  C   UNL     1      -0.781  -1.141  -0.130  1.00  0.00     0.022 A 
ATOM     27  C   UNL     1      -0.597   1.220   0.371  1.00  0.00     0.022 A 
ENDBRANCH  18  21
ENDBRANCH   9  18
ENDBRANCH   6   8
ENDBRANCH   5   6
ENDBRANCH   4   5
ENDBRANCH   3   4
ENDBRANCH   2   3
ENDBRANCH   1   2
BRANCH   1  28
ATOM     28  C   UNL     1     -10.498   6.840   2.233  1.00  0.00     0.261 C 
BRANCH  28  29
ATOM     29  O   UNL     1     -11.677   7.080   1.433  1.00  0.00    -0.460 OA
BRANCH  29  30
ATOM     30  C   UNL     1     -12.771   6.326   1.753  1.00  0.00     0.338 C 
ATOM     31  O   UNL     1     -13.254   6.275   2.873  1.00  0.00    -0.246 OA
BRANCH  30  32
ATOM     32  C   UNL     1     -13.132   5.423   0.614  1.00  0.00     0.060 A 
ATOM     33  C   UNL     1     -14.010   4.340   0.811  1.00  0.00     0.016 A 
ATOM     34  C   UNL     1     -12.367   5.477  -0.548  1.00  0.00     0.016 A 
ATOM     35  C   UNL     1     -13.980   3.228  -0.051  1.00  0.00     0.010 A 
ATOM     36  C   UNL     1     -12.284   4.350  -1.343  1.00  0.00     0.010 A 
ATOM     37  C   UNL     1     -13.035   3.190  -1.066  1.00  0.00    -0.014 A 
BRANCH  37  38
ATOM     38  C   UNL     1     -12.727   2.049  -1.939  1.00  0.00     0.031 A 
ATOM     39  C   UNL     1     -13.112   2.211  -3.354  1.00  0.00     0.074 A 
ATOM     40  C   UNL     1     -11.836   1.083  -1.594  1.00  0.00     0.049 A 
ATOM     41  N   UNL     1     -12.948   1.320  -4.264  1.00  0.00    -0.248 NA
ATOM     42  C   UNL     1     -13.750   3.428  -3.851  1.00  0.00     0.031 C 
ATOM     43  C   UNL     1     -10.847   0.431  -2.459  1.00  0.00     0.029 A 
ATOM     44  N   UNL     1     -11.577   0.511  -0.355  1.00  0.00    -0.354 N 
ATOM     45  C   UNL     1     -13.134   1.941  -5.477  1.00  0.00     0.074 A 
ATOM     46  C   UNL     1     -13.703   3.228  -5.168  1.00  0.00     0.031 C 
ATOM     47  C   UNL     1     -10.208  -0.541  -1.779  1.00  0.00     0.029 A 
ATOM     48  C   UNL     1     -10.861  -0.679  -0.488  1.00  0.00     0.049 A 
ATOM     49  H   UNL     1     -11.862   0.896   0.506  1.00  0.00     0.167 HD
ATOM     50  C   UNL     1     -12.623   1.350  -6.592  1.00  0.00     0.034 A 
ATOM     51  C   UNL     1     -11.333  -1.812   0.100  1.00  0.00     0.034 A 
ATOM     52  C   UNL     1     -12.002   0.051  -6.242  1.00  0.00     0.049 A 
ATOM     53  C   UNL     1     -11.855  -2.705  -0.993  1.00  0.00     0.074 A 
ATOM     54  C   UNL     1     -10.690  -0.333  -6.005  1.00  0.00     0.029 A 
ATOM     55  N   UNL     1     -12.797  -0.965  -5.699  1.00  0.00    -0.354 N 
ATOM     56  N   UNL     1     -11.950  -2.296  -2.228  1.00  0.00    -0.248 NA
ATOM     57  C   UNL     1     -12.226  -4.106  -0.852  1.00  0.00     0.031 C 
ATOM     58  C   UNL     1     -10.712  -1.531  -5.228  1.00  0.00     0.029 A 
ATOM     59  C   UNL     1     -12.032  -1.905  -5.013  1.00  0.00     0.049 A 
ATOM     60  H   UNL     1     -13.776  -1.010  -5.790  1.00  0.00     0.167 HD
ATOM     61  C   UNL     1     -12.398  -3.281  -3.032  1.00  0.00     0.074 A 
ATOM     62  C   UNL     1     -12.537  -4.416  -2.126  1.00  0.00     0.031 C 
ATOM     63  C   UNL     1     -12.655  -3.061  -4.355  1.00  0.00     0.034 A 
BRANCH  50  64
ATOM     64  C   UNL     1     -12.395   2.114  -7.889  1.00  0.00     0.023 A 
ATOM     65  C   UNL     1     -11.332   1.695  -8.716  1.00  0.00     0.012 A 
ATOM     66  C   UNL     1     -13.112   3.253  -8.339  1.00  0.00     0.148 A 
ATOM     67  C   UNL     1     -10.947   2.400  -9.864  1.00  0.00     0.002 A 
ATOM     68  C   UNL     1     -12.678   4.006  -9.438  1.00  0.00     0.091 A 
ATOM     69  F   UNL     1     -14.284   3.568  -7.776  1.00  0.00    -0.205 F 
ATOM     70  C   UNL     1     -11.595   3.578 -10.206  1.00  0.00     0.022 A 
BRANCH  68  71
ATOM     71  S   UNL     1     -13.411   5.599  -9.868  1.00  0.00     0.127 S 
ATOM     72  O   UNL     1     -12.234   6.413 -10.187  1.00  0.00    -0.237 OA
ATOM     73  O   UNL     1     -14.242   5.264 -11.021  1.00  0.00    -0.237 OA
ATOM     74  O   UNL     1     -14.123   6.041  -8.675  1.00  0.00    -0.744 OA
ENDBRANCH  68  71
ENDBRANCH  50  64
BRANCH  51  75
ATOM     75  C   UNL     1     -11.893  -1.537   1.469  1.00  0.00     0.023 A 
ATOM     76  C   UNL     1     -10.939  -1.222   2.478  1.00  0.00     0.012 A 
ATOM     77  C   UNL     1     -13.219  -1.099   1.650  1.00  0.00     0.148 A 
ATOM     78  C   UNL     1     -11.267  -0.408   3.569  1.00  0.00     0.002 A 
ATOM     79  C   UNL     1     -13.522  -0.234   2.707  1.00  0.00     0.091 A 
ATOM     80  F   UNL     1     -14.138  -1.455   0.744  1.00  0.00    -0.205 F 
ATOM     81  C   UNL     1     -12.549   0.119   3.659  1.00  0.00     0.022 A 
BRANCH  79  82
ATOM     82  S   UNL     1     -15.072   0.681   2.787  1.00  0.00     0.127 S 
ATOM     83  O   UNL     1     -15.760   0.009   3.885  1.00  0.00    -0.237 OA
ATOM     84  O   UNL     1     -14.608   2.035   3.095  1.00  0.00    -0.237 OA
ATOM     85  O   UNL     1     -15.682   0.539   1.474  1.00  0.00    -0.744 OA
ENDBRANCH  79  82
ENDBRANCH  51  75
BRANCH  63  86
ATOM     86  C   UNL     1     -13.540  -3.987  -5.132  1.00  0.00     0.023 A 
ATOM     87  C   UNL     1     -14.531  -4.755  -4.486  1.00  0.00     0.012 A 
ATOM     88  C   UNL     1     -13.528  -3.988  -6.542  1.00  0.00     0.148 A 
ATOM     89  C   UNL     1     -15.398  -5.579  -5.196  1.00  0.00     0.002 A 
ATOM     90  C   UNL     1     -14.486  -4.699  -7.246  1.00  0.00     0.091 A 
ATOM     91  F   UNL     1     -12.583  -3.306  -7.204  1.00  0.00    -0.205 F 
ATOM     92  C   UNL     1     -15.389  -5.535  -6.581  1.00  0.00     0.022 A 
BRANCH  90  93
ATOM     93  S   UNL     1     -14.722  -4.443  -9.006  1.00  0.00     0.127 S 
ATOM     94  O   UNL     1     -14.042  -5.606  -9.570  1.00  0.00    -0.237 OA
ATOM     95  O   UNL     1     -16.181  -4.470  -9.125  1.00  0.00    -0.237 OA
ATOM     96  O   UNL     1     -14.123  -3.148  -9.296  1.00  0.00    -0.744 OA
ENDBRANCH  90  93
ENDBRANCH  63  86
ENDBRANCH  37  38
ENDBRANCH  30  32
ENDBRANCH  29  30
ENDBRANCH  28  29
ENDBRANCH   1  28
TORSDOF 19
