REMARK SMILES Cc1cc(OCC(=O)OCCOCCOC(=O)c2ccc(-c3c4nc(c(-c5cccc(S(=O)(=O)[O-])c5F)c5ccc([nH]5)c(-c5cccc(S(=O)(=O)[O-])c5F)c5nc(c(-c6cccc(S(=O)(=O)[O-])c6F)c6ccc3[nH]6)C=C5)C=C4)cc2)ccc1NC(=O)c1ccc(N2C(=O)[C@@H]3[C@H](C2=O)[C@H]2C=C[C@@H]3C2)cc1
REMARK SMILES IDX 11 1 10 2 9 3 7 4 8 5 6 6 5 7 4 8 1 9 2 10 3 11 83 12 82 13
REMARK SMILES IDX 81 14 84 15 85 16 86 18 87 19 88 20 104 21 89 22 103 23
REMARK SMILES IDX 90 24 91 25 92 26 96 27 93 28 94 29 95 30 97 31 101 32 98 33
REMARK SMILES IDX 100 34 102 35 99 36 12 37 13 38 14 39 15 40 16 41 17 42
REMARK SMILES IDX 18 43 19 44 80 45 20 46 79 47 21 48 22 49 23 50 73 51 24 52
REMARK SMILES IDX 78 53 72 54 74 55 25 56 77 57 71 58 70 59 26 61 58 62 38 63
REMARK SMILES IDX 57 64 39 65 42 66 56 67 75 68 40 69 41 70 55 72 76 73 43 74
REMARK SMILES IDX 27 75 28 76 36 77 29 78 31 79 37 80 30 81 32 82 33 83 34 84
REMARK SMILES IDX 35 85 59 86 60 87 68 88 61 89 63 90 69 91 62 92 64 93 65 94
REMARK SMILES IDX 66 95 67 96 44 97 45 98 53 99 46 100 48 101 54 102 47 103
REMARK SMILES IDX 49 104 50 105 51 106 52 107
REMARK H PARENT 84 17 74 60 42 71
REMARK Flexibility Score: inf
ROOT
ATOM      1  C   UNL     1      -1.635  -1.968   2.671  1.00  0.00     0.202 C 
ENDROOT
BRANCH   1   2
ATOM      2  C   UNL     1      -2.240  -3.039   1.777  1.00  0.00     0.261 C 
BRANCH   2   3
ATOM      3  O   UNL     1      -1.834  -2.887   0.406  1.00  0.00    -0.461 OA
BRANCH   3   4
ATOM      4  C   UNL     1      -2.797  -2.398  -0.433  1.00  0.00     0.344 C 
ATOM      5  O   UNL     1      -3.916  -2.009  -0.126  1.00  0.00    -0.248 OA
BRANCH   4   6
ATOM      6  C   UNL     1      -2.333  -2.472  -1.880  1.00  0.00     0.351 C 
BRANCH   6   7
ATOM      7  O   UNL     1      -0.991  -2.094  -2.152  1.00  0.00    -0.482 OA
BRANCH   7   8
ATOM      8  C   UNL     1      -0.641  -0.838  -1.739  1.00  0.00     0.120 A 
ATOM      9  C   UNL     1       2.483   0.464  -0.071  1.00  0.00     0.047 C 
ATOM     10  C   UNL     1       1.136   0.510  -0.743  1.00  0.00    -0.024 A 
ATOM     11  C   UNL     1       0.645  -0.722  -1.222  1.00  0.00     0.052 A 
ATOM     12  C   UNL     1       0.307   1.656  -0.800  1.00  0.00     0.044 A 
ATOM     13  C   UNL     1      -0.978   1.528  -1.343  1.00  0.00     0.030 A 
ATOM     14  C   UNL     1      -1.450   0.291  -1.812  1.00  0.00     0.048 A 
BRANCH  12  15
ATOM     15  N   UNL     1       0.827   2.916  -0.423  1.00  0.00    -0.322 N 
ATOM     16  C   UNL     1       0.196   4.141  -0.347  1.00  0.00     0.255 C 
ATOM     17  H   UNL     1       1.781   2.920  -0.179  1.00  0.00     0.170 HD
ATOM     18  O   UNL     1       0.700   5.135  -0.867  1.00  0.00    -0.269 OA
BRANCH  16  19
ATOM     19  C   UNL     1      -0.942   4.339   0.585  1.00  0.00     0.040 A 
ATOM     20  C   UNL     1      -2.174   4.812   0.146  1.00  0.00     0.016 A 
ATOM     21  C   UNL     1      -0.712   4.282   1.956  1.00  0.00     0.016 A 
ATOM     22  C   UNL     1      -3.206   5.086   1.073  1.00  0.00     0.027 A 
ATOM     23  C   UNL     1      -1.737   4.600   2.873  1.00  0.00     0.027 A 
ATOM     24  C   UNL     1      -3.034   4.942   2.463  1.00  0.00     0.052 A 
BRANCH  24  25
ATOM     25  N   UNL     1      -4.122   5.093   3.405  1.00  0.00    -0.250 N 
ATOM     26  C   UNL     1      -5.452   5.252   3.041  1.00  0.00     0.238 C 
ATOM     27  C   UNL     1      -3.984   5.075   4.782  1.00  0.00     0.238 C 
ATOM     28  O   UNL     1      -5.942   5.258   1.929  1.00  0.00    -0.274 OA
ATOM     29  C   UNL     1      -6.302   5.422   4.280  1.00  0.00     0.099 C 
ATOM     30  C   UNL     1      -5.333   5.169   5.442  1.00  0.00     0.099 C 
ATOM     31  O   UNL     1      -2.957   5.082   5.450  1.00  0.00    -0.274 OA
ATOM     32  C   UNL     1      -7.366   4.318   4.458  1.00  0.00     0.025 C 
ATOM     33  C   UNL     1      -5.892   3.881   6.090  1.00  0.00     0.025 C 
ATOM     34  C   UNL     1      -8.074   4.557   5.776  1.00  0.00    -0.027 C 
ATOM     35  C   UNL     1      -6.505   3.134   4.902  1.00  0.00     0.017 C 
ATOM     36  C   UNL     1      -7.197   4.279   6.755  1.00  0.00    -0.027 C 
ENDBRANCH  24  25
ENDBRANCH  16  19
ENDBRANCH  12  15
ENDBRANCH   7   8
ENDBRANCH   6   7
ENDBRANCH   4   6
ENDBRANCH   3   4
ENDBRANCH   2   3
ENDBRANCH   1   2
BRANCH   1  37
ATOM     37  O   UNL     1      -2.200  -0.711   2.331  1.00  0.00    -0.374 OA
BRANCH  37  38
ATOM     38  C   UNL     1      -1.266   0.259   1.897  1.00  0.00     0.202 C 
BRANCH  38  39
ATOM     39  C   UNL     1      -0.457   0.859   3.043  1.00  0.00     0.261 C 
BRANCH  39  40
ATOM     40  O   UNL     1      -1.133   1.950   3.698  1.00  0.00    -0.460 OA
BRANCH  40  41
ATOM     41  C   UNL     1      -1.861   1.734   4.823  1.00  0.00     0.338 C 
ATOM     42  O   UNL     1      -1.514   2.138   5.920  1.00  0.00    -0.246 OA
BRANCH  41  43
ATOM     43  C   UNL     1      -3.195   1.163   4.539  1.00  0.00     0.060 A 
ATOM     44  C   UNL     1      -3.796   0.323   5.477  1.00  0.00     0.016 A 
ATOM     45  C   UNL     1      -3.809   1.387   3.304  1.00  0.00     0.016 A 
ATOM     46  C   UNL     1      -4.915  -0.429   5.114  1.00  0.00     0.010 A 
ATOM     47  C   UNL     1      -4.877   0.592   2.919  1.00  0.00     0.010 A 
ATOM     48  C   UNL     1      -5.404  -0.353   3.807  1.00  0.00    -0.014 A 
BRANCH  48  49
ATOM     49  C   UNL     1      -6.314  -1.341   3.234  1.00  0.00     0.031 A 
ATOM     50  C   UNL     1      -7.704  -1.022   2.848  1.00  0.00     0.074 A 
ATOM     51  C   UNL     1      -5.851  -2.578   2.953  1.00  0.00     0.049 A 
ATOM     52  N   UNL     1      -8.650  -1.905   2.847  1.00  0.00    -0.248 NA
ATOM     53  C   UNL     1      -8.150   0.312   2.471  1.00  0.00     0.031 C 
ATOM     54  C   UNL     1      -6.443  -3.548   2.040  1.00  0.00     0.029 A 
ATOM     55  N   UNL     1      -4.806  -3.267   3.563  1.00  0.00    -0.354 N 
ATOM     56  C   UNL     1      -9.742  -1.336   2.235  1.00  0.00     0.074 A 
ATOM     57  C   UNL     1      -9.409   0.066   2.091  1.00  0.00     0.031 C 
ATOM     58  C   UNL     1      -5.912  -4.753   2.287  1.00  0.00     0.029 A 
ATOM     59  C   UNL     1      -5.051  -4.635   3.451  1.00  0.00     0.049 A 
ATOM     60  H   UNL     1      -4.024  -2.857   4.000  1.00  0.00     0.167 HD
ATOM     61  C   UNL     1     -10.753  -2.119   1.762  1.00  0.00     0.034 A 
ATOM     62  C   UNL     1      -4.937  -5.523   4.473  1.00  0.00     0.034 A 
ATOM     63  C   UNL     1     -10.462  -3.549   1.925  1.00  0.00     0.049 A 
ATOM     64  C   UNL     1      -6.255  -6.202   4.756  1.00  0.00     0.074 A 
ATOM     65  C   UNL     1      -9.932  -4.493   1.058  1.00  0.00     0.029 A 
ATOM     66  N   UNL     1     -10.453  -4.133   3.187  1.00  0.00    -0.354 N 
ATOM     67  N   UNL     1      -7.338  -5.973   4.067  1.00  0.00    -0.248 NA
ATOM     68  C   UNL     1      -6.494  -7.145   5.846  1.00  0.00     0.031 C 
ATOM     69  C   UNL     1      -9.545  -5.627   1.817  1.00  0.00     0.029 A 
ATOM     70  C   UNL     1      -9.853  -5.387   3.144  1.00  0.00     0.049 A 
ATOM     71  H   UNL     1     -10.820  -3.716   3.999  1.00  0.00     0.167 HD
ATOM     72  C   UNL     1      -8.415  -6.524   4.698  1.00  0.00     0.074 A 
ATOM     73  C   UNL     1      -7.823  -7.337   5.747  1.00  0.00     0.031 C 
ATOM     74  C   UNL     1      -9.695  -6.186   4.357  1.00  0.00     0.034 A 
BRANCH  61  75
ATOM     75  C   UNL     1     -11.813  -1.581   0.819  1.00  0.00     0.023 A 
ATOM     76  C   UNL     1     -12.282  -2.423  -0.213  1.00  0.00     0.012 A 
ATOM     77  C   UNL     1     -12.337  -0.270   0.844  1.00  0.00     0.148 A 
ATOM     78  C   UNL     1     -13.121  -1.962  -1.233  1.00  0.00     0.002 A 
ATOM     79  C   UNL     1     -13.109   0.216  -0.216  1.00  0.00     0.091 A 
ATOM     80  F   UNL     1     -12.131   0.499   1.924  1.00  0.00    -0.205 F 
ATOM     81  C   UNL     1     -13.499  -0.628  -1.260  1.00  0.00     0.022 A 
BRANCH  79  82
ATOM     82  S   UNL     1     -13.508   1.965  -0.379  1.00  0.00     0.127 S 
ATOM     83  O   UNL     1     -13.309   2.203  -1.812  1.00  0.00    -0.237 OA
ATOM     84  O   UNL     1     -14.900   2.018   0.057  1.00  0.00    -0.237 OA
ATOM     85  O   UNL     1     -12.545   2.660   0.468  1.00  0.00    -0.744 OA
ENDBRANCH  79  82
ENDBRANCH  61  75
BRANCH  62  86
ATOM     86  C   UNL     1      -3.842  -5.191   5.424  1.00  0.00     0.023 A 
ATOM     87  C   UNL     1      -2.527  -5.370   4.928  1.00  0.00     0.012 A 
ATOM     88  C   UNL     1      -4.033  -4.369   6.547  1.00  0.00     0.148 A 
ATOM     89  C   UNL     1      -1.447  -4.665   5.461  1.00  0.00     0.002 A 
ATOM     90  C   UNL     1      -2.948  -3.659   7.069  1.00  0.00     0.091 A 
ATOM     91  F   UNL     1      -5.276  -4.208   7.018  1.00  0.00    -0.205 F 
ATOM     92  C   UNL     1      -1.665  -3.784   6.511  1.00  0.00     0.022 A 
BRANCH  90  93
ATOM     93  S   UNL     1      -3.160  -2.429   8.364  1.00  0.00     0.127 S 
ATOM     94  O   UNL     1      -2.860  -3.207   9.561  1.00  0.00    -0.237 OA
ATOM     95  O   UNL     1      -2.154  -1.429   8.008  1.00  0.00    -0.237 OA
ATOM     96  O   UNL     1      -4.534  -1.971   8.211  1.00  0.00    -0.744 OA
ENDBRANCH  90  93
ENDBRANCH  62  86
BRANCH  74  97
ATOM     97  C   UNL     1     -10.917  -6.558   5.160  1.00  0.00     0.023 A 
ATOM     98  C   UNL     1     -10.868  -6.720   6.557  1.00  0.00     0.012 A 
ATOM     99  C   UNL     1     -12.194  -6.581   4.548  1.00  0.00     0.148 A 
ATOM    100  C   UNL     1     -12.025  -6.937   7.311  1.00  0.00     0.002 A 
ATOM    101  C   UNL     1     -13.349  -6.693   5.315  1.00  0.00     0.091 A 
ATOM    102  F   UNL     1     -12.293  -6.506   3.212  1.00  0.00    -0.205 F 
ATOM    103  C   UNL     1     -13.269  -6.897   6.694  1.00  0.00     0.022 A 
BRANCH 101 104
ATOM    104  S   UNL     1     -14.961  -6.410   4.570  1.00  0.00     0.127 S 
ATOM    105  O   UNL     1     -15.305  -7.737   4.067  1.00  0.00    -0.237 OA
ATOM    106  O   UNL     1     -15.767  -5.964   5.708  1.00  0.00    -0.237 OA
ATOM    107  O   UNL     1     -14.723  -5.378   3.569  1.00  0.00    -0.744 OA
ENDBRANCH 101 104
ENDBRANCH  74  97
ENDBRANCH  48  49
ENDBRANCH  41  43
ENDBRANCH  40  41
ENDBRANCH  39  40
ENDBRANCH  38  39
ENDBRANCH  37  38
ENDBRANCH   1  37
TORSDOF 22
