REMARK SMILES Cc1cc(-c2cncc(C(=O)OCCOCCOC(=O)c3ccc(-c4c5nc(c(-c6cccc(S(=O)(=O)[O-])c6F)c6ccc([nH]6)c(-c6cccc(S(=O)(=O)[O-])c6F)c6nc(c(-c7cccc(S(=O)(=O)[O-])c7F)c7ccc4[nH]7)C=C6)C=C5)cc3)c2)ccc1F
REMARK SMILES IDX 16 1 15 2 14 3 13 4 12 5 10 6 11 7 9 8 5 9 6 10 84 11 7 12
REMARK SMILES IDX 8 13 4 14 1 15 2 16 3 17 87 18 86 19 88 20 85 21 17 22 18 23
REMARK SMILES IDX 19 24 20 25 21 26 22 27 83 28 23 29 82 30 24 31 25 32 26 33
REMARK SMILES IDX 76 34 27 35 81 36 75 37 77 38 28 39 80 40 74 41 73 42 29 44
REMARK SMILES IDX 61 45 41 46 60 47 42 48 45 49 59 50 78 51 43 52 44 53 58 55
REMARK SMILES IDX 79 56 46 57 30 58 31 59 39 60 32 61 34 62 40 63 33 64 35 65
REMARK SMILES IDX 36 66 37 67 38 68 62 69 63 70 71 71 64 72 66 73 72 74 65 75
REMARK SMILES IDX 67 76 68 77 69 78 70 79 47 80 48 81 56 82 49 83 51 84 57 85
REMARK SMILES IDX 50 86 52 87 53 88 54 89 55 90
REMARK H PARENT 77 43 45 54
REMARK Flexibility Score: inf
ROOT
ATOM      1  C   UNL     1      -7.615   2.951  -2.858  1.00  0.00     0.202 C 
ENDROOT
BRANCH   1   2
ATOM      2  O   UNL     1      -7.761   4.335  -3.173  1.00  0.00    -0.374 OA
BRANCH   2   3
ATOM      3  C   UNL     1      -6.718   5.096  -3.753  1.00  0.00     0.202 C 
BRANCH   3   4
ATOM      4  C   UNL     1      -5.444   5.391  -2.957  1.00  0.00     0.261 C 
BRANCH   4   5
ATOM      5  O   UNL     1      -4.906   4.264  -2.258  1.00  0.00    -0.460 OA
BRANCH   5   6
ATOM      6  C   UNL     1      -5.230   4.228  -0.944  1.00  0.00     0.339 C 
ATOM      7  O   UNL     1      -5.832   5.075  -0.307  1.00  0.00    -0.246 OA
BRANCH   6   8
ATOM      8  C   UNL     1      -4.845   2.936  -0.363  1.00  0.00     0.079 A 
ATOM      9  C   UNL     1      -3.290   1.131   0.062  1.00  0.00     0.001 A 
ATOM     10  C   UNL     1      -4.255   0.626   0.942  1.00  0.00     0.119 A 
ATOM     11  C   UNL     1      -3.631   2.303  -0.631  1.00  0.00     0.027 A 
ATOM     12  N   UNL     1      -5.457   1.199   1.195  1.00  0.00    -0.263 NA
ATOM     13  C   UNL     1      -5.717   2.354   0.545  1.00  0.00     0.126 A 
BRANCH   9  14
ATOM     14  C   UNL     1      -1.952   0.523  -0.038  1.00  0.00    -0.016 A 
ATOM     15  C   UNL     1       1.698   1.679   0.004  1.00  0.00     0.047 C 
ATOM     16  C   UNL     1       0.489   0.796  -0.027  1.00  0.00    -0.015 A 
ATOM     17  C   UNL     1      -0.802   1.340  -0.023  1.00  0.00     0.015 A 
ATOM     18  C   UNL     1       0.628  -0.590  -0.043  1.00  0.00     0.126 A 
ATOM     19  C   UNL     1      -0.484  -1.424  -0.072  1.00  0.00     0.040 A 
ATOM     20  F   UNL     1       1.852  -1.138  -0.018  1.00  0.00    -0.207 F 
ATOM     21  C   UNL     1      -1.767  -0.870  -0.075  1.00  0.00     0.012 A 
ENDBRANCH   9  14
ENDBRANCH   6   8
ENDBRANCH   5   6
ENDBRANCH   4   5
ENDBRANCH   3   4
ENDBRANCH   2   3
ENDBRANCH   1   2
BRANCH   1  22
ATOM     22  C   UNL     1      -7.056   1.943  -3.857  1.00  0.00     0.261 C 
BRANCH  22  23
ATOM     23  O   UNL     1      -5.704   2.225  -4.220  1.00  0.00    -0.460 OA
BRANCH  23  24
ATOM     24  C   UNL     1      -5.612   2.706  -5.478  1.00  0.00     0.338 C 
ATOM     25  O   UNL     1      -6.504   3.196  -6.152  1.00  0.00    -0.246 OA
BRANCH  24  26
ATOM     26  C   UNL     1      -4.302   2.412  -6.072  1.00  0.00     0.060 A 
ATOM     27  C   UNL     1      -4.204   2.925  -7.376  1.00  0.00     0.016 A 
ATOM     28  C   UNL     1      -3.778   1.169  -5.712  1.00  0.00     0.016 A 
ATOM     29  C   UNL     1      -3.999   2.027  -8.397  1.00  0.00     0.010 A 
ATOM     30  C   UNL     1      -3.567   0.278  -6.730  1.00  0.00     0.010 A 
ATOM     31  C   UNL     1      -3.786   0.696  -8.047  1.00  0.00    -0.014 A 
BRANCH  31  32
ATOM     32  C   UNL     1      -3.688  -0.341  -9.038  1.00  0.00     0.031 A 
ATOM     33  C   UNL     1      -2.429  -0.401  -9.778  1.00  0.00     0.074 A 
ATOM     34  C   UNL     1      -4.708  -1.197  -9.233  1.00  0.00     0.049 A 
ATOM     35  N   UNL     1      -2.319  -0.784 -10.998  1.00  0.00    -0.248 NA
ATOM     36  C   UNL     1      -1.179   0.105  -9.209  1.00  0.00     0.031 C 
ATOM     37  C   UNL     1      -4.674  -2.456  -9.958  1.00  0.00     0.029 A 
ATOM     38  N   UNL     1      -6.050  -1.002  -8.947  1.00  0.00    -0.354 N 
ATOM     39  C   UNL     1      -0.975  -0.955 -11.220  1.00  0.00     0.074 A 
ATOM     40  C   UNL     1      -0.312  -0.217 -10.170  1.00  0.00     0.031 C 
ATOM     41  C   UNL     1      -5.935  -2.829 -10.240  1.00  0.00     0.029 A 
ATOM     42  C   UNL     1      -6.817  -1.734  -9.865  1.00  0.00     0.049 A 
ATOM     43  H   UNL     1      -6.407  -0.443  -8.219  1.00  0.00     0.167 HD
ATOM     44  C   UNL     1      -0.570  -1.885 -12.126  1.00  0.00     0.034 A 
ATOM     45  C   UNL     1      -7.656  -1.082 -10.728  1.00  0.00     0.034 A 
ATOM     46  C   UNL     1      -1.719  -2.554 -12.731  1.00  0.00     0.049 A 
ATOM     47  C   UNL     1      -7.193  -1.126 -12.172  1.00  0.00     0.074 A 
ATOM     48  C   UNL     1      -2.347  -3.764 -12.480  1.00  0.00     0.029 A 
ATOM     49  N   UNL     1      -2.615  -1.814 -13.481  1.00  0.00    -0.354 N 
ATOM     50  N   UNL     1      -6.054  -1.632 -12.557  1.00  0.00    -0.248 NA
ATOM     51  C   UNL     1      -7.928  -0.518 -13.280  1.00  0.00     0.031 C 
ATOM     52  C   UNL     1      -3.621  -3.749 -13.114  1.00  0.00     0.029 A 
ATOM     53  C   UNL     1      -3.760  -2.536 -13.758  1.00  0.00     0.049 A 
ATOM     54  H   UNL     1      -2.457  -0.890 -13.781  1.00  0.00     0.167 HD
ATOM     55  C   UNL     1      -5.896  -1.455 -13.904  1.00  0.00     0.074 A 
ATOM     56  C   UNL     1      -7.079  -0.714 -14.305  1.00  0.00     0.031 C 
ATOM     57  C   UNL     1      -4.794  -1.913 -14.570  1.00  0.00     0.034 A 
BRANCH  44  58
ATOM     58  C   UNL     1       0.850  -2.393 -12.191  1.00  0.00     0.023 A 
ATOM     59  C   UNL     1       1.962  -1.600 -11.830  1.00  0.00     0.012 A 
ATOM     60  C   UNL     1       1.134  -3.714 -12.593  1.00  0.00     0.148 A 
ATOM     61  C   UNL     1       3.257  -2.127 -11.728  1.00  0.00     0.002 A 
ATOM     62  C   UNL     1       2.429  -4.226 -12.533  1.00  0.00     0.091 A 
ATOM     63  F   UNL     1       0.155  -4.509 -13.041  1.00  0.00    -0.205 F 
ATOM     64  C   UNL     1       3.491  -3.449 -12.072  1.00  0.00     0.022 A 
BRANCH  62  65
ATOM     65  S   UNL     1       2.713  -5.913 -13.070  1.00  0.00     0.127 S 
ATOM     66  O   UNL     1       1.919  -6.692 -12.127  1.00  0.00    -0.237 OA
ATOM     67  O   UNL     1       2.263  -5.895 -14.458  1.00  0.00    -0.237 OA
ATOM     68  O   UNL     1       4.160  -6.073 -12.913  1.00  0.00    -0.744 OA
ENDBRANCH  62  65
ENDBRANCH  44  58
BRANCH  45  69
ATOM     69  C   UNL     1      -8.338   0.079 -10.082  1.00  0.00     0.023 A 
ATOM     70  C   UNL     1      -7.755   1.357 -10.152  1.00  0.00     0.012 A 
ATOM     71  C   UNL     1      -9.234  -0.211  -9.030  1.00  0.00     0.148 A 
ATOM     72  C   UNL     1      -7.960   2.274  -9.116  1.00  0.00     0.002 A 
ATOM     73  C   UNL     1      -9.385   0.686  -7.977  1.00  0.00     0.091 A 
ATOM     74  F   UNL     1      -9.812  -1.422  -8.989  1.00  0.00    -0.205 F 
ATOM     75  C   UNL     1      -8.746   1.928  -8.013  1.00  0.00     0.022 A 
BRANCH  73  76
ATOM     76  S   UNL     1     -10.165   0.111  -6.463  1.00  0.00     0.127 S 
ATOM     77  O   UNL     1     -11.533  -0.178  -6.880  1.00  0.00    -0.237 OA
ATOM     78  O   UNL     1      -9.336  -1.034  -6.093  1.00  0.00    -0.237 OA
ATOM     79  O   UNL     1     -10.041   1.244  -5.546  1.00  0.00    -0.744 OA
ENDBRANCH  73  76
ENDBRANCH  45  69
BRANCH  57  80
ATOM     80  C   UNL     1      -4.545  -1.754 -16.049  1.00  0.00     0.023 A 
ATOM     81  C   UNL     1      -3.210  -1.690 -16.526  1.00  0.00     0.012 A 
ATOM     82  C   UNL     1      -5.555  -1.721 -17.015  1.00  0.00     0.148 A 
ATOM     83  C   UNL     1      -2.900  -1.494 -17.871  1.00  0.00     0.002 A 
ATOM     84  C   UNL     1      -5.250  -1.450 -18.348  1.00  0.00     0.091 A 
ATOM     85  F   UNL     1      -6.820  -2.001 -16.671  1.00  0.00    -0.205 F 
ATOM     86  C   UNL     1      -3.926  -1.335 -18.784  1.00  0.00     0.022 A 
BRANCH  84  87
ATOM     87  S   UNL     1      -6.598  -1.115 -19.477  1.00  0.00     0.127 S 
ATOM     88  O   UNL     1      -7.331  -2.375 -19.512  1.00  0.00    -0.237 OA
ATOM     89  O   UNL     1      -7.270   0.013 -18.835  1.00  0.00    -0.237 OA
ATOM     90  O   UNL     1      -5.917  -0.774 -20.727  1.00  0.00    -0.744 OA
ENDBRANCH  84  87
ENDBRANCH  57  80
ENDBRANCH  31  32
ENDBRANCH  24  26
ENDBRANCH  23  24
ENDBRANCH  22  23
ENDBRANCH   1  22
TORSDOF 18
