REMARK SMILES Cc1ccccc1C[C@H](CCSc1ccccc1)C(=O)OCCOCCOC(=O)c1ccc(-c2c3nc(c(-c4cccc(S(=O)(=O)[O-])c4F)c4ccc([nH]4)c(-c4cccc(S(=O)(=O)[O-])c4F)c4nc(c(-c5cccc(S(=O)(=O)[O-])c5F)c5ccc2[nH]5)C=C4)C=C3)cc1
REMARK SMILES IDX 23 1 22 2 21 3 19 4 20 5 9 6 8 7 7 8 1 9 2 10 3 11 4 12 6 13
REMARK SMILES IDX 5 14 10 15 11 16 12 17 13 18 14 19 18 20 15 21 17 22 16 23
REMARK SMILES IDX 24 24 25 25 26 26 27 27 28 28 29 29 30 30 31 31 92 32 32 33
REMARK SMILES IDX 91 34 33 35 34 36 35 37 85 38 36 39 90 40 84 41 86 42 37 43
REMARK SMILES IDX 89 44 83 45 82 46 38 48 70 49 50 50 69 51 51 52 54 53 68 54
REMARK SMILES IDX 87 55 52 56 53 57 67 59 88 60 55 61 39 62 40 63 48 64 41 65
REMARK SMILES IDX 43 66 49 67 42 68 44 69 45 70 46 71 47 72 71 73 72 74 80 75
REMARK SMILES IDX 73 76 75 77 81 78 74 79 76 80 77 81 78 82 79 83 56 84 57 85
REMARK SMILES IDX 65 86 58 87 60 88 66 89 59 90 61 91 62 92 63 93 64 94
REMARK H PARENT 86 47 54 58
REMARK Flexibility Score: inf
ROOT
ATOM      1  C   UNL     1       3.338   4.475   1.089  1.00  0.00     0.202 C 
ENDROOT
BRANCH   1   2
ATOM      2  C   UNL     1       2.023   5.157   0.805  1.00  0.00     0.261 C 
BRANCH   2   3
ATOM      3  O   UNL     1       0.981   4.213   0.472  1.00  0.00    -0.463 OA
BRANCH   3   4
ATOM      4  C   UNL     1       1.048   3.748  -0.809  1.00  0.00     0.309 C 
ATOM      5  O   UNL     1       1.834   4.109  -1.660  1.00  0.00    -0.252 OA
BRANCH   4   6
ATOM      6  C   UNL     1       0.056   2.645  -1.092  1.00  0.00     0.104 C 
BRANCH   6   7
ATOM      7  C   UNL     1      -1.374   3.131  -1.313  1.00  0.00     0.051 C 
BRANCH   7   8
ATOM      8  C   UNL     1      -1.691   3.697  -2.681  1.00  0.00    -0.044 A 
ATOM      9  C   UNL     1      -4.055   2.689  -2.902  1.00  0.00     0.044 C 
ATOM     10  C   UNL     1      -3.015   3.734  -3.152  1.00  0.00    -0.048 A 
ATOM     11  C   UNL     1      -3.380   4.747  -4.023  1.00  0.00     0.004 A 
ATOM     12  C   UNL     1      -2.397   5.502  -4.621  1.00  0.00     0.000 A 
ATOM     13  C   UNL     1      -0.713   4.402  -3.401  1.00  0.00     0.004 A 
ATOM     14  C   UNL     1      -1.057   5.266  -4.416  1.00  0.00     0.000 A 
ENDBRANCH   7   8
ENDBRANCH   6   7
BRANCH   6  15
ATOM     15  C   UNL     1       0.163   1.500  -0.093  1.00  0.00     0.027 C 
BRANCH  15  16
ATOM     16  C   UNL     1      -0.555   0.220  -0.555  1.00  0.00     0.076 C 
BRANCH  16  17
ATOM     17  S   UNL     1       0.139  -0.650  -2.036  1.00  0.00    -0.126 SA
BRANCH  17  18
ATOM     18  C   UNL     1      -0.433   0.274  -3.471  1.00  0.00     0.007 A 
ATOM     19  C   UNL     1       0.443   1.160  -4.118  1.00  0.00     0.015 A 
ATOM     20  C   UNL     1      -1.683   0.042  -4.055  1.00  0.00     0.015 A 
ATOM     21  C   UNL     1       0.043   1.883  -5.246  1.00  0.00     0.001 A 
ATOM     22  C   UNL     1      -2.067   0.733  -5.217  1.00  0.00     0.001 A 
ATOM     23  C   UNL     1      -1.217   1.675  -5.793  1.00  0.00     0.000 A 
ENDBRANCH  17  18
ENDBRANCH  16  17
ENDBRANCH  15  16
ENDBRANCH   6  15
ENDBRANCH   4   6
ENDBRANCH   3   4
ENDBRANCH   2   3
ENDBRANCH   1   2
BRANCH   1  24
ATOM     24  O   UNL     1       3.843   4.093  -0.177  1.00  0.00    -0.374 OA
BRANCH  24  25
ATOM     25  C   UNL     1       4.867   3.135  -0.231  1.00  0.00     0.202 C 
BRANCH  25  26
ATOM     26  C   UNL     1       6.150   3.657   0.403  1.00  0.00     0.261 C 
BRANCH  26  27
ATOM     27  O   UNL     1       6.587   4.823  -0.329  1.00  0.00    -0.460 OA
BRANCH  27  28
ATOM     28  C   UNL     1       6.337   6.010   0.289  1.00  0.00     0.338 C 
ATOM     29  O   UNL     1       6.677   6.259   1.445  1.00  0.00    -0.246 OA
BRANCH  28  30
ATOM     30  C   UNL     1       5.386   6.839  -0.511  1.00  0.00     0.060 A 
ATOM     31  C   UNL     1       4.779   7.966   0.068  1.00  0.00     0.016 A 
ATOM     32  C   UNL     1       4.870   6.326  -1.700  1.00  0.00     0.016 A 
ATOM     33  C   UNL     1       3.562   8.459  -0.435  1.00  0.00     0.010 A 
ATOM     34  C   UNL     1       3.626   6.759  -2.133  1.00  0.00     0.010 A 
ATOM     35  C   UNL     1       2.930   7.792  -1.474  1.00  0.00    -0.014 A 
BRANCH  35  36
ATOM     36  C   UNL     1       1.600   8.083  -2.043  1.00  0.00     0.031 A 
ATOM     37  C   UNL     1       1.623   8.556  -3.463  1.00  0.00     0.074 A 
ATOM     38  C   UNL     1       0.432   7.676  -1.478  1.00  0.00     0.049 A 
ATOM     39  N   UNL     1       0.627   8.576  -4.276  1.00  0.00    -0.248 NA
ATOM     40  C   UNL     1       2.854   9.030  -4.089  1.00  0.00     0.031 C 
ATOM     41  C   UNL     1      -0.783   7.362  -2.219  1.00  0.00     0.029 A 
ATOM     42  N   UNL     1       0.051   7.383  -0.164  1.00  0.00    -0.354 N 
ATOM     43  C   UNL     1       1.072   8.912  -5.534  1.00  0.00     0.074 A 
ATOM     44  C   UNL     1       2.479   9.160  -5.364  1.00  0.00     0.031 C 
ATOM     45  C   UNL     1      -1.764   6.945  -1.407  1.00  0.00     0.029 A 
ATOM     46  C   UNL     1      -1.357   7.335  -0.092  1.00  0.00     0.049 A 
ATOM     47  H   UNL     1       0.667   7.235   0.589  1.00  0.00     0.167 HD
ATOM     48  C   UNL     1       0.182   8.899  -6.566  1.00  0.00     0.034 A 
ATOM     49  C   UNL     1      -2.064   8.236   0.647  1.00  0.00     0.034 A 
ATOM     50  C   UNL     1      -1.223   8.911  -6.060  1.00  0.00     0.049 A 
ATOM     51  C   UNL     1      -2.825   9.180  -0.293  1.00  0.00     0.074 A 
ATOM     52  C   UNL     1      -2.387   8.233  -6.365  1.00  0.00     0.029 A 
ATOM     53  N   UNL     1      -1.572   9.741  -4.969  1.00  0.00    -0.354 N 
ATOM     54  N   UNL     1      -2.510   9.394  -1.554  1.00  0.00    -0.248 NA
ATOM     55  C   UNL     1      -4.109   9.780   0.050  1.00  0.00     0.031 C 
ATOM     56  C   UNL     1      -3.373   8.552  -5.383  1.00  0.00     0.029 A 
ATOM     57  C   UNL     1      -2.846   9.480  -4.498  1.00  0.00     0.049 A 
ATOM     58  H   UNL     1      -0.976  10.427  -4.589  1.00  0.00     0.167 HD
ATOM     59  C   UNL     1      -3.517  10.055  -2.201  1.00  0.00     0.074 A 
ATOM     60  C   UNL     1      -4.494  10.282  -1.139  1.00  0.00     0.031 C 
ATOM     61  C   UNL     1      -3.541  10.346  -3.545  1.00  0.00     0.034 A 
BRANCH  48  62
ATOM     62  C   UNL     1       0.553   8.748  -8.064  1.00  0.00     0.023 A 
ATOM     63  C   UNL     1      -0.495   8.464  -8.973  1.00  0.00     0.012 A 
ATOM     64  C   UNL     1       1.842   8.778  -8.662  1.00  0.00     0.148 A 
ATOM     65  C   UNL     1      -0.299   8.163 -10.329  1.00  0.00     0.002 A 
ATOM     66  C   UNL     1       2.040   8.531 -10.033  1.00  0.00     0.091 A 
ATOM     67  F   UNL     1       2.920   9.038  -7.930  1.00  0.00    -0.205 F 
ATOM     68  C   UNL     1       0.972   8.198 -10.863  1.00  0.00     0.022 A 
BRANCH  66  69
ATOM     69  S   UNL     1       3.655   8.636 -10.836  1.00  0.00     0.127 S 
ATOM     70  O   UNL     1       3.804   7.295 -11.405  1.00  0.00    -0.237 OA
ATOM     71  O   UNL     1       3.440   9.691 -11.826  1.00  0.00    -0.237 OA
ATOM     72  O   UNL     1       4.619   8.962  -9.793  1.00  0.00    -0.744 OA
ENDBRANCH  66  69
ENDBRANCH  48  62
BRANCH  49  73
ATOM     73  C   UNL     1      -1.387   8.456   1.970  1.00  0.00     0.023 A 
ATOM     74  C   UNL     1      -1.228   7.281   2.767  1.00  0.00     0.012 A 
ATOM     75  C   UNL     1      -0.437   9.477   2.100  1.00  0.00     0.148 A 
ATOM     76  C   UNL     1      -0.033   7.029   3.449  1.00  0.00     0.002 A 
ATOM     77  C   UNL     1       0.761   9.210   2.767  1.00  0.00     0.091 A 
ATOM     78  F   UNL     1      -0.671  10.649   1.498  1.00  0.00    -0.205 F 
ATOM     79  C   UNL     1       0.988   7.970   3.392  1.00  0.00     0.022 A 
BRANCH  77  80
ATOM     80  S   UNL     1       2.135  10.364   2.662  1.00  0.00     0.127 S 
ATOM     81  O   UNL     1       1.909  11.206   3.832  1.00  0.00    -0.237 OA
ATOM     82  O   UNL     1       3.303   9.486   2.758  1.00  0.00    -0.237 OA
ATOM     83  O   UNL     1       1.980  11.007   1.365  1.00  0.00    -0.744 OA
ENDBRANCH  77  80
ENDBRANCH  49  73
BRANCH  61  84
ATOM     84  C   UNL     1      -4.346  11.488  -4.155  1.00  0.00     0.023 A 
ATOM     85  C   UNL     1      -4.914  12.493  -3.355  1.00  0.00     0.012 A 
ATOM     86  C   UNL     1      -4.373  11.713  -5.563  1.00  0.00     0.148 A 
ATOM     87  C   UNL     1      -5.526  13.619  -3.910  1.00  0.00     0.002 A 
ATOM     88  C   UNL     1      -4.895  12.876  -6.106  1.00  0.00     0.091 A 
ATOM     89  F   UNL     1      -3.888  10.809  -6.417  1.00  0.00    -0.205 F 
ATOM     90  C   UNL     1      -5.498  13.822  -5.283  1.00  0.00     0.022 A 
BRANCH  88  91
ATOM     91  S   UNL     1      -4.698  13.268  -7.852  1.00  0.00     0.127 S 
ATOM     92  O   UNL     1      -6.056  13.061  -8.353  1.00  0.00    -0.237 OA
ATOM     93  O   UNL     1      -4.271  14.667  -7.798  1.00  0.00    -0.237 OA
ATOM     94  O   UNL     1      -3.692  12.353  -8.373  1.00  0.00    -0.744 OA
ENDBRANCH  88  91
ENDBRANCH  61  84
ENDBRANCH  35  36
ENDBRANCH  28  30
ENDBRANCH  27  28
ENDBRANCH  26  27
ENDBRANCH  25  26
ENDBRANCH  24  25
ENDBRANCH   1  24
TORSDOF 23
