REMARK SMILES CCNS(=O)(=O)c1ccc(CC(=O)OCCOCCOC(=O)c2ccc(-c3c4nc(c(-c5cccc(S(=O)(=O)[O-])c5F)c5ccc([nH]5)c(-c5cccc(S(=O)(=O)[O-])c5F)c5nc(c(-c6cccc(S(=O)(=O)[O-])c6F)c6ccc3[nH]6)C=C5)C=C4)cc2)cc1
REMARK SMILES IDX 16 1 15 2 14 3 12 4 13 5 11 6 10 7 7 8 8 9 87 10 9 11 86 12
REMARK SMILES IDX 4 13 5 14 6 15 3 16 2 18 1 19 17 20 18 21 19 22 20 23 21 24
REMARK SMILES IDX 22 25 23 26 24 27 85 28 25 29 84 30 26 31 27 32 28 33 78 34
REMARK SMILES IDX 29 35 83 36 77 37 79 38 30 39 82 40 76 41 75 42 31 44 63 45
REMARK SMILES IDX 43 46 62 47 44 48 47 49 61 50 80 51 45 52 46 53 60 55 81 56
REMARK SMILES IDX 48 57 32 58 33 59 41 60 34 61 36 62 42 63 35 64 37 65 38 66
REMARK SMILES IDX 39 67 40 68 64 69 65 70 73 71 66 72 68 73 74 74 67 75 69 76
REMARK SMILES IDX 70 77 71 78 72 79 49 80 50 81 58 82 51 83 53 84 59 85 52 86
REMARK SMILES IDX 54 87 55 88 56 89 57 90
REMARK H PARENT 3 17 79 43 47 54
REMARK Flexibility Score: inf
ROOT
ATOM      1  C   UNL     1      -6.483  -1.366   6.070  1.00  0.00     0.202 C 
ENDROOT
BRANCH   1   2
ATOM      2  C   UNL     1      -6.959  -2.703   5.491  1.00  0.00     0.261 C 
BRANCH   2   3
ATOM      3  O   UNL     1      -6.110  -3.187   4.431  1.00  0.00    -0.463 OA
BRANCH   3   4
ATOM      4  C   UNL     1      -6.691  -3.292   3.208  1.00  0.00     0.310 C 
ATOM      5  O   UNL     1      -7.867  -3.030   2.969  1.00  0.00    -0.252 OA
BRANCH   4   6
ATOM      6  C   UNL     1      -5.775  -3.818   2.130  1.00  0.00     0.158 C 
BRANCH   6   7
ATOM      7  C   UNL     1      -4.283  -3.605   2.265  1.00  0.00    -0.037 A 
ATOM      8  C   UNL     1      -1.492  -3.300   2.282  1.00  0.00     0.082 A 
ATOM      9  C   UNL     1      -2.303  -2.212   1.962  1.00  0.00     0.022 A 
ATOM     10  C   UNL     1      -2.065  -4.526   2.633  1.00  0.00     0.022 A 
ATOM     11  C   UNL     1      -3.693  -2.374   1.934  1.00  0.00     0.006 A 
ATOM     12  C   UNL     1      -3.454  -4.672   2.637  1.00  0.00     0.006 A 
BRANCH   8  13
ATOM     13  S   UNL     1       0.276  -3.219   2.191  1.00  0.00     0.240 S 
ATOM     14  O   UNL     1       0.706  -4.149   1.164  1.00  0.00    -0.207 OA
ATOM     15  O   UNL     1       0.774  -3.279   3.541  1.00  0.00    -0.207 OA
BRANCH  13  16
ATOM     16  N   UNL     1       0.640  -1.662   1.649  1.00  0.00    -0.211 NA
ATOM     17  H   UNL     1      -0.053  -1.032   2.053  1.00  0.00     0.141 HD
BRANCH  16  18
ATOM     18  C   UNL     1       0.659  -1.417   0.203  1.00  0.00     0.095 C 
ATOM     19  C   UNL     1       1.057   0.028  -0.047  1.00  0.00     0.022 C 
ENDBRANCH  16  18
ENDBRANCH  13  16
ENDBRANCH   8  13
ENDBRANCH   6   7
ENDBRANCH   4   6
ENDBRANCH   3   4
ENDBRANCH   2   3
ENDBRANCH   1   2
BRANCH   1  20
ATOM     20  O   UNL     1      -6.503  -0.240   5.191  1.00  0.00    -0.374 OA
BRANCH  20  21
ATOM     21  C   UNL     1      -5.489  -0.183   4.191  1.00  0.00     0.202 C 
BRANCH  21  22
ATOM     22  C   UNL     1      -4.086   0.233   4.646  1.00  0.00     0.261 C 
BRANCH  22  23
ATOM     23  O   UNL     1      -3.530  -0.668   5.617  1.00  0.00    -0.460 OA
BRANCH  23  24
ATOM     24  C   UNL     1      -3.337  -0.114   6.839  1.00  0.00     0.338 C 
ATOM     25  O   UNL     1      -3.477   1.062   7.137  1.00  0.00    -0.246 OA
BRANCH  24  26
ATOM     26  C   UNL     1      -3.093  -1.151   7.860  1.00  0.00     0.060 A 
ATOM     27  C   UNL     1      -3.868  -1.075   9.024  1.00  0.00     0.016 A 
ATOM     28  C   UNL     1      -2.078  -2.103   7.744  1.00  0.00     0.016 A 
ATOM     29  C   UNL     1      -3.573  -1.892  10.110  1.00  0.00     0.010 A 
ATOM     30  C   UNL     1      -1.784  -2.926   8.840  1.00  0.00     0.010 A 
ATOM     31  C   UNL     1      -2.497  -2.787  10.045  1.00  0.00    -0.014 A 
BRANCH  31  32
ATOM     32  C   UNL     1      -2.058  -3.451  11.299  1.00  0.00     0.031 A 
ATOM     33  C   UNL     1      -0.870  -2.907  12.047  1.00  0.00     0.074 A 
ATOM     34  C   UNL     1      -2.766  -4.474  11.810  1.00  0.00     0.049 A 
ATOM     35  N   UNL     1      -0.407  -3.246  13.223  1.00  0.00    -0.248 NA
ATOM     36  C   UNL     1      -0.105  -1.835  11.388  1.00  0.00     0.031 C 
ATOM     37  C   UNL     1      -3.928  -5.095  11.176  1.00  0.00     0.029 A 
ATOM     38  N   UNL     1      -2.610  -5.170  12.983  1.00  0.00    -0.354 N 
ATOM     39  C   UNL     1       0.707  -2.444  13.439  1.00  0.00     0.074 A 
ATOM     40  C   UNL     1       0.866  -1.616  12.263  1.00  0.00     0.031 C 
ATOM     41  C   UNL     1      -4.379  -6.085  11.966  1.00  0.00     0.029 A 
ATOM     42  C   UNL     1      -3.535  -6.172  13.156  1.00  0.00     0.049 A 
ATOM     43  H   UNL     1      -1.903  -4.970  13.638  1.00  0.00     0.167 HD
ATOM     44  C   UNL     1       1.512  -2.382  14.527  1.00  0.00     0.034 A 
ATOM     45  C   UNL     1      -3.685  -7.056  14.162  1.00  0.00     0.034 A 
ATOM     46  C   UNL     1       1.342  -3.192  15.704  1.00  0.00     0.049 A 
ATOM     47  C   UNL     1      -2.780  -6.964  15.362  1.00  0.00     0.074 A 
ATOM     48  C   UNL     1       2.078  -3.175  16.876  1.00  0.00     0.029 A 
ATOM     49  N   UNL     1       0.375  -4.174  15.855  1.00  0.00    -0.354 N 
ATOM     50  N   UNL     1      -1.818  -6.107  15.608  1.00  0.00    -0.248 NA
ATOM     51  C   UNL     1      -3.012  -7.932  16.444  1.00  0.00     0.031 C 
ATOM     52  C   UNL     1       1.569  -4.162  17.727  1.00  0.00     0.029 A 
ATOM     53  C   UNL     1       0.499  -4.776  17.096  1.00  0.00     0.049 A 
ATOM     54  H   UNL     1      -0.301  -4.409  15.179  1.00  0.00     0.167 HD
ATOM     55  C   UNL     1      -1.352  -6.411  16.883  1.00  0.00     0.074 A 
ATOM     56  C   UNL     1      -2.158  -7.513  17.369  1.00  0.00     0.031 C 
ATOM     57  C   UNL     1      -0.340  -5.841  17.584  1.00  0.00     0.034 A 
BRANCH  44  58
ATOM     58  C   UNL     1       2.635  -1.376  14.510  1.00  0.00     0.023 A 
ATOM     59  C   UNL     1       2.340  -0.004  14.646  1.00  0.00     0.012 A 
ATOM     60  C   UNL     1       3.978  -1.787  14.415  1.00  0.00     0.148 A 
ATOM     61  C   UNL     1       3.362   0.946  14.656  1.00  0.00     0.002 A 
ATOM     62  C   UNL     1       4.994  -0.839  14.467  1.00  0.00     0.091 A 
ATOM     63  F   UNL     1       4.238  -3.094  14.264  1.00  0.00    -0.205 F 
ATOM     64  C   UNL     1       4.688   0.527  14.577  1.00  0.00     0.022 A 
BRANCH  62  65
ATOM     65  S   UNL     1       6.735  -1.282  14.449  1.00  0.00     0.127 S 
ATOM     66  O   UNL     1       7.141  -0.832  13.118  1.00  0.00    -0.237 OA
ATOM     67  O   UNL     1       7.269  -0.482  15.552  1.00  0.00    -0.237 OA
ATOM     68  O   UNL     1       6.785  -2.721  14.665  1.00  0.00    -0.744 OA
ENDBRANCH  62  65
ENDBRANCH  44  58
BRANCH  45  69
ATOM     69  C   UNL     1      -4.778  -8.069  14.102  1.00  0.00     0.023 A 
ATOM     70  C   UNL     1      -5.868  -7.974  14.988  1.00  0.00     0.012 A 
ATOM     71  C   UNL     1      -4.751  -9.111  13.155  1.00  0.00     0.148 A 
ATOM     72  C   UNL     1      -6.898  -8.916  14.952  1.00  0.00     0.002 A 
ATOM     73  C   UNL     1      -5.808 -10.011  13.086  1.00  0.00     0.091 A 
ATOM     74  F   UNL     1      -3.695  -9.197  12.334  1.00  0.00    -0.205 F 
ATOM     75  C   UNL     1      -6.874  -9.926  13.994  1.00  0.00     0.022 A 
BRANCH  73  76
ATOM     76  S   UNL     1      -5.923 -11.258  11.797  1.00  0.00     0.127 S 
ATOM     77  O   UNL     1      -5.644 -12.483  12.541  1.00  0.00    -0.237 OA
ATOM     78  O   UNL     1      -7.309 -11.107  11.353  1.00  0.00    -0.237 OA
ATOM     79  O   UNL     1      -4.931 -10.880  10.799  1.00  0.00    -0.744 OA
ENDBRANCH  73  76
ENDBRANCH  45  69
BRANCH  57  80
ATOM     80  C   UNL     1      -0.060  -6.380  18.964  1.00  0.00     0.023 A 
ATOM     81  C   UNL     1       0.527  -7.653  19.112  1.00  0.00     0.012 A 
ATOM     82  C   UNL     1      -0.328  -5.607  20.111  1.00  0.00     0.148 A 
ATOM     83  C   UNL     1       0.801  -8.165  20.380  1.00  0.00     0.002 A 
ATOM     84  C   UNL     1      -0.007  -6.104  21.369  1.00  0.00     0.091 A 
ATOM     85  F   UNL     1      -0.904  -4.406  19.954  1.00  0.00    -0.205 F 
ATOM     86  C   UNL     1       0.544  -7.388  21.506  1.00  0.00     0.022 A 
BRANCH  84  87
ATOM     87  S   UNL     1      -0.217  -5.129  22.863  1.00  0.00     0.127 S 
ATOM     88  O   UNL     1      -1.444  -5.697  23.421  1.00  0.00    -0.237 OA
ATOM     89  O   UNL     1       0.997  -5.443  23.617  1.00  0.00    -0.237 OA
ATOM     90  O   UNL     1      -0.307  -3.743  22.422  1.00  0.00    -0.744 OA
ENDBRANCH  84  87
ENDBRANCH  57  80
ENDBRANCH  31  32
ENDBRANCH  24  26
ENDBRANCH  23  24
ENDBRANCH  22  23
ENDBRANCH  21  22
ENDBRANCH  20  21
ENDBRANCH   1  20
TORSDOF 21
