REMARK SMILES Cc1c(CCC(=O)N2CCC(C(=O)OCCOCCOC(=O)c3ccc(-c4c5nc(c(-c6cccc(S(=O)(=O)[O-])c6F)c6ccc([nH]6)c(-c6cccc(S(=O)(=O)[O-])c6F)c6nc(c(-c7cccc(S(=O)(=O)[O-])c7F)c7ccc4[nH]7)C=C6)C=C5)cc3)CC2)c(=O)oc2cc3oc4c(c3cc12)CCCC4
REMARK SMILES IDX 17 1 16 2 15 3 14 4 12 5 13 6 11 7 6 8 7 9 8 10 9 11 87 12
REMARK SMILES IDX 10 13 86 14 5 15 4 16 3 17 1 18 2 19 99 20 88 21 91 22 98 23
REMARK SMILES IDX 89 24 90 25 92 26 97 27 93 28 96 29 94 30 95 31 100 32
REMARK SMILES IDX 103 33 101 34 102 35 18 36 19 37 20 38 21 39 22 40 23 41
REMARK SMILES IDX 24 42 85 43 25 44 84 45 26 46 27 47 28 48 78 49 29 50 83 51
REMARK SMILES IDX 77 52 79 53 30 54 82 55 76 56 75 57 31 59 63 60 43 61 62 62
REMARK SMILES IDX 44 63 47 64 61 65 80 66 45 67 46 68 60 70 81 71 48 72 32 73
REMARK SMILES IDX 33 74 41 75 34 76 36 77 42 78 35 79 37 80 38 81 39 82 40 83
REMARK SMILES IDX 64 84 65 85 73 86 66 87 68 88 74 89 67 90 69 91 70 92 71 93
REMARK SMILES IDX 72 94 49 95 50 96 58 97 51 98 53 99 59 100 52 101 54 102
REMARK SMILES IDX 55 103 56 104 57 105
REMARK H PARENT 79 58 47 69
REMARK Flexibility Score: inf
ROOT
ATOM      1  O   UNL     1      -1.426  -6.055  -1.377  1.00  0.00    -0.374 OA
ENDROOT
BRANCH   1   2
ATOM      2  C   UNL     1      -0.024  -6.255  -1.232  1.00  0.00     0.202 C 
BRANCH   2   3
ATOM      3  C   UNL     1       0.776  -4.941  -1.148  1.00  0.00     0.261 C 
BRANCH   3   4
ATOM      4  O   UNL     1       0.473  -4.050  -0.044  1.00  0.00    -0.463 OA
BRANCH   4   5
ATOM      5  C   UNL     1      -0.694  -3.377  -0.126  1.00  0.00     0.309 C 
ATOM      6  O   UNL     1      -1.599  -3.605  -0.923  1.00  0.00    -0.252 OA
BRANCH   5   7
ATOM      7  C   UNL     1      -0.770  -2.109   0.678  1.00  0.00     0.103 C 
ATOM      8  C   UNL     1       0.472   1.627   2.033  1.00  0.00     0.222 C 
ATOM      9  O   UNL     1       0.920   1.691   3.181  1.00  0.00    -0.275 OA
ATOM     10  N   UNL     1      -0.317   0.549   1.637  1.00  0.00    -0.343 N 
ATOM     11  C   UNL     1      -0.879  -0.458   2.578  1.00  0.00     0.120 C 
ATOM     12  C   UNL     1      -0.484   0.224   0.247  1.00  0.00     0.120 C 
ATOM     13  C   UNL     1      -0.626  -1.958   2.182  1.00  0.00     0.037 C 
ATOM     14  C   UNL     1       0.183  -1.119   0.052  1.00  0.00     0.037 C 
BRANCH   8  15
ATOM     15  C   UNL     1       0.641   2.847   1.068  1.00  0.00     0.105 C 
BRANCH  15  16
ATOM     16  C   UNL     1       1.737   2.889  -0.040  1.00  0.00     0.053 C 
BRANCH  16  17
ATOM     17  C   UNL     1       1.234   2.657  -1.466  1.00  0.00     0.042 A 
ATOM     18  C   UNL     1       2.401   0.422  -1.811  1.00  0.00     0.046 C 
ATOM     19  C   UNL     1       1.410   1.506  -2.139  1.00  0.00    -0.030 A 
ATOM     20  C   UNL     1       0.395   1.245  -3.157  1.00  0.00     0.022 A 
ATOM     21  C   UNL     1       0.549   3.770  -2.211  1.00  0.00     0.339 A 
ATOM     22  C   UNL     1       0.020   2.257  -4.014  1.00  0.00     0.142 A 
ATOM     23  C   UNL     1      -0.310   0.053  -3.216  1.00  0.00     0.024 A 
ATOM     24  O   UNL     1       0.309   4.845  -1.668  1.00  0.00    -0.246 OA
ATOM     25  O   UNL     1       0.299   3.572  -3.590  1.00  0.00    -0.422 OA
ATOM     26  C   UNL     1      -0.672   1.993  -5.217  1.00  0.00     0.095 A 
ATOM     27  C   UNL     1      -1.150  -0.211  -4.290  1.00  0.00     0.025 A 
ATOM     28  C   UNL     1      -1.132   0.675  -5.355  1.00  0.00     0.138 A 
ATOM     29  C   UNL     1      -1.852  -1.362  -4.688  1.00  0.00     0.001 A 
ATOM     30  O   UNL     1      -1.493  -0.029  -6.488  1.00  0.00    -0.461 OA
ATOM     31  C   UNL     1      -1.707  -1.313  -6.054  1.00  0.00     0.108 A 
ATOM     32  C   UNL     1      -1.953  -2.671  -3.997  1.00  0.00     0.040 C 
ATOM     33  C   UNL     1      -1.187  -2.516  -6.781  1.00  0.00     0.076 C 
ATOM     34  C   UNL     1      -0.706  -3.484  -4.361  1.00  0.00     0.005 C 
ATOM     35  C   UNL     1      -0.186  -3.237  -5.811  1.00  0.00     0.008 C 
ENDBRANCH  16  17
ENDBRANCH  15  16
ENDBRANCH   8  15
ENDBRANCH   5   7
ENDBRANCH   4   5
ENDBRANCH   3   4
ENDBRANCH   2   3
ENDBRANCH   1   2
BRANCH   1  36
ATOM     36  C   UNL     1      -2.239  -6.662  -0.374  1.00  0.00     0.202 C 
BRANCH  36  37
ATOM     37  C   UNL     1      -2.244  -6.012   1.027  1.00  0.00     0.261 C 
BRANCH  37  38
ATOM     38  O   UNL     1      -0.954  -5.712   1.583  1.00  0.00    -0.460 OA
BRANCH  38  39
ATOM     39  C   UNL     1      -0.233  -6.722   2.117  1.00  0.00     0.338 C 
ATOM     40  O   UNL     1      -0.608  -7.868   2.297  1.00  0.00    -0.246 OA
BRANCH  39  41
ATOM     41  C   UNL     1       1.164  -6.243   2.223  1.00  0.00     0.060 A 
ATOM     42  C   UNL     1       1.494  -5.110   2.970  1.00  0.00     0.016 A 
ATOM     43  C   UNL     1       2.135  -6.875   1.442  1.00  0.00     0.016 A 
ATOM     44  C   UNL     1       2.801  -4.609   2.926  1.00  0.00     0.010 A 
ATOM     45  C   UNL     1       3.421  -6.343   1.362  1.00  0.00     0.010 A 
ATOM     46  C   UNL     1       3.778  -5.217   2.116  1.00  0.00    -0.014 A 
BRANCH  46  47
ATOM     47  C   UNL     1       5.183  -4.731   2.168  1.00  0.00     0.031 A 
ATOM     48  C   UNL     1       6.238  -5.740   1.773  1.00  0.00     0.074 A 
ATOM     49  C   UNL     1       5.406  -3.431   1.881  1.00  0.00     0.049 A 
ATOM     50  N   UNL     1       6.715  -5.972   0.584  1.00  0.00    -0.248 NA
ATOM     51  C   UNL     1       6.640  -6.737   2.772  1.00  0.00     0.031 C 
ATOM     52  C   UNL     1       5.204  -2.837   0.560  1.00  0.00     0.029 A 
ATOM     53  N   UNL     1       6.204  -2.527   2.560  1.00  0.00    -0.354 N 
ATOM     54  C   UNL     1       7.451  -7.155   0.664  1.00  0.00     0.074 A 
ATOM     55  C   UNL     1       7.357  -7.596   2.037  1.00  0.00     0.031 C 
ATOM     56  C   UNL     1       5.953  -1.722   0.471  1.00  0.00     0.029 A 
ATOM     57  C   UNL     1       6.680  -1.516   1.725  1.00  0.00     0.049 A 
ATOM     58  H   UNL     1       6.411  -2.589   3.521  1.00  0.00     0.167 HD
ATOM     59  C   UNL     1       8.132  -7.721  -0.371  1.00  0.00     0.034 A 
ATOM     60  C   UNL     1       7.914  -0.947   1.859  1.00  0.00     0.034 A 
ATOM     61  C   UNL     1       8.155  -6.959  -1.583  1.00  0.00     0.049 A 
ATOM     62  C   UNL     1       8.735  -1.809   0.933  1.00  0.00     0.074 A 
ATOM     63  C   UNL     1       7.496  -6.943  -2.791  1.00  0.00     0.029 A 
ATOM     64  N   UNL     1       9.032  -5.904  -1.653  1.00  0.00    -0.354 N 
ATOM     65  N   UNL     1       8.768  -1.737  -0.374  1.00  0.00    -0.248 NA
ATOM     66  C   UNL     1       9.214  -3.079   1.481  1.00  0.00     0.031 C 
ATOM     67  C   UNL     1       7.694  -5.626  -3.317  1.00  0.00     0.029 A 
ATOM     68  C   UNL     1       8.427  -4.908  -2.372  1.00  0.00     0.049 A 
ATOM     69  H   UNL     1       9.933  -5.870  -1.257  1.00  0.00     0.167 HD
ATOM     70  C   UNL     1       8.940  -3.058  -0.806  1.00  0.00     0.074 A 
ATOM     71  C   UNL     1       9.279  -3.816   0.381  1.00  0.00     0.031 C 
ATOM     72  C   UNL     1       8.590  -3.506  -2.050  1.00  0.00     0.034 A 
BRANCH  59  73
ATOM     73  C   UNL     1       9.005  -8.921  -0.252  1.00  0.00     0.023 A 
ATOM     74  C   UNL     1      10.396  -8.696  -0.203  1.00  0.00     0.012 A 
ATOM     75  C   UNL     1       8.528 -10.240  -0.361  1.00  0.00     0.148 A 
ATOM     76  C   UNL     1      11.302  -9.747  -0.310  1.00  0.00     0.002 A 
ATOM     77  C   UNL     1       9.441 -11.292  -0.458  1.00  0.00     0.091 A 
ATOM     78  F   UNL     1       7.204 -10.442  -0.414  1.00  0.00    -0.205 F 
ATOM     79  C   UNL     1      10.825 -11.044  -0.445  1.00  0.00     0.022 A 
BRANCH  77  80
ATOM     80  S   UNL     1       8.952 -13.014  -0.625  1.00  0.00     0.127 S 
ATOM     81  O   UNL     1       9.364 -13.315  -1.995  1.00  0.00    -0.237 OA
ATOM     82  O   UNL     1       9.759 -13.662   0.410  1.00  0.00    -0.237 OA
ATOM     83  O   UNL     1       7.517 -13.045  -0.379  1.00  0.00    -0.744 OA
ENDBRANCH  77  80
ENDBRANCH  59  73
BRANCH  60  84
ATOM     84  C   UNL     1       8.304  -0.548   3.254  1.00  0.00     0.023 A 
ATOM     85  C   UNL     1       7.398   0.305   3.932  1.00  0.00     0.012 A 
ATOM     86  C   UNL     1       9.439  -0.978   3.964  1.00  0.00     0.148 A 
ATOM     87  C   UNL     1       7.549   0.621   5.284  1.00  0.00     0.002 A 
ATOM     88  C   UNL     1       9.551  -0.720   5.331  1.00  0.00     0.091 A 
ATOM     89  F   UNL     1      10.404  -1.639   3.318  1.00  0.00    -0.205 F 
ATOM     90  C   UNL     1       8.608   0.077   5.994  1.00  0.00     0.022 A 
BRANCH  88  91
ATOM     91  S   UNL     1      10.823  -1.476   6.354  1.00  0.00     0.127 S 
ATOM     92  O   UNL     1      11.379  -0.321   7.057  1.00  0.00    -0.237 OA
ATOM     93  O   UNL     1      10.025  -2.378   7.183  1.00  0.00    -0.237 OA
ATOM     94  O   UNL     1      11.735  -2.134   5.429  1.00  0.00    -0.744 OA
ENDBRANCH  88  91
ENDBRANCH  60  84
BRANCH  72  95
ATOM     95  C   UNL     1       8.148  -2.470  -3.039  1.00  0.00     0.023 A 
ATOM     96  C   UNL     1       9.087  -1.536  -3.510  1.00  0.00     0.012 A 
ATOM     97  C   UNL     1       6.841  -2.457  -3.570  1.00  0.00     0.148 A 
ATOM     98  C   UNL     1       8.747  -0.628  -4.513  1.00  0.00     0.002 A 
ATOM     99  C   UNL     1       6.521  -1.585  -4.603  1.00  0.00     0.091 A 
ATOM    100  F   UNL     1       5.926  -3.297  -3.063  1.00  0.00    -0.205 F 
ATOM    101  C   UNL     1       7.473  -0.668  -5.074  1.00  0.00     0.022 A 
BRANCH  99 102
ATOM    102  S   UNL     1       4.930  -1.611  -5.437  1.00  0.00     0.127 S 
ATOM    103  O   UNL     1       4.421  -0.268  -5.160  1.00  0.00    -0.237 OA
ATOM    104  O   UNL     1       5.322  -1.844  -6.827  1.00  0.00    -0.237 OA
ATOM    105  O   UNL     1       4.163  -2.692  -4.831  1.00  0.00    -0.744 OA
ENDBRANCH  99 102
ENDBRANCH  72  95
ENDBRANCH  46  47
ENDBRANCH  39  41
ENDBRANCH  38  39
ENDBRANCH  37  38
ENDBRANCH  36  37
ENDBRANCH   1  36
TORSDOF 20
