REMARK SMILES O=C(OCCOCCOC(=O)[C@H]1CCCN(c2cc(-c3ccccn3)nc(-c3ccccc3F)n2)C1)c1ccc(-c2c3nc(c(-c4cccc(S(=O)(=O)[O-])c4F)c4ccc([nH]4)c(-c4cccc(S(=O)(=O)[O-])c4F)c4nc(c(-c5cccc(S(=O)(=O)[O-])c5F)c5ccc2[nH]5)C=C4)C=C3)cc1
REMARK SMILES IDX 5 1 4 2 3 3 2 4 1 5 37 6 38 7 99 8 39 9 98 10 40 11 41 12
REMARK SMILES IDX 42 13 92 14 43 15 97 16 91 17 93 18 44 19 96 20 90 21 89 22
REMARK SMILES IDX 45 24 77 25 57 26 76 27 58 28 61 29 75 30 94 31 59 32 60 33
REMARK SMILES IDX 74 35 95 36 62 37 46 38 47 39 55 40 48 41 50 42 56 43 49 44
REMARK SMILES IDX 51 45 52 46 53 47 54 48 78 49 79 50 87 51 80 52 82 53 88 54
REMARK SMILES IDX 81 55 83 56 84 57 85 58 86 59 63 60 64 61 72 62 65 63 67 64
REMARK SMILES IDX 73 65 66 66 68 67 69 68 70 69 71 70 6 71 7 72 8 73 9 74
REMARK SMILES IDX 10 75 11 76 12 77 13 78 36 79 14 80 16 81 15 82 17 83 18 84
REMARK SMILES IDX 35 85 19 86 27 87 26 88 20 89 21 90 25 91 22 92 24 93 23 94
REMARK SMILES IDX 28 95 29 96 33 97 30 98 32 99 34 100 31 101
REMARK H PARENT 93 23 61 34
REMARK Flexibility Score: inf
ROOT
ATOM      1  C   UNL     1       4.036   1.213  -1.464  1.00  0.00     0.202 C 
ENDROOT
BRANCH   1   2
ATOM      2  C   UNL     1       3.458  -0.116  -0.970  1.00  0.00     0.261 C 
BRANCH   2   3
ATOM      3  O   UNL     1       4.382  -1.187  -1.236  1.00  0.00    -0.460 OA
BRANCH   3   4
ATOM      4  C   UNL     1       4.373  -2.067  -2.265  1.00  0.00     0.338 C 
ATOM      5  O   UNL     1       5.291  -2.880  -2.355  1.00  0.00    -0.246 OA
BRANCH   4   6
ATOM      6  C   UNL     1       3.283  -2.111  -3.282  1.00  0.00     0.060 A 
ATOM      7  C   UNL     1       2.532  -1.003  -3.670  1.00  0.00     0.016 A 
ATOM      8  C   UNL     1       3.050  -3.330  -3.938  1.00  0.00     0.016 A 
ATOM      9  C   UNL     1       1.512  -1.103  -4.588  1.00  0.00     0.010 A 
ATOM     10  C   UNL     1       2.063  -3.429  -4.923  1.00  0.00     0.010 A 
ATOM     11  C   UNL     1       1.278  -2.313  -5.226  1.00  0.00    -0.014 A 
BRANCH  11  12
ATOM     12  C   UNL     1       0.125  -2.343  -6.133  1.00  0.00     0.031 A 
ATOM     13  C   UNL     1      -1.129  -2.998  -5.659  1.00  0.00     0.074 A 
ATOM     14  C   UNL     1       0.173  -1.601  -7.254  1.00  0.00     0.049 A 
ATOM     15  N   UNL     1      -2.289  -3.062  -6.245  1.00  0.00    -0.248 NA
ATOM     16  C   UNL     1      -1.080  -3.648  -4.336  1.00  0.00     0.031 C 
ATOM     17  C   UNL     1       1.338  -0.825  -7.695  1.00  0.00     0.029 A 
ATOM     18  N   UNL     1      -0.782  -1.331  -8.194  1.00  0.00    -0.354 N 
ATOM     19  C   UNL     1      -3.093  -3.805  -5.393  1.00  0.00     0.074 A 
ATOM     20  C   UNL     1      -2.299  -4.153  -4.238  1.00  0.00     0.031 C 
ATOM     21  C   UNL     1       1.016  -0.141  -8.801  1.00  0.00     0.029 A 
ATOM     22  C   UNL     1      -0.344  -0.491  -9.190  1.00  0.00     0.049 A 
ATOM     23  H   UNL     1      -1.693  -1.701  -8.160  1.00  0.00     0.167 HD
ATOM     24  C   UNL     1      -4.380  -4.166  -5.578  1.00  0.00     0.034 A 
ATOM     25  C   UNL     1      -0.969  -0.082 -10.310  1.00  0.00     0.034 A 
ATOM     26  C   UNL     1      -5.136  -3.783  -6.736  1.00  0.00     0.049 A 
ATOM     27  C   UNL     1      -2.379  -0.551 -10.524  1.00  0.00     0.074 A 
ATOM     28  C   UNL     1      -6.436  -4.113  -7.062  1.00  0.00     0.029 A 
ATOM     29  N   UNL     1      -4.647  -2.986  -7.765  1.00  0.00    -0.354 N 
ATOM     30  N   UNL     1      -3.136  -1.261  -9.719  1.00  0.00    -0.248 NA
ATOM     31  C   UNL     1      -3.029  -0.171 -11.783  1.00  0.00     0.031 C 
ATOM     32  C   UNL     1      -6.717  -3.554  -8.311  1.00  0.00     0.029 A 
ATOM     33  C   UNL     1      -5.610  -2.833  -8.741  1.00  0.00     0.049 A 
ATOM     34  H   UNL     1      -3.746  -2.591  -7.793  1.00  0.00     0.167 HD
ATOM     35  C   UNL     1      -4.356  -1.402 -10.362  1.00  0.00     0.074 A 
ATOM     36  C   UNL     1      -4.242  -0.685 -11.619  1.00  0.00     0.031 C 
ATOM     37  C   UNL     1      -5.464  -2.073  -9.960  1.00  0.00     0.034 A 
BRANCH  24  38
ATOM     38  C   UNL     1      -5.004  -5.060  -4.544  1.00  0.00     0.023 A 
ATOM     39  C   UNL     1      -5.345  -4.557  -3.273  1.00  0.00     0.012 A 
ATOM     40  C   UNL     1      -5.243  -6.416  -4.840  1.00  0.00     0.148 A 
ATOM     41  C   UNL     1      -5.882  -5.400  -2.300  1.00  0.00     0.002 A 
ATOM     42  C   UNL     1      -5.821  -7.238  -3.882  1.00  0.00     0.091 A 
ATOM     43  F   UNL     1      -4.877  -6.881  -6.042  1.00  0.00    -0.205 F 
ATOM     44  C   UNL     1      -6.128  -6.737  -2.607  1.00  0.00     0.022 A 
BRANCH  42  45
ATOM     45  S   UNL     1      -6.239  -8.954  -4.208  1.00  0.00     0.127 S 
ATOM     46  O   UNL     1      -5.287  -9.657  -3.349  1.00  0.00    -0.237 OA
ATOM     47  O   UNL     1      -7.629  -9.019  -3.759  1.00  0.00    -0.237 OA
ATOM     48  O   UNL     1      -6.050  -9.151  -5.638  1.00  0.00    -0.744 OA
ENDBRANCH  42  45
ENDBRANCH  24  38
BRANCH  25  49
ATOM     49  C   UNL     1      -0.250   0.796 -11.276  1.00  0.00     0.023 A 
ATOM     50  C   UNL     1      -0.661   2.128 -11.458  1.00  0.00     0.012 A 
ATOM     51  C   UNL     1       0.907   0.338 -11.943  1.00  0.00     0.148 A 
ATOM     52  C   UNL     1       0.065   2.987 -12.288  1.00  0.00     0.002 A 
ATOM     53  C   UNL     1       1.657   1.213 -12.719  1.00  0.00     0.091 A 
ATOM     54  F   UNL     1       1.275  -0.939 -11.768  1.00  0.00    -0.205 F 
ATOM     55  C   UNL     1       1.230   2.536 -12.904  1.00  0.00     0.022 A 
BRANCH  53  56
ATOM     56  S   UNL     1       3.244   0.758 -13.431  1.00  0.00     0.127 S 
ATOM     57  O   UNL     1       2.959   0.829 -14.863  1.00  0.00    -0.237 OA
ATOM     58  O   UNL     1       4.115   1.818 -12.923  1.00  0.00    -0.237 OA
ATOM     59  O   UNL     1       3.546  -0.570 -12.917  1.00  0.00    -0.744 OA
ENDBRANCH  53  56
ENDBRANCH  25  49
BRANCH  37  60
ATOM     60  C   UNL     1      -6.658  -2.056 -10.872  1.00  0.00     0.023 A 
ATOM     61  C   UNL     1      -6.668  -2.869 -12.020  1.00  0.00     0.012 A 
ATOM     62  C   UNL     1      -7.826  -1.370 -10.487  1.00  0.00     0.148 A 
ATOM     63  C   UNL     1      -7.830  -2.997 -12.778  1.00  0.00     0.002 A 
ATOM     64  C   UNL     1      -8.994  -1.549 -11.213  1.00  0.00     0.091 A 
ATOM     65  F   UNL     1      -7.779  -0.592  -9.396  1.00  0.00    -0.205 F 
ATOM     66  C   UNL     1      -8.996  -2.354 -12.364  1.00  0.00     0.022 A 
BRANCH  64  67
ATOM     67  S   UNL     1     -10.568  -0.868 -10.683  1.00  0.00     0.127 S 
ATOM     68  O   UNL     1     -10.832   0.119 -11.729  1.00  0.00    -0.237 OA
ATOM     69  O   UNL     1     -11.438  -2.043 -10.717  1.00  0.00    -0.237 OA
ATOM     70  O   UNL     1     -10.344  -0.317  -9.353  1.00  0.00    -0.744 OA
ENDBRANCH  64  67
ENDBRANCH  37  60
ENDBRANCH  11  12
ENDBRANCH   4   6
ENDBRANCH   3   4
ENDBRANCH   2   3
ENDBRANCH   1   2
BRANCH   1  71
ATOM     71  O   UNL     1       4.284   1.313  -2.870  1.00  0.00    -0.374 OA
BRANCH  71  72
ATOM     72  C   UNL     1       5.522   0.761  -3.341  1.00  0.00     0.202 C 
BRANCH  72  73
ATOM     73  C   UNL     1       6.279   1.811  -4.156  1.00  0.00     0.261 C 
BRANCH  73  74
ATOM     74  O   UNL     1       6.541   2.915  -3.279  1.00  0.00    -0.463 OA
BRANCH  74  75
ATOM     75  C   UNL     1       5.540   3.840  -3.240  1.00  0.00     0.310 C 
ATOM     76  O   UNL     1       4.802   4.127  -4.174  1.00  0.00    -0.252 OA
BRANCH  75  77
ATOM     77  C   UNL     1       5.406   4.368  -1.832  1.00  0.00     0.118 C 
ATOM     78  C   UNL     1       6.742   4.921  -1.324  1.00  0.00     0.019 C 
ATOM     79  C   UNL     1       4.230   5.343  -1.757  1.00  0.00     0.133 C 
ATOM     80  C   UNL     1       6.587   5.685  -0.014  1.00  0.00     0.022 C 
ATOM     81  N   UNL     1       4.261   6.027  -0.468  1.00  0.00    -0.356 N 
ATOM     82  C   UNL     1       5.486   6.730  -0.131  1.00  0.00     0.118 C 
BRANCH  81  83
ATOM     83  C   UNL     1       3.061   6.432   0.073  1.00  0.00     0.133 A 
ATOM     84  C   UNL     1       2.681   7.753   0.030  1.00  0.00     0.077 A 
ATOM     85  N   UNL     1       2.308   5.504   0.686  1.00  0.00    -0.211 NA
ATOM     86  C   UNL     1       1.500   8.096   0.656  1.00  0.00     0.095 A 
ATOM     87  C   UNL     1       1.168   5.923   1.270  1.00  0.00     0.165 A 
ATOM     88  N   UNL     1       0.730   7.191   1.288  1.00  0.00    -0.226 NA
BRANCH  86  89
ATOM     89  C   UNL     1       1.052   9.492   0.672  1.00  0.00     0.089 A 
ATOM     90  C   UNL     1       0.699  10.150  -0.507  1.00  0.00     0.030 A 
ATOM     91  N   UNL     1       1.093  10.127   1.873  1.00  0.00    -0.255 NA
ATOM     92  C   UNL     1       0.372  11.502  -0.453  1.00  0.00     0.004 A 
ATOM     93  C   UNL     1       0.753  11.433   1.896  1.00  0.00     0.112 A 
ATOM     94  C   UNL     1       0.398  12.158   0.771  1.00  0.00     0.020 A 
ENDBRANCH  86  89
BRANCH  87  95
ATOM     95  C   UNL     1       0.417   4.952   2.063  1.00  0.00     0.055 A 
ATOM     96  C   UNL     1       1.030   4.245   3.116  1.00  0.00     0.015 A 
ATOM     97  C   UNL     1      -0.944   4.724   1.835  1.00  0.00     0.134 A 
ATOM     98  C   UNL     1       0.297   3.365   3.920  1.00  0.00     0.001 A 
ATOM     99  C   UNL     1      -1.679   3.838   2.625  1.00  0.00     0.040 A 
ATOM    100  F   UNL     1      -1.579   5.347   0.830  1.00  0.00    -0.206 F 
ATOM    101  C   UNL     1      -1.060   3.163   3.675  1.00  0.00     0.003 A 
ENDBRANCH  87  95
ENDBRANCH  81  83
ENDBRANCH  75  77
ENDBRANCH  74  75
ENDBRANCH  73  74
ENDBRANCH  72  73
ENDBRANCH  71  72
ENDBRANCH   1  71
TORSDOF 20
