REMARK SMILES CC(C)[C@H](NC(=O)CCNC(=O)c1ccoc1)C(=O)OCCOCCOC(=O)c1ccc(-c2c3nc(c(-c4cccc(S(=O)(=O)[O-])c4F)c4ccc([nH]4)c(-c4cccc(S(=O)(=O)[O-])c4F)c4nc(c(-c5cccc(S(=O)(=O)[O-])c5F)c5ccc2[nH]5)C=C4)C=C3)cc1
REMARK SMILES IDX 22 1 21 2 20 3 18 4 19 5 4 6 2 7 1 8 3 9 5 10 6 11 7 13 8 14
REMARK SMILES IDX 9 15 10 16 11 17 12 19 13 20 14 21 17 22 15 23 16 24 23 25
REMARK SMILES IDX 24 26 25 27 26 28 27 29 28 30 29 31 30 32 91 33 31 34 90 35
REMARK SMILES IDX 32 36 33 37 34 38 84 39 35 40 89 41 83 42 85 43 36 44 88 45
REMARK SMILES IDX 82 46 81 47 37 49 69 50 49 51 68 52 50 53 53 54 67 55 86 56
REMARK SMILES IDX 51 57 52 58 66 60 87 61 54 62 38 63 39 64 47 65 40 66 42 67
REMARK SMILES IDX 48 68 41 69 43 70 44 71 45 72 46 73 70 74 71 75 79 76 72 77
REMARK SMILES IDX 74 78 80 79 73 80 75 81 76 82 77 83 78 84 55 85 56 86 64 87
REMARK SMILES IDX 57 88 59 89 65 90 58 91 60 92 61 93 62 94 63 95
REMARK H PARENT 5 12 10 18 85 48 53 59
REMARK Flexibility Score: inf
ROOT
ATOM      1  C   UNL     1      -1.816   5.263  -2.868  1.00  0.00     0.202 C 
ENDROOT
BRANCH   1   2
ATOM      2  C   UNL     1      -2.163   5.092  -1.384  1.00  0.00     0.261 C 
BRANCH   2   3
ATOM      3  O   UNL     1      -1.494   3.978  -0.771  1.00  0.00    -0.462 OA
BRANCH   3   4
ATOM      4  C   UNL     1      -2.322   3.004  -0.301  1.00  0.00     0.328 C 
ATOM      5  O   UNL     1      -3.546   3.083  -0.271  1.00  0.00    -0.250 OA
BRANCH   4   6
ATOM      6  C   UNL     1      -1.558   1.796   0.273  1.00  0.00     0.194 C 
BRANCH   6   7
ATOM      7  C   UNL     1      -1.643   1.751   1.821  1.00  0.00     0.017 C 
ATOM      8  C   UNL     1      -1.125   3.032   2.483  1.00  0.00     0.010 C 
ATOM      9  C   UNL     1      -3.054   1.442   2.327  1.00  0.00     0.010 C 
ENDBRANCH   6   7
BRANCH   6  10
ATOM     10  N   UNL     1      -0.144   1.665  -0.122  1.00  0.00    -0.342 N 
ATOM     11  C   UNL     1       0.502   0.641  -0.746  1.00  0.00     0.222 C 
ATOM     12  H   UNL     1       0.422   2.439   0.100  1.00  0.00     0.164 HD
ATOM     13  O   UNL     1       1.730   0.688  -0.838  1.00  0.00    -0.275 OA
BRANCH  11  14
ATOM     14  C   UNL     1      -0.261  -0.523  -1.353  1.00  0.00     0.121 C 
BRANCH  14  15
ATOM     15  C   UNL     1      -0.454  -1.707  -0.402  1.00  0.00     0.126 C 
BRANCH  15  16
ATOM     16  N   UNL     1      -1.691  -1.608   0.360  1.00  0.00    -0.351 N 
ATOM     17  C   UNL     1      -2.935  -1.823  -0.189  1.00  0.00     0.254 C 
ATOM     18  H   UNL     1      -1.634  -1.375   1.315  1.00  0.00     0.163 HD
ATOM     19  O   UNL     1      -3.761  -0.916  -0.198  1.00  0.00    -0.269 OA
BRANCH  17  20
ATOM     20  C   UNL     1      -3.250  -3.154  -0.657  1.00  0.00     0.077 A 
ATOM     21  C   UNL     1      -2.691  -4.415  -0.305  1.00  0.00     0.056 A 
ATOM     22  C   UNL     1      -4.313  -3.447  -1.489  1.00  0.00     0.208 A 
ATOM     23  C   UNL     1      -3.463  -5.371  -0.924  1.00  0.00     0.195 A 
ATOM     24  O   UNL     1      -4.442  -4.787  -1.661  1.00  0.00    -0.472 OA
ENDBRANCH  17  20
ENDBRANCH  15  16
ENDBRANCH  14  15
ENDBRANCH  11  14
ENDBRANCH   6  10
ENDBRANCH   4   6
ENDBRANCH   3   4
ENDBRANCH   2   3
ENDBRANCH   1   2
BRANCH   1  25
ATOM     25  O   UNL     1      -1.788   4.080  -3.660  1.00  0.00    -0.374 OA
BRANCH  25  26
ATOM     26  C   UNL     1      -0.685   3.186  -3.480  1.00  0.00     0.202 C 
BRANCH  26  27
ATOM     27  C   UNL     1       0.722   3.763  -3.669  1.00  0.00     0.261 C 
BRANCH  27  28
ATOM     28  O   UNL     1       1.101   4.636  -2.583  1.00  0.00    -0.460 OA
BRANCH  28  29
ATOM     29  C   UNL     1       1.627   5.820  -2.982  1.00  0.00     0.338 C 
ATOM     30  O   UNL     1       1.847   6.174  -4.132  1.00  0.00    -0.246 OA
BRANCH  29  31
ATOM     31  C   UNL     1       1.766   6.752  -1.849  1.00  0.00     0.060 A 
ATOM     32  C   UNL     1       1.115   7.988  -1.949  1.00  0.00     0.016 A 
ATOM     33  C   UNL     1       2.658   6.501  -0.804  1.00  0.00     0.016 A 
ATOM     34  C   UNL     1       1.419   9.009  -1.052  1.00  0.00     0.010 A 
ATOM     35  C   UNL     1       2.968   7.532   0.092  1.00  0.00     0.010 A 
ATOM     36  C   UNL     1       2.393   8.806  -0.065  1.00  0.00    -0.014 A 
BRANCH  36  37
ATOM     37  C   UNL     1       2.948   9.989   0.640  1.00  0.00     0.031 A 
ATOM     38  C   UNL     1       4.169  10.665   0.069  1.00  0.00     0.074 A 
ATOM     39  C   UNL     1       2.354  10.493   1.736  1.00  0.00     0.049 A 
ATOM     40  N   UNL     1       4.755  11.771   0.448  1.00  0.00    -0.248 NA
ATOM     41  C   UNL     1       4.810  10.009  -1.084  1.00  0.00     0.031 C 
ATOM     42  C   UNL     1       1.179   9.929   2.396  1.00  0.00     0.029 A 
ATOM     43  N   UNL     1       2.670  11.596   2.490  1.00  0.00    -0.354 N 
ATOM     44  C   UNL     1       5.832  11.942  -0.414  1.00  0.00     0.074 A 
ATOM     45  C   UNL     1       5.833  10.816  -1.322  1.00  0.00     0.031 C 
ATOM     46  C   UNL     1       0.879  10.684   3.468  1.00  0.00     0.029 A 
ATOM     47  C   UNL     1       1.835  11.787   3.565  1.00  0.00     0.049 A 
ATOM     48  H   UNL     1       3.423  12.194   2.280  1.00  0.00     0.167 HD
ATOM     49  C   UNL     1       6.723  12.959  -0.469  1.00  0.00     0.034 A 
ATOM     50  C   UNL     1       1.835  12.748   4.510  1.00  0.00     0.034 A 
ATOM     51  C   UNL     1       6.716  14.093   0.412  1.00  0.00     0.049 A 
ATOM     52  C   UNL     1       2.833  13.875   4.422  1.00  0.00     0.074 A 
ATOM     53  C   UNL     1       7.562  15.189   0.413  1.00  0.00     0.029 A 
ATOM     54  N   UNL     1       5.819  14.277   1.452  1.00  0.00    -0.354 N 
ATOM     55  N   UNL     1       3.749  14.098   3.511  1.00  0.00    -0.248 NA
ATOM     56  C   UNL     1       2.768  14.906   5.470  1.00  0.00     0.031 C 
ATOM     57  C   UNL     1       7.172  16.039   1.455  1.00  0.00     0.029 A 
ATOM     58  C   UNL     1       6.088  15.467   2.103  1.00  0.00     0.049 A 
ATOM     59  H   UNL     1       5.097  13.652   1.692  1.00  0.00     0.167 HD
ATOM     60  C   UNL     1       4.343  15.308   3.853  1.00  0.00     0.074 A 
ATOM     61  C   UNL     1       3.674  15.780   5.048  1.00  0.00     0.031 C 
ATOM     62  C   UNL     1       5.365  15.960   3.245  1.00  0.00     0.034 A 
BRANCH  49  63
ATOM     63  C   UNL     1       7.745  12.921  -1.571  1.00  0.00     0.023 A 
ATOM     64  C   UNL     1       7.363  13.320  -2.867  1.00  0.00     0.012 A 
ATOM     65  C   UNL     1       9.075  12.535  -1.327  1.00  0.00     0.148 A 
ATOM     66  C   UNL     1       8.287  13.320  -3.910  1.00  0.00     0.002 A 
ATOM     67  C   UNL     1       9.999  12.562  -2.367  1.00  0.00     0.091 A 
ATOM     68  F   UNL     1       9.411  12.124  -0.095  1.00  0.00    -0.205 F 
ATOM     69  C   UNL     1       9.606  12.951  -3.659  1.00  0.00     0.022 A 
BRANCH  67  70
ATOM     70  S   UNL     1      11.728  12.149  -2.110  1.00  0.00     0.127 S 
ATOM     71  O   UNL     1      11.763  10.747  -2.522  1.00  0.00    -0.237 OA
ATOM     72  O   UNL     1      12.415  13.068  -3.018  1.00  0.00    -0.237 OA
ATOM     73  O   UNL     1      11.981  12.404  -0.698  1.00  0.00    -0.744 OA
ENDBRANCH  67  70
ENDBRANCH  49  63
BRANCH  50  74
ATOM     74  C   UNL     1       0.795  12.735   5.575  1.00  0.00     0.023 A 
ATOM     75  C   UNL     1      -0.241  13.688   5.541  1.00  0.00     0.012 A 
ATOM     76  C   UNL     1       0.807  11.770   6.599  1.00  0.00     0.148 A 
ATOM     77  C   UNL     1      -1.236  13.691   6.519  1.00  0.00     0.002 A 
ATOM     78  C   UNL     1      -0.214  11.749   7.543  1.00  0.00     0.091 A 
ATOM     79  F   UNL     1       1.816  10.887   6.635  1.00  0.00    -0.205 F 
ATOM     80  C   UNL     1      -1.230  12.716   7.513  1.00  0.00     0.022 A 
BRANCH  78  81
ATOM     81  S   UNL     1      -0.329  10.441   8.769  1.00  0.00     0.127 S 
ATOM     82  O   UNL     1       0.338  11.044   9.919  1.00  0.00    -0.237 OA
ATOM     83  O   UNL     1      -1.775  10.271   8.916  1.00  0.00    -0.237 OA
ATOM     84  O   UNL     1       0.341   9.298   8.160  1.00  0.00    -0.744 OA
ENDBRANCH  78  81
ENDBRANCH  50  74
BRANCH  62  85
ATOM     85  C   UNL     1       5.818  17.266   3.839  1.00  0.00     0.023 A 
ATOM     86  C   UNL     1       6.633  17.254   4.987  1.00  0.00     0.012 A 
ATOM     87  C   UNL     1       5.520  18.492   3.215  1.00  0.00     0.148 A 
ATOM     88  C   UNL     1       7.130  18.445   5.516  1.00  0.00     0.002 A 
ATOM     89  C   UNL     1       6.047  19.673   3.728  1.00  0.00     0.091 A 
ATOM     90  F   UNL     1       4.723  18.491   2.136  1.00  0.00    -0.205 F 
ATOM     91  C   UNL     1       6.848  19.653   4.881  1.00  0.00     0.022 A 
BRANCH  89  92
ATOM     92  S   UNL     1       5.782  21.247   2.902  1.00  0.00     0.127 S 
ATOM     93  O   UNL     1       4.557  21.722   3.541  1.00  0.00    -0.237 OA
ATOM     94  O   UNL     1       6.984  22.006   3.253  1.00  0.00    -0.237 OA
ATOM     95  O   UNL     1       5.681  20.919   1.486  1.00  0.00    -0.744 OA
ENDBRANCH  89  92
ENDBRANCH  62  85
ENDBRANCH  36  37
ENDBRANCH  29  31
ENDBRANCH  28  29
ENDBRANCH  27  28
ENDBRANCH  26  27
ENDBRANCH  25  26
ENDBRANCH   1  25
TORSDOF 23
