REMARK SMILES O=C(OCCOCCOC(=O)[C@@H](c1ccccc1)[C@H](C(=O)c1ccccc1)c1ccccc1)c1ccc(-c2c3nc(c(-c4cccc(S(=O)(=O)[O-])c4F)c4ccc([nH]4)c(-c4cccc(S(=O)(=O)[O-])c4F)c4nc(c(-c5cccc(S(=O)(=O)[O-])c5F)c5ccc2[nH]5)C=C4)C=C3)cc1
REMARK SMILES IDX 6 1 5 2 4 3 3 4 2 5 1 6 34 7 35 8 96 9 36 10 95 11 37 12
REMARK SMILES IDX 38 13 39 14 89 15 40 16 94 17 88 18 90 19 41 20 93 21 87 22
REMARK SMILES IDX 86 23 42 25 74 26 54 27 73 28 55 29 58 30 72 31 91 32 56 33
REMARK SMILES IDX 57 34 71 36 92 37 59 38 43 39 44 40 52 41 45 42 47 43 53 44
REMARK SMILES IDX 46 45 48 46 49 47 50 48 51 49 75 50 76 51 84 52 77 53 79 54
REMARK SMILES IDX 85 55 78 56 80 57 81 58 82 59 83 60 60 61 61 62 69 63 62 64
REMARK SMILES IDX 64 65 70 66 63 67 65 68 66 69 67 70 68 71 7 72 8 73 9 74
REMARK SMILES IDX 10 75 11 76 12 77 13 78 14 79 18 80 15 81 17 82 16 83 19 84
REMARK SMILES IDX 28 85 29 86 33 87 30 88 32 89 31 90 20 91 21 92 22 93 23 94
REMARK SMILES IDX 27 95 24 96 26 97 25 98
REMARK H PARENT 90 24 58 35
REMARK Flexibility Score: inf
ROOT
ATOM      1  O   UNL     1       7.652  -4.071   2.672  1.00  0.00    -0.374 OA
ENDROOT
BRANCH   1   2
ATOM      2  C   UNL     1       7.985  -5.123   3.554  1.00  0.00     0.202 C 
BRANCH   2   3
ATOM      3  C   UNL     1       9.448  -5.546   3.630  1.00  0.00     0.261 C 
BRANCH   3   4
ATOM      4  O   UNL     1      10.327  -4.415   3.758  1.00  0.00    -0.460 OA
BRANCH   4   5
ATOM      5  C   UNL     1      11.085  -3.892   2.758  1.00  0.00     0.338 C 
ATOM      6  O   UNL     1      11.866  -2.976   2.993  1.00  0.00    -0.246 OA
BRANCH   5   7
ATOM      7  C   UNL     1      10.974  -4.413   1.371  1.00  0.00     0.060 A 
ATOM      8  C   UNL     1       9.750  -4.712   0.780  1.00  0.00     0.016 A 
ATOM      9  C   UNL     1      12.124  -4.545   0.598  1.00  0.00     0.016 A 
ATOM     10  C   UNL     1       9.632  -5.267  -0.461  1.00  0.00     0.010 A 
ATOM     11  C   UNL     1      12.019  -5.009  -0.716  1.00  0.00     0.010 A 
ATOM     12  C   UNL     1      10.767  -5.383  -1.228  1.00  0.00    -0.014 A 
BRANCH  12  13
ATOM     13  C   UNL     1      10.574  -6.029  -2.521  1.00  0.00     0.031 A 
ATOM     14  C   UNL     1      11.107  -7.408  -2.666  1.00  0.00     0.074 A 
ATOM     15  C   UNL     1       9.803  -5.430  -3.446  1.00  0.00     0.049 A 
ATOM     16  N   UNL     1      11.233  -8.124  -3.740  1.00  0.00    -0.248 NA
ATOM     17  C   UNL     1      11.563  -8.075  -1.429  1.00  0.00     0.031 C 
ATOM     18  C   UNL     1       9.085  -4.159  -3.263  1.00  0.00     0.029 A 
ATOM     19  N   UNL     1       9.482  -5.808  -4.716  1.00  0.00    -0.354 N 
ATOM     20  C   UNL     1      11.893  -9.273  -3.333  1.00  0.00     0.074 A 
ATOM     21  C   UNL     1      12.082  -9.194  -1.905  1.00  0.00     0.031 C 
ATOM     22  C   UNL     1       8.427  -3.857  -4.391  1.00  0.00     0.029 A 
ATOM     23  C   UNL     1       8.773  -4.847  -5.398  1.00  0.00     0.049 A 
ATOM     24  H   UNL     1       9.733  -6.678  -5.104  1.00  0.00     0.167 HD
ATOM     25  C   UNL     1      12.332 -10.273  -4.123  1.00  0.00     0.034 A 
ATOM     26  C   UNL     1       8.526  -4.749  -6.715  1.00  0.00     0.034 A 
ATOM     27  C   UNL     1      12.091 -10.284  -5.536  1.00  0.00     0.049 A 
ATOM     28  C   UNL     1       9.081  -5.845  -7.581  1.00  0.00     0.074 A 
ATOM     29  C   UNL     1      12.498 -11.204  -6.477  1.00  0.00     0.029 A 
ATOM     30  N   UNL     1      11.377  -9.297  -6.209  1.00  0.00    -0.354 N 
ATOM     31  N   UNL     1       9.739  -6.924  -7.218  1.00  0.00    -0.248 NA
ATOM     32  C   UNL     1       8.873  -5.720  -9.025  1.00  0.00     0.031 C 
ATOM     33  C   UNL     1      12.062 -10.751  -7.727  1.00  0.00     0.029 A 
ATOM     34  C   UNL     1      11.343  -9.574  -7.558  1.00  0.00     0.049 A 
ATOM     35  H   UNL     1      10.957  -8.515  -5.783  1.00  0.00     0.167 HD
ATOM     36  C   UNL     1      10.005  -7.620  -8.386  1.00  0.00     0.074 A 
ATOM     37  C   UNL     1       9.412  -6.849  -9.465  1.00  0.00     0.031 C 
ATOM     38  C   UNL     1      10.688  -8.778  -8.568  1.00  0.00     0.034 A 
BRANCH  25  39
ATOM     39  C   UNL     1      13.179 -11.331  -3.481  1.00  0.00     0.023 A 
ATOM     40  C   UNL     1      12.616 -12.273  -2.598  1.00  0.00     0.012 A 
ATOM     41  C   UNL     1      14.566 -11.355  -3.728  1.00  0.00     0.148 A 
ATOM     42  C   UNL     1      13.428 -13.199  -1.942  1.00  0.00     0.002 A 
ATOM     43  C   UNL     1      15.359 -12.311  -3.111  1.00  0.00     0.091 A 
ATOM     44  F   UNL     1      15.085 -10.421  -4.537  1.00  0.00    -0.205 F 
ATOM     45  C   UNL     1      14.796 -13.224  -2.205  1.00  0.00     0.022 A 
BRANCH  43  46
ATOM     46  S   UNL     1      17.119 -12.462  -3.431  1.00  0.00     0.127 S 
ATOM     47  O   UNL     1      17.686 -12.156  -2.118  1.00  0.00    -0.237 OA
ATOM     48  O   UNL     1      17.232 -13.863  -3.834  1.00  0.00    -0.237 OA
ATOM     49  O   UNL     1      17.425 -11.496  -4.477  1.00  0.00    -0.744 OA
ENDBRANCH  43  46
ENDBRANCH  25  39
BRANCH  26  50
ATOM     50  C   UNL     1       7.807  -3.570  -7.275  1.00  0.00     0.023 A 
ATOM     51  C   UNL     1       6.563  -3.747  -7.909  1.00  0.00     0.012 A 
ATOM     52  C   UNL     1       8.339  -2.266  -7.172  1.00  0.00     0.148 A 
ATOM     53  C   UNL     1       5.883  -2.660  -8.461  1.00  0.00     0.002 A 
ATOM     54  C   UNL     1       7.629  -1.180  -7.672  1.00  0.00     0.091 A 
ATOM     55  F   UNL     1       9.531  -2.110  -6.579  1.00  0.00    -0.205 F 
ATOM     56  C   UNL     1       6.410  -1.377  -8.335  1.00  0.00     0.022 A 
BRANCH  54  57
ATOM     57  S   UNL     1       8.173   0.517  -7.442  1.00  0.00     0.127 S 
ATOM     58  O   UNL     1       8.583   0.885  -8.795  1.00  0.00    -0.237 OA
ATOM     59  O   UNL     1       6.949   1.166  -6.971  1.00  0.00    -0.237 OA
ATOM     60  O   UNL     1       9.238   0.458  -6.450  1.00  0.00    -0.744 OA
ENDBRANCH  54  57
ENDBRANCH  26  50
BRANCH  38  61
ATOM     61  C   UNL     1      10.778  -9.293  -9.973  1.00  0.00     0.023 A 
ATOM     62  C   UNL     1      11.648  -8.679 -10.892  1.00  0.00     0.012 A 
ATOM     63  C   UNL     1      10.079 -10.460 -10.332  1.00  0.00     0.148 A 
ATOM     64  C   UNL     1      11.805  -9.214 -12.168  1.00  0.00     0.002 A 
ATOM     65  C   UNL     1      10.289 -11.020 -11.581  1.00  0.00     0.091 A 
ATOM     66  F   UNL     1       9.245 -11.007  -9.436  1.00  0.00    -0.205 F 
ATOM     67  C   UNL     1      11.140 -10.392 -12.505  1.00  0.00     0.022 A 
BRANCH  65  68
ATOM     68  S   UNL     1       9.573 -12.596 -12.052  1.00  0.00     0.127 S 
ATOM     69  O   UNL     1       8.612 -12.191 -13.076  1.00  0.00    -0.237 OA
ATOM     70  O   UNL     1      10.738 -13.322 -12.558  1.00  0.00    -0.237 OA
ATOM     71  O   UNL     1       8.990 -13.155 -10.839  1.00  0.00    -0.744 OA
ENDBRANCH  65  68
ENDBRANCH  38  61
ENDBRANCH  12  13
ENDBRANCH   5   7
ENDBRANCH   4   5
ENDBRANCH   3   4
ENDBRANCH   2   3
ENDBRANCH   1   2
BRANCH   1  72
ATOM     72  C   UNL     1       8.121  -2.749   2.922  1.00  0.00     0.202 C 
BRANCH  72  73
ATOM     73  C   UNL     1       7.030  -1.822   2.425  1.00  0.00     0.261 C 
BRANCH  73  74
ATOM     74  O   UNL     1       5.974  -1.928   3.376  1.00  0.00    -0.463 OA
BRANCH  74  75
ATOM     75  C   UNL     1       5.201  -3.048   3.298  1.00  0.00     0.314 C 
ATOM     76  O   UNL     1       5.092  -3.825   2.355  1.00  0.00    -0.252 OA
BRANCH  75  77
ATOM     77  C   UNL     1       4.455  -3.202   4.590  1.00  0.00     0.144 C 
BRANCH  77  78
ATOM     78  C   UNL     1       5.446  -3.751   5.647  1.00  0.00    -0.033 A 
ATOM     79  C   UNL     1       5.430  -5.115   6.000  1.00  0.00     0.004 A 
ATOM     80  C   UNL     1       6.458  -2.950   6.215  1.00  0.00     0.004 A 
ATOM     81  C   UNL     1       6.369  -5.640   6.902  1.00  0.00     0.000 A 
ATOM     82  C   UNL     1       7.379  -3.469   7.131  1.00  0.00     0.000 A 
ATOM     83  C   UNL     1       7.336  -4.815   7.475  1.00  0.00     0.000 A 
ENDBRANCH  77  78
BRANCH  77  84
ATOM     84  C   UNL     1       3.543  -1.925   4.853  1.00  0.00     0.110 C 
BRANCH  84  85
ATOM     85  C   UNL     1       3.761  -1.399   6.290  1.00  0.00    -0.036 A 
ATOM     86  C   UNL     1       3.481  -2.275   7.363  1.00  0.00     0.004 A 
ATOM     87  C   UNL     1       4.413  -0.194   6.594  1.00  0.00     0.004 A 
ATOM     88  C   UNL     1       3.955  -2.017   8.651  1.00  0.00     0.000 A 
ATOM     89  C   UNL     1       4.834   0.090   7.898  1.00  0.00     0.000 A 
ATOM     90  C   UNL     1       4.638  -0.836   8.917  1.00  0.00     0.000 A 
ENDBRANCH  84  85
BRANCH  84  91
ATOM     91  C   UNL     1       3.487  -0.833   3.705  1.00  0.00     0.171 C 
ATOM     92  O   UNL     1       3.581   0.380   3.903  1.00  0.00    -0.293 OA
BRANCH  91  93
ATOM     93  C   UNL     1       3.297  -1.221   2.263  1.00  0.00     0.018 A 
ATOM     94  C   UNL     1       4.091  -0.574   1.294  1.00  0.00     0.012 A 
ATOM     95  C   UNL     1       2.462  -2.269   1.871  1.00  0.00     0.012 A 
ATOM     96  C   UNL     1       4.114  -1.027  -0.028  1.00  0.00     0.001 A 
ATOM     97  C   UNL     1       2.474  -2.705   0.539  1.00  0.00     0.001 A 
ATOM     98  C   UNL     1       3.312  -2.102  -0.402  1.00  0.00     0.000 A 
ENDBRANCH  91  93
ENDBRANCH  84  91
ENDBRANCH  77  84
ENDBRANCH  75  77
ENDBRANCH  74  75
ENDBRANCH  73  74
ENDBRANCH  72  73
ENDBRANCH   1  72
TORSDOF 22
