REMARK SMILES COc1ccccc1C[N@@H+](C)[C@@H](C)c1ccc(C(=O)OCCOCCOC(=O)c2ccc(-c3c4nc(c(-c5cccc(S(=O)(=O)[O-])c5F)c5ccc([nH]5)c(-c5cccc(S(=O)(=O)[O-])c5F)c5nc(c(-c6cccc(S(=O)(=O)[O-])c6F)c6ccc3[nH]6)C=C5)C=C4)cc2)o1
REMARK SMILES IDX 22 1 21 2 20 3 18 4 19 5 17 6 14 7 15 8 92 9 16 10 12 11
REMARK SMILES IDX 13 12 10 13 11 14 9 16 8 17 3 18 4 19 5 20 7 21 6 22 2 23
REMARK SMILES IDX 1 24 23 25 24 26 25 27 26 28 27 29 28 30 29 31 30 32 91 33
REMARK SMILES IDX 31 34 90 35 32 36 33 37 34 38 84 39 35 40 89 41 83 42 85 43
REMARK SMILES IDX 36 44 88 45 82 46 81 47 37 49 69 50 49 51 68 52 50 53 53 54
REMARK SMILES IDX 67 55 86 56 51 57 52 58 66 60 87 61 54 62 38 63 39 64 47 65
REMARK SMILES IDX 40 66 42 67 48 68 41 69 43 70 44 71 45 72 46 73 70 74 71 75
REMARK SMILES IDX 79 76 72 77 74 78 80 79 73 80 75 81 76 82 77 83 78 84 55 85
REMARK SMILES IDX 56 86 64 87 57 88 59 89 65 90 58 91 60 92 61 93 62 94 63 95
REMARK H PARENT 10 15 85 48 53 59
REMARK Flexibility Score: inf
ROOT
ATOM      1  C   UNL     1      -0.796   3.478   7.996  1.00  0.00     0.202 C 
ENDROOT
BRANCH   1   2
ATOM      2  C   UNL     1      -1.460   3.013   6.695  1.00  0.00     0.261 C 
BRANCH   2   3
ATOM      3  O   UNL     1      -0.604   2.047   6.066  1.00  0.00    -0.457 OA
BRANCH   3   4
ATOM      4  C   UNL     1      -0.252   2.294   4.775  1.00  0.00     0.374 C 
ATOM      5  O   UNL     1      -0.867   3.044   4.017  1.00  0.00    -0.242 OA
BRANCH   4   6
ATOM      6  C   UNL     1       1.025   1.674   4.519  1.00  0.00     0.212 A 
ATOM      7  C   UNL     1       2.859   1.296   3.358  1.00  0.00     0.162 A 
ATOM      8  C   UNL     1       3.033   0.666   4.574  1.00  0.00     0.053 A 
ATOM      9  O   UNL     1       1.665   1.954   3.344  1.00  0.00    -0.448 OA
ATOM     10  C   UNL     1       1.839   0.867   5.299  1.00  0.00     0.059 A 
BRANCH   7  11
ATOM     11  C   UNL     1       3.696   1.339   2.111  1.00  0.00     0.248 C 
ATOM     12  C   UNL     1       3.067   2.196   1.000  1.00  0.00     0.084 C 
BRANCH  11  13
ATOM     13  N   UNL     1       4.134  -0.025   1.706  1.00  0.00    -0.325 N 
ATOM     14  C   UNL     1       5.271   0.051   0.784  1.00  0.00     0.333 C 
ATOM     15  H   UNL     1       4.399  -0.479   2.581  1.00  0.00     0.348 HD
BRANCH  13  16
ATOM     16  C   UNL     1       3.080  -0.875   1.107  1.00  0.00     0.303 C 
BRANCH  16  17
ATOM     17  C   UNL     1       1.976  -1.335   2.036  1.00  0.00     0.048 A 
ATOM     18  C   UNL     1       0.658  -0.855   1.951  1.00  0.00     0.127 A 
ATOM     19  C   UNL     1      -0.304  -1.226   2.896  1.00  0.00     0.047 A 
ATOM     20  C   UNL     1       0.021  -2.116   3.917  1.00  0.00     0.004 A 
ATOM     21  C   UNL     1       2.279  -2.251   3.063  1.00  0.00     0.013 A 
ATOM     22  C   UNL     1       1.310  -2.635   3.996  1.00  0.00     0.001 A 
BRANCH  18  23
ATOM     23  O   UNL     1       0.282   0.099   1.044  1.00  0.00    -0.496 OA
ATOM     24  C   UNL     1       0.052  -0.443  -0.252  1.00  0.00     0.278 C 
ENDBRANCH  18  23
ENDBRANCH  16  17
ENDBRANCH  13  16
ENDBRANCH  11  13
ENDBRANCH   7  11
ENDBRANCH   4   6
ENDBRANCH   3   4
ENDBRANCH   2   3
ENDBRANCH   1   2
BRANCH   1  25
ATOM     25  O   UNL     1       0.275   4.418   7.841  1.00  0.00    -0.374 OA
BRANCH  25  26
ATOM     26  C   UNL     1       1.524   3.916   7.369  1.00  0.00     0.202 C 
BRANCH  26  27
ATOM     27  C   UNL     1       2.457   3.278   8.405  1.00  0.00     0.261 C 
BRANCH  27  28
ATOM     28  O   UNL     1       1.840   2.198   9.120  1.00  0.00    -0.460 OA
BRANCH  28  29
ATOM     29  C   UNL     1       1.397   2.547  10.353  1.00  0.00     0.338 C 
ATOM     30  O   UNL     1       1.541   3.627  10.905  1.00  0.00    -0.246 OA
BRANCH  29  31
ATOM     31  C   UNL     1       0.557   1.480  10.930  1.00  0.00     0.060 A 
ATOM     32  C   UNL     1      -0.649   1.876  11.520  1.00  0.00     0.016 A 
ATOM     33  C   UNL     1       0.975   0.148  10.992  1.00  0.00     0.016 A 
ATOM     34  C   UNL     1      -1.397   0.962  12.253  1.00  0.00     0.010 A 
ATOM     35  C   UNL     1       0.219  -0.771  11.729  1.00  0.00     0.010 A 
ATOM     36  C   UNL     1      -0.938  -0.352  12.411  1.00  0.00    -0.014 A 
BRANCH  36  37
ATOM     37  C   UNL     1      -1.574  -1.206  13.444  1.00  0.00     0.031 A 
ATOM     38  C   UNL     1      -0.900  -1.353  14.783  1.00  0.00     0.074 A 
ATOM     39  C   UNL     1      -2.763  -1.793  13.219  1.00  0.00     0.049 A 
ATOM     40  N   UNL     1      -1.315  -1.977  15.855  1.00  0.00    -0.248 NA
ATOM     41  C   UNL     1       0.417  -0.711  14.935  1.00  0.00     0.031 C 
ATOM     42  C   UNL     1      -3.512  -1.732  11.965  1.00  0.00     0.029 A 
ATOM     43  N   UNL     1      -3.545  -2.562  14.043  1.00  0.00    -0.354 N 
ATOM     44  C   UNL     1      -0.305  -1.823  16.798  1.00  0.00     0.074 A 
ATOM     45  C   UNL     1       0.753  -1.067  16.166  1.00  0.00     0.031 C 
ATOM     46  C   UNL     1      -4.641  -2.449  12.098  1.00  0.00     0.029 A 
ATOM     47  C   UNL     1      -4.692  -3.022  13.442  1.00  0.00     0.049 A 
ATOM     48  H   UNL     1      -3.307  -2.765  14.977  1.00  0.00     0.167 HD
ATOM     49  C   UNL     1      -0.269  -2.249  18.083  1.00  0.00     0.034 A 
ATOM     50  C   UNL     1      -5.670  -3.815  13.924  1.00  0.00     0.034 A 
ATOM     51  C   UNL     1      -1.333  -2.974  18.722  1.00  0.00     0.049 A 
ATOM     52  C   UNL     1      -5.614  -4.263  15.361  1.00  0.00     0.074 A 
ATOM     53  C   UNL     1      -1.411  -3.411  20.033  1.00  0.00     0.029 A 
ATOM     54  N   UNL     1      -2.503  -3.373  18.097  1.00  0.00    -0.354 N 
ATOM     55  N   UNL     1      -4.714  -3.997  16.277  1.00  0.00    -0.248 NA
ATOM     56  C   UNL     1      -6.736  -5.083  15.845  1.00  0.00     0.031 C 
ATOM     57  C   UNL     1      -2.624  -4.090  20.195  1.00  0.00     0.029 A 
ATOM     58  C   UNL     1      -3.310  -4.054  18.992  1.00  0.00     0.049 A 
ATOM     59  H   UNL     1      -2.728  -3.198  17.155  1.00  0.00     0.167 HD
ATOM     60  C   UNL     1      -5.180  -4.578  17.453  1.00  0.00     0.074 A 
ATOM     61  C   UNL     1      -6.452  -5.195  17.136  1.00  0.00     0.031 C 
ATOM     62  C   UNL     1      -4.602  -4.609  18.680  1.00  0.00     0.034 A 
BRANCH  49  63
ATOM     63  C   UNL     1       0.952  -1.905  18.895  1.00  0.00     0.023 A 
ATOM     64  C   UNL     1       1.150  -0.577  19.326  1.00  0.00     0.012 A 
ATOM     65  C   UNL     1       1.879  -2.898  19.267  1.00  0.00     0.148 A 
ATOM     66  C   UNL     1       2.269  -0.236  20.085  1.00  0.00     0.002 A 
ATOM     67  C   UNL     1       2.969  -2.558  20.060  1.00  0.00     0.091 A 
ATOM     68  F   UNL     1       1.688  -4.149  18.825  1.00  0.00    -0.205 F 
ATOM     69  C   UNL     1       3.171  -1.228  20.460  1.00  0.00     0.022 A 
BRANCH  67  70
ATOM     70  S   UNL     1       4.145  -3.779  20.656  1.00  0.00     0.127 S 
ATOM     71  O   UNL     1       5.312  -3.495  19.822  1.00  0.00    -0.237 OA
ATOM     72  O   UNL     1       4.295  -3.403  22.062  1.00  0.00    -0.237 OA
ATOM     73  O   UNL     1       3.519  -5.075  20.440  1.00  0.00    -0.744 OA
ENDBRANCH  67  70
ENDBRANCH  49  63
BRANCH  50  74
ATOM     74  C   UNL     1      -6.822  -4.182  13.054  1.00  0.00     0.023 A 
ATOM     75  C   UNL     1      -8.096  -3.645  13.321  1.00  0.00     0.012 A 
ATOM     76  C   UNL     1      -6.657  -5.045  11.953  1.00  0.00     0.148 A 
ATOM     77  C   UNL     1      -9.192  -3.985  12.526  1.00  0.00     0.002 A 
ATOM     78  C   UNL     1      -7.741  -5.337  11.133  1.00  0.00     0.091 A 
ATOM     79  F   UNL     1      -5.440  -5.559  11.726  1.00  0.00    -0.205 F 
ATOM     80  C   UNL     1      -9.012  -4.822  11.428  1.00  0.00     0.022 A 
BRANCH  78  81
ATOM     81  S   UNL     1      -7.574  -6.301   9.627  1.00  0.00     0.127 S 
ATOM     82  O   UNL     1      -8.234  -7.550   9.996  1.00  0.00    -0.237 OA
ATOM     83  O   UNL     1      -8.304  -5.480   8.660  1.00  0.00    -0.237 OA
ATOM     84  O   UNL     1      -6.142  -6.390   9.375  1.00  0.00    -0.744 OA
ENDBRANCH  78  81
ENDBRANCH  50  74
BRANCH  62  85
ATOM     85  C   UNL     1      -5.356  -5.294  19.791  1.00  0.00     0.023 A 
ATOM     86  C   UNL     1      -5.463  -6.699  19.806  1.00  0.00     0.012 A 
ATOM     87  C   UNL     1      -5.901  -4.549  20.855  1.00  0.00     0.148 A 
ATOM     88  C   UNL     1      -6.135  -7.348  20.842  1.00  0.00     0.002 A 
ATOM     89  C   UNL     1      -6.527  -5.206  21.909  1.00  0.00     0.091 A 
ATOM     90  F   UNL     1      -5.809  -3.211  20.817  1.00  0.00    -0.205 F 
ATOM     91  C   UNL     1      -6.656  -6.603  21.898  1.00  0.00     0.022 A 
BRANCH  89  92
ATOM     92  S   UNL     1      -7.137  -4.325  23.352  1.00  0.00     0.127 S 
ATOM     93  O   UNL     1      -8.568  -4.242  23.068  1.00  0.00    -0.237 OA
ATOM     94  O   UNL     1      -6.784  -5.230  24.447  1.00  0.00    -0.237 OA
ATOM     95  O   UNL     1      -6.421  -3.056  23.370  1.00  0.00    -0.744 OA
ENDBRANCH  89  92
ENDBRANCH  62  85
ENDBRANCH  36  37
ENDBRANCH  29  31
ENDBRANCH  28  29
ENDBRANCH  27  28
ENDBRANCH  26  27
ENDBRANCH  25  26
ENDBRANCH   1  25
TORSDOF 22
