REMARK SMILES O=C(OCCOCCOC(=O)c1ccc(NC(=O)c2ccc([N+](=O)[O-])cc2Cl)cc1Cl)c1ccc(-c2c3nc(c(-c4cccc(S(=O)(=O)[O-])c4F)c4ccc([nH]4)c(-c4cccc(S(=O)(=O)[O-])c4F)c4nc(c(-c5cccc(S(=O)(=O)[O-])c5F)c5ccc2[nH]5)C=C4)C=C3)cc1
REMARK SMILES IDX 6 1 5 2 4 3 3 4 2 5 1 6 32 7 33 8 94 9 34 10 93 11 35 12
REMARK SMILES IDX 36 13 37 14 87 15 38 16 92 17 86 18 88 19 39 20 91 21 85 22
REMARK SMILES IDX 84 23 40 25 72 26 52 27 71 28 53 29 56 30 70 31 89 32 54 33
REMARK SMILES IDX 55 34 69 36 90 37 57 38 41 39 42 40 50 41 43 42 45 43 51 44
REMARK SMILES IDX 44 45 46 46 47 47 48 48 49 49 73 50 74 51 82 52 75 53 77 54
REMARK SMILES IDX 83 55 76 56 78 57 79 58 80 59 81 60 58 61 59 62 67 63 60 64
REMARK SMILES IDX 62 65 68 66 61 67 63 68 64 69 65 70 66 71 7 72 8 73 9 74
REMARK SMILES IDX 10 75 11 76 12 77 13 78 30 79 14 80 29 81 31 82 15 83 16 84
REMARK SMILES IDX 17 85 18 87 19 88 20 89 27 90 21 91 26 92 28 93 22 94 23 95
REMARK SMILES IDX 24 96 25 97
REMARK H PARENT 88 24 56 35 16 86
REMARK Flexibility Score: inf
ROOT
ATOM      1  O   UNL     1       4.146   1.217  -1.266  1.00  0.00    -0.374 OA
ENDROOT
BRANCH   1   2
ATOM      2  C   UNL     1       4.324  -0.103  -1.782  1.00  0.00     0.202 C 
BRANCH   2   3
ATOM      3  C   UNL     1       3.996  -1.235  -0.801  1.00  0.00     0.261 C 
BRANCH   3   4
ATOM      4  O   UNL     1       2.617  -1.170  -0.399  1.00  0.00    -0.460 OA
BRANCH   4   5
ATOM      5  C   UNL     1       2.096  -0.781   0.789  1.00  0.00     0.338 C 
ATOM      6  O   UNL     1       0.884  -0.901   0.961  1.00  0.00    -0.246 OA
BRANCH   5   7
ATOM      7  C   UNL     1       2.914  -0.214   1.905  1.00  0.00     0.060 A 
ATOM      8  C   UNL     1       4.134   0.443   1.740  1.00  0.00     0.016 A 
ATOM      9  C   UNL     1       2.372  -0.278   3.200  1.00  0.00     0.016 A 
ATOM     10  C   UNL     1       4.846   0.935   2.822  1.00  0.00     0.010 A 
ATOM     11  C   UNL     1       3.056   0.268   4.292  1.00  0.00     0.010 A 
ATOM     12  C   UNL     1       4.313   0.852   4.104  1.00  0.00    -0.014 A 
BRANCH  12  13
ATOM     13  C   UNL     1       5.155   1.310   5.222  1.00  0.00     0.031 A 
ATOM     14  C   UNL     1       5.824   0.283   6.081  1.00  0.00     0.074 A 
ATOM     15  C   UNL     1       5.413   2.624   5.354  1.00  0.00     0.049 A 
ATOM     16  N   UNL     1       6.649   0.453   7.076  1.00  0.00    -0.248 NA
ATOM     17  C   UNL     1       5.539  -1.128   5.766  1.00  0.00     0.031 C 
ATOM     18  C   UNL     1       4.867   3.679   4.495  1.00  0.00     0.029 A 
ATOM     19  N   UNL     1       6.218   3.295   6.234  1.00  0.00    -0.354 N 
ATOM     20  C   UNL     1       6.944  -0.823   7.538  1.00  0.00     0.074 A 
ATOM     21  C   UNL     1       6.223  -1.760   6.707  1.00  0.00     0.031 C 
ATOM     22  C   UNL     1       5.372   4.862   4.878  1.00  0.00     0.029 A 
ATOM     23  C   UNL     1       6.229   4.656   6.039  1.00  0.00     0.049 A 
ATOM     24  H   UNL     1       6.738   2.846   6.939  1.00  0.00     0.167 HD
ATOM     25  C   UNL     1       7.746  -1.175   8.569  1.00  0.00     0.034 A 
ATOM     26  C   UNL     1       6.853   5.623   6.739  1.00  0.00     0.034 A 
ATOM     27  C   UNL     1       8.461  -0.221   9.370  1.00  0.00     0.049 A 
ATOM     28  C   UNL     1       7.703   5.203   7.908  1.00  0.00     0.074 A 
ATOM     29  C   UNL     1       9.278  -0.448  10.460  1.00  0.00     0.029 A 
ATOM     30  N   UNL     1       8.432   1.152   9.164  1.00  0.00    -0.354 N 
ATOM     31  N   UNL     1       7.998   3.992   8.319  1.00  0.00    -0.248 NA
ATOM     32  C   UNL     1       8.314   6.276   8.702  1.00  0.00     0.031 C 
ATOM     33  C   UNL     1       9.723   0.793  10.930  1.00  0.00     0.029 A 
ATOM     34  C   UNL     1       9.208   1.790  10.113  1.00  0.00     0.049 A 
ATOM     35  H   UNL     1       7.933   1.605   8.446  1.00  0.00     0.167 HD
ATOM     36  C   UNL     1       8.851   4.154   9.403  1.00  0.00     0.074 A 
ATOM     37  C   UNL     1       9.043   5.583   9.567  1.00  0.00     0.031 C 
ATOM     38  C   UNL     1       9.410   3.215  10.206  1.00  0.00     0.034 A 
BRANCH  25  39
ATOM     39  C   UNL     1       7.843  -2.641   8.891  1.00  0.00     0.023 A 
ATOM     40  C   UNL     1       8.572  -3.506   8.050  1.00  0.00     0.012 A 
ATOM     41  C   UNL     1       7.178  -3.168  10.015  1.00  0.00     0.148 A 
ATOM     42  C   UNL     1       8.602  -4.879   8.300  1.00  0.00     0.002 A 
ATOM     43  C   UNL     1       7.245  -4.530  10.280  1.00  0.00     0.091 A 
ATOM     44  F   UNL     1       6.464  -2.333  10.784  1.00  0.00    -0.205 F 
ATOM     45  C   UNL     1       7.945  -5.389   9.416  1.00  0.00     0.022 A 
BRANCH  43  46
ATOM     46  S   UNL     1       6.473  -5.272  11.721  1.00  0.00     0.127 S 
ATOM     47  O   UNL     1       5.355  -5.996  11.118  1.00  0.00    -0.237 OA
ATOM     48  O   UNL     1       7.544  -6.125  12.238  1.00  0.00    -0.237 OA
ATOM     49  O   UNL     1       6.106  -4.166  12.593  1.00  0.00    -0.744 OA
ENDBRANCH  43  46
ENDBRANCH  25  39
BRANCH  26  50
ATOM     50  C   UNL     1       6.710   7.055   6.348  1.00  0.00     0.023 A 
ATOM     51  C   UNL     1       7.833   7.768   5.884  1.00  0.00     0.012 A 
ATOM     52  C   UNL     1       5.465   7.712   6.412  1.00  0.00     0.148 A 
ATOM     53  C   UNL     1       7.724   9.111   5.518  1.00  0.00     0.002 A 
ATOM     54  C   UNL     1       5.351   9.033   5.993  1.00  0.00     0.091 A 
ATOM     55  F   UNL     1       4.409   7.029   6.878  1.00  0.00    -0.205 F 
ATOM     56  C   UNL     1       6.482   9.740   5.561  1.00  0.00     0.022 A 
BRANCH  54  57
ATOM     57  S   UNL     1       3.767   9.877   5.899  1.00  0.00     0.127 S 
ATOM     58  O   UNL     1       3.853  10.800   7.028  1.00  0.00    -0.237 OA
ATOM     59  O   UNL     1       3.836  10.509   4.581  1.00  0.00    -0.237 OA
ATOM     60  O   UNL     1       2.760   8.831   6.009  1.00  0.00    -0.744 OA
ENDBRANCH  54  57
ENDBRANCH  26  50
BRANCH  38  61
ATOM     61  C   UNL     1      10.307   3.704  11.309  1.00  0.00     0.023 A 
ATOM     62  C   UNL     1       9.747   4.313  12.449  1.00  0.00     0.012 A 
ATOM     63  C   UNL     1      11.696   3.481  11.250  1.00  0.00     0.148 A 
ATOM     64  C   UNL     1      10.562   4.720  13.503  1.00  0.00     0.002 A 
ATOM     65  C   UNL     1      12.495   3.841  12.326  1.00  0.00     0.091 A 
ATOM     66  F   UNL     1      12.208   2.921  10.144  1.00  0.00    -0.205 F 
ATOM     67  C   UNL     1      11.932   4.472  13.448  1.00  0.00     0.022 A 
BRANCH  65  68
ATOM     68  S   UNL     1      14.248   3.459  12.381  1.00  0.00     0.127 S 
ATOM     69  O   UNL     1      14.847   4.764  12.108  1.00  0.00    -0.237 OA
ATOM     70  O   UNL     1      14.421   2.982  13.753  1.00  0.00    -0.237 OA
ATOM     71  O   UNL     1      14.465   2.442  11.360  1.00  0.00    -0.744 OA
ENDBRANCH  65  68
ENDBRANCH  38  61
ENDBRANCH  12  13
ENDBRANCH   5   7
ENDBRANCH   4   5
ENDBRANCH   3   4
ENDBRANCH   2   3
ENDBRANCH   1   2
BRANCH   1  72
ATOM     72  C   UNL     1       2.799   1.715  -1.301  1.00  0.00     0.202 C 
BRANCH  72  73
ATOM     73  C   UNL     1       2.772   3.067  -2.013  1.00  0.00     0.261 C 
BRANCH  73  74
ATOM     74  O   UNL     1       3.220   2.848  -3.359  1.00  0.00    -0.460 OA
BRANCH  74  75
ATOM     75  C   UNL     1       4.528   3.109  -3.591  1.00  0.00     0.339 C 
ATOM     76  O   UNL     1       5.287   3.789  -2.920  1.00  0.00    -0.246 OA
BRANCH  75  77
ATOM     77  C   UNL     1       4.988   2.188  -4.646  1.00  0.00     0.078 A 
ATOM     78  C   UNL     1       6.141   1.442  -4.362  1.00  0.00     0.019 A 
ATOM     79  C   UNL     1       4.302   1.965  -5.837  1.00  0.00     0.057 A 
ATOM     80  C   UNL     1       6.563   0.426  -5.225  1.00  0.00     0.027 A 
ATOM     81  C   UNL     1       4.731   0.945  -6.697  1.00  0.00     0.047 A 
ATOM     82  Cl  UNL     1       2.947   2.910  -6.342  1.00  0.00    -0.083 Cl
ATOM     83  C   UNL     1       5.834   0.140  -6.378  1.00  0.00     0.043 A 
BRANCH  83  84
ATOM     84  N   UNL     1       6.135  -0.894  -7.283  1.00  0.00    -0.322 N 
ATOM     85  C   UNL     1       6.938  -2.006  -7.207  1.00  0.00     0.257 C 
ATOM     86  H   UNL     1       5.675  -0.802  -8.148  1.00  0.00     0.170 HD
ATOM     87  O   UNL     1       7.170  -2.664  -8.220  1.00  0.00    -0.269 OA
BRANCH  85  88
ATOM     88  C   UNL     1       7.526  -2.474  -5.942  1.00  0.00     0.059 A 
ATOM     89  C   UNL     1       8.928  -2.533  -5.879  1.00  0.00     0.022 A 
ATOM     90  C   UNL     1       6.752  -2.920  -4.861  1.00  0.00     0.060 A 
ATOM     91  C   UNL     1       9.559  -2.974  -4.715  1.00  0.00     0.086 A 
ATOM     92  C   UNL     1       7.380  -3.357  -3.691  1.00  0.00     0.107 A 
ATOM     93  Cl  UNL     1       5.027  -2.979  -4.911  1.00  0.00    -0.083 Cl
ATOM     94  C   UNL     1       8.781  -3.373  -3.621  1.00  0.00     0.270 A 
BRANCH  94  95
ATOM     95  N   UNL     1       9.438  -3.819  -2.387  1.00  0.00     0.062 N 
ATOM     96  O   UNL     1      10.657  -4.033  -2.433  1.00  0.00    -0.258 OA
ATOM     97  O   UNL     1       8.730  -3.950  -1.380  1.00  0.00    -0.258 OA
ENDBRANCH  94  95
ENDBRANCH  85  88
ENDBRANCH  83  84
ENDBRANCH  75  77
ENDBRANCH  74  75
ENDBRANCH  73  74
ENDBRANCH  72  73
ENDBRANCH   1  72
TORSDOF 20
