REMARK SMILES COc1ccc(N[C@]2(Br)C(=O)NC(=O)N[C@@H]2C(=O)OCCOCCOC(=O)c2ccc(-c3c4nc(c(-c5cccc(S(=O)(=O)[O-])c5F)c5ccc([nH]5)c(-c5cccc(S(=O)(=O)[O-])c5F)c5nc(c(-c6cccc(S(=O)(=O)[O-])c6F)c6ccc3[nH]6)C=C5)C=C4)cc2)cc1
REMARK SMILES IDX 22 1 21 2 20 3 19 4 17 5 18 6 16 7 8 8 10 9 9 10 11 11 12 12
REMARK SMILES IDX 15 13 13 14 14 17 7 18 6 20 3 21 4 22 92 23 5 24 91 25 2 26
REMARK SMILES IDX 1 27 23 28 24 29 25 30 26 31 27 32 28 33 29 34 90 35 30 36
REMARK SMILES IDX 89 37 31 38 32 39 33 40 83 41 34 42 88 43 82 44 84 45 35 46
REMARK SMILES IDX 87 47 81 48 80 49 36 51 68 52 48 53 67 54 49 55 52 56 66 57
REMARK SMILES IDX 85 58 50 59 51 60 65 62 86 63 53 64 37 65 38 66 46 67 39 68
REMARK SMILES IDX 41 69 47 70 40 71 42 72 43 73 44 74 45 75 69 76 70 77 78 78
REMARK SMILES IDX 71 79 73 80 79 81 72 82 74 83 75 84 76 85 77 86 54 87 55 88
REMARK SMILES IDX 63 89 56 90 58 91 64 92 57 93 59 94 60 95 61 96 62 97
REMARK H PARENT 12 15 15 16 7 19 84 50 52 61
REMARK Flexibility Score: inf
ROOT
ATOM      1  O   UNL     1      -2.579   3.886   9.200  1.00  0.00    -0.374 OA
ENDROOT
BRANCH   1   2
ATOM      2  C   UNL     1      -3.448   4.472   8.233  1.00  0.00     0.202 C 
BRANCH   2   3
ATOM      3  C   UNL     1      -2.830   5.519   7.304  1.00  0.00     0.261 C 
BRANCH   3   4
ATOM      4  O   UNL     1      -1.876   4.991   6.364  1.00  0.00    -0.462 OA
BRANCH   4   5
ATOM      5  C   UNL     1      -0.596   4.899   6.815  1.00  0.00     0.332 C 
ATOM      6  O   UNL     1      -0.256   5.093   7.976  1.00  0.00    -0.250 OA
BRANCH   5   7
ATOM      7  C   UNL     1       0.393   4.494   5.729  1.00  0.00     0.240 C 
ATOM      8  C   UNL     1       1.281   5.675   5.289  1.00  0.00     0.204 C 
ATOM      9  C   UNL     1       0.708   6.416   4.067  1.00  0.00     0.267 C 
ATOM     10  Br  UNL     1       2.947   4.822   4.498  1.00  0.00    -0.048 Br
ATOM     11  O   UNL     1       1.095   7.527   3.697  1.00  0.00    -0.271 OA
ATOM     12  N   UNL     1      -0.240   5.754   3.321  1.00  0.00    -0.275 N 
ATOM     13  N   UNL     1      -0.271   3.836   4.601  1.00  0.00    -0.321 N 
ATOM     14  C   UNL     1      -0.667   4.474   3.476  1.00  0.00     0.322 C 
ATOM     15  H   UNL     1      -0.656   6.268   2.592  1.00  0.00     0.174 HD
ATOM     16  H   UNL     1      -0.440   2.868   4.665  1.00  0.00     0.166 HD
ATOM     17  O   UNL     1      -1.337   3.896   2.633  1.00  0.00    -0.248 OA
BRANCH   8  18
ATOM     18  N   UNL     1       1.835   6.544   6.334  1.00  0.00    -0.360 N 
ATOM     19  H   UNL     1       2.808   6.487   6.472  1.00  0.00     0.162 HD
BRANCH  18  20
ATOM     20  C   UNL     1       1.157   7.432   7.146  1.00  0.00     0.036 A 
ATOM     21  C   UNL     1      -0.366   8.809   9.085  1.00  0.00     0.119 A 
ATOM     22  C   UNL     1      -0.850   8.658   7.793  1.00  0.00     0.048 A 
ATOM     23  C   UNL     1       0.897   8.332   9.412  1.00  0.00     0.048 A 
ATOM     24  C   UNL     1      -0.087   7.987   6.830  1.00  0.00     0.029 A 
ATOM     25  C   UNL     1       1.654   7.661   8.442  1.00  0.00     0.029 A 
BRANCH  21  26
ATOM     26  O   UNL     1      -1.224   9.300  10.029  1.00  0.00    -0.497 OA
ATOM     27  C   UNL     1      -0.785  10.550  10.547  1.00  0.00     0.278 C 
ENDBRANCH  21  26
ENDBRANCH  18  20
ENDBRANCH   8  18
ENDBRANCH   5   7
ENDBRANCH   4   5
ENDBRANCH   3   4
ENDBRANCH   2   3
ENDBRANCH   1   2
BRANCH   1  28
ATOM     28  C   UNL     1      -1.836   2.743   8.773  1.00  0.00     0.202 C 
BRANCH  28  29
ATOM     29  C   UNL     1      -2.558   1.406   8.940  1.00  0.00     0.261 C 
BRANCH  29  30
ATOM     30  O   UNL     1      -3.635   1.300   7.995  1.00  0.00    -0.460 OA
BRANCH  30  31
ATOM     31  C   UNL     1      -4.863   1.532   8.510  1.00  0.00     0.338 C 
ATOM     32  O   UNL     1      -5.152   1.671   9.692  1.00  0.00    -0.246 OA
BRANCH  31  33
ATOM     33  C   UNL     1      -5.815   1.804   7.417  1.00  0.00     0.060 A 
ATOM     34  C   UNL     1      -6.694   2.883   7.584  1.00  0.00     0.016 A 
ATOM     35  C   UNL     1      -5.866   1.016   6.264  1.00  0.00     0.016 A 
ATOM     36  C   UNL     1      -7.680   3.132   6.636  1.00  0.00     0.010 A 
ATOM     37  C   UNL     1      -6.862   1.262   5.317  1.00  0.00     0.010 A 
ATOM     38  C   UNL     1      -7.800   2.288   5.526  1.00  0.00    -0.014 A 
BRANCH  38  39
ATOM     39  C   UNL     1      -9.013   2.364   4.683  1.00  0.00     0.031 A 
ATOM     40  C   UNL     1     -10.111   1.365   4.917  1.00  0.00     0.074 A 
ATOM     41  C   UNL     1      -9.127   3.299   3.725  1.00  0.00     0.049 A 
ATOM     42  N   UNL     1     -11.238   1.208   4.276  1.00  0.00    -0.248 NA
ATOM     43  C   UNL     1      -9.907   0.410   6.020  1.00  0.00     0.031 C 
ATOM     44  C   UNL     1      -8.125   4.317   3.416  1.00  0.00     0.029 A 
ATOM     45  N   UNL     1     -10.129   3.520   2.816  1.00  0.00    -0.354 N 
ATOM     46  C   UNL     1     -11.860   0.116   4.869  1.00  0.00     0.074 A 
ATOM     47  C   UNL     1     -10.983  -0.355   5.919  1.00  0.00     0.031 C 
ATOM     48  C   UNL     1      -8.545   5.032   2.359  1.00  0.00     0.029 A 
ATOM     49  C   UNL     1      -9.830   4.504   1.904  1.00  0.00     0.049 A 
ATOM     50  H   UNL     1     -10.979   3.023   2.815  1.00  0.00     0.167 HD
ATOM     51  C   UNL     1     -13.058  -0.437   4.572  1.00  0.00     0.034 A 
ATOM     52  C   UNL     1     -10.505   4.907   0.810  1.00  0.00     0.034 A 
ATOM     53  C   UNL     1     -13.931   0.052   3.541  1.00  0.00     0.049 A 
ATOM     54  C   UNL     1     -11.828   4.265   0.487  1.00  0.00     0.074 A 
ATOM     55  C   UNL     1     -15.197  -0.390   3.203  1.00  0.00     0.029 A 
ATOM     56  N   UNL     1     -13.618   1.081   2.665  1.00  0.00    -0.354 N 
ATOM     57  N   UNL     1     -12.467   3.321   1.137  1.00  0.00    -0.248 NA
ATOM     58  C   UNL     1     -12.538   4.762  -0.700  1.00  0.00     0.031 C 
ATOM     59  C   UNL     1     -15.635   0.348   2.099  1.00  0.00     0.029 A 
ATOM     60  C   UNL     1     -14.656   1.274   1.771  1.00  0.00     0.049 A 
ATOM     61  H   UNL     1     -12.781   1.599   2.678  1.00  0.00     0.167 HD
ATOM     62  C   UNL     1     -13.664   3.130   0.455  1.00  0.00     0.074 A 
ATOM     63  C   UNL     1     -13.671   4.073  -0.645  1.00  0.00     0.031 C 
ATOM     64  C   UNL     1     -14.662   2.246   0.707  1.00  0.00     0.034 A 
BRANCH  51  65
ATOM     65  C   UNL     1     -13.498  -1.628   5.382  1.00  0.00     0.023 A 
ATOM     66  C   UNL     1     -13.895  -1.458   6.724  1.00  0.00     0.012 A 
ATOM     67  C   UNL     1     -13.556  -2.909   4.801  1.00  0.00     0.148 A 
ATOM     68  C   UNL     1     -14.311  -2.551   7.484  1.00  0.00     0.002 A 
ATOM     69  C   UNL     1     -14.014  -3.986   5.551  1.00  0.00     0.091 A 
ATOM     70  F   UNL     1     -13.147  -3.055   3.532  1.00  0.00    -0.205 F 
ATOM     71  C   UNL     1     -14.380  -3.811   6.896  1.00  0.00     0.022 A 
BRANCH  69  72
ATOM     72  S   UNL     1     -14.210  -5.631   4.860  1.00  0.00     0.127 S 
ATOM     73  O   UNL     1     -13.114  -6.354   5.503  1.00  0.00    -0.237 OA
ATOM     74  O   UNL     1     -15.545  -6.005   5.330  1.00  0.00    -0.237 OA
ATOM     75  O   UNL     1     -14.097  -5.476   3.417  1.00  0.00    -0.744 OA
ENDBRANCH  69  72
ENDBRANCH  51  65
BRANCH  52  76
ATOM     76  C   UNL     1      -9.942   5.989  -0.046  1.00  0.00     0.023 A 
ATOM     77  C   UNL     1     -10.560   7.253  -0.069  1.00  0.00     0.012 A 
ATOM     78  C   UNL     1      -8.771   5.781  -0.802  1.00  0.00     0.148 A 
ATOM     79  C   UNL     1     -10.036   8.286  -0.848  1.00  0.00     0.002 A 
ATOM     80  C   UNL     1      -8.223   6.829  -1.531  1.00  0.00     0.091 A 
ATOM     81  F   UNL     1      -8.207   4.566  -0.776  1.00  0.00    -0.205 F 
ATOM     82  C   UNL     1      -8.862   8.078  -1.568  1.00  0.00     0.022 A 
BRANCH  80  83
ATOM     83  S   UNL     1      -6.646   6.695  -2.381  1.00  0.00     0.127 S 
ATOM     84  O   UNL     1      -7.052   6.794  -3.781  1.00  0.00    -0.237 OA
ATOM     85  O   UNL     1      -5.927   7.859  -1.863  1.00  0.00    -0.237 OA
ATOM     86  O   UNL     1      -6.087   5.413  -1.976  1.00  0.00    -0.744 OA
ENDBRANCH  80  83
ENDBRANCH  52  76
BRANCH  64  87
ATOM     87  C   UNL     1     -15.861   2.265  -0.206  1.00  0.00     0.023 A 
ATOM     88  C   UNL     1     -15.752   1.755  -1.515  1.00  0.00     0.012 A 
ATOM     89  C   UNL     1     -17.114   2.707   0.263  1.00  0.00     0.148 A 
ATOM     90  C   UNL     1     -16.865   1.713  -2.353  1.00  0.00     0.002 A 
ATOM     91  C   UNL     1     -18.229   2.615  -0.561  1.00  0.00     0.091 A 
ATOM     92  F   UNL     1     -17.193   3.202   1.506  1.00  0.00    -0.205 F 
ATOM     93  C   UNL     1     -18.104   2.131  -1.873  1.00  0.00     0.022 A 
BRANCH  91  94
ATOM     94  S   UNL     1     -19.882   3.037   0.002  1.00  0.00     0.127 S 
ATOM     95  O   UNL     1     -20.147   4.266  -0.744  1.00  0.00    -0.237 OA
ATOM     96  O   UNL     1     -20.663   1.878  -0.433  1.00  0.00    -0.237 OA
ATOM     97  O   UNL     1     -19.787   3.193   1.447  1.00  0.00    -0.744 OA
ENDBRANCH  91  94
ENDBRANCH  64  87
ENDBRANCH  38  39
ENDBRANCH  31  33
ENDBRANCH  30  31
ENDBRANCH  29  30
ENDBRANCH  28  29
ENDBRANCH   1  28
TORSDOF 20
