REMARK SMILES CCOc1cc(/C=C(/F)C(=O)OCCOCCOC(=O)c2ccc(-c3c4nc(c(-c5cccc(S(=O)(=O)[O-])c5F)c5ccc([nH]5)c(-c5cccc(S(=O)(=O)[O-])c5F)c5nc(c(-c6cccc(S(=O)(=O)[O-])c6F)c6ccc3[nH]6)C=C5)C=C4)cc2)ccc1O
REMARK SMILES IDX 15 1 14 2 13 3 12 4 10 5 11 6 8 7 7 8 9 9 6 10 4 11 5 12
REMARK SMILES IDX 86 13 85 14 84 15 3 16 2 17 1 18 87 19 16 21 17 22 18 23
REMARK SMILES IDX 19 24 20 25 21 26 22 27 83 28 23 29 82 30 24 31 25 32 26 33
REMARK SMILES IDX 76 34 27 35 81 36 75 37 77 38 28 39 80 40 74 41 73 42 29 44
REMARK SMILES IDX 61 45 41 46 60 47 42 48 45 49 59 50 78 51 43 52 44 53 58 55
REMARK SMILES IDX 79 56 46 57 30 58 31 59 39 60 32 61 34 62 40 63 33 64 35 65
REMARK SMILES IDX 36 66 37 67 38 68 62 69 63 70 71 71 64 72 66 73 72 74 65 75
REMARK SMILES IDX 67 76 68 77 69 78 70 79 47 80 48 81 56 82 49 83 51 84 57 85
REMARK SMILES IDX 50 86 52 87 53 88 54 89 55 90
REMARK H PARENT 87 20 77 43 45 54
REMARK Flexibility Score: inf
ROOT
ATOM      1  O   UNL     1      -0.248  -4.812   1.958  1.00  0.00    -0.374 OA
ENDROOT
BRANCH   1   2
ATOM      2  C   UNL     1       0.055  -6.176   1.633  1.00  0.00     0.202 C 
BRANCH   2   3
ATOM      3  C   UNL     1       1.557  -6.444   1.502  1.00  0.00     0.261 C 
BRANCH   3   4
ATOM      4  O   UNL     1       2.155  -6.288   2.797  1.00  0.00    -0.458 OA
BRANCH   4   5
ATOM      5  C   UNL     1       3.267  -5.514   2.844  1.00  0.00     0.367 C 
ATOM      6  O   UNL     1       3.990  -5.209   1.915  1.00  0.00    -0.243 OA
BRANCH   5   7
ATOM      7  C   UNL     1       3.332  -4.944   4.204  1.00  0.00     0.208 C 
ATOM      8  C   UNL     1       3.184  -3.654   4.540  1.00  0.00     0.055 C 
ATOM      9  F   UNL     1       3.426  -5.866   5.189  1.00  0.00    -0.199 F 
BRANCH   8  10
ATOM     10  C   UNL     1       2.965  -2.439   3.725  1.00  0.00    -0.019 A 
ATOM     11  C   UNL     1       2.469  -1.210   1.688  1.00  0.00     0.161 A 
ATOM     12  C   UNL     1       2.609  -2.423   2.367  1.00  0.00     0.058 A 
ATOM     13  C   UNL     1       2.673  -0.004   2.350  1.00  0.00     0.157 A 
ATOM     14  C   UNL     1       2.962   0.012   3.702  1.00  0.00     0.051 A 
ATOM     15  C   UNL     1       3.109  -1.201   4.383  1.00  0.00     0.012 A 
BRANCH  11  16
ATOM     16  O   UNL     1       2.248  -1.178   0.337  1.00  0.00    -0.490 OA
BRANCH  16  17
ATOM     17  C   UNL     1       0.870  -1.394   0.003  1.00  0.00     0.226 C 
ATOM     18  C   UNL     1       0.361  -0.149  -0.708  1.00  0.00     0.049 C 
ENDBRANCH  16  17
ENDBRANCH  11  16
BRANCH  13  19
ATOM     19  O   UNL     1       2.612   1.179   1.673  1.00  0.00    -0.504 OA
ATOM     20  H   UNL     1       2.417   1.185   0.756  1.00  0.00     0.293 HD
ENDBRANCH  13  19
ENDBRANCH   8  10
ENDBRANCH   5   7
ENDBRANCH   4   5
ENDBRANCH   3   4
ENDBRANCH   2   3
ENDBRANCH   1   2
BRANCH   1  21
ATOM     21  C   UNL     1      -0.316  -4.513   3.358  1.00  0.00     0.202 C 
BRANCH  21  22
ATOM     22  C   UNL     1      -1.686  -4.764   3.996  1.00  0.00     0.261 C 
BRANCH  22  23
ATOM     23  O   UNL     1      -1.922  -6.174   4.142  1.00  0.00    -0.460 OA
BRANCH  23  24
ATOM     24  C   UNL     1      -2.836  -6.696   3.290  1.00  0.00     0.338 C 
ATOM     25  O   UNL     1      -3.560  -6.081   2.525  1.00  0.00    -0.246 OA
BRANCH  24  26
ATOM     26  C   UNL     1      -2.707  -8.169   3.271  1.00  0.00     0.060 A 
ATOM     27  C   UNL     1      -2.785  -8.802   2.024  1.00  0.00     0.016 A 
ATOM     28  C   UNL     1      -2.528  -8.921   4.436  1.00  0.00     0.016 A 
ATOM     29  C   UNL     1      -2.734 -10.191   1.942  1.00  0.00     0.010 A 
ATOM     30  C   UNL     1      -2.484 -10.316   4.353  1.00  0.00     0.010 A 
ATOM     31  C   UNL     1      -2.622 -10.956   3.110  1.00  0.00    -0.014 A 
BRANCH  31  32
ATOM     32  C   UNL     1      -2.801 -12.424   3.035  1.00  0.00     0.031 A 
ATOM     33  C   UNL     1      -4.158 -13.003   3.324  1.00  0.00     0.074 A 
ATOM     34  C   UNL     1      -1.774 -13.228   2.707  1.00  0.00     0.049 A 
ATOM     35  N   UNL     1      -4.549 -14.249   3.292  1.00  0.00    -0.248 NA
ATOM     36  C   UNL     1      -5.216 -12.049   3.700  1.00  0.00     0.031 C 
ATOM     37  C   UNL     1      -0.412 -12.782   2.417  1.00  0.00     0.029 A 
ATOM     38  N   UNL     1      -1.718 -14.593   2.583  1.00  0.00    -0.354 N 
ATOM     39  C   UNL     1      -5.890 -14.233   3.656  1.00  0.00     0.074 A 
ATOM     40  C   UNL     1      -6.243 -12.856   3.921  1.00  0.00     0.031 C 
ATOM     41  C   UNL     1       0.354 -13.860   2.174  1.00  0.00     0.029 A 
ATOM     42  C   UNL     1      -0.459 -15.067   2.300  1.00  0.00     0.049 A 
ATOM     43  H   UNL     1      -2.503 -15.177   2.687  1.00  0.00     0.167 HD
ATOM     44  C   UNL     1      -6.757 -15.270   3.739  1.00  0.00     0.034 A 
ATOM     45  C   UNL     1      -0.017 -16.334   2.168  1.00  0.00     0.034 A 
ATOM     46  C   UNL     1      -6.410 -16.635   3.456  1.00  0.00     0.049 A 
ATOM     47  C   UNL     1      -0.998 -17.471   2.283  1.00  0.00     0.074 A 
ATOM     48  C   UNL     1      -7.230 -17.749   3.458  1.00  0.00     0.029 A 
ATOM     49  N   UNL     1      -5.136 -17.074   3.132  1.00  0.00    -0.354 N 
ATOM     50  N   UNL     1      -2.293 -17.427   2.482  1.00  0.00    -0.248 NA
ATOM     51  C   UNL     1      -0.463 -18.832   2.123  1.00  0.00     0.031 C 
ATOM     52  C   UNL     1      -6.447 -18.866   3.148  1.00  0.00     0.029 A 
ATOM     53  C   UNL     1      -5.142 -18.445   2.945  1.00  0.00     0.049 A 
ATOM     54  H   UNL     1      -4.344 -16.496   3.047  1.00  0.00     0.167 HD
ATOM     55  C   UNL     1      -2.732 -18.746   2.444  1.00  0.00     0.074 A 
ATOM     56  C   UNL     1      -1.567 -19.566   2.179  1.00  0.00     0.031 C 
ATOM     57  C   UNL     1      -3.982 -19.238   2.629  1.00  0.00     0.034 A 
BRANCH  44  58
ATOM     58  C   UNL     1      -8.179 -14.954   4.109  1.00  0.00     0.023 A 
ATOM     59  C   UNL     1      -9.030 -14.376   3.144  1.00  0.00     0.012 A 
ATOM     60  C   UNL     1      -8.687 -15.262   5.385  1.00  0.00     0.148 A 
ATOM     61  C   UNL     1     -10.358 -14.087   3.452  1.00  0.00     0.002 A 
ATOM     62  C   UNL     1     -10.022 -15.001   5.674  1.00  0.00     0.091 A 
ATOM     63  F   UNL     1      -7.853 -15.782   6.297  1.00  0.00    -0.205 F 
ATOM     64  C   UNL     1     -10.856 -14.408   4.712  1.00  0.00     0.022 A 
BRANCH  62  65
ATOM     65  S   UNL     1     -10.767 -15.434   7.250  1.00  0.00     0.127 S 
ATOM     66  O   UNL     1     -10.856 -14.129   7.902  1.00  0.00    -0.237 OA
ATOM     67  O   UNL     1     -12.053 -16.000   6.841  1.00  0.00    -0.237 OA
ATOM     68  O   UNL     1      -9.858 -16.389   7.870  1.00  0.00    -0.744 OA
ENDBRANCH  62  65
ENDBRANCH  44  58
BRANCH  45  69
ATOM     69  C   UNL     1       1.419 -16.590   1.860  1.00  0.00     0.023 A 
ATOM     70  C   UNL     1       1.780 -17.068   0.587  1.00  0.00     0.012 A 
ATOM     71  C   UNL     1       2.427 -16.338   2.811  1.00  0.00     0.148 A 
ATOM     72  C   UNL     1       3.117 -17.312   0.272  1.00  0.00     0.002 A 
ATOM     73  C   UNL     1       3.761 -16.535   2.474  1.00  0.00     0.091 A 
ATOM     74  F   UNL     1       2.062 -15.907   4.027  1.00  0.00    -0.205 F 
ATOM     75  C   UNL     1       4.108 -17.035   1.210  1.00  0.00     0.022 A 
BRANCH  73  76
ATOM     76  S   UNL     1       5.102 -16.084   3.582  1.00  0.00     0.127 S 
ATOM     77  O   UNL     1       5.521 -17.387   4.091  1.00  0.00    -0.237 OA
ATOM     78  O   UNL     1       6.051 -15.445   2.670  1.00  0.00    -0.237 OA
ATOM     79  O   UNL     1       4.509 -15.178   4.556  1.00  0.00    -0.744 OA
ENDBRANCH  73  76
ENDBRANCH  45  69
BRANCH  57  80
ATOM     80  C   UNL     1      -4.167 -20.730   2.543  1.00  0.00     0.023 A 
ATOM     81  C   UNL     1      -3.738 -21.543   3.610  1.00  0.00     0.012 A 
ATOM     82  C   UNL     1      -4.839 -21.316   1.453  1.00  0.00     0.148 A 
ATOM     83  C   UNL     1      -3.955 -22.920   3.584  1.00  0.00     0.002 A 
ATOM     84  C   UNL     1      -5.089 -22.684   1.453  1.00  0.00     0.091 A 
ATOM     85  F   UNL     1      -5.221 -20.529   0.436  1.00  0.00    -0.205 F 
ATOM     86  C   UNL     1      -4.641 -23.488   2.513  1.00  0.00     0.022 A 
BRANCH  84  87
ATOM     87  S   UNL     1      -6.045 -23.480   0.156  1.00  0.00     0.127 S 
ATOM     88  O   UNL     1      -4.996 -24.103  -0.649  1.00  0.00    -0.237 OA
ATOM     89  O   UNL     1      -6.876 -24.422   0.908  1.00  0.00    -0.237 OA
ATOM     90  O   UNL     1      -6.791 -22.413  -0.497  1.00  0.00    -0.744 OA
ENDBRANCH  84  87
ENDBRANCH  57  80
ENDBRANCH  31  32
ENDBRANCH  24  26
ENDBRANCH  23  24
ENDBRANCH  22  23
ENDBRANCH  21  22
ENDBRANCH   1  21
TORSDOF 21
