REMARK SMILES CC[C@](C)([NH3+])C(=O)NC[C@](C)(O)C(=O)OCCOCCOC(=O)c1ccc(-c2c3nc(c(-c4cccc(S(=O)(=O)[O-])c4F)c4ccc([nH]4)c(-c4cccc(S(=O)(=O)[O-])c4F)c4nc(c(-c5cccc(S(=O)(=O)[O-])c5F)c5ccc2[nH]5)C=C4)C=C3)cc1
REMARK SMILES IDX 17 1 16 2 15 3 13 4 14 5 10 6 11 7 9 8 8 9 6 10 7 11 3 13
REMARK SMILES IDX 4 14 2 15 1 16 5 17 12 21 18 23 19 24 20 25 21 26 22 27
REMARK SMILES IDX 23 28 24 29 25 30 86 31 26 32 85 33 27 34 28 35 29 36 79 37
REMARK SMILES IDX 30 38 84 39 78 40 80 41 31 42 83 43 77 44 76 45 32 47 64 48
REMARK SMILES IDX 44 49 63 50 45 51 48 52 62 53 81 54 46 55 47 56 61 58 82 59
REMARK SMILES IDX 49 60 33 61 34 62 42 63 35 64 37 65 43 66 36 67 38 68 39 69
REMARK SMILES IDX 40 70 41 71 65 72 66 73 74 74 67 75 69 76 75 77 68 78 70 79
REMARK SMILES IDX 71 80 72 81 73 82 50 83 51 84 59 85 52 86 54 87 60 88 53 89
REMARK SMILES IDX 55 90 56 91 57 92 58 93
REMARK H PARENT 8 12 5 18 5 19 5 20 12 22 80 46 48 57
REMARK Flexibility Score: inf
ROOT
ATOM      1  C   UNL     1       1.251   4.446  -5.639  1.00  0.00     0.202 C 
ENDROOT
BRANCH   1   2
ATOM      2  C   UNL     1       2.749   4.127  -5.645  1.00  0.00     0.261 C 
BRANCH   2   3
ATOM      3  O   UNL     1       3.018   2.821  -6.165  1.00  0.00    -0.461 OA
BRANCH   3   4
ATOM      4  C   UNL     1       3.257   1.871  -5.218  1.00  0.00     0.339 C 
ATOM      5  O   UNL     1       3.386   2.101  -4.021  1.00  0.00    -0.249 OA
BRANCH   4   6
ATOM      6  C   UNL     1       3.319   0.459  -5.839  1.00  0.00     0.176 C 
ATOM      7  C   UNL     1       2.727  -0.533  -4.834  1.00  0.00     0.057 C 
BRANCH   6   8
ATOM      8  C   UNL     1       4.786   0.164  -6.213  1.00  0.00     0.163 C 
BRANCH   8   9
ATOM      9  N   UNL     1       5.776   0.621  -5.251  1.00  0.00    -0.347 N 
ATOM     10  C   UNL     1       6.596  -0.028  -4.380  1.00  0.00     0.281 C 
ATOM     11  O   UNL     1       7.270   0.689  -3.633  1.00  0.00    -0.268 OA
ATOM     12  H   UNL     1       5.873   1.600  -5.223  1.00  0.00     0.163 HD
BRANCH  10  13
ATOM     13  C   UNL     1       6.723  -1.582  -4.363  1.00  0.00     0.170 C 
ATOM     14  C   UNL     1       7.676  -1.967  -3.213  1.00  0.00     0.090 C 
BRANCH  13  15
ATOM     15  C   UNL     1       7.312  -2.071  -5.711  1.00  0.00     0.075 C 
ATOM     16  C   UNL     1       7.073  -3.544  -6.027  1.00  0.00     0.011 C 
ENDBRANCH  13  15
BRANCH  13  17
ATOM     17  N   UNL     1       5.407  -2.185  -4.046  1.00  0.00    -0.345 N 
ATOM     18  H   UNL     1       5.074  -1.825  -3.152  1.00  0.00     0.345 HD
ATOM     19  H   UNL     1       5.503  -3.199  -3.990  1.00  0.00     0.345 HD
ATOM     20  H   UNL     1       4.739  -1.946  -4.779  1.00  0.00     0.345 HD
ENDBRANCH  13  17
ENDBRANCH  10  13
ENDBRANCH   8   9
ENDBRANCH   6   8
BRANCH   6  21
ATOM     21  O   UNL     1       2.506   0.332  -7.019  1.00  0.00    -0.377 OA
ATOM     22  H   UNL     1       1.580   0.516  -6.795  1.00  0.00     0.212 HD
ENDBRANCH   6  21
ENDBRANCH   4   6
ENDBRANCH   3   4
ENDBRANCH   2   3
ENDBRANCH   1   2
BRANCH   1  23
ATOM     23  O   UNL     1       0.384   3.608  -4.877  1.00  0.00    -0.374 OA
BRANCH  23  24
ATOM     24  C   UNL     1       0.049   2.324  -5.404  1.00  0.00     0.202 C 
BRANCH  24  25
ATOM     25  C   UNL     1      -0.893   2.243  -6.610  1.00  0.00     0.261 C 
BRANCH  25  26
ATOM     26  O   UNL     1      -0.316   2.789  -7.806  1.00  0.00    -0.460 OA
BRANCH  26  27
ATOM     27  C   UNL     1      -0.841   3.969  -8.206  1.00  0.00     0.338 C 
ATOM     28  O   UNL     1      -1.763   4.585  -7.683  1.00  0.00    -0.246 OA
BRANCH  27  29
ATOM     29  C   UNL     1      -0.009   4.540  -9.275  1.00  0.00     0.060 A 
ATOM     30  C   UNL     1       0.527   5.822  -9.081  1.00  0.00     0.016 A 
ATOM     31  C   UNL     1       0.182   3.860 -10.478  1.00  0.00     0.016 A 
ATOM     32  C   UNL     1       1.220   6.452 -10.111  1.00  0.00     0.010 A 
ATOM     33  C   UNL     1       0.863   4.499 -11.514  1.00  0.00     0.010 A 
ATOM     34  C   UNL     1       1.351   5.809 -11.347  1.00  0.00    -0.014 A 
BRANCH  34  35
ATOM     35  C   UNL     1       1.841   6.551 -12.528  1.00  0.00     0.031 A 
ATOM     36  C   UNL     1       0.834   7.055 -13.522  1.00  0.00     0.074 A 
ATOM     37  C   UNL     1       3.158   6.725 -12.735  1.00  0.00     0.049 A 
ATOM     38  N   UNL     1       1.026   7.585 -14.700  1.00  0.00    -0.248 NA
ATOM     39  C   UNL     1      -0.584   6.931 -13.140  1.00  0.00     0.031 C 
ATOM     40  C   UNL     1       4.219   6.299 -11.825  1.00  0.00     0.029 A 
ATOM     41  N   UNL     1       3.824   7.267 -13.805  1.00  0.00    -0.354 N 
ATOM     42  C   UNL     1      -0.241   7.816 -15.220  1.00  0.00     0.074 A 
ATOM     43  C   UNL     1      -1.196   7.370 -14.230  1.00  0.00     0.031 C 
ATOM     44  C   UNL     1       5.409   6.553 -12.397  1.00  0.00     0.029 A 
ATOM     45  C   UNL     1       5.189   7.121 -13.726  1.00  0.00     0.049 A 
ATOM     46  H   UNL     1       3.370   7.716 -14.554  1.00  0.00     0.167 HD
ATOM     47  C   UNL     1      -0.577   8.356 -16.414  1.00  0.00     0.034 A 
ATOM     48  C   UNL     1       6.144   7.376 -14.641  1.00  0.00     0.034 A 
ATOM     49  C   UNL     1       0.382   8.814 -17.381  1.00  0.00     0.049 A 
ATOM     50  C   UNL     1       5.744   7.945 -15.979  1.00  0.00     0.074 A 
ATOM     51  C   UNL     1       0.149   9.420 -18.602  1.00  0.00     0.029 A 
ATOM     52  N   UNL     1       1.757   8.704 -17.242  1.00  0.00    -0.354 N 
ATOM     53  N   UNL     1       4.548   8.249 -16.422  1.00  0.00    -0.248 NA
ATOM     54  C   UNL     1       6.826   8.229 -16.934  1.00  0.00     0.031 C 
ATOM     55  C   UNL     1       1.383   9.647 -19.217  1.00  0.00     0.029 A 
ATOM     56  C   UNL     1       2.386   9.218 -18.361  1.00  0.00     0.049 A 
ATOM     57  H   UNL     1       2.217   8.318 -16.463  1.00  0.00     0.167 HD
ATOM     58  C   UNL     1       4.736   8.801 -17.685  1.00  0.00     0.074 A 
ATOM     59  C   UNL     1       6.163   8.794 -17.934  1.00  0.00     0.031 C 
ATOM     60  C   UNL     1       3.812   9.263 -18.563  1.00  0.00     0.034 A 
BRANCH  47  61
ATOM     61  C   UNL     1      -2.040   8.490 -16.739  1.00  0.00     0.023 A 
ATOM     62  C   UNL     1      -2.820   9.458 -16.075  1.00  0.00     0.012 A 
ATOM     63  C   UNL     1      -2.630   7.694 -17.740  1.00  0.00     0.148 A 
ATOM     64  C   UNL     1      -4.172   9.611 -16.382  1.00  0.00     0.002 A 
ATOM     65  C   UNL     1      -3.965   7.884 -18.073  1.00  0.00     0.091 A 
ATOM     66  F   UNL     1      -1.877   6.762 -18.342  1.00  0.00    -0.205 F 
ATOM     67  C   UNL     1      -4.741   8.833 -17.387  1.00  0.00     0.022 A 
BRANCH  65  68
ATOM     68  S   UNL     1      -4.768   6.986 -19.405  1.00  0.00     0.127 S 
ATOM     69  O   UNL     1      -5.681   6.115 -18.667  1.00  0.00    -0.237 OA
ATOM     70  O   UNL     1      -5.421   8.063 -20.151  1.00  0.00    -0.237 OA
ATOM     71  O   UNL     1      -3.705   6.304 -20.129  1.00  0.00    -0.744 OA
ENDBRANCH  65  68
ENDBRANCH  47  61
BRANCH  48  72
ATOM     72  C   UNL     1       7.574   7.109 -14.319  1.00  0.00     0.023 A 
ATOM     73  C   UNL     1       8.463   8.190 -14.162  1.00  0.00     0.012 A 
ATOM     74  C   UNL     1       8.054   5.795 -14.150  1.00  0.00     0.148 A 
ATOM     75  C   UNL     1       9.809   7.967 -13.873  1.00  0.00     0.002 A 
ATOM     76  C   UNL     1       9.383   5.582 -13.806  1.00  0.00     0.091 A 
ATOM     77  F   UNL     1       7.196   4.779 -14.318  1.00  0.00    -0.205 F 
ATOM     78  C   UNL     1      10.267   6.666 -13.685  1.00  0.00     0.022 A 
BRANCH  76  79
ATOM     79  S   UNL     1      10.031   3.951 -13.422  1.00  0.00     0.127 S 
ATOM     80  O   UNL     1      10.916   3.705 -14.558  1.00  0.00    -0.237 OA
ATOM     81  O   UNL     1      10.712   4.190 -12.149  1.00  0.00    -0.237 OA
ATOM     82  O   UNL     1       8.869   3.078 -13.325  1.00  0.00    -0.744 OA
ENDBRANCH  76  79
ENDBRANCH  48  72
BRANCH  60  83
ATOM     83  C   UNL     1       4.299   9.863 -19.856  1.00  0.00     0.023 A 
ATOM     84  C   UNL     1       4.782   9.029 -20.882  1.00  0.00     0.012 A 
ATOM     85  C   UNL     1       4.164  11.246 -20.090  1.00  0.00     0.148 A 
ATOM     86  C   UNL     1       5.142   9.567 -22.118  1.00  0.00     0.002 A 
ATOM     87  C   UNL     1       4.475  11.767 -21.339  1.00  0.00     0.091 A 
ATOM     88  F   UNL     1       3.715  12.021 -19.092  1.00  0.00    -0.205 F 
ATOM     89  C   UNL     1       4.974  10.931 -22.351  1.00  0.00     0.022 A 
BRANCH  87  90
ATOM     90  S   UNL     1       4.195  13.489 -21.765  1.00  0.00     0.127 S 
ATOM     91  O   UNL     1       5.563  13.983 -21.922  1.00  0.00    -0.237 OA
ATOM     92  O   UNL     1       3.440  13.379 -23.013  1.00  0.00    -0.237 OA
ATOM     93  O   UNL     1       3.451  14.066 -20.654  1.00  0.00    -0.744 OA
ENDBRANCH  87  90
ENDBRANCH  60  83
ENDBRANCH  34  35
ENDBRANCH  27  29
ENDBRANCH  26  27
ENDBRANCH  25  26
ENDBRANCH  24  25
ENDBRANCH  23  24
ENDBRANCH   1  23
TORSDOF 23
