REMARK SMILES O=C(OCCOCCOC(=O)[C@@]1([NH2+]C2CC2)CC[C@H](OC2CCC2)C1)c1ccc(-c2c3nc(c(-c4cccc(S(=O)(=O)[O-])c4F)c4ccc([nH]4)c(-c4cccc(S(=O)(=O)[O-])c4F)c4nc(c(-c5cccc(S(=O)(=O)[O-])c5F)c5ccc2[nH]5)C=C4)C=C3)cc1
REMARK SMILES IDX 5 1 4 2 3 3 2 4 1 5 26 6 27 7 88 8 28 9 87 10 29 11 30 12
REMARK SMILES IDX 31 13 81 14 32 15 86 16 80 17 82 18 33 19 85 20 79 21 78 22
REMARK SMILES IDX 34 24 66 25 46 26 65 27 47 28 50 29 64 30 83 31 48 32 49 33
REMARK SMILES IDX 63 35 84 36 51 37 35 38 36 39 44 40 37 41 39 42 45 43 38 44
REMARK SMILES IDX 40 45 41 46 42 47 43 48 67 49 68 50 76 51 69 52 71 53 77 54
REMARK SMILES IDX 70 55 72 56 73 57 74 58 75 59 52 60 53 61 61 62 54 63 56 64
REMARK SMILES IDX 62 65 55 66 57 67 58 68 59 69 60 70 6 71 7 72 8 73 9 74
REMARK SMILES IDX 10 75 11 76 12 77 17 78 25 79 18 80 19 81 13 82 14 85 15 86
REMARK SMILES IDX 16 87 20 88 21 89 22 90 24 91 23 92
REMARK H PARENT 82 23 50 34 13 83 13 84
REMARK Flexibility Score: inf
ROOT
ATOM      1  C   UNL     1       3.878   0.799  -0.114  1.00  0.00     0.202 C 
ENDROOT
BRANCH   1   2
ATOM      2  C   UNL     1       3.230  -0.453  -0.711  1.00  0.00     0.261 C 
BRANCH   2   3
ATOM      3  O   UNL     1       1.827  -0.565  -0.381  1.00  0.00    -0.460 OA
BRANCH   3   4
ATOM      4  C   UNL     1       1.305  -1.531   0.440  1.00  0.00     0.338 C 
ATOM      5  O   UNL     1       0.113  -1.778   0.457  1.00  0.00    -0.246 OA
BRANCH   4   6
ATOM      6  C   UNL     1       2.252  -2.273   1.304  1.00  0.00     0.060 A 
ATOM      7  C   UNL     1       3.213  -1.553   1.979  1.00  0.00     0.016 A 
ATOM      8  C   UNL     1       2.237  -3.650   1.460  1.00  0.00     0.016 A 
ATOM      9  C   UNL     1       4.366  -2.132   2.424  1.00  0.00     0.010 A 
ATOM     10  C   UNL     1       3.239  -4.244   2.244  1.00  0.00     0.010 A 
ATOM     11  C   UNL     1       4.332  -3.481   2.705  1.00  0.00    -0.014 A 
BRANCH  11  12
ATOM     12  C   UNL     1       5.441  -4.007   3.527  1.00  0.00     0.031 A 
ATOM     13  C   UNL     1       6.224  -5.170   3.022  1.00  0.00     0.074 A 
ATOM     14  C   UNL     1       5.772  -3.375   4.678  1.00  0.00     0.049 A 
ATOM     15  N   UNL     1       7.102  -5.897   3.651  1.00  0.00    -0.248 NA
ATOM     16  C   UNL     1       5.976  -5.586   1.630  1.00  0.00     0.031 C 
ATOM     17  C   UNL     1       5.119  -2.169   5.217  1.00  0.00     0.029 A 
ATOM     18  N   UNL     1       6.753  -3.634   5.599  1.00  0.00    -0.354 N 
ATOM     19  C   UNL     1       7.447  -6.908   2.767  1.00  0.00     0.074 A 
ATOM     20  C   UNL     1       6.694  -6.696   1.551  1.00  0.00     0.031 C 
ATOM     21  C   UNL     1       5.747  -1.768   6.327  1.00  0.00     0.029 A 
ATOM     22  C   UNL     1       6.739  -2.766   6.671  1.00  0.00     0.049 A 
ATOM     23  H   UNL     1       7.404  -4.366   5.505  1.00  0.00     0.167 HD
ATOM     24  C   UNL     1       8.315  -7.922   2.969  1.00  0.00     0.034 A 
ATOM     25  C   UNL     1       7.394  -2.817   7.843  1.00  0.00     0.034 A 
ATOM     26  C   UNL     1       9.066  -8.075   4.183  1.00  0.00     0.049 A 
ATOM     27  C   UNL     1       8.317  -3.979   8.054  1.00  0.00     0.074 A 
ATOM     28  C   UNL     1       9.943  -9.081   4.537  1.00  0.00     0.029 A 
ATOM     29  N   UNL     1       9.029  -7.178   5.245  1.00  0.00    -0.354 N 
ATOM     30  N   UNL     1       8.610  -4.956   7.227  1.00  0.00    -0.248 NA
ATOM     31  C   UNL     1       9.004  -4.050   9.346  1.00  0.00     0.031 C 
ATOM     32  C   UNL     1      10.419  -8.803   5.823  1.00  0.00     0.029 A 
ATOM     33  C   UNL     1       9.871  -7.603   6.254  1.00  0.00     0.049 A 
ATOM     34  H   UNL     1       8.482  -6.360   5.274  1.00  0.00     0.167 HD
ATOM     35  C   UNL     1       9.532  -5.749   7.890  1.00  0.00     0.074 A 
ATOM     36  C   UNL     1       9.776  -5.113   9.172  1.00  0.00     0.031 C 
ATOM     37  C   UNL     1      10.111  -6.909   7.495  1.00  0.00     0.034 A 
BRANCH  24  38
ATOM     38  C   UNL     1       8.453  -8.936   1.869  1.00  0.00     0.023 A 
ATOM     39  C   UNL     1       9.099  -8.593   0.664  1.00  0.00     0.012 A 
ATOM     40  C   UNL     1       7.916 -10.229   2.023  1.00  0.00     0.148 A 
ATOM     41  C   UNL     1       9.173  -9.508  -0.386  1.00  0.00     0.002 A 
ATOM     42  C   UNL     1       8.036 -11.151   0.992  1.00  0.00     0.091 A 
ATOM     43  F   UNL     1       7.278 -10.523   3.165  1.00  0.00    -0.205 F 
ATOM     44  C   UNL     1       8.650 -10.788  -0.219  1.00  0.00     0.022 A 
BRANCH  42  45
ATOM     45  S   UNL     1       7.451 -12.842   1.129  1.00  0.00     0.127 S 
ATOM     46  O   UNL     1       6.416 -12.882   0.096  1.00  0.00    -0.237 OA
ATOM     47  O   UNL     1       8.658 -13.605   0.812  1.00  0.00    -0.237 OA
ATOM     48  O   UNL     1       6.967 -12.995   2.493  1.00  0.00    -0.744 OA
ENDBRANCH  42  45
ENDBRANCH  24  38
BRANCH  25  49
ATOM     49  C   UNL     1       7.154  -1.794   8.905  1.00  0.00     0.023 A 
ATOM     50  C   UNL     1       8.205  -0.957   9.324  1.00  0.00     0.012 A 
ATOM     51  C   UNL     1       5.885  -1.646   9.507  1.00  0.00     0.148 A 
ATOM     52  C   UNL     1       8.011  -0.027  10.348  1.00  0.00     0.002 A 
ATOM     53  C   UNL     1       5.682  -0.674  10.480  1.00  0.00     0.091 A 
ATOM     54  F   UNL     1       4.894  -2.457   9.112  1.00  0.00    -0.205 F 
ATOM     55  C   UNL     1       6.750   0.120  10.920  1.00  0.00     0.022 A 
BRANCH  53  56
ATOM     56  S   UNL     1       4.059  -0.331  11.171  1.00  0.00     0.127 S 
ATOM     57  O   UNL     1       4.178  -0.900  12.511  1.00  0.00    -0.237 OA
ATOM     58  O   UNL     1       4.011   1.131  11.125  1.00  0.00    -0.237 OA
ATOM     59  O   UNL     1       3.108  -0.987  10.284  1.00  0.00    -0.744 OA
ENDBRANCH  53  56
ENDBRANCH  25  49
BRANCH  37  60
ATOM     60  C   UNL     1      11.095  -7.525   8.446  1.00  0.00     0.023 A 
ATOM     61  C   UNL     1      10.643  -8.125   9.638  1.00  0.00     0.012 A 
ATOM     62  C   UNL     1      12.465  -7.547   8.127  1.00  0.00     0.148 A 
ATOM     63  C   UNL     1      11.551  -8.703  10.521  1.00  0.00     0.002 A 
ATOM     64  C   UNL     1      13.355  -8.179   8.981  1.00  0.00     0.091 A 
ATOM     65  F   UNL     1      12.869  -6.947   6.997  1.00  0.00    -0.205 F 
ATOM     66  C   UNL     1      12.904  -8.741  10.187  1.00  0.00     0.022 A 
BRANCH  64  67
ATOM     67  S   UNL     1      15.091  -8.373   8.575  1.00  0.00     0.127 S 
ATOM     68  O   UNL     1      15.720  -7.425   9.493  1.00  0.00    -0.237 OA
ATOM     69  O   UNL     1      15.326  -9.782   8.896  1.00  0.00    -0.237 OA
ATOM     70  O   UNL     1      15.212  -8.049   7.160  1.00  0.00    -0.744 OA
ENDBRANCH  64  67
ENDBRANCH  37  60
ENDBRANCH  11  12
ENDBRANCH   4   6
ENDBRANCH   3   4
ENDBRANCH   2   3
ENDBRANCH   1   2
BRANCH   1  71
ATOM     71  O   UNL     1       3.591   1.125   1.230  1.00  0.00    -0.374 OA
BRANCH  71  72
ATOM     72  C   UNL     1       2.371   1.815   1.487  1.00  0.00     0.202 C 
BRANCH  72  73
ATOM     73  C   UNL     1       2.731   3.151   2.122  1.00  0.00     0.261 C 
BRANCH  73  74
ATOM     74  O   UNL     1       3.344   3.953   1.103  1.00  0.00    -0.459 OA
BRANCH  74  75
ATOM     75  C   UNL     1       4.674   3.730   0.835  1.00  0.00     0.368 C 
ATOM     76  O   UNL     1       5.473   3.231   1.616  1.00  0.00    -0.245 OA
BRANCH  75  77
ATOM     77  C   UNL     1       4.976   4.271  -0.575  1.00  0.00     0.197 C 
ATOM     78  C   UNL     1       3.853   4.028  -1.599  1.00  0.00     0.084 C 
ATOM     79  C   UNL     1       4.899   5.808  -0.430  1.00  0.00     0.113 C 
ATOM     80  C   UNL     1       4.011   5.137  -2.608  1.00  0.00     0.039 C 
ATOM     81  C   UNL     1       4.539   6.329  -1.819  1.00  0.00     0.125 C 
BRANCH  77  82
ATOM     82  N   UNL     1       6.322   3.962  -1.090  1.00  0.00    -0.330 N 
ATOM     83  H   UNL     1       6.965   4.297  -0.372  1.00  0.00     0.347 HD
ATOM     84  H   UNL     1       6.252   4.387  -2.015  1.00  0.00     0.347 HD
BRANCH  82  85
ATOM     85  C   UNL     1       6.822   2.647  -1.463  1.00  0.00     0.183 C 
ATOM     86  C   UNL     1       6.165   1.523  -2.211  1.00  0.00     0.071 C 
ATOM     87  C   UNL     1       7.039   2.460  -2.959  1.00  0.00     0.071 C 
ENDBRANCH  82  85
ENDBRANCH  77  82
BRANCH  81  88
ATOM     88  O   UNL     1       5.720   6.841  -2.421  1.00  0.00    -0.375 OA
BRANCH  88  89
ATOM     89  C   UNL     1       5.628   7.708  -3.568  1.00  0.00     0.118 C 
ATOM     90  C   UNL     1       5.187   7.103  -4.921  1.00  0.00     0.032 C 
ATOM     91  C   UNL     1       4.448   8.699  -3.699  1.00  0.00     0.032 C 
ATOM     92  C   UNL     1       4.461   8.426  -5.213  1.00  0.00     0.005 C 
ENDBRANCH  88  89
ENDBRANCH  81  88
ENDBRANCH  75  77
ENDBRANCH  74  75
ENDBRANCH  73  74
ENDBRANCH  72  73
ENDBRANCH  71  72
ENDBRANCH   1  71
TORSDOF 21
