REMARK SMILES COc1ccc2[nH]cc([C@H](C(=O)OCCOCCOC(=O)c3ccc(-c4c5nc(c(-c6cccc(S(=O)(=O)[O-])c6F)c6ccc([nH]6)c(-c6cccc(S(=O)(=O)[O-])c6F)c6nc(c(-c7cccc(S(=O)(=O)[O-])c7F)c7ccc4[nH]7)C=C6)C=C5)cc3)[NH+]3CC[NH+](Cc4cccc5ccccc45)CC3)c2c1
REMARK SMILES IDX 16 1 15 2 14 3 13 4 11 5 12 6 10 7 9 8 3 9 4 10 103 11 5 12
REMARK SMILES IDX 102 13 6 14 7 15 8 16 2 18 1 19 85 20 86 21 101 22 87 24
REMARK SMILES IDX 100 25 88 26 89 28 90 29 91 30 99 31 92 32 94 33 98 34 93 35
REMARK SMILES IDX 95 36 97 37 96 38 17 39 18 40 19 41 20 42 21 43 22 44 23 45
REMARK SMILES IDX 84 46 24 47 83 48 25 49 26 50 27 51 77 52 28 53 82 54 76 55
REMARK SMILES IDX 78 56 29 57 81 58 75 59 74 60 30 62 62 63 42 64 61 65 43 66
REMARK SMILES IDX 46 67 60 68 79 69 44 70 45 71 59 73 80 74 47 75 31 76 32 77
REMARK SMILES IDX 40 78 33 79 35 80 41 81 34 82 36 83 37 84 38 85 39 86 63 87
REMARK SMILES IDX 64 88 72 89 65 90 67 91 73 92 66 93 68 94 69 95 70 96 71 97
REMARK SMILES IDX 48 98 49 99 57 100 50 101 52 102 58 103 51 104 53 105 54 106
REMARK SMILES IDX 55 107 56 108
REMARK H PARENT 7 17 85 23 88 27 78 61 46 72
REMARK Flexibility Score: inf
ROOT
ATOM      1  O   UNL     1       1.949   3.496  -1.065  1.00  0.00    -0.374 OA
ENDROOT
BRANCH   1   2
ATOM      2  C   UNL     1       2.372   4.180   0.104  1.00  0.00     0.202 C 
BRANCH   2   3
ATOM      3  C   UNL     1       1.556   5.332   0.726  1.00  0.00     0.261 C 
BRANCH   3   4
ATOM      4  O   UNL     1       0.143   5.294   0.504  1.00  0.00    -0.459 OA
BRANCH   4   5
ATOM      5  C   UNL     1      -0.176   5.875  -0.685  1.00  0.00     0.370 C 
ATOM      6  O   UNL     1       0.704   6.195  -1.476  1.00  0.00    -0.245 OA
BRANCH   5   7
ATOM      7  C   UNL     1      -1.685   5.947  -0.969  1.00  0.00     0.328 C 
BRANCH   7   8
ATOM      8  C   UNL     1      -2.543   6.526   0.150  1.00  0.00     0.046 A 
ATOM      9  C   UNL     1      -0.800   8.701   2.745  1.00  0.00     0.119 A 
ATOM     10  C   UNL     1      -1.888   8.876   3.590  1.00  0.00     0.048 A 
ATOM     11  C   UNL     1      -0.910   8.010   1.545  1.00  0.00     0.057 A 
ATOM     12  C   UNL     1      -3.137   8.356   3.239  1.00  0.00     0.030 A 
ATOM     13  C   UNL     1      -2.128   7.396   1.214  1.00  0.00     0.013 A 
ATOM     14  C   UNL     1      -3.225   7.622   2.046  1.00  0.00     0.046 A 
ATOM     15  N   UNL     1      -4.306   7.023   1.447  1.00  0.00    -0.361 N 
ATOM     16  C   UNL     1      -3.911   6.356   0.316  1.00  0.00     0.094 A 
ATOM     17  H   UNL     1      -5.231   7.066   1.781  1.00  0.00     0.166 HD
BRANCH   9  18
ATOM     18  O   UNL     1       0.442   9.180   3.059  1.00  0.00    -0.497 OA
ATOM     19  C   UNL     1       1.038   8.295   4.003  1.00  0.00     0.278 C 
ENDBRANCH   9  18
ENDBRANCH   7   8
BRANCH   7  20
ATOM     20  N   UNL     1      -1.991   6.678  -2.221  1.00  0.00    -0.310 N 
ATOM     21  C   UNL     1      -1.651   8.104  -2.194  1.00  0.00     0.325 C 
ATOM     22  C   UNL     1      -1.539   6.038  -3.466  1.00  0.00     0.325 C 
ATOM     23  H   UNL     1      -3.009   6.617  -2.244  1.00  0.00     0.349 HD
ATOM     24  C   UNL     1      -0.291   8.550  -2.776  1.00  0.00     0.324 C 
ATOM     25  C   UNL     1      -0.215   6.523  -4.136  1.00  0.00     0.324 C 
ATOM     26  N   UNL     1       0.112   7.954  -4.052  1.00  0.00    -0.322 N 
ATOM     27  H   UNL     1       1.131   7.971  -4.058  1.00  0.00     0.348 HD
BRANCH  26  28
ATOM     28  C   UNL     1      -0.161   8.769  -5.241  1.00  0.00     0.300 C 
BRANCH  28  29
ATOM     29  C   UNL     1      -1.572   8.662  -5.789  1.00  0.00     0.014 A 
ATOM     30  C   UNL     1      -1.802   7.678  -6.770  1.00  0.00     0.010 A 
ATOM     31  C   UNL     1      -2.669   9.343  -5.197  1.00  0.00    -0.010 A 
ATOM     32  C   UNL     1      -3.090   7.246  -7.048  1.00  0.00     0.001 A 
ATOM     33  C   UNL     1      -3.962   8.809  -5.399  1.00  0.00    -0.018 A 
ATOM     34  C   UNL     1      -2.544  10.470  -4.347  1.00  0.00     0.009 A 
ATOM     35  C   UNL     1      -4.156   7.770  -6.324  1.00  0.00     0.009 A 
ATOM     36  C   UNL     1      -5.035   9.286  -4.627  1.00  0.00     0.009 A 
ATOM     37  C   UNL     1      -3.626  10.948  -3.604  1.00  0.00     0.001 A 
ATOM     38  C   UNL     1      -4.862  10.329  -3.716  1.00  0.00     0.001 A 
ENDBRANCH  28  29
ENDBRANCH  26  28
ENDBRANCH   7  20
ENDBRANCH   5   7
ENDBRANCH   4   5
ENDBRANCH   3   4
ENDBRANCH   2   3
ENDBRANCH   1   2
BRANCH   1  39
ATOM     39  C   UNL     1       0.669   2.891  -1.157  1.00  0.00     0.202 C 
BRANCH  39  40
ATOM     40  C   UNL     1       0.088   2.030  -0.026  1.00  0.00     0.261 C 
BRANCH  40  41
ATOM     41  O   UNL     1       0.128   2.622   1.278  1.00  0.00    -0.460 OA
BRANCH  41  42
ATOM     42  C   UNL     1       1.032   2.074   2.116  1.00  0.00     0.338 C 
ATOM     43  O   UNL     1       1.794   1.138   1.864  1.00  0.00    -0.246 OA
BRANCH  42  44
ATOM     44  C   UNL     1       1.149   2.853   3.355  1.00  0.00     0.060 A 
ATOM     45  C   UNL     1       2.420   3.331   3.705  1.00  0.00     0.016 A 
ATOM     46  C   UNL     1       0.069   3.001   4.226  1.00  0.00     0.016 A 
ATOM     47  C   UNL     1       2.633   3.895   4.956  1.00  0.00     0.010 A 
ATOM     48  C   UNL     1       0.289   3.550   5.492  1.00  0.00     0.010 A 
ATOM     49  C   UNL     1       1.583   3.948   5.878  1.00  0.00    -0.014 A 
BRANCH  49  50
ATOM     50  C   UNL     1       1.898   4.249   7.294  1.00  0.00     0.031 A 
ATOM     51  C   UNL     1       2.056   3.112   8.257  1.00  0.00     0.074 A 
ATOM     52  C   UNL     1       2.090   5.513   7.706  1.00  0.00     0.049 A 
ATOM     53  N   UNL     1       2.386   3.148   9.519  1.00  0.00    -0.248 NA
ATOM     54  C   UNL     1       1.827   1.758   7.727  1.00  0.00     0.031 C 
ATOM     55  C   UNL     1       2.000   6.678   6.840  1.00  0.00     0.029 A 
ATOM     56  N   UNL     1       2.378   6.036   8.938  1.00  0.00    -0.354 N 
ATOM     57  C   UNL     1       2.395   1.827   9.941  1.00  0.00     0.074 A 
ATOM     58  C   UNL     1       2.013   1.014   8.807  1.00  0.00     0.031 C 
ATOM     59  C   UNL     1       2.166   7.792   7.569  1.00  0.00     0.029 A 
ATOM     60  C   UNL     1       2.385   7.412   8.959  1.00  0.00     0.049 A 
ATOM     61  H   UNL     1       2.562   5.482   9.731  1.00  0.00     0.167 HD
ATOM     62  C   UNL     1       2.716   1.339  11.161  1.00  0.00     0.034 A 
ATOM     63  C   UNL     1       2.546   8.268   9.986  1.00  0.00     0.034 A 
ATOM     64  C   UNL     1       3.097   2.161  12.277  1.00  0.00     0.049 A 
ATOM     65  C   UNL     1       2.865   7.701  11.341  1.00  0.00     0.074 A 
ATOM     66  C   UNL     1       3.479   1.766  13.545  1.00  0.00     0.029 A 
ATOM     67  N   UNL     1       3.125   3.549  12.264  1.00  0.00    -0.354 N 
ATOM     68  N   UNL     1       2.989   6.445  11.696  1.00  0.00    -0.248 NA
ATOM     69  C   UNL     1       3.126   8.661  12.420  1.00  0.00     0.031 C 
ATOM     70  C   UNL     1       3.705   2.916  14.309  1.00  0.00     0.029 A 
ATOM     71  C   UNL     1       3.503   4.027  13.506  1.00  0.00     0.049 A 
ATOM     72  H   UNL     1       2.907   4.110  11.485  1.00  0.00     0.167 HD
ATOM     73  C   UNL     1       3.389   6.462  13.025  1.00  0.00     0.074 A 
ATOM     74  C   UNL     1       3.497   7.856  13.407  1.00  0.00     0.031 C 
ATOM     75  C   UNL     1       3.642   5.419  13.854  1.00  0.00     0.034 A 
BRANCH  62  76
ATOM     76  C   UNL     1       2.674  -0.153  11.339  1.00  0.00     0.023 A 
ATOM     77  C   UNL     1       3.658  -0.961  10.732  1.00  0.00     0.012 A 
ATOM     78  C   UNL     1       1.677  -0.754  12.129  1.00  0.00     0.148 A 
ATOM     79  C   UNL     1       3.630  -2.347  10.882  1.00  0.00     0.002 A 
ATOM     80  C   UNL     1       1.682  -2.131  12.312  1.00  0.00     0.091 A 
ATOM     81  F   UNL     1       0.734   0.029  12.672  1.00  0.00    -0.205 F 
ATOM     82  C   UNL     1       2.649  -2.930  11.680  1.00  0.00     0.022 A 
BRANCH  80  83
ATOM     83  S   UNL     1       0.505  -2.968  13.379  1.00  0.00     0.127 S 
ATOM     84  O   UNL     1      -0.310  -3.695  12.406  1.00  0.00    -0.237 OA
ATOM     85  O   UNL     1       1.378  -3.811  14.196  1.00  0.00    -0.237 OA
ATOM     86  O   UNL     1      -0.189  -1.919  14.114  1.00  0.00    -0.744 OA
ENDBRANCH  80  83
ENDBRANCH  62  76
BRANCH  63  87
ATOM     87  C   UNL     1       2.464   9.737   9.754  1.00  0.00     0.023 A 
ATOM     88  C   UNL     1       3.627  10.526   9.838  1.00  0.00     0.012 A 
ATOM     89  C   UNL     1       1.240  10.351   9.420  1.00  0.00     0.148 A 
ATOM     90  C   UNL     1       3.567  11.904   9.625  1.00  0.00     0.002 A 
ATOM     91  C   UNL     1       1.197  11.716   9.161  1.00  0.00     0.091 A 
ATOM     92  F   UNL     1       0.143   9.584   9.355  1.00  0.00    -0.205 F 
ATOM     93  C   UNL     1       2.356  12.497   9.278  1.00  0.00     0.022 A 
BRANCH  91  94
ATOM     94  S   UNL     1      -0.296  12.538   8.591  1.00  0.00     0.127 S 
ATOM     95  O   UNL     1      -0.682  13.307   9.771  1.00  0.00    -0.237 OA
ATOM     96  O   UNL     1       0.207  13.337   7.473  1.00  0.00    -0.237 OA
ATOM     97  O   UNL     1      -1.207  11.470   8.202  1.00  0.00    -0.744 OA
ENDBRANCH  91  94
ENDBRANCH  63  87
BRANCH  75  98
ATOM     98  C   UNL     1       4.103   5.745  15.249  1.00  0.00     0.023 A 
ATOM     99  C   UNL     1       3.200   6.290  16.183  1.00  0.00     0.012 A 
ATOM    100  C   UNL     1       5.423   5.455  15.649  1.00  0.00     0.148 A 
ATOM    101  C   UNL     1       3.615   6.579  17.482  1.00  0.00     0.002 A 
ATOM    102  C   UNL     1       5.813   5.695  16.959  1.00  0.00     0.091 A 
ATOM    103  F   UNL     1       6.273   4.957  14.739  1.00  0.00    -0.205 F 
ATOM    104  C   UNL     1       4.916   6.271  17.873  1.00  0.00     0.022 A 
BRANCH 102 105
ATOM    105  S   UNL     1       7.436   5.235  17.575  1.00  0.00     0.127 S 
ATOM    106  O   UNL     1       8.094   6.537  17.682  1.00  0.00    -0.237 OA
ATOM    107  O   UNL     1       7.116   4.606  18.856  1.00  0.00    -0.237 OA
ATOM    108  O   UNL     1       7.999   4.329  16.583  1.00  0.00    -0.744 OA
ENDBRANCH 102 105
ENDBRANCH  75  98
ENDBRANCH  49  50
ENDBRANCH  42  44
ENDBRANCH  41  42
ENDBRANCH  40  41
ENDBRANCH  39  40
ENDBRANCH   1  39
TORSDOF 22
