REMARK SMILES O=C(OCCOCCOC(=O)c1c(-c2ccc(Cl)cc2)noc1CO[C@@H]1CCCCO1)c1ccc(-c2c3nc(c(-c4cccc(S(=O)(=O)[O-])c4F)c4ccc([nH]4)c(-c4cccc(S(=O)(=O)[O-])c4F)c4nc(c(-c5cccc(S(=O)(=O)[O-])c5F)c5ccc2[nH]5)C=C4)C=C3)cc1
REMARK SMILES IDX 6 1 5 2 4 3 3 4 2 5 1 6 32 7 33 8 94 9 34 10 93 11 35 12
REMARK SMILES IDX 36 13 37 14 87 15 38 16 92 17 86 18 88 19 39 20 91 21 85 22
REMARK SMILES IDX 84 23 40 25 72 26 52 27 71 28 53 29 56 30 70 31 89 32 54 33
REMARK SMILES IDX 55 34 69 36 90 37 57 38 41 39 42 40 50 41 43 42 45 43 51 44
REMARK SMILES IDX 44 45 46 46 47 47 48 48 49 49 73 50 74 51 82 52 75 53 77 54
REMARK SMILES IDX 83 55 76 56 78 57 79 58 80 59 81 60 58 61 59 62 67 63 60 64
REMARK SMILES IDX 62 65 68 66 61 67 63 68 64 69 65 70 66 71 7 72 8 73 9 74
REMARK SMILES IDX 10 75 11 76 12 77 13 78 23 79 21 80 22 81 14 82 15 83 20 84
REMARK SMILES IDX 16 85 19 86 17 87 18 88 24 89 25 90 26 91 27 92 31 93 28 94
REMARK SMILES IDX 30 95 29 96
REMARK H PARENT 88 24 56 35
REMARK Flexibility Score: inf
ROOT
ATOM      1  O   UNL     1       3.587   0.774   0.768  1.00  0.00    -0.374 OA
ENDROOT
BRANCH   1   2
ATOM      2  C   UNL     1       3.796   1.083  -0.598  1.00  0.00     0.202 C 
BRANCH   2   3
ATOM      3  C   UNL     1       3.207   0.063  -1.568  1.00  0.00     0.261 C 
BRANCH   3   4
ATOM      4  O   UNL     1       1.822  -0.198  -1.268  1.00  0.00    -0.460 OA
BRANCH   4   5
ATOM      5  C   UNL     1       1.336  -1.408  -0.878  1.00  0.00     0.338 C 
ATOM      6  O   UNL     1       0.131  -1.630  -0.875  1.00  0.00    -0.246 OA
BRANCH   5   7
ATOM      7  C   UNL     1       2.284  -2.471  -0.470  1.00  0.00     0.060 A 
ATOM      8  C   UNL     1       3.255  -2.232   0.500  1.00  0.00     0.016 A 
ATOM      9  C   UNL     1       2.181  -3.742  -1.035  1.00  0.00     0.016 A 
ATOM     10  C   UNL     1       4.224  -3.177   0.786  1.00  0.00     0.010 A 
ATOM     11  C   UNL     1       3.079  -4.744  -0.648  1.00  0.00     0.010 A 
ATOM     12  C   UNL     1       4.122  -4.460   0.250  1.00  0.00    -0.014 A 
BRANCH  12  13
ATOM     13  C   UNL     1       5.106  -5.491   0.657  1.00  0.00     0.031 A 
ATOM     14  C   UNL     1       5.957  -6.152  -0.384  1.00  0.00     0.074 A 
ATOM     15  C   UNL     1       5.242  -5.804   1.962  1.00  0.00     0.049 A 
ATOM     16  N   UNL     1       6.720  -7.204  -0.274  1.00  0.00    -0.248 NA
ATOM     17  C   UNL     1       5.935  -5.561  -1.733  1.00  0.00     0.031 C 
ATOM     18  C   UNL     1       4.503  -5.179   3.064  1.00  0.00     0.029 A 
ATOM     19  N   UNL     1       6.053  -6.713   2.591  1.00  0.00    -0.354 N 
ATOM     20  C   UNL     1       7.190  -7.462  -1.555  1.00  0.00     0.074 A 
ATOM     21  C   UNL     1       6.661  -6.431  -2.420  1.00  0.00     0.031 C 
ATOM     22  C   UNL     1       4.931  -5.682   4.230  1.00  0.00     0.029 A 
ATOM     23  C   UNL     1       5.891  -6.742   3.958  1.00  0.00     0.049 A 
ATOM     24  H   UNL     1       6.691  -7.290   2.111  1.00  0.00     0.167 HD
ATOM     25  C   UNL     1       7.981  -8.480  -1.965  1.00  0.00     0.034 A 
ATOM     26  C   UNL     1       6.421  -7.565   4.883  1.00  0.00     0.034 A 
ATOM     27  C   UNL     1       8.543  -9.453  -1.070  1.00  0.00     0.049 A 
ATOM     28  C   UNL     1       7.324  -8.666   4.404  1.00  0.00     0.074 A 
ATOM     29  C   UNL     1       9.327 -10.552  -1.365  1.00  0.00     0.029 A 
ATOM     30  N   UNL     1       8.395  -9.422   0.311  1.00  0.00    -0.354 N 
ATOM     31  N   UNL     1       7.734  -8.921   3.184  1.00  0.00    -0.248 NA
ATOM     32  C   UNL     1       7.829  -9.600   5.418  1.00  0.00     0.031 C 
ATOM     33  C   UNL     1       9.656 -11.184  -0.160  1.00  0.00     0.029 A 
ATOM     34  C   UNL     1       9.082 -10.474   0.885  1.00  0.00     0.049 A 
ATOM     35  H   UNL     1       7.875  -8.749   0.807  1.00  0.00     0.167 HD
ATOM     36  C   UNL     1       8.544 -10.043   3.281  1.00  0.00     0.074 A 
ATOM     37  C   UNL     1       8.601 -10.393   4.688  1.00  0.00     0.031 C 
ATOM     38  C   UNL     1       9.155 -10.749   2.298  1.00  0.00     0.034 A 
BRANCH  25  39
ATOM     39  C   UNL     1       8.256  -8.585  -3.439  1.00  0.00     0.023 A 
ATOM     40  C   UNL     1       9.188  -7.720  -4.045  1.00  0.00     0.012 A 
ATOM     41  C   UNL     1       7.571  -9.529  -4.231  1.00  0.00     0.148 A 
ATOM     42  C   UNL     1       9.410  -7.769  -5.421  1.00  0.00     0.002 A 
ATOM     43  C   UNL     1       7.820  -9.592  -5.598  1.00  0.00     0.091 A 
ATOM     44  F   UNL     1       6.667 -10.323  -3.640  1.00  0.00    -0.205 F 
ATOM     45  C   UNL     1       8.731  -8.707  -6.196  1.00  0.00     0.022 A 
BRANCH  43  46
ATOM     46  S   UNL     1       7.020 -10.789  -6.672  1.00  0.00     0.127 S 
ATOM     47  O   UNL     1       6.082  -9.943  -7.409  1.00  0.00    -0.237 OA
ATOM     48  O   UNL     1       8.142 -11.291  -7.465  1.00  0.00    -0.237 OA
ATOM     49  O   UNL     1       6.413 -11.776  -5.790  1.00  0.00    -0.744 OA
ENDBRANCH  43  46
ENDBRANCH  25  39
BRANCH  26  50
ATOM     50  C   UNL     1       6.111  -7.373   6.331  1.00  0.00     0.023 A 
ATOM     51  C   UNL     1       7.139  -6.986   7.212  1.00  0.00     0.012 A 
ATOM     52  C   UNL     1       4.803  -7.515   6.837  1.00  0.00     0.148 A 
ATOM     53  C   UNL     1       6.875  -6.759   8.564  1.00  0.00     0.002 A 
ATOM     54  C   UNL     1       4.533  -7.222   8.170  1.00  0.00     0.091 A 
ATOM     55  F   UNL     1       3.833  -7.916   6.001  1.00  0.00    -0.205 F 
ATOM     56  C   UNL     1       5.570  -6.860   9.040  1.00  0.00     0.022 A 
BRANCH  54  57
ATOM     57  S   UNL     1       2.848  -7.168   8.794  1.00  0.00     0.127 S 
ATOM     58  O   UNL     1       2.693  -8.502   9.365  1.00  0.00    -0.237 OA
ATOM     59  O   UNL     1       2.908  -6.081   9.773  1.00  0.00    -0.237 OA
ATOM     60  O   UNL     1       2.028  -6.863   7.627  1.00  0.00    -0.744 OA
ENDBRANCH  54  57
ENDBRANCH  26  50
BRANCH  38  61
ATOM     61  C   UNL     1       9.940 -11.959   2.717  1.00  0.00     0.023 A 
ATOM     62  C   UNL     1       9.256 -13.147   3.036  1.00  0.00     0.012 A 
ATOM     63  C   UNL     1      11.346 -11.941   2.711  1.00  0.00     0.148 A 
ATOM     64  C   UNL     1       9.964 -14.301   3.362  1.00  0.00     0.002 A 
ATOM     65  C   UNL     1      12.045 -13.106   2.997  1.00  0.00     0.091 A 
ATOM     66  F   UNL     1      11.973 -10.789   2.432  1.00  0.00    -0.205 F 
ATOM     67  C   UNL     1      11.357 -14.285   3.329  1.00  0.00     0.022 A 
BRANCH  65  68
ATOM     68  S   UNL     1      13.836 -13.184   2.886  1.00  0.00     0.127 S 
ATOM     69  O   UNL     1      14.228 -13.048   4.287  1.00  0.00    -0.237 OA
ATOM     70  O   UNL     1      14.060 -14.514   2.316  1.00  0.00    -0.237 OA
ATOM     71  O   UNL     1      14.222 -12.086   2.011  1.00  0.00    -0.744 OA
ENDBRANCH  65  68
ENDBRANCH  38  61
ENDBRANCH  12  13
ENDBRANCH   5   7
ENDBRANCH   4   5
ENDBRANCH   3   4
ENDBRANCH   2   3
ENDBRANCH   1   2
BRANCH   1  72
ATOM     72  C   UNL     1       2.340   1.179   1.331  1.00  0.00     0.202 C 
BRANCH  72  73
ATOM     73  C   UNL     1       2.635   1.680   2.739  1.00  0.00     0.261 C 
BRANCH  73  74
ATOM     74  O   UNL     1       3.320   2.940   2.633  1.00  0.00    -0.459 OA
BRANCH  74  75
ATOM     75  C   UNL     1       4.665   2.891   2.397  1.00  0.00     0.344 C 
ATOM     76  O   UNL     1       5.376   1.901   2.448  1.00  0.00    -0.246 OA
BRANCH  75  77
ATOM     77  C   UNL     1       5.164   4.202   2.108  1.00  0.00     0.133 A 
ATOM     78  C   UNL     1       6.101   4.623   1.133  1.00  0.00     0.128 A 
ATOM     79  C   UNL     1       4.870   5.338   2.826  1.00  0.00     0.177 A 
ATOM     80  N   UNL     1       6.259   5.955   1.174  1.00  0.00    -0.079 NA
ATOM     81  O   UNL     1       5.495   6.397   2.244  1.00  0.00    -0.357 OA
BRANCH  78  82
ATOM     82  C   UNL     1       6.843   3.794   0.196  1.00  0.00     0.005 A 
ATOM     83  C   UNL     1       6.331   3.509  -1.076  1.00  0.00     0.012 A 
ATOM     84  C   UNL     1       8.064   3.233   0.592  1.00  0.00     0.012 A 
ATOM     85  C   UNL     1       7.023   2.643  -1.931  1.00  0.00     0.021 A 
ATOM     86  C   UNL     1       8.757   2.374  -0.265  1.00  0.00     0.021 A 
ATOM     87  C   UNL     1       8.229   2.075  -1.519  1.00  0.00     0.041 A 
ATOM     88  Cl  UNL     1       9.065   0.995  -2.564  1.00  0.00    -0.084 Cl
ENDBRANCH  78  82
BRANCH  79  89
ATOM     89  C   UNL     1       4.114   5.585   4.080  1.00  0.00     0.242 C 
BRANCH  89  90
ATOM     90  O   UNL     1       5.050   5.975   5.069  1.00  0.00    -0.345 OA
BRANCH  90  91
ATOM     91  C   UNL     1       5.451   5.041   6.070  1.00  0.00     0.250 C 
ATOM     92  C   UNL     1       5.988   3.678   5.604  1.00  0.00     0.062 C 
ATOM     93  O   UNL     1       4.568   5.004   7.190  1.00  0.00    -0.353 OA
ATOM     94  C   UNL     1       4.993   2.533   5.740  1.00  0.00     0.008 C 
ATOM     95  C   UNL     1       3.634   3.936   7.240  1.00  0.00     0.163 C 
ATOM     96  C   UNL     1       4.309   2.584   7.090  1.00  0.00     0.029 C 
ENDBRANCH  90  91
ENDBRANCH  89  90
ENDBRANCH  79  89
ENDBRANCH  75  77
ENDBRANCH  74  75
ENDBRANCH  73  74
ENDBRANCH  72  73
ENDBRANCH   1  72
TORSDOF 21
