REMARK SMILES O=C(OCCOCCOC(=O)C1([C@H]2CS(=O)(=O)C[C@H]2O)CCCC1)c1ccc(-c2c3nc(c(-c4cccc(S(=O)(=O)[O-])c4F)c4ccc([nH]4)c(-c4cccc(S(=O)(=O)[O-])c4F)c4nc(c(-c5cccc(S(=O)(=O)[O-])c5F)c5ccc2[nH]5)C=C4)C=C3)cc1
REMARK SMILES IDX 5 1 4 2 3 3 2 4 1 5 25 6 26 7 87 8 27 9 86 10 28 11 29 12
REMARK SMILES IDX 30 13 80 14 31 15 85 16 79 17 81 18 32 19 84 20 78 21 77 22
REMARK SMILES IDX 33 24 65 25 45 26 64 27 46 28 49 29 63 30 82 31 47 32 48 33
REMARK SMILES IDX 62 35 83 36 50 37 34 38 35 39 43 40 36 41 38 42 44 43 37 44
REMARK SMILES IDX 39 45 40 46 41 47 42 48 66 49 67 50 75 51 68 52 70 53 76 54
REMARK SMILES IDX 69 55 71 56 72 57 73 58 74 59 51 60 52 61 60 62 53 63 55 64
REMARK SMILES IDX 61 65 54 66 56 67 57 68 58 69 59 70 6 71 7 72 8 73 9 74
REMARK SMILES IDX 10 75 11 76 12 77 21 78 24 79 22 80 23 81 13 82 14 83 19 84
REMARK SMILES IDX 15 85 18 86 16 87 17 88 20 89
REMARK H PARENT 81 23 49 34 20 90
REMARK Flexibility Score: inf
ROOT
ATOM      1  C   UNL     1       6.535   1.008  -1.942  1.00  0.00     0.202 C 
ENDROOT
BRANCH   1   2
ATOM      2  C   UNL     1       7.431   2.210  -2.209  1.00  0.00     0.261 C 
BRANCH   2   3
ATOM      3  O   UNL     1       7.290   3.213  -1.194  1.00  0.00    -0.460 OA
BRANCH   3   4
ATOM      4  C   UNL     1       6.612   4.380  -1.375  1.00  0.00     0.338 C 
ATOM      5  O   UNL     1       6.692   5.283  -0.552  1.00  0.00    -0.246 OA
BRANCH   4   6
ATOM      6  C   UNL     1       5.808   4.570  -2.607  1.00  0.00     0.060 A 
ATOM      7  C   UNL     1       4.914   3.595  -3.030  1.00  0.00     0.016 A 
ATOM      8  C   UNL     1       5.899   5.747  -3.342  1.00  0.00     0.016 A 
ATOM      9  C   UNL     1       4.317   3.632  -4.264  1.00  0.00     0.010 A 
ATOM     10  C   UNL     1       5.106   5.899  -4.485  1.00  0.00     0.010 A 
ATOM     11  C   UNL     1       4.323   4.828  -4.955  1.00  0.00    -0.014 A 
BRANCH  11  12
ATOM     12  C   UNL     1       3.463   4.917  -6.147  1.00  0.00     0.031 A 
ATOM     13  C   UNL     1       4.098   5.215  -7.461  1.00  0.00     0.074 A 
ATOM     14  C   UNL     1       2.142   4.665  -6.028  1.00  0.00     0.049 A 
ATOM     15  N   UNL     1       3.534   5.521  -8.593  1.00  0.00    -0.248 NA
ATOM     16  C   UNL     1       5.571   5.180  -7.503  1.00  0.00     0.031 C 
ATOM     17  C   UNL     1       1.459   4.256  -4.791  1.00  0.00     0.029 A 
ATOM     18  N   UNL     1       1.134   4.695  -6.953  1.00  0.00    -0.354 N 
ATOM     19  C   UNL     1       4.579   5.817  -9.456  1.00  0.00     0.074 A 
ATOM     20  C   UNL     1       5.811   5.621  -8.727  1.00  0.00     0.031 C 
ATOM     21  C   UNL     1       0.162   4.038  -5.044  1.00  0.00     0.029 A 
ATOM     22  C   UNL     1      -0.104   4.417  -6.420  1.00  0.00     0.049 A 
ATOM     23  H   UNL     1       1.281   4.897  -7.905  1.00  0.00     0.167 HD
ATOM     24  C   UNL     1       4.495   6.236 -10.737  1.00  0.00     0.034 A 
ATOM     25  C   UNL     1      -1.327   4.526  -6.968  1.00  0.00     0.034 A 
ATOM     26  C   UNL     1       3.241   6.387 -11.420  1.00  0.00     0.049 A 
ATOM     27  C   UNL     1      -1.394   5.027  -8.381  1.00  0.00     0.074 A 
ATOM     28  C   UNL     1       3.002   6.826 -12.707  1.00  0.00     0.029 A 
ATOM     29  N   UNL     1       2.003   6.097 -10.854  1.00  0.00    -0.354 N 
ATOM     30  N   UNL     1      -0.406   5.333  -9.191  1.00  0.00    -0.248 NA
ATOM     31  C   UNL     1      -2.729   5.203  -8.959  1.00  0.00     0.031 C 
ATOM     32  C   UNL     1       1.616   6.830 -12.907  1.00  0.00     0.029 A 
ATOM     33  C   UNL     1       0.994   6.353 -11.761  1.00  0.00     0.049 A 
ATOM     34  H   UNL     1       1.867   5.759  -9.939  1.00  0.00     0.167 HD
ATOM     35  C   UNL     1      -0.996   5.715 -10.385  1.00  0.00     0.074 A 
ATOM     36  C   UNL     1      -2.430   5.579 -10.195  1.00  0.00     0.031 C 
ATOM     37  C   UNL     1      -0.417   6.155 -11.530  1.00  0.00     0.034 A 
BRANCH  24  38
ATOM     38  C   UNL     1       5.783   6.612 -11.415  1.00  0.00     0.023 A 
ATOM     39  C   UNL     1       6.728   5.623 -11.757  1.00  0.00     0.012 A 
ATOM     40  C   UNL     1       6.085   7.967 -11.654  1.00  0.00     0.148 A 
ATOM     41  C   UNL     1       7.975   5.981 -12.271  1.00  0.00     0.002 A 
ATOM     42  C   UNL     1       7.309   8.312 -12.212  1.00  0.00     0.091 A 
ATOM     43  F   UNL     1       5.189   8.895 -11.291  1.00  0.00    -0.205 F 
ATOM     44  C   UNL     1       8.263   7.324 -12.503  1.00  0.00     0.022 A 
BRANCH  42  45
ATOM     45  S   UNL     1       7.747  10.008 -12.606  1.00  0.00     0.127 S 
ATOM     46  O   UNL     1       8.788  10.283 -11.616  1.00  0.00    -0.237 OA
ATOM     47  O   UNL     1       8.231   9.887 -13.981  1.00  0.00    -0.237 OA
ATOM     48  O   UNL     1       6.525  10.786 -12.458  1.00  0.00    -0.744 OA
ENDBRANCH  42  45
ENDBRANCH  24  38
BRANCH  25  49
ATOM     49  C   UNL     1      -2.549   4.182  -6.183  1.00  0.00     0.023 A 
ATOM     50  C   UNL     1      -3.332   3.079  -6.571  1.00  0.00     0.012 A 
ATOM     51  C   UNL     1      -2.917   4.908  -5.030  1.00  0.00     0.148 A 
ATOM     52  C   UNL     1      -4.470   2.721  -5.845  1.00  0.00     0.002 A 
ATOM     53  C   UNL     1      -4.019   4.512  -4.279  1.00  0.00     0.091 A 
ATOM     54  F   UNL     1      -2.168   5.962  -4.677  1.00  0.00    -0.205 F 
ATOM     55  C   UNL     1      -4.807   3.429  -4.694  1.00  0.00     0.022 A 
BRANCH  53  56
ATOM     56  S   UNL     1      -4.455   5.285  -2.716  1.00  0.00     0.127 S 
ATOM     57  O   UNL     1      -5.714   5.946  -3.051  1.00  0.00    -0.237 OA
ATOM     58  O   UNL     1      -4.585   4.125  -1.832  1.00  0.00    -0.237 OA
ATOM     59  O   UNL     1      -3.346   6.169  -2.388  1.00  0.00    -0.744 OA
ENDBRANCH  53  56
ENDBRANCH  25  49
BRANCH  37  60
ATOM     60  C   UNL     1      -1.337   6.467 -12.674  1.00  0.00     0.023 A 
ATOM     61  C   UNL     1      -2.120   7.636 -12.650  1.00  0.00     0.012 A 
ATOM     62  C   UNL     1      -1.347   5.639 -13.812  1.00  0.00     0.148 A 
ATOM     63  C   UNL     1      -2.926   7.963 -13.738  1.00  0.00     0.002 A 
ATOM     64  C   UNL     1      -2.106   6.002 -14.913  1.00  0.00     0.091 A 
ATOM     65  F   UNL     1      -0.609   4.520 -13.795  1.00  0.00    -0.205 F 
ATOM     66  C   UNL     1      -2.907   7.156 -14.874  1.00  0.00     0.022 A 
BRANCH  64  67
ATOM     67  S   UNL     1      -2.049   5.085 -16.455  1.00  0.00     0.127 S 
ATOM     68  O   UNL     1      -3.359   4.437 -16.463  1.00  0.00    -0.237 OA
ATOM     69  O   UNL     1      -1.888   6.153 -17.442  1.00  0.00    -0.237 OA
ATOM     70  O   UNL     1      -0.908   4.186 -16.346  1.00  0.00    -0.744 OA
ENDBRANCH  64  67
ENDBRANCH  37  60
ENDBRANCH  11  12
ENDBRANCH   4   6
ENDBRANCH   3   4
ENDBRANCH   2   3
ENDBRANCH   1   2
BRANCH   1  71
ATOM     71  O   UNL     1       5.245   1.242  -1.415  1.00  0.00    -0.374 OA
BRANCH  71  72
ATOM     72  C   UNL     1       5.102   1.370  -0.011  1.00  0.00     0.202 C 
BRANCH  72  73
ATOM     73  C   UNL     1       4.256   0.192   0.464  1.00  0.00     0.261 C 
BRANCH  73  74
ATOM     74  O   UNL     1       5.034  -1.015   0.339  1.00  0.00    -0.463 OA
BRANCH  74  75
ATOM     75  C   UNL     1       5.062  -1.639  -0.879  1.00  0.00     0.312 C 
ATOM     76  O   UNL     1       4.301  -1.418  -1.809  1.00  0.00    -0.252 OA
BRANCH  75  77
ATOM     77  C   UNL     1       6.183  -2.708  -0.913  1.00  0.00     0.074 C 
ATOM     78  C   UNL     1       7.454  -2.181  -0.213  1.00  0.00     0.019 C 
ATOM     79  C   UNL     1       5.651  -3.814   0.031  1.00  0.00     0.019 C 
ATOM     80  C   UNL     1       7.964  -3.305   0.665  1.00  0.00     0.001 C 
ATOM     81  C   UNL     1       6.750  -4.133   1.037  1.00  0.00     0.001 C 
BRANCH  77  82
ATOM     82  C   UNL     1       6.406  -3.221  -2.402  1.00  0.00     0.051 C 
ATOM     83  C   UNL     1       6.937  -2.174  -3.404  1.00  0.00     0.144 C 
ATOM     84  C   UNL     1       7.291  -4.457  -2.696  1.00  0.00     0.134 C 
ATOM     85  S   UNL     1       8.654  -2.510  -3.750  1.00  0.00     0.153 S 
ATOM     86  C   UNL     1       8.741  -4.028  -2.854  1.00  0.00     0.169 C 
ATOM     87  O   UNL     1       8.810  -2.806  -5.160  1.00  0.00    -0.229 OA
ATOM     88  O   UNL     1       9.476  -1.529  -3.075  1.00  0.00    -0.229 OA
BRANCH  84  89
ATOM     89  O   UNL     1       7.130  -5.512  -1.771  1.00  0.00    -0.392 OA
ATOM     90  H   UNL     1       7.414  -5.217  -0.892  1.00  0.00     0.211 HD
ENDBRANCH  84  89
ENDBRANCH  77  82
ENDBRANCH  75  77
ENDBRANCH  74  75
ENDBRANCH  73  74
ENDBRANCH  72  73
ENDBRANCH  71  72
ENDBRANCH   1  71
TORSDOF 19
