REMARK SMILES COc1cc2c(cc1OC)[C@H](C(=O)OCCOCCOC(=O)c1ccc(-c3c4nc(c(-c5cccc(S(=O)(=O)[O-])c5F)c5ccc([nH]5)c(-c5cccc(S(=O)(=O)[O-])c5F)c5nc(c(-c6cccc(S(=O)(=O)[O-])c6F)c6ccc3[nH]6)C=C5)C=C4)cc1)[C@H](c1cccs1)N(C)C2=O
REMARK SMILES IDX 18 1 17 2 16 3 15 4 14 5 12 6 13 7 11 8 3 9 4 10 8 11 5 12
REMARK SMILES IDX 7 13 6 14 94 15 92 16 95 17 86 18 93 19 2 20 1 21 9 22 10 23
REMARK SMILES IDX 87 24 88 25 91 26 89 27 90 28 19 29 20 30 21 31 22 32 23 33
REMARK SMILES IDX 24 34 85 35 25 36 84 37 26 38 27 39 28 40 78 41 29 42 83 43
REMARK SMILES IDX 77 44 79 45 30 46 82 47 76 48 75 49 31 51 63 52 43 53 62 54
REMARK SMILES IDX 44 55 47 56 61 57 80 58 45 59 46 60 60 62 81 63 48 64 32 65
REMARK SMILES IDX 33 66 41 67 34 68 36 69 42 70 35 71 37 72 38 73 39 74 40 75
REMARK SMILES IDX 64 76 65 77 73 78 66 79 68 80 74 81 67 82 69 83 70 84 71 85
REMARK SMILES IDX 72 86 49 87 50 88 58 89 51 90 53 91 59 92 52 93 54 94 55 95
REMARK SMILES IDX 56 96 57 97
REMARK H PARENT 79 50 47 61
REMARK Flexibility Score: inf
ROOT
ATOM      1  C   UNL     1      -0.501  -4.031  -7.336  1.00  0.00     0.202 C 
ENDROOT
BRANCH   1   2
ATOM      2  O   UNL     1      -1.077  -5.335  -7.289  1.00  0.00    -0.374 OA
BRANCH   2   3
ATOM      3  C   UNL     1      -1.351  -5.887  -5.998  1.00  0.00     0.202 C 
BRANCH   3   4
ATOM      4  C   UNL     1      -0.183  -6.618  -5.330  1.00  0.00     0.261 C 
BRANCH   4   5
ATOM      5  O   UNL     1       0.691  -5.659  -4.708  1.00  0.00    -0.463 OA
BRANCH   5   6
ATOM      6  C   UNL     1       1.764  -5.269  -5.421  1.00  0.00     0.316 C 
ATOM      7  O   UNL     1       2.140  -5.833  -6.448  1.00  0.00    -0.251 OA
BRANCH   6   8
ATOM      8  C   UNL     1       2.440  -4.009  -4.927  1.00  0.00     0.158 C 
ATOM      9  C   UNL     1       1.306  -1.730  -1.382  1.00  0.00     0.161 A 
ATOM     10  C   UNL     1       2.562  -1.597  -1.977  1.00  0.00     0.064 A 
ATOM     11  C   UNL     1       0.343  -2.546  -1.989  1.00  0.00     0.161 A 
ATOM     12  C   UNL     1       2.881  -2.316  -3.136  1.00  0.00     0.048 A 
ATOM     13  C   UNL     1       0.671  -3.247  -3.168  1.00  0.00     0.056 A 
ATOM     14  C   UNL     1       1.961  -3.214  -3.716  1.00  0.00    -0.015 A 
ATOM     15  C   UNL     1       4.234  -2.112  -3.738  1.00  0.00     0.254 C 
ATOM     16  N   UNL     1       4.695  -3.106  -4.595  1.00  0.00    -0.333 N 
ATOM     17  O   UNL     1       4.872  -1.095  -3.483  1.00  0.00    -0.269 OA
ATOM     18  C   UNL     1       3.942  -4.349  -4.785  1.00  0.00     0.144 C 
ATOM     19  C   UNL     1       6.005  -2.971  -5.198  1.00  0.00     0.147 C 
BRANCH   9  20
ATOM     20  O   UNL     1       1.053  -1.167  -0.162  1.00  0.00    -0.493 OA
ATOM     21  C   UNL     1       1.383   0.211  -0.043  1.00  0.00     0.278 C 
ENDBRANCH   9  20
BRANCH  11  22
ATOM     22  O   UNL     1      -0.944  -2.778  -1.578  1.00  0.00    -0.493 OA
ATOM     23  C   UNL     1      -1.382  -2.193  -0.355  1.00  0.00     0.278 C 
ENDBRANCH  11  22
BRANCH  18  24
ATOM     24  C   UNL     1       4.209  -5.398  -3.704  1.00  0.00     0.028 A 
ATOM     25  C   UNL     1       3.931  -6.756  -3.786  1.00  0.00     0.017 A 
ATOM     26  S   UNL     1       4.871  -5.025  -2.162  1.00  0.00    -0.147 S 
ATOM     27  C   UNL     1       4.113  -7.438  -2.550  1.00  0.00     0.012 A 
ATOM     28  C   UNL     1       4.615  -6.606  -1.579  1.00  0.00     0.065 A 
ENDBRANCH  18  24
ENDBRANCH   6   8
ENDBRANCH   5   6
ENDBRANCH   4   5
ENDBRANCH   3   4
ENDBRANCH   2   3
ENDBRANCH   1   2
BRANCH   1  29
ATOM     29  C   UNL     1      -1.458  -2.842  -7.215  1.00  0.00     0.261 C 
BRANCH  29  30
ATOM     30  O   UNL     1      -2.068  -2.783  -5.917  1.00  0.00    -0.460 OA
BRANCH  30  31
ATOM     31  C   UNL     1      -3.322  -3.290  -5.862  1.00  0.00     0.338 C 
ATOM     32  O   UNL     1      -3.985  -3.712  -6.801  1.00  0.00    -0.246 OA
BRANCH  31  33
ATOM     33  C   UNL     1      -3.735  -3.449  -4.458  1.00  0.00     0.060 A 
ATOM     34  C   UNL     1      -4.262  -4.687  -4.066  1.00  0.00     0.016 A 
ATOM     35  C   UNL     1      -3.660  -2.392  -3.553  1.00  0.00     0.016 A 
ATOM     36  C   UNL     1      -4.763  -4.859  -2.777  1.00  0.00     0.010 A 
ATOM     37  C   UNL     1      -4.176  -2.566  -2.267  1.00  0.00     0.010 A 
ATOM     38  C   UNL     1      -4.759  -3.788  -1.877  1.00  0.00    -0.014 A 
BRANCH  38  39
ATOM     39  C   UNL     1      -5.515  -3.882  -0.599  1.00  0.00     0.031 A 
ATOM     40  C   UNL     1      -6.772  -3.064  -0.447  1.00  0.00     0.074 A 
ATOM     41  C   UNL     1      -5.106  -4.676   0.410  1.00  0.00     0.049 A 
ATOM     42  N   UNL     1      -7.563  -2.941   0.587  1.00  0.00    -0.248 NA
ATOM     43  C   UNL     1      -7.182  -2.261  -1.612  1.00  0.00     0.031 C 
ATOM     44  C   UNL     1      -3.905  -5.511   0.404  1.00  0.00     0.029 A 
ATOM     45  N   UNL     1      -5.657  -4.894   1.651  1.00  0.00    -0.354 N 
ATOM     46  C   UNL     1      -8.532  -2.018   0.213  1.00  0.00     0.074 A 
ATOM     47  C   UNL     1      -8.213  -1.586  -1.129  1.00  0.00     0.031 C 
ATOM     48  C   UNL     1      -3.807  -6.146   1.586  1.00  0.00     0.029 A 
ATOM     49  C   UNL     1      -4.920  -5.743   2.445  1.00  0.00     0.049 A 
ATOM     50  H   UNL     1      -6.500  -4.480   1.945  1.00  0.00     0.167 HD
ATOM     51  C   UNL     1      -9.611  -1.586   0.906  1.00  0.00     0.034 A 
ATOM     52  C   UNL     1      -5.114  -6.136   3.721  1.00  0.00     0.034 A 
ATOM     53  C   UNL     1      -9.964  -2.049   2.218  1.00  0.00     0.049 A 
ATOM     54  C   UNL     1      -6.325  -5.638   4.472  1.00  0.00     0.074 A 
ATOM     55  C   UNL     1     -11.068  -1.711   2.980  1.00  0.00     0.029 A 
ATOM     56  N   UNL     1      -9.223  -2.950   2.964  1.00  0.00    -0.354 N 
ATOM     57  N   UNL     1      -7.290  -4.851   4.061  1.00  0.00    -0.248 NA
ATOM     58  C   UNL     1      -6.491  -6.110   5.856  1.00  0.00     0.031 C 
ATOM     59  C   UNL     1     -10.981  -2.390   4.199  1.00  0.00     0.029 A 
ATOM     60  C   UNL     1      -9.842  -3.178   4.180  1.00  0.00     0.049 A 
ATOM     61  H   UNL     1      -8.380  -3.367   2.672  1.00  0.00     0.167 HD
ATOM     62  C   UNL     1      -8.196  -4.773   5.115  1.00  0.00     0.074 A 
ATOM     63  C   UNL     1      -7.675  -5.606   6.177  1.00  0.00     0.031 C 
ATOM     64  C   UNL     1      -9.350  -4.065   5.201  1.00  0.00     0.034 A 
BRANCH  51  65
ATOM     65  C   UNL     1     -10.512  -0.582   0.237  1.00  0.00     0.023 A 
ATOM     66  C   UNL     1     -11.324  -0.982  -0.845  1.00  0.00     0.012 A 
ATOM     67  C   UNL     1     -10.590   0.743   0.708  1.00  0.00     0.148 A 
ATOM     68  C   UNL     1     -12.170  -0.070  -1.472  1.00  0.00     0.002 A 
ATOM     69  C   UNL     1     -11.473   1.633   0.110  1.00  0.00     0.091 A 
ATOM     70  F   UNL     1      -9.795   1.108   1.723  1.00  0.00    -0.205 F 
ATOM     71  C   UNL     1     -12.253   1.233  -0.988  1.00  0.00     0.022 A 
BRANCH  69  72
ATOM     72  S   UNL     1     -11.716   3.308   0.709  1.00  0.00     0.127 S 
ATOM     73  O   UNL     1     -11.160   4.098  -0.389  1.00  0.00    -0.237 OA
ATOM     74  O   UNL     1     -13.172   3.379   0.835  1.00  0.00    -0.237 OA
ATOM     75  O   UNL     1     -10.990   3.396   1.968  1.00  0.00    -0.744 OA
ENDBRANCH  69  72
ENDBRANCH  51  65
BRANCH  52  76
ATOM     76  C   UNL     1      -4.166  -7.085   4.376  1.00  0.00     0.023 A 
ATOM     77  C   UNL     1      -4.606  -8.380   4.718  1.00  0.00     0.012 A 
ATOM     78  C   UNL     1      -2.847  -6.706   4.690  1.00  0.00     0.148 A 
ATOM     79  C   UNL     1      -3.766  -9.262   5.401  1.00  0.00     0.002 A 
ATOM     80  C   UNL     1      -1.997  -7.609   5.320  1.00  0.00     0.091 A 
ATOM     81  F   UNL     1      -2.450  -5.466   4.373  1.00  0.00    -0.205 F 
ATOM     82  C   UNL     1      -2.461  -8.880   5.696  1.00  0.00     0.022 A 
BRANCH  80  83
ATOM     83  S   UNL     1      -0.266  -7.249   5.636  1.00  0.00     0.127 S 
ATOM     84  O   UNL     1      -0.243  -7.144   7.093  1.00  0.00    -0.237 OA
ATOM     85  O   UNL     1       0.391  -8.438   5.093  1.00  0.00    -0.237 OA
ATOM     86  O   UNL     1       0.018  -6.019   4.909  1.00  0.00    -0.744 OA
ENDBRANCH  80  83
ENDBRANCH  52  76
BRANCH  64  87
ATOM     87  C   UNL     1     -10.173  -4.200   6.457  1.00  0.00     0.023 A 
ATOM     88  C   UNL     1      -9.730  -3.617   7.660  1.00  0.00     0.012 A 
ATOM     89  C   UNL     1     -11.433  -4.832   6.418  1.00  0.00     0.148 A 
ATOM     90  C   UNL     1     -10.512  -3.689   8.813  1.00  0.00     0.002 A 
ATOM     91  C   UNL     1     -12.230  -4.854   7.556  1.00  0.00     0.091 A 
ATOM     92  F   UNL     1     -11.830  -5.394   5.268  1.00  0.00    -0.205 F 
ATOM     93  C   UNL     1     -11.766  -4.295   8.758  1.00  0.00     0.022 A 
BRANCH  91  94
ATOM     94  S   UNL     1     -13.898  -5.521   7.552  1.00  0.00     0.127 S 
ATOM     95  O   UNL     1     -13.733  -6.741   8.340  1.00  0.00    -0.237 OA
ATOM     96  O   UNL     1     -14.656  -4.462   8.220  1.00  0.00    -0.237 OA
ATOM     97  O   UNL     1     -14.247  -5.724   6.153  1.00  0.00    -0.744 OA
ENDBRANCH  91  94
ENDBRANCH  64  87
ENDBRANCH  38  39
ENDBRANCH  31  33
ENDBRANCH  30  31
ENDBRANCH  29  30
ENDBRANCH   1  29
TORSDOF 20
