REMARK SMILES CCCCCCNC(=O)Nc1cccc(-c2ccc([C@@H](C)C(=O)OCCOCCOC(=O)c3ccc(-c4c5nc(c(-c6cccc(S(=O)(=O)[O-])c6F)c6ccc([nH]6)c(-c6cccc(S(=O)(=O)[O-])c6F)c6nc(c(-c7cccc(S(=O)(=O)[O-])c7F)c7ccc4[nH]7)C=C6)C=C5)cc3)cc2F)c1
REMARK SMILES IDX 25 1 24 2 22 3 23 4 20 5 21 6 19 7 16 8 17 9 97 10 18 11
REMARK SMILES IDX 96 12 98 13 15 14 11 15 12 16 99 17 13 18 14 19 10 20 7 21
REMARK SMILES IDX 8 22 9 24 6 26 5 27 4 28 3 29 2 30 1 31 26 32 27 33 28 34
REMARK SMILES IDX 29 35 30 36 31 37 32 38 33 39 34 40 95 41 35 42 94 43 36 44
REMARK SMILES IDX 37 45 38 46 88 47 39 48 93 49 87 50 89 51 40 52 92 53 86 54
REMARK SMILES IDX 85 55 41 57 73 58 53 59 72 60 54 61 57 62 71 63 90 64 55 65
REMARK SMILES IDX 56 66 70 68 91 69 58 70 42 71 43 72 51 73 44 74 46 75 52 76
REMARK SMILES IDX 45 77 47 78 48 79 49 80 50 81 74 82 75 83 83 84 76 85 78 86
REMARK SMILES IDX 84 87 77 88 79 89 80 90 81 91 82 92 59 93 60 94 68 95 61 96
REMARK SMILES IDX 63 97 69 98 62 99 64 100 65 101 66 102 67 103
REMARK H PARENT 7 23 10 25 89 56 57 67
REMARK Flexibility Score: inf
ROOT
ATOM      1  C   UNL     1       0.823  -0.268  -5.949  1.00  0.00     0.261 C 
ENDROOT
BRANCH   1   2
ATOM      2  O   UNL     1      -0.481  -0.630  -5.473  1.00  0.00    -0.463 OA
BRANCH   2   3
ATOM      3  C   UNL     1      -1.316  -1.120  -6.427  1.00  0.00     0.313 C 
ATOM      4  O   UNL     1      -1.013  -1.256  -7.610  1.00  0.00    -0.252 OA
BRANCH   3   5
ATOM      5  C   UNL     1      -2.712  -1.449  -5.928  1.00  0.00     0.126 C 
ATOM      6  C   UNL     1      -3.643  -0.293  -6.296  1.00  0.00     0.025 C 
BRANCH   5   7
ATOM      7  C   UNL     1      -2.900  -1.890  -4.478  1.00  0.00    -0.031 A 
ATOM      8  C   UNL     1      -3.692  -2.689  -1.842  1.00  0.00     0.018 A 
ATOM      9  C   UNL     1      -3.183  -1.403  -2.100  1.00  0.00     0.012 A 
ATOM     10  C   UNL     1      -3.714  -3.584  -2.918  1.00  0.00     0.131 A 
ATOM     11  C   UNL     1      -2.791  -1.009  -3.394  1.00  0.00     0.005 A 
ATOM     12  C   UNL     1      -3.327  -3.201  -4.208  1.00  0.00     0.044 A 
ATOM     13  F   UNL     1      -4.183  -4.831  -2.752  1.00  0.00    -0.206 F 
BRANCH   8  14
ATOM     14  C   UNL     1      -4.277  -3.039  -0.529  1.00  0.00    -0.013 A 
ATOM     15  C   UNL     1      -4.492  -4.513   1.417  1.00  0.00     0.043 A 
ATOM     16  C   UNL     1      -5.538  -3.731   1.907  1.00  0.00     0.026 A 
ATOM     17  C   UNL     1      -3.892  -4.188   0.188  1.00  0.00     0.035 A 
ATOM     18  C   UNL     1      -5.913  -2.574   1.230  1.00  0.00     0.003 A 
ATOM     19  C   UNL     1      -5.284  -2.231   0.030  1.00  0.00     0.009 A 
BRANCH  15  20
ATOM     20  N   UNL     1      -4.069  -5.596   2.208  1.00  0.00    -0.308 N 
ATOM     21  N   UNL     1      -1.740  -5.290   2.415  1.00  0.00    -0.338 N 
ATOM     22  C   UNL     1      -2.825  -6.104   2.417  1.00  0.00     0.319 C 
ATOM     23  H   UNL     1      -0.863  -5.736   2.441  1.00  0.00     0.165 HD
ATOM     24  O   UNL     1      -2.686  -7.283   2.744  1.00  0.00    -0.249 OA
ATOM     25  H   UNL     1      -4.790  -6.063   2.689  1.00  0.00     0.171 HD
BRANCH  21  26
ATOM     26  C   UNL     1      -1.720  -3.846   2.380  1.00  0.00     0.117 C 
BRANCH  26  27
ATOM     27  C   UNL     1      -0.655  -3.193   3.247  1.00  0.00     0.021 C 
BRANCH  27  28
ATOM     28  C   UNL     1       0.785  -3.310   2.750  1.00  0.00     0.002 C 
BRANCH  28  29
ATOM     29  C   UNL     1       1.022  -2.998   1.269  1.00  0.00    -0.000 C 
BRANCH  29  30
ATOM     30  C   UNL     1       0.266  -1.798   0.698  1.00  0.00    -0.003 C 
ATOM     31  C   UNL     1       0.556  -0.502   1.413  1.00  0.00     0.004 C 
ENDBRANCH  29  30
ENDBRANCH  28  29
ENDBRANCH  27  28
ENDBRANCH  26  27
ENDBRANCH  21  26
ENDBRANCH  15  20
ENDBRANCH   8  14
ENDBRANCH   5   7
ENDBRANCH   3   5
ENDBRANCH   2   3
ENDBRANCH   1   2
BRANCH   1  32
ATOM     32  C   UNL     1       1.933  -1.307  -5.718  1.00  0.00     0.202 C 
BRANCH  32  33
ATOM     33  O   UNL     1       1.629  -2.694  -5.750  1.00  0.00    -0.374 OA
BRANCH  33  34
ATOM     34  C   UNL     1       0.680  -3.227  -4.836  1.00  0.00     0.202 C 
BRANCH  34  35
ATOM     35  C   UNL     1       0.825  -2.977  -3.330  1.00  0.00     0.261 C 
BRANCH  35  36
ATOM     36  O   UNL     1       0.951  -1.598  -2.949  1.00  0.00    -0.460 OA
BRANCH  36  37
ATOM     37  C   UNL     1       2.179  -1.271  -2.465  1.00  0.00     0.338 C 
ATOM     38  O   UNL     1       3.157  -2.003  -2.462  1.00  0.00    -0.246 OA
BRANCH  37  39
ATOM     39  C   UNL     1       2.232   0.102  -1.903  1.00  0.00     0.060 A 
ATOM     40  C   UNL     1       3.503   0.586  -1.565  1.00  0.00     0.016 A 
ATOM     41  C   UNL     1       1.095   0.844  -1.564  1.00  0.00     0.016 A 
ATOM     42  C   UNL     1       3.638   1.734  -0.790  1.00  0.00     0.010 A 
ATOM     43  C   UNL     1       1.232   1.988  -0.764  1.00  0.00     0.010 A 
ATOM     44  C   UNL     1       2.502   2.404  -0.329  1.00  0.00    -0.014 A 
BRANCH  44  45
ATOM     45  C   UNL     1       2.683   3.536   0.610  1.00  0.00     0.031 A 
ATOM     46  C   UNL     1       3.028   3.303   2.058  1.00  0.00     0.074 A 
ATOM     47  C   UNL     1       2.565   4.786   0.137  1.00  0.00     0.049 A 
ATOM     48  N   UNL     1       3.336   4.163   2.993  1.00  0.00    -0.248 NA
ATOM     49  C   UNL     1       2.999   1.914   2.527  1.00  0.00     0.031 C 
ATOM     50  C   UNL     1       2.202   5.133  -1.236  1.00  0.00     0.029 A 
ATOM     51  N   UNL     1       2.750   5.989   0.758  1.00  0.00    -0.354 N 
ATOM     52  C   UNL     1       3.501   3.421   4.161  1.00  0.00     0.074 A 
ATOM     53  C   UNL     1       3.211   2.046   3.828  1.00  0.00     0.031 C 
ATOM     54  C   UNL     1       2.183   6.469  -1.353  1.00  0.00     0.029 A 
ATOM     55  C   UNL     1       2.563   7.063  -0.074  1.00  0.00     0.049 A 
ATOM     56  H   UNL     1       2.994   6.077   1.708  1.00  0.00     0.167 HD
ATOM     57  C   UNL     1       3.912   3.840   5.383  1.00  0.00     0.034 A 
ATOM     58  C   UNL     1       2.728   8.378   0.157  1.00  0.00     0.034 A 
ATOM     59  C   UNL     1       4.297   5.199   5.661  1.00  0.00     0.049 A 
ATOM     60  C   UNL     1       3.294   8.814   1.477  1.00  0.00     0.074 A 
ATOM     61  C   UNL     1       4.856   5.723   6.813  1.00  0.00     0.029 A 
ATOM     62  N   UNL     1       4.173   6.249   4.764  1.00  0.00    -0.354 N 
ATOM     63  N   UNL     1       3.612   8.084   2.519  1.00  0.00    -0.248 NA
ATOM     64  C   UNL     1       3.592  10.243   1.626  1.00  0.00     0.031 C 
ATOM     65  C   UNL     1       5.064   7.093   6.612  1.00  0.00     0.029 A 
ATOM     66  C   UNL     1       4.645   7.419   5.331  1.00  0.00     0.049 A 
ATOM     67  H   UNL     1       3.803   6.173   3.855  1.00  0.00     0.167 HD
ATOM     68  C   UNL     1       4.189   8.956   3.434  1.00  0.00     0.074 A 
ATOM     69  C   UNL     1       4.186  10.267   2.812  1.00  0.00     0.031 C 
ATOM     70  C   UNL     1       4.670   8.702   4.677  1.00  0.00     0.034 A 
BRANCH  57  71
ATOM     71  C   UNL     1       4.052   2.815   6.485  1.00  0.00     0.023 A 
ATOM     72  C   UNL     1       5.083   1.855   6.418  1.00  0.00     0.012 A 
ATOM     73  C   UNL     1       3.216   2.841   7.620  1.00  0.00     0.148 A 
ATOM     74  C   UNL     1       5.256   0.917   7.438  1.00  0.00     0.002 A 
ATOM     75  C   UNL     1       3.423   1.932   8.654  1.00  0.00     0.091 A 
ATOM     76  F   UNL     1       2.224   3.742   7.666  1.00  0.00    -0.205 F 
ATOM     77  C   UNL     1       4.434   0.963   8.560  1.00  0.00     0.022 A 
BRANCH  75  78
ATOM     78  S   UNL     1       2.469   1.981  10.178  1.00  0.00     0.127 S 
ATOM     79  O   UNL     1       1.493   0.917   9.951  1.00  0.00    -0.237 OA
ATOM     80  O   UNL     1       3.479   1.673  11.192  1.00  0.00    -0.237 OA
ATOM     81  O   UNL     1       1.930   3.331  10.259  1.00  0.00    -0.744 OA
ENDBRANCH  75  78
ENDBRANCH  57  71
BRANCH  58  82
ATOM     82  C   UNL     1       2.502   9.325  -0.965  1.00  0.00     0.023 A 
ATOM     83  C   UNL     1       3.612   9.870  -1.638  1.00  0.00     0.012 A 
ATOM     84  C   UNL     1       1.205   9.577  -1.451  1.00  0.00     0.148 A 
ATOM     85  C   UNL     1       3.433  10.657  -2.775  1.00  0.00     0.002 A 
ATOM     86  C   UNL     1       1.038  10.318  -2.614  1.00  0.00     0.091 A 
ATOM     87  F   UNL     1       0.166   9.048  -0.790  1.00  0.00    -0.205 F 
ATOM     88  C   UNL     1       2.149  10.869  -3.271  1.00  0.00     0.022 A 
BRANCH  86  89
ATOM     89  S   UNL     1      -0.564  10.504  -3.407  1.00  0.00     0.127 S 
ATOM     90  O   UNL     1      -0.880  11.900  -3.118  1.00  0.00    -0.237 OA
ATOM     91  O   UNL     1      -0.245  10.220  -4.807  1.00  0.00    -0.237 OA
ATOM     92  O   UNL     1      -1.428   9.513  -2.780  1.00  0.00    -0.744 OA
ENDBRANCH  86  89
ENDBRANCH  58  82
BRANCH  70  93
ATOM     93  C   UNL     1       5.246   9.864   5.439  1.00  0.00     0.023 A 
ATOM     94  C   UNL     1       4.383  10.840   5.973  1.00  0.00     0.012 A 
ATOM     95  C   UNL     1       6.633   9.967   5.661  1.00  0.00     0.148 A 
ATOM     96  C   UNL     1       4.895  11.926   6.681  1.00  0.00     0.002 A 
ATOM     97  C   UNL     1       7.132  11.030   6.405  1.00  0.00     0.091 A 
ATOM     98  F   UNL     1       7.442   9.041   5.127  1.00  0.00    -0.205 F 
ATOM     99  C   UNL     1       6.266  12.017   6.905  1.00  0.00     0.022 A 
BRANCH  97 100
ATOM    100  S   UNL     1       8.877  11.163   6.806  1.00  0.00     0.127 S 
ATOM    101  O   UNL     1       9.357  12.067   5.763  1.00  0.00    -0.237 OA
ATOM    102  O   UNL     1       8.853  11.743   8.150  1.00  0.00    -0.237 OA
ATOM    103  O   UNL     1       9.392   9.801   6.754  1.00  0.00    -0.744 OA
ENDBRANCH  97 100
ENDBRANCH  70  93
ENDBRANCH  44  45
ENDBRANCH  37  39
ENDBRANCH  36  37
ENDBRANCH  35  36
ENDBRANCH  34  35
ENDBRANCH  33  34
ENDBRANCH  32  33
ENDBRANCH   1  32
TORSDOF 25
