REMARK SMILES O=C(OCCOCCOC(=O)c1ccc(-c2c3nc(c(-c4cccc(S(=O)(=O)[O-])c4F)c4ccc([nH]4)c(-c4cccc(S(=O)(=O)[O-])c4F)c4nc(c(-c5cccc(S(=O)(=O)[O-])c5F)c5ccc2[nH]5)C=C4)C=C3)cc1)c1ccc(/[NH+]=C2\S[C@@H](Cc3ccc(F)cc3)C(=O)N2Cc2ccccc2)cc1
REMARK SMILES IDX 6 1 5 2 4 3 3 4 2 5 1 6 75 7 76 8 102 9 77 10 101 11 78 12
REMARK SMILES IDX 79 13 80 14 81 16 93 17 82 18 91 19 92 20 94 21 95 22 96 23
REMARK SMILES IDX 100 24 97 25 99 26 98 27 83 28 84 29 85 30 90 31 86 32 89 33
REMARK SMILES IDX 87 34 88 35 7 36 8 37 9 38 10 39 11 40 12 41 13 42 74 43
REMARK SMILES IDX 14 44 73 45 15 46 16 47 17 48 67 49 18 50 72 51 66 52 68 53
REMARK SMILES IDX 19 54 71 55 65 56 64 57 20 59 52 60 32 61 51 62 33 63 36 64
REMARK SMILES IDX 50 65 69 66 34 67 35 68 49 70 70 71 37 72 21 73 22 74 30 75
REMARK SMILES IDX 23 76 25 77 31 78 24 79 26 80 27 81 28 82 29 83 53 84 54 85
REMARK SMILES IDX 62 86 55 87 57 88 63 89 56 90 58 91 59 92 60 93 61 94 38 95
REMARK SMILES IDX 39 96 47 97 40 98 42 99 48 100 41 101 43 102 44 103 45 104
REMARK SMILES IDX 46 105
REMARK H PARENT 79 15 68 58 36 69
REMARK Flexibility Score: inf
ROOT
ATOM      1  O   UNL     1       4.069  -1.759   0.289  1.00  0.00    -0.374 OA
ENDROOT
BRANCH   1   2
ATOM      2  C   UNL     1       4.374  -0.829   1.331  1.00  0.00     0.202 C 
BRANCH   2   3
ATOM      3  C   UNL     1       4.075   0.626   0.962  1.00  0.00     0.261 C 
BRANCH   3   4
ATOM      4  O   UNL     1       2.669   0.787   0.690  1.00  0.00    -0.460 OA
BRANCH   4   5
ATOM      5  C   UNL     1       2.057   0.982  -0.499  1.00  0.00     0.338 C 
ATOM      6  O   UNL     1       0.837   1.137  -0.532  1.00  0.00    -0.246 OA
BRANCH   5   7
ATOM      7  C   UNL     1       2.788   1.028  -1.796  1.00  0.00     0.060 A 
ATOM      8  C   UNL     1       3.883   0.224  -2.104  1.00  0.00     0.020 A 
ATOM      9  C   UNL     1       2.253   1.837  -2.813  1.00  0.00     0.020 A 
ATOM     10  C   UNL     1       4.467   0.262  -3.361  1.00  0.00     0.052 A 
ATOM     11  C   UNL     1       2.829   1.863  -4.090  1.00  0.00     0.052 A 
ATOM     12  C   UNL     1       3.957   1.091  -4.354  1.00  0.00     0.125 A 
BRANCH  12  13
ATOM     13  N   UNL     1       4.624   1.104  -5.579  1.00  0.00    -0.235 N 
ATOM     14  C   UNL     1       5.608   1.926  -5.729  1.00  0.00     0.320 C 
ATOM     15  H   UNL     1       4.352   0.503  -6.309  1.00  0.00     0.313 HD
ATOM     16  S   UNL     1       6.043   3.245  -4.668  1.00  0.00    -0.022 SA
ATOM     17  N   UNL     1       6.485   1.840  -6.772  1.00  0.00    -0.186 N 
ATOM     18  C   UNL     1       6.999   4.037  -5.983  1.00  0.00     0.178 C 
ATOM     19  C   UNL     1       7.384   2.880  -6.901  1.00  0.00     0.324 C 
ATOM     20  O   UNL     1       8.303   2.908  -7.710  1.00  0.00    -0.245 OA
BRANCH  17  21
ATOM     21  C   UNL     1       6.531   0.682  -7.657  1.00  0.00     0.283 C 
BRANCH  21  22
ATOM     22  C   UNL     1       7.315  -0.489  -7.090  1.00  0.00    -0.006 A 
ATOM     23  C   UNL     1       8.599  -0.795  -7.561  1.00  0.00     0.008 A 
ATOM     24  C   UNL     1       6.758  -1.317  -6.102  1.00  0.00     0.008 A 
ATOM     25  C   UNL     1       9.299  -1.898  -7.058  1.00  0.00     0.000 A 
ATOM     26  C   UNL     1       7.468  -2.398  -5.577  1.00  0.00     0.000 A 
ATOM     27  C   UNL     1       8.737  -2.693  -6.060  1.00  0.00     0.000 A 
ENDBRANCH  21  22
ENDBRANCH  17  21
BRANCH  18  28
ATOM     28  C   UNL     1       8.154   4.849  -5.410  1.00  0.00     0.063 C 
BRANCH  28  29
ATOM     29  C   UNL     1       8.783   5.736  -6.461  1.00  0.00    -0.046 A 
ATOM     30  C   UNL     1      10.083   5.467  -6.913  1.00  0.00     0.007 A 
ATOM     31  C   UNL     1       8.056   6.788  -7.039  1.00  0.00     0.007 A 
ATOM     32  C   UNL     1      10.630   6.210  -7.957  1.00  0.00     0.039 A 
ATOM     33  C   UNL     1       8.603   7.525  -8.088  1.00  0.00     0.039 A 
ATOM     34  C   UNL     1       9.881   7.224  -8.543  1.00  0.00     0.123 A 
ATOM     35  F   UNL     1      10.396   7.916  -9.567  1.00  0.00    -0.207 F 
ENDBRANCH  28  29
ENDBRANCH  18  28
ENDBRANCH  12  13
ENDBRANCH   5   7
ENDBRANCH   4   5
ENDBRANCH   3   4
ENDBRANCH   2   3
ENDBRANCH   1   2
BRANCH   1  36
ATOM     36  C   UNL     1       2.711  -2.220   0.252  1.00  0.00     0.202 C 
BRANCH  36  37
ATOM     37  C   UNL     1       2.696  -3.746   0.138  1.00  0.00     0.261 C 
BRANCH  37  38
ATOM     38  O   UNL     1       3.233  -4.284   1.352  1.00  0.00    -0.460 OA
BRANCH  38  39
ATOM     39  C   UNL     1       4.588  -4.349   1.382  1.00  0.00     0.338 C 
ATOM     40  O   UNL     1       5.340  -4.462   0.428  1.00  0.00    -0.246 OA
BRANCH  39  41
ATOM     41  C   UNL     1       5.031  -4.042   2.760  1.00  0.00     0.060 A 
ATOM     42  C   UNL     1       6.272  -3.412   2.932  1.00  0.00     0.016 A 
ATOM     43  C   UNL     1       4.221  -4.320   3.867  1.00  0.00     0.016 A 
ATOM     44  C   UNL     1       6.729  -3.109   4.212  1.00  0.00     0.010 A 
ATOM     45  C   UNL     1       4.674  -4.013   5.146  1.00  0.00     0.010 A 
ATOM     46  C   UNL     1       5.948  -3.450   5.323  1.00  0.00    -0.014 A 
BRANCH  46  47
ATOM     47  C   UNL     1       6.535  -3.439   6.678  1.00  0.00     0.031 A 
ATOM     48  C   UNL     1       7.047  -4.743   7.224  1.00  0.00     0.074 A 
ATOM     49  C   UNL     1       6.559  -2.318   7.417  1.00  0.00     0.049 A 
ATOM     50  N   UNL     1       7.532  -5.015   8.405  1.00  0.00    -0.248 NA
ATOM     51  C   UNL     1       6.989  -5.903   6.315  1.00  0.00     0.031 C 
ATOM     52  C   UNL     1       6.068  -1.010   6.986  1.00  0.00     0.029 A 
ATOM     53  N   UNL     1       6.984  -2.114   8.704  1.00  0.00    -0.354 N 
ATOM     54  C   UNL     1       7.808  -6.376   8.392  1.00  0.00     0.074 A 
ATOM     55  C   UNL     1       7.420  -6.882   7.095  1.00  0.00     0.031 C 
ATOM     56  C   UNL     1       6.190  -0.143   8.007  1.00  0.00     0.029 A 
ATOM     57  C   UNL     1       6.747  -0.840   9.164  1.00  0.00     0.049 A 
ATOM     58  H   UNL     1       7.418  -2.812   9.246  1.00  0.00     0.167 HD
ATOM     59  C   UNL     1       8.356  -7.135   9.368  1.00  0.00     0.034 A 
ATOM     60  C   UNL     1       6.944  -0.314  10.388  1.00  0.00     0.034 A 
ATOM     61  C   UNL     1       8.749  -6.618  10.648  1.00  0.00     0.049 A 
ATOM     62  C   UNL     1       7.551  -1.181  11.462  1.00  0.00     0.074 A 
ATOM     63  C   UNL     1       9.356  -7.284  11.697  1.00  0.00     0.029 A 
ATOM     64  N   UNL     1       8.563  -5.306  11.056  1.00  0.00    -0.354 N 
ATOM     65  N   UNL     1       7.930  -2.436  11.396  1.00  0.00    -0.248 NA
ATOM     66  C   UNL     1       7.792  -0.552  12.768  1.00  0.00     0.031 C 
ATOM     67  C   UNL     1       9.518  -6.376  12.748  1.00  0.00     0.029 A 
ATOM     68  C   UNL     1       9.037  -5.140  12.344  1.00  0.00     0.049 A 
ATOM     69  H   UNL     1       8.153  -4.597  10.509  1.00  0.00     0.167 HD
ATOM     70  C   UNL     1       8.488  -2.735  12.634  1.00  0.00     0.074 A 
ATOM     71  C   UNL     1       8.414  -1.522  13.425  1.00  0.00     0.031 C 
ATOM     72  C   UNL     1       9.002  -3.905  13.086  1.00  0.00     0.034 A 
BRANCH  59  73
ATOM     73  C   UNL     1       8.586  -8.592   9.069  1.00  0.00     0.023 A 
ATOM     74  C   UNL     1       9.607  -8.964   8.169  1.00  0.00     0.012 A 
ATOM     75  C   UNL     1       7.818  -9.592   9.694  1.00  0.00     0.148 A 
ATOM     76  C   UNL     1       9.838 -10.306   7.871  1.00  0.00     0.002 A 
ATOM     77  C   UNL     1       8.083 -10.930   9.425  1.00  0.00     0.091 A 
ATOM     78  F   UNL     1       6.833  -9.218  10.523  1.00  0.00    -0.205 F 
ATOM     79  C   UNL     1       9.083 -11.288   8.506  1.00  0.00     0.022 A 
BRANCH  77  80
ATOM     80  S   UNL     1       7.216 -12.273  10.245  1.00  0.00     0.127 S 
ATOM     81  O   UNL     1       6.406 -12.811   9.153  1.00  0.00    -0.237 OA
ATOM     82  O   UNL     1       8.319 -13.137  10.668  1.00  0.00    -0.237 OA
ATOM     83  O   UNL     1       6.470 -11.662  11.336  1.00  0.00    -0.744 OA
ENDBRANCH  77  80
ENDBRANCH  59  73
BRANCH  60  84
ATOM     84  C   UNL     1       6.611   1.115  10.652  1.00  0.00     0.023 A 
ATOM     85  C   UNL     1       7.651   2.039  10.872  1.00  0.00     0.012 A 
ATOM     86  C   UNL     1       5.277   1.568  10.666  1.00  0.00     0.148 A 
ATOM     87  C   UNL     1       7.369   3.380  11.134  1.00  0.00     0.002 A 
ATOM     88  C   UNL     1       5.005   2.916  10.875  1.00  0.00     0.091 A 
ATOM     89  F   UNL     1       4.300   0.671  10.471  1.00  0.00    -0.205 F 
ATOM     90  C   UNL     1       6.048   3.820  11.126  1.00  0.00     0.022 A 
BRANCH  88  91
ATOM     91  S   UNL     1       3.346   3.593  10.754  1.00  0.00     0.127 S 
ATOM     92  O   UNL     1       3.041   3.890  12.151  1.00  0.00    -0.237 OA
ATOM     93  O   UNL     1       3.559   4.766   9.906  1.00  0.00    -0.237 OA
ATOM     94  O   UNL     1       2.541   2.547  10.137  1.00  0.00    -0.744 OA
ENDBRANCH  88  91
ENDBRANCH  60  84
BRANCH  72  95
ATOM     95  C   UNL     1       9.566  -3.928  14.482  1.00  0.00     0.023 A 
ATOM     96  C   UNL     1       8.696  -3.906  15.589  1.00  0.00     0.012 A 
ATOM     97  C   UNL     1      10.953  -4.057  14.691  1.00  0.00     0.148 A 
ATOM     98  C   UNL     1       9.202  -3.981  16.886  1.00  0.00     0.002 A 
ATOM     99  C   UNL     1      11.445  -4.182  15.984  1.00  0.00     0.091 A 
ATOM    100  F   UNL     1      11.764  -4.059  13.623  1.00  0.00    -0.205 F 
ATOM    101  C   UNL     1      10.573  -4.131  17.083  1.00  0.00     0.022 A 
BRANCH  99 102
ATOM    102  S   UNL     1      13.184  -4.480  16.324  1.00  0.00     0.127 S 
ATOM    103  O   UNL     1      13.616  -3.178  16.830  1.00  0.00    -0.237 OA
ATOM    104  O   UNL     1      13.127  -5.538  17.332  1.00  0.00    -0.237 OA
ATOM    105  O   UNL     1      13.775  -4.887  15.056  1.00  0.00    -0.744 OA
ENDBRANCH  99 102
ENDBRANCH  72  95
ENDBRANCH  46  47
ENDBRANCH  39  41
ENDBRANCH  38  39
ENDBRANCH  37  38
ENDBRANCH  36  37
ENDBRANCH   1  36
TORSDOF 22
