REMARK SMILES COc1cc(F)ccc1NCC(C)(C)C(=O)OCCOCCOC(=O)c1ccc(-c2c3nc(c(-c4cccc(S(=O)(=O)[O-])c4F)c4ccc([nH]4)c(-c4cccc(S(=O)(=O)[O-])c4F)c4nc(c(-c5cccc(S(=O)(=O)[O-])c5F)c5ccc2[nH]5)C=C4)C=C3)cc1
REMARK SMILES IDX 19 1 18 2 17 3 15 4 16 5 12 6 13 7 14 8 11 9 10 10 9 12 3 13
REMARK SMILES IDX 4 14 5 15 8 16 6 17 7 18 2 19 1 20 20 21 21 22 22 23 23 24
REMARK SMILES IDX 24 25 25 26 26 27 27 28 88 29 28 30 87 31 29 32 30 33 31 34
REMARK SMILES IDX 81 35 32 36 86 37 80 38 82 39 33 40 85 41 79 42 78 43 34 45
REMARK SMILES IDX 66 46 46 47 65 48 47 49 50 50 64 51 83 52 48 53 49 54 63 56
REMARK SMILES IDX 84 57 51 58 35 59 36 60 44 61 37 62 39 63 45 64 38 65 40 66
REMARK SMILES IDX 41 67 42 68 43 69 67 70 68 71 76 72 69 73 71 74 77 75 70 76
REMARK SMILES IDX 72 77 73 78 74 79 75 80 52 81 53 82 61 83 54 84 56 85 62 86
REMARK SMILES IDX 55 87 57 88 58 89 59 90 60 91
REMARK H PARENT 10 11 82 44 50 55
REMARK Flexibility Score: inf
ROOT
ATOM      1  C   UNL     1      -0.575  -7.732   1.258  1.00  0.00     0.202 C 
ENDROOT
BRANCH   1   2
ATOM      2  C   UNL     1      -1.101  -6.497   1.995  1.00  0.00     0.261 C 
BRANCH   2   3
ATOM      3  O   UNL     1      -2.222  -5.927   1.302  1.00  0.00    -0.463 OA
BRANCH   3   4
ATOM      4  C   UNL     1      -2.257  -4.569   1.265  1.00  0.00     0.313 C 
ATOM      5  O   UNL     1      -1.512  -3.845   1.916  1.00  0.00    -0.252 OA
BRANCH   4   6
ATOM      6  C   UNL     1      -3.328  -4.033   0.308  1.00  0.00     0.080 C 
ATOM      7  C   UNL     1      -4.041  -2.879   1.033  1.00  0.00     0.025 C 
ATOM      8  C   UNL     1      -4.396  -5.093  -0.039  1.00  0.00     0.025 C 
BRANCH   6   9
ATOM      9  C   UNL     1      -2.682  -3.556  -1.017  1.00  0.00     0.131 C 
BRANCH   9  10
ATOM     10  N   UNL     1      -1.524  -2.695  -0.840  1.00  0.00    -0.381 N 
ATOM     11  H   UNL     1      -1.662  -1.852  -0.350  1.00  0.00     0.160 HD
BRANCH  10  12
ATOM     12  C   UNL     1      -0.239  -2.959  -1.302  1.00  0.00     0.077 A 
ATOM     13  C   UNL     1       0.845  -2.246  -0.737  1.00  0.00     0.144 A 
ATOM     14  C   UNL     1       2.165  -2.497  -1.116  1.00  0.00     0.087 A 
ATOM     15  C   UNL     1       2.412  -3.425  -2.115  1.00  0.00     0.127 A 
ATOM     16  C   UNL     1       0.049  -3.854  -2.339  1.00  0.00     0.032 A 
ATOM     17  F   UNL     1       3.674  -3.671  -2.491  1.00  0.00    -0.207 F 
ATOM     18  C   UNL     1       1.369  -4.095  -2.739  1.00  0.00     0.041 A 
BRANCH  13  19
ATOM     19  O   UNL     1       0.550  -1.347   0.266  1.00  0.00    -0.494 OA
ATOM     20  C   UNL     1       1.070  -0.048  -0.004  1.00  0.00     0.278 C 
ENDBRANCH  13  19
ENDBRANCH  10  12
ENDBRANCH   9  10
ENDBRANCH   6   9
ENDBRANCH   4   6
ENDBRANCH   3   4
ENDBRANCH   2   3
ENDBRANCH   1   2
BRANCH   1  21
ATOM     21  O   UNL     1      -0.124  -7.534  -0.083  1.00  0.00    -0.374 OA
BRANCH  21  22
ATOM     22  C   UNL     1      -1.105  -7.249  -1.077  1.00  0.00     0.202 C 
BRANCH  22  23
ATOM     23  C   UNL     1      -2.005  -8.404  -1.532  1.00  0.00     0.261 C 
BRANCH  23  24
ATOM     24  O   UNL     1      -2.807  -8.947  -0.469  1.00  0.00    -0.460 OA
BRANCH  24  25
ATOM     25  C   UNL     1      -2.481 -10.216  -0.126  1.00  0.00     0.338 C 
ATOM     26  O   UNL     1      -1.653 -10.935  -0.673  1.00  0.00    -0.246 OA
BRANCH  25  27
ATOM     27  C   UNL     1      -3.136 -10.612   1.133  1.00  0.00     0.060 A 
ATOM     28  C   UNL     1      -2.312 -11.130   2.140  1.00  0.00     0.016 A 
ATOM     29  C   UNL     1      -4.525 -10.609   1.281  1.00  0.00     0.016 A 
ATOM     30  C   UNL     1      -2.875 -11.735   3.257  1.00  0.00     0.010 A 
ATOM     31  C   UNL     1      -5.091 -11.221   2.407  1.00  0.00     0.010 A 
ATOM     32  C   UNL     1      -4.268 -11.841   3.365  1.00  0.00    -0.014 A 
BRANCH  32  33
ATOM     33  C   UNL     1      -4.824 -12.787   4.362  1.00  0.00     0.031 A 
ATOM     34  C   UNL     1      -5.212 -14.170   3.908  1.00  0.00     0.074 A 
ATOM     35  C   UNL     1      -4.904 -12.457   5.663  1.00  0.00     0.049 A 
ATOM     36  N   UNL     1      -5.614 -15.190   4.618  1.00  0.00    -0.248 NA
ATOM     37  C   UNL     1      -5.128 -14.441   2.462  1.00  0.00     0.031 C 
ATOM     38  C   UNL     1      -4.548 -11.156   6.223  1.00  0.00     0.029 A 
ATOM     39  N   UNL     1      -5.309 -13.195   6.747  1.00  0.00    -0.354 N 
ATOM     40  C   UNL     1      -5.843 -16.216   3.710  1.00  0.00     0.074 A 
ATOM     41  C   UNL     1      -5.564 -15.691   2.393  1.00  0.00     0.031 C 
ATOM     42  C   UNL     1      -4.754 -11.184   7.551  1.00  0.00     0.029 A 
ATOM     43  C   UNL     1      -5.267 -12.501   7.931  1.00  0.00     0.049 A 
ATOM     44  H   UNL     1      -5.602 -14.132   6.681  1.00  0.00     0.167 HD
ATOM     45  C   UNL     1      -6.220 -17.493   3.952  1.00  0.00     0.034 A 
ATOM     46  C   UNL     1      -5.603 -12.883   9.181  1.00  0.00     0.034 A 
ATOM     47  C   UNL     1      -6.460 -18.026   5.263  1.00  0.00     0.049 A 
ATOM     48  C   UNL     1      -6.059 -14.299   9.423  1.00  0.00     0.074 A 
ATOM     49  C   UNL     1      -6.779 -19.324   5.615  1.00  0.00     0.029 A 
ATOM     50  N   UNL     1      -6.419 -17.288   6.435  1.00  0.00    -0.354 N 
ATOM     51  N   UNL     1      -6.141 -15.293   8.572  1.00  0.00    -0.248 NA
ATOM     52  C   UNL     1      -6.442 -14.655  10.798  1.00  0.00     0.031 C 
ATOM     53  C   UNL     1      -6.959 -19.366   7.000  1.00  0.00     0.029 A 
ATOM     54  C   UNL     1      -6.734 -18.097   7.512  1.00  0.00     0.049 A 
ATOM     55  H   UNL     1      -6.199 -16.330   6.493  1.00  0.00     0.167 HD
ATOM     56  C   UNL     1      -6.567 -16.395   9.307  1.00  0.00     0.074 A 
ATOM     57  C   UNL     1      -6.708 -15.951  10.679  1.00  0.00     0.031 C 
ATOM     58  C   UNL     1      -6.833 -17.654   8.880  1.00  0.00     0.034 A 
BRANCH  45  59
ATOM     59  C   UNL     1      -6.348 -18.421   2.774  1.00  0.00     0.023 A 
ATOM     60  C   UNL     1      -5.184 -18.907   2.146  1.00  0.00     0.012 A 
ATOM     61  C   UNL     1      -7.610 -18.860   2.330  1.00  0.00     0.148 A 
ATOM     62  C   UNL     1      -5.273 -19.797   1.077  1.00  0.00     0.002 A 
ATOM     63  C   UNL     1      -7.690 -19.778   1.289  1.00  0.00     0.091 A 
ATOM     64  F   UNL     1      -8.705 -18.366   2.924  1.00  0.00    -0.205 F 
ATOM     65  C   UNL     1      -6.524 -20.241   0.657  1.00  0.00     0.022 A 
BRANCH  63  66
ATOM     66  S   UNL     1      -9.251 -20.463   0.724  1.00  0.00     0.127 S 
ATOM     67  O   UNL     1      -9.427 -19.778  -0.556  1.00  0.00    -0.237 OA
ATOM     68  O   UNL     1      -8.943 -21.889   0.615  1.00  0.00    -0.237 OA
ATOM     69  O   UNL     1     -10.228 -20.131   1.752  1.00  0.00    -0.744 OA
ENDBRANCH  63  66
ENDBRANCH  45  59
BRANCH  46  70
ATOM     70  C   UNL     1      -5.460 -11.911  10.301  1.00  0.00     0.023 A 
ATOM     71  C   UNL     1      -4.429 -12.084  11.243  1.00  0.00     0.012 A 
ATOM     72  C   UNL     1      -6.289 -10.774  10.387  1.00  0.00     0.148 A 
ATOM     73  C   UNL     1      -4.227 -11.144  12.254  1.00  0.00     0.002 A 
ATOM     74  C   UNL     1      -6.049  -9.816  11.364  1.00  0.00     0.091 A 
ATOM     75  F   UNL     1      -7.274 -10.639   9.489  1.00  0.00    -0.205 F 
ATOM     76  C   UNL     1      -5.026 -10.004  12.306  1.00  0.00     0.022 A 
BRANCH  74  77
ATOM     77  S   UNL     1      -6.937  -8.255  11.428  1.00  0.00     0.127 S 
ATOM     78  O   UNL     1      -7.649  -8.367  12.699  1.00  0.00    -0.237 OA
ATOM     79  O   UNL     1      -5.839  -7.287  11.420  1.00  0.00    -0.237 OA
ATOM     80  O   UNL     1      -7.776  -8.227  10.238  1.00  0.00    -0.744 OA
ENDBRANCH  74  77
ENDBRANCH  46  70
BRANCH  58  81
ATOM     81  C   UNL     1      -7.321 -18.665   9.884  1.00  0.00     0.023 A 
ATOM     82  C   UNL     1      -8.661 -18.613  10.312  1.00  0.00     0.012 A 
ATOM     83  C   UNL     1      -6.510 -19.752  10.269  1.00  0.00     0.148 A 
ATOM     84  C   UNL     1      -9.188 -19.626  11.112  1.00  0.00     0.002 A 
ATOM     85  C   UNL     1      -7.055 -20.780  11.030  1.00  0.00     0.091 A 
ATOM     86  F   UNL     1      -5.236 -19.776   9.853  1.00  0.00    -0.205 F 
ATOM     87  C   UNL     1      -8.392 -20.715  11.457  1.00  0.00     0.022 A 
BRANCH  85  88
ATOM     88  S   UNL     1      -6.143 -22.273  11.441  1.00  0.00     0.127 S 
ATOM     89  O   UNL     1      -6.045 -22.171  12.897  1.00  0.00    -0.237 OA
ATOM     90  O   UNL     1      -7.042 -23.324  10.963  1.00  0.00    -0.237 OA
ATOM     91  O   UNL     1      -4.876 -22.184  10.729  1.00  0.00    -0.744 OA
ENDBRANCH  85  88
ENDBRANCH  58  81
ENDBRANCH  32  33
ENDBRANCH  25  27
ENDBRANCH  24  25
ENDBRANCH  23  24
ENDBRANCH  22  23
ENDBRANCH  21  22
ENDBRANCH   1  21
TORSDOF 21
