REMARK SMILES CC(C)(NC(=O)[C@]1(C)CCCO1)C(C)(C)C(=O)OCCOCCOC(=O)c1ccc(-c2c3nc(c(-c4cccc(S(=O)(=O)[O-])c4F)c4ccc([nH]4)c(-c4cccc(S(=O)(=O)[O-])c4F)c4nc(c(-c5cccc(S(=O)(=O)[O-])c5F)c5ccc2[nH]5)C=C4)C=C3)cc1
REMARK SMILES IDX 21 1 20 2 19 3 18 4 16 5 17 6 13 7 14 8 15 9 2 10 1 11 3 12
REMARK SMILES IDX 4 13 5 14 6 16 7 17 9 18 12 19 8 20 10 21 11 22 22 23 23 24
REMARK SMILES IDX 24 25 25 26 26 27 27 28 28 29 89 30 29 31 88 32 30 33 31 34
REMARK SMILES IDX 32 35 82 36 33 37 87 38 81 39 83 40 34 41 86 42 80 43 79 44
REMARK SMILES IDX 35 46 67 47 47 48 66 49 48 50 51 51 65 52 84 53 49 54 50 55
REMARK SMILES IDX 64 57 85 58 52 59 36 60 37 61 45 62 38 63 40 64 46 65 39 66
REMARK SMILES IDX 41 67 42 68 43 69 44 70 68 71 69 72 77 73 70 74 72 75 78 76
REMARK SMILES IDX 71 77 73 78 74 79 75 80 76 81 53 82 54 83 62 84 55 85 57 86
REMARK SMILES IDX 63 87 56 88 58 89 59 90 60 91 61 92
REMARK H PARENT 4 15 83 45 51 56
REMARK Flexibility Score: inf
ROOT
ATOM      1  O   UNL     1       3.047  -3.556   2.764  1.00  0.00    -0.374 OA
ENDROOT
BRANCH   1   2
ATOM      2  C   UNL     1       1.942  -3.281   3.637  1.00  0.00     0.202 C 
BRANCH   2   3
ATOM      3  C   UNL     1       0.342  -2.995   3.225  1.00  0.00     0.261 C 
BRANCH   3   4
ATOM      4  O   UNL     1      -0.553  -3.904   2.006  1.00  0.00    -0.463 OA
BRANCH   4   5
ATOM      5  C   UNL     1      -0.379  -5.292   0.714  1.00  0.00     0.313 C 
ATOM      6  O   UNL     1       0.734  -5.855   0.459  1.00  0.00    -0.252 OA
BRANCH   5   7
ATOM      7  C   UNL     1      -1.488  -6.025  -0.235  1.00  0.00     0.085 C 
ATOM      8  C   UNL     1      -3.020  -5.809  -0.328  1.00  0.00     0.026 C 
ATOM      9  C   UNL     1      -1.357  -7.550   0.160  1.00  0.00     0.026 C 
BRANCH   7  10
ATOM     10  C   UNL     1      -0.844  -5.794  -1.703  1.00  0.00     0.050 C 
ATOM     11  C   UNL     1      -1.653  -6.503  -2.821  1.00  0.00     0.035 C 
ATOM     12  C   UNL     1       0.615  -6.322  -1.956  1.00  0.00     0.035 C 
BRANCH  10  13
ATOM     13  N   UNL     1      -0.854  -4.356  -2.018  1.00  0.00    -0.348 N 
ATOM     14  C   UNL     1      -0.843  -3.239  -1.249  1.00  0.00     0.252 C 
ATOM     15  H   UNL     1      -0.873  -4.167  -2.984  1.00  0.00     0.164 HD
ATOM     16  O   UNL     1      -0.735  -2.183  -1.888  1.00  0.00    -0.272 OA
BRANCH  14  17
ATOM     17  C   UNL     1      -0.852  -3.226   0.329  1.00  0.00     0.143 C 
ATOM     18  C   UNL     1       0.946  -3.766   1.044  1.00  0.00     0.048 C 
ATOM     19  O   UNL     1      -2.129  -4.261   1.215  1.00  0.00    -0.365 OA
ATOM     20  C   UNL     1      -1.369  -1.815   0.782  1.00  0.00     0.053 C 
ATOM     21  C   UNL     1       0.561  -5.223   2.489  1.00  0.00     0.032 C 
ATOM     22  C   UNL     1      -1.434  -5.375   2.571  1.00  0.00     0.162 C 
ENDBRANCH  14  17
ENDBRANCH  10  13
ENDBRANCH   7  10
ENDBRANCH   5   7
ENDBRANCH   4   5
ENDBRANCH   3   4
ENDBRANCH   2   3
ENDBRANCH   1   2
BRANCH   1  23
ATOM     23  C   UNL     1       3.473  -4.808   2.197  1.00  0.00     0.202 C 
BRANCH  23  24
ATOM     24  C   UNL     1       3.419  -6.240   2.797  1.00  0.00     0.261 C 
BRANCH  24  25
ATOM     25  O   UNL     1       2.632  -6.421   3.966  1.00  0.00    -0.460 OA
BRANCH  25  26
ATOM     26  C   UNL     1       3.304  -6.274   5.119  1.00  0.00     0.338 C 
ATOM     27  O   UNL     1       4.504  -6.117   5.256  1.00  0.00    -0.246 OA
BRANCH  26  28
ATOM     28  C   UNL     1       2.314  -6.066   6.186  1.00  0.00     0.060 A 
ATOM     29  C   UNL     1       2.422  -4.856   6.875  1.00  0.00     0.016 A 
ATOM     30  C   UNL     1       1.316  -6.993   6.506  1.00  0.00     0.016 A 
ATOM     31  C   UNL     1       1.572  -4.585   7.933  1.00  0.00     0.010 A 
ATOM     32  C   UNL     1       0.476  -6.730   7.595  1.00  0.00     0.010 A 
ATOM     33  C   UNL     1       0.636  -5.544   8.336  1.00  0.00    -0.014 A 
BRANCH  33  34
ATOM     34  C   UNL     1      -0.015  -5.349   9.649  1.00  0.00     0.031 A 
ATOM     35  C   UNL     1       0.546  -6.069  10.844  1.00  0.00     0.074 A 
ATOM     36  C   UNL     1      -1.014  -4.462   9.793  1.00  0.00     0.049 A 
ATOM     37  N   UNL     1       0.181  -6.000  12.096  1.00  0.00    -0.248 NA
ATOM     38  C   UNL     1       1.677  -6.979  10.595  1.00  0.00     0.031 C 
ATOM     39  C   UNL     1      -1.603  -3.672   8.714  1.00  0.00     0.029 A 
ATOM     40  N   UNL     1      -1.708  -4.080  10.912  1.00  0.00    -0.354 N 
ATOM     41  C   UNL     1       1.014  -6.875  12.781  1.00  0.00     0.074 A 
ATOM     42  C   UNL     1       1.900  -7.471  11.805  1.00  0.00     0.031 C 
ATOM     43  C   UNL     1      -2.590  -2.913   9.221  1.00  0.00     0.029 A 
ATOM     44  C   UNL     1      -2.719  -3.189  10.650  1.00  0.00     0.049 A 
ATOM     45  H   UNL     1      -1.501  -4.413  11.815  1.00  0.00     0.167 HD
ATOM     46  C   UNL     1       1.044  -7.152  14.105  1.00  0.00     0.034 A 
ATOM     47  C   UNL     1      -3.661  -2.679  11.469  1.00  0.00     0.034 A 
ATOM     48  C   UNL     1       0.166  -6.550  15.072  1.00  0.00     0.049 A 
ATOM     49  C   UNL     1      -3.644  -3.051  12.928  1.00  0.00     0.074 A 
ATOM     50  C   UNL     1       0.139  -6.739  16.442  1.00  0.00     0.029 A 
ATOM     51  N   UNL     1      -0.855  -5.662  14.770  1.00  0.00    -0.354 N 
ATOM     52  N   UNL     1      -2.794  -3.809  13.578  1.00  0.00    -0.248 NA
ATOM     53  C   UNL     1      -4.701  -2.475  13.772  1.00  0.00     0.031 C 
ATOM     54  C   UNL     1      -0.932  -6.006  16.962  1.00  0.00     0.029 A 
ATOM     55  C   UNL     1      -1.537  -5.315  15.924  1.00  0.00     0.049 A 
ATOM     56  H   UNL     1      -1.065  -5.327  13.868  1.00  0.00     0.167 HD
ATOM     57  C   UNL     1      -3.193  -3.774  14.911  1.00  0.00     0.074 A 
ATOM     58  C   UNL     1      -4.346  -2.900  14.976  1.00  0.00     0.031 C 
ATOM     59  C   UNL     1      -2.661  -4.415  15.981  1.00  0.00     0.034 A 
BRANCH  46  60
ATOM     60  C   UNL     1       2.051  -8.163  14.587  1.00  0.00     0.023 A 
ATOM     61  C   UNL     1       3.424  -7.844  14.604  1.00  0.00     0.012 A 
ATOM     62  C   UNL     1       1.626  -9.416  15.071  1.00  0.00     0.148 A 
ATOM     63  C   UNL     1       4.361  -8.769  15.064  1.00  0.00     0.002 A 
ATOM     64  C   UNL     1       2.560 -10.312  15.574  1.00  0.00     0.091 A 
ATOM     65  F   UNL     1       0.319  -9.708  15.025  1.00  0.00    -0.205 F 
ATOM     66  C   UNL     1       3.928  -9.997  15.559  1.00  0.00     0.022 A 
BRANCH  64  67
ATOM     67  S   UNL     1       2.096 -11.885  16.306  1.00  0.00     0.127 S 
ATOM     68  O   UNL     1       2.642 -12.834  15.337  1.00  0.00    -0.237 OA
ATOM     69  O   UNL     1       2.803 -11.846  17.587  1.00  0.00    -0.237 OA
ATOM     70  O   UNL     1       0.643 -11.869  16.410  1.00  0.00    -0.744 OA
ENDBRANCH  64  67
ENDBRANCH  46  60
BRANCH  47  71
ATOM     71  C   UNL     1      -4.706  -1.769  10.924  1.00  0.00     0.023 A 
ATOM     72  C   UNL     1      -4.743  -0.419  11.323  1.00  0.00     0.012 A 
ATOM     73  C   UNL     1      -5.666  -2.242  10.008  1.00  0.00     0.148 A 
ATOM     74  C   UNL     1      -5.739   0.434  10.845  1.00  0.00     0.002 A 
ATOM     75  C   UNL     1      -6.617  -1.374   9.491  1.00  0.00     0.091 A 
ATOM     76  F   UNL     1      -5.621  -3.534   9.654  1.00  0.00    -0.205 F 
ATOM     77  C   UNL     1      -6.669  -0.040   9.922  1.00  0.00     0.022 A 
BRANCH  75  78
ATOM     78  S   UNL     1      -7.773  -1.865   8.208  1.00  0.00     0.127 S 
ATOM     79  O   UNL     1      -9.050  -1.799   8.914  1.00  0.00    -0.237 OA
ATOM     80  O   UNL     1      -7.566  -0.820   7.205  1.00  0.00    -0.237 OA
ATOM     81  O   UNL     1      -7.354  -3.196   7.787  1.00  0.00    -0.744 OA
ENDBRANCH  75  78
ENDBRANCH  47  71
BRANCH  59  82
ATOM     82  C   UNL     1      -3.292  -4.169  17.329  1.00  0.00     0.023 A 
ATOM     83  C   UNL     1      -4.571  -4.684  17.616  1.00  0.00     0.012 A 
ATOM     84  C   UNL     1      -2.583  -3.480  18.334  1.00  0.00     0.148 A 
ATOM     85  C   UNL     1      -5.153  -4.481  18.868  1.00  0.00     0.002 A 
ATOM     86  C   UNL     1      -3.145  -3.330  19.596  1.00  0.00     0.091 A 
ATOM     87  F   UNL     1      -1.372  -2.986  18.038  1.00  0.00    -0.205 F 
ATOM     88  C   UNL     1      -4.436  -3.815  19.860  1.00  0.00     0.022 A 
BRANCH  86  89
ATOM     89  S   UNL     1      -2.261  -2.575  20.964  1.00  0.00     0.127 S 
ATOM     90  O   UNL     1      -3.017  -1.339  21.161  1.00  0.00    -0.237 OA
ATOM     91  O   UNL     1      -2.429  -3.569  22.025  1.00  0.00    -0.237 OA
ATOM     92  O   UNL     1      -0.888  -2.397  20.510  1.00  0.00    -0.744 OA
ENDBRANCH  86  89
ENDBRANCH  59  82
ENDBRANCH  33  34
ENDBRANCH  26  28
ENDBRANCH  25  26
ENDBRANCH  24  25
ENDBRANCH  23  24
ENDBRANCH   1  23
TORSDOF 20
