REMARK SMILES O=C(CCc1nnc(CSc2ccccc2)o1)OCCOCCOC(=O)c1ccc(-c2c3nc(c(-c4cccc(S(=O)(=O)[O-])c4F)c4ccc([nH]4)c(-c4cccc(S(=O)(=O)[O-])c4F)c4nc(c(-c5cccc(S(=O)(=O)[O-])c5F)c5ccc2[nH]5)C=C4)C=C3)cc1
REMARK SMILES IDX 20 1 19 2 18 3 2 4 1 5 3 6 4 7 5 8 6 9 17 10 7 11 8 12 9 13
REMARK SMILES IDX 10 14 11 15 12 16 16 17 13 18 15 19 14 20 21 21 22 22 23 23
REMARK SMILES IDX 24 24 25 25 26 26 27 27 28 28 89 29 29 30 88 31 30 32 31 33
REMARK SMILES IDX 32 34 82 35 33 36 87 37 81 38 83 39 34 40 86 41 80 42 79 43
REMARK SMILES IDX 35 45 67 46 47 47 66 48 48 49 51 50 65 51 84 52 49 53 50 54
REMARK SMILES IDX 64 56 85 57 52 58 36 59 37 60 45 61 38 62 40 63 46 64 39 65
REMARK SMILES IDX 41 66 42 67 43 68 44 69 68 70 69 71 77 72 70 73 72 74 78 75
REMARK SMILES IDX 71 76 73 77 74 78 75 79 76 80 53 81 54 82 62 83 55 84 57 85
REMARK SMILES IDX 63 86 56 87 58 88 59 89 60 90 61 91
REMARK H PARENT 83 44 51 55
REMARK Flexibility Score: inf
ROOT
ATOM      1  C   UNL     1       3.897  -1.588   0.108  1.00  0.00     0.202 C 
ENDROOT
BRANCH   1   2
ATOM      2  C   UNL     1       3.203  -0.663   1.110  1.00  0.00     0.261 C 
BRANCH   2   3
ATOM      3  O   UNL     1       2.097   0.073   0.586  1.00  0.00    -0.463 OA
BRANCH   3   4
ATOM      4  C   UNL     1       2.257   1.358   0.200  1.00  0.00     0.306 C 
ATOM      5  O   UNL     1       1.364   2.181   0.387  1.00  0.00    -0.252 OA
BRANCH   4   6
ATOM      6  C   UNL     1       3.481   1.713  -0.610  1.00  0.00     0.132 C 
BRANCH   6   7
ATOM      7  C   UNL     1       4.401   2.720   0.061  1.00  0.00     0.111 C 
BRANCH   7   8
ATOM      8  C   UNL     1       5.395   2.150   1.011  1.00  0.00     0.217 A 
ATOM      9  N   UNL     1       5.878   2.699   2.103  1.00  0.00    -0.113 NA
ATOM     10  O   UNL     1       5.903   0.891   0.791  1.00  0.00    -0.424 OA
ATOM     11  N   UNL     1       6.697   1.760   2.691  1.00  0.00    -0.112 NA
ATOM     12  C   UNL     1       6.674   0.694   1.919  1.00  0.00     0.226 A 
BRANCH  12  13
ATOM     13  C   UNL     1       7.160  -0.682   2.212  1.00  0.00     0.174 C 
BRANCH  13  14
ATOM     14  S   UNL     1       8.919  -0.963   1.847  1.00  0.00    -0.116 SA
BRANCH  14  15
ATOM     15  C   UNL     1       8.842  -1.351   0.110  1.00  0.00     0.008 A 
ATOM     16  C   UNL     1       8.997  -2.669  -0.333  1.00  0.00     0.015 A 
ATOM     17  C   UNL     1       8.703  -0.328  -0.829  1.00  0.00     0.015 A 
ATOM     18  C   UNL     1       8.970  -2.963  -1.699  1.00  0.00     0.001 A 
ATOM     19  C   UNL     1       8.692  -0.619  -2.194  1.00  0.00     0.001 A 
ATOM     20  C   UNL     1       8.819  -1.937  -2.629  1.00  0.00     0.000 A 
ENDBRANCH  14  15
ENDBRANCH  13  14
ENDBRANCH  12  13
ENDBRANCH   7   8
ENDBRANCH   6   7
ENDBRANCH   4   6
ENDBRANCH   3   4
ENDBRANCH   2   3
ENDBRANCH   1   2
BRANCH   1  21
ATOM     21  O   UNL     1       3.598  -1.389  -1.270  1.00  0.00    -0.374 OA
BRANCH  21  22
ATOM     22  C   UNL     1       2.352  -1.940  -1.699  1.00  0.00     0.202 C 
BRANCH  22  23
ATOM     23  C   UNL     1       2.437  -3.412  -2.123  1.00  0.00     0.261 C 
BRANCH  23  24
ATOM     24  O   UNL     1       2.897  -4.244  -1.043  1.00  0.00    -0.460 OA
BRANCH  24  25
ATOM     25  C   UNL     1       4.196  -4.625  -1.135  1.00  0.00     0.338 C 
ATOM     26  O   UNL     1       4.926  -4.504  -2.107  1.00  0.00    -0.246 OA
BRANCH  25  27
ATOM     27  C   UNL     1       4.702  -5.031   0.198  1.00  0.00     0.060 A 
ATOM     28  C   UNL     1       5.986  -4.593   0.546  1.00  0.00     0.016 A 
ATOM     29  C   UNL     1       3.964  -5.809   1.094  1.00  0.00     0.016 A 
ATOM     30  C   UNL     1       6.569  -4.992   1.747  1.00  0.00     0.010 A 
ATOM     31  C   UNL     1       4.552  -6.215   2.300  1.00  0.00     0.010 A 
ATOM     32  C   UNL     1       5.876  -5.850   2.608  1.00  0.00    -0.014 A 
BRANCH  32  33
ATOM     33  C   UNL     1       6.621  -6.512   3.709  1.00  0.00     0.031 A 
ATOM     34  C   UNL     1       7.123  -7.917   3.494  1.00  0.00     0.074 A 
ATOM     35  C   UNL     1       6.907  -5.866   4.854  1.00  0.00     0.049 A 
ATOM     36  N   UNL     1       7.828  -8.677   4.291  1.00  0.00    -0.248 NA
ATOM     37  C   UNL     1       6.790  -8.545   2.204  1.00  0.00     0.031 C 
ATOM     38  C   UNL     1       6.494  -4.504   5.184  1.00  0.00     0.029 A 
ATOM     39  N   UNL     1       7.605  -6.285   5.960  1.00  0.00    -0.354 N 
ATOM     40  C   UNL     1       8.016  -9.872   3.606  1.00  0.00     0.074 A 
ATOM     41  C   UNL     1       7.328  -9.747   2.340  1.00  0.00     0.031 C 
ATOM     42  C   UNL     1       6.921  -4.209   6.425  1.00  0.00     0.029 A 
ATOM     43  C   UNL     1       7.624  -5.365   6.981  1.00  0.00     0.049 A 
ATOM     44  H   UNL     1       8.050  -7.161   6.016  1.00  0.00     0.167 HD
ATOM     45  C   UNL     1       8.718 -10.968   3.981  1.00  0.00     0.034 A 
ATOM     46  C   UNL     1       8.132  -5.454   8.227  1.00  0.00     0.034 A 
ATOM     47  C   UNL     1       9.404 -11.100   5.237  1.00  0.00     0.049 A 
ATOM     48  C   UNL     1       8.875  -6.701   8.637  1.00  0.00     0.074 A 
ATOM     49  C   UNL     1      10.146 -12.171   5.704  1.00  0.00     0.029 A 
ATOM     50  N   UNL     1       9.427 -10.136   6.231  1.00  0.00    -0.354 N 
ATOM     51  N   UNL     1       9.131  -7.780   7.938  1.00  0.00    -0.248 NA
ATOM     52  C   UNL     1       9.435  -6.724   9.997  1.00  0.00     0.031 C 
ATOM     53  C   UNL     1      10.599 -11.862   6.991  1.00  0.00     0.029 A 
ATOM     54  C   UNL     1      10.165 -10.586   7.312  1.00  0.00     0.049 A 
ATOM     55  H   UNL     1       8.983  -9.258   6.177  1.00  0.00     0.167 HD
ATOM     56  C   UNL     1       9.906  -8.594   8.759  1.00  0.00     0.074 A 
ATOM     57  C   UNL     1      10.104  -7.869   9.997  1.00  0.00     0.031 C 
ATOM     58  C   UNL     1      10.395  -9.837   8.521  1.00  0.00     0.034 A 
BRANCH  45  59
ATOM     59  C   UNL     1       8.801 -12.105   2.997  1.00  0.00     0.023 A 
ATOM     60  C   UNL     1       9.611 -11.972   1.850  1.00  0.00     0.012 A 
ATOM     61  C   UNL     1       8.117 -13.314   3.225  1.00  0.00     0.148 A 
ATOM     62  C   UNL     1       9.715 -13.013   0.929  1.00  0.00     0.002 A 
ATOM     63  C   UNL     1       8.259 -14.363   2.325  1.00  0.00     0.091 A 
ATOM     64  F   UNL     1       7.334 -13.411   4.308  1.00  0.00    -0.205 F 
ATOM     65  C   UNL     1       9.048 -14.211   1.172  1.00  0.00     0.022 A 
BRANCH  63  66
ATOM     66  S   UNL     1       7.499 -15.970   2.579  1.00  0.00     0.127 S 
ATOM     67  O   UNL     1       6.495 -15.992   1.517  1.00  0.00    -0.237 OA
ATOM     68  O   UNL     1       8.626 -16.879   2.372  1.00  0.00    -0.237 OA
ATOM     69  O   UNL     1       6.970 -15.954   3.936  1.00  0.00    -0.744 OA
ENDBRANCH  63  66
ENDBRANCH  45  59
BRANCH  46  70
ATOM     70  C   UNL     1       7.968  -4.322   9.185  1.00  0.00     0.023 A 
ATOM     71  C   UNL     1       9.092  -3.586   9.606  1.00  0.00     0.012 A 
ATOM     72  C   UNL     1       6.698  -3.983   9.690  1.00  0.00     0.148 A 
ATOM     73  C   UNL     1       8.959  -2.557  10.540  1.00  0.00     0.002 A 
ATOM     74  C   UNL     1       6.564  -2.921  10.575  1.00  0.00     0.091 A 
ATOM     75  F   UNL     1       5.643  -4.710   9.296  1.00  0.00    -0.205 F 
ATOM     76  C   UNL     1       7.695  -2.218  11.017  1.00  0.00     0.022 A 
BRANCH  74  77
ATOM     77  S   UNL     1       4.960  -2.338  11.136  1.00  0.00     0.127 S 
ATOM     78  O   UNL     1       4.947  -2.787  12.525  1.00  0.00    -0.237 OA
ATOM     79  O   UNL     1       5.084  -0.891  10.955  1.00  0.00    -0.237 OA
ATOM     80  O   UNL     1       3.987  -2.969  10.254  1.00  0.00    -0.744 OA
ENDBRANCH  74  77
ENDBRANCH  46  70
BRANCH  58  81
ATOM     81  C   UNL     1      11.220 -10.484   9.605  1.00  0.00     0.023 A 
ATOM     82  C   UNL     1      10.599 -10.922  10.793  1.00  0.00     0.012 A 
ATOM     83  C   UNL     1      12.601 -10.704   9.429  1.00  0.00     0.148 A 
ATOM     84  C   UNL     1      11.346 -11.526  11.804  1.00  0.00     0.002 A 
ATOM     85  C   UNL     1      13.329 -11.352  10.420  1.00  0.00     0.091 A 
ATOM     86  F   UNL     1      13.181 -10.266   8.302  1.00  0.00    -0.205 F 
ATOM     87  C   UNL     1      12.707 -11.750  11.614  1.00  0.00     0.022 A 
BRANCH  85  88
ATOM     88  S   UNL     1      15.066 -11.767  10.218  1.00  0.00     0.127 S 
ATOM     89  O   UNL     1      15.713 -10.758  11.054  1.00  0.00    -0.237 OA
ATOM     90  O   UNL     1      15.126 -13.129  10.751  1.00  0.00    -0.237 OA
ATOM     91  O   UNL     1      15.334 -11.668   8.790  1.00  0.00    -0.744 OA
ENDBRANCH  85  88
ENDBRANCH  58  81
ENDBRANCH  32  33
ENDBRANCH  25  27
ENDBRANCH  24  25
ENDBRANCH  23  24
ENDBRANCH  22  23
ENDBRANCH  21  22
ENDBRANCH   1  21
TORSDOF 22
