REMARK SMILES C[C@@](NC(=O)CCOC1CC[NH2+]CC1)(C(=O)OCCOCCOC(=O)c1ccc(-c2c3nc(c(-c4cccc(S(=O)(=O)[O-])c4F)c4ccc([nH]4)c(-c4cccc(S(=O)(=O)[O-])c4F)c4nc(c(-c5cccc(S(=O)(=O)[O-])c5F)c5ccc2[nH]5)C=C4)C=C3)cc1)C(F)(F)F
REMARK SMILES IDX 19 1 18 2 17 3 15 4 16 5 2 6 1 7 3 8 4 9 5 11 6 12 7 13 8 14
REMARK SMILES IDX 9 15 10 16 14 17 11 18 13 19 12 20 89 23 90 24 91 25 92 26
REMARK SMILES IDX 20 27 21 28 22 29 23 30 24 31 25 32 26 33 27 34 88 35 28 36
REMARK SMILES IDX 87 37 29 38 30 39 31 40 81 41 32 42 86 43 80 44 82 45 33 46
REMARK SMILES IDX 85 47 79 48 78 49 34 51 66 52 46 53 65 54 47 55 50 56 64 57
REMARK SMILES IDX 83 58 48 59 49 60 63 62 84 63 51 64 35 65 36 66 44 67 37 68
REMARK SMILES IDX 39 69 45 70 38 71 40 72 41 73 42 74 43 75 67 76 68 77 76 78
REMARK SMILES IDX 69 79 71 80 77 81 70 82 72 83 73 84 74 85 75 86 52 87 53 88
REMARK SMILES IDX 61 89 54 90 56 91 62 92 55 93 57 94 58 95 59 96 60 97
REMARK H PARENT 3 10 12 21 12 22 82 50 50 61
REMARK Flexibility Score: inf
ROOT
ATOM      1  C   UNL     1      -4.632  -0.468  -0.669  1.00  0.00     0.202 C 
ENDROOT
BRANCH   1   2
ATOM      2  C   UNL     1      -4.227  -1.945  -0.621  1.00  0.00     0.261 C 
BRANCH   2   3
ATOM      3  O   UNL     1      -2.796  -1.994  -0.541  1.00  0.00    -0.461 OA
BRANCH   3   4
ATOM      4  C   UNL     1      -2.113  -2.969  -1.196  1.00  0.00     0.341 C 
ATOM      5  O   UNL     1      -2.637  -3.958  -1.694  1.00  0.00    -0.249 OA
BRANCH   4   6
ATOM      6  C   UNL     1      -0.614  -2.679  -1.144  1.00  0.00     0.231 C 
ATOM      7  C   UNL     1      -0.326  -1.190  -0.948  1.00  0.00     0.058 C 
BRANCH   6   8
ATOM      8  N   UNL     1       0.106  -3.542  -0.148  1.00  0.00    -0.333 N 
ATOM      9  C   UNL     1       0.160  -3.578   1.209  1.00  0.00     0.223 C 
ATOM     10  H   UNL     1       0.663  -4.235  -0.572  1.00  0.00     0.164 HD
ATOM     11  O   UNL     1       1.008  -4.318   1.715  1.00  0.00    -0.275 OA
BRANCH   9  12
ATOM     12  C   UNL     1      -0.765  -2.756   2.070  1.00  0.00     0.128 C 
BRANCH  12  13
ATOM     13  C   UNL     1      -0.063  -1.527   2.635  1.00  0.00     0.170 C 
BRANCH  13  14
ATOM     14  O   UNL     1       0.623  -0.849   1.586  1.00  0.00    -0.377 OA
BRANCH  14  15
ATOM     15  C   UNL     1       1.958  -0.425   1.870  1.00  0.00     0.129 C 
ATOM     16  C   UNL     1       1.952   1.090   2.003  1.00  0.00     0.093 C 
ATOM     17  C   UNL     1       2.914  -0.880   0.749  1.00  0.00     0.093 C 
ATOM     18  C   UNL     1       1.742   1.754   0.647  1.00  0.00     0.263 C 
ATOM     19  C   UNL     1       2.994   0.020  -0.497  1.00  0.00     0.263 C 
ATOM     20  N   UNL     1       2.858   1.450  -0.246  1.00  0.00    -0.346 N 
ATOM     21  H   UNL     1       3.720   1.792   0.178  1.00  0.00     0.346 HD
ATOM     22  H   UNL     1       2.675   1.907  -1.140  1.00  0.00     0.346 HD
ENDBRANCH  14  15
ENDBRANCH  13  14
ENDBRANCH  12  13
ENDBRANCH   9  12
ENDBRANCH   6   8
BRANCH   6  23
ATOM     23  C   UNL     1      -0.106  -2.990  -2.569  1.00  0.00     0.422 C 
ATOM     24  F   UNL     1      -0.755  -2.281  -3.521  1.00  0.00    -0.168 F 
ATOM     25  F   UNL     1       1.212  -2.656  -2.672  1.00  0.00    -0.168 F 
ATOM     26  F   UNL     1      -0.183  -4.299  -2.888  1.00  0.00    -0.168 F 
ENDBRANCH   6  23
ENDBRANCH   4   6
ENDBRANCH   3   4
ENDBRANCH   2   3
ENDBRANCH   1   2
BRANCH   1  27
ATOM     27  O   UNL     1      -4.421   0.192  -1.923  1.00  0.00    -0.374 OA
BRANCH  27  28
ATOM     28  C   UNL     1      -3.079   0.548  -2.244  1.00  0.00     0.202 C 
BRANCH  28  29
ATOM     29  C   UNL     1      -2.519   1.833  -1.609  1.00  0.00     0.261 C 
BRANCH  29  30
ATOM     30  O   UNL     1      -2.616   1.861  -0.174  1.00  0.00    -0.460 OA
BRANCH  30  31
ATOM     31  C   UNL     1      -3.615   2.644   0.292  1.00  0.00     0.338 C 
ATOM     32  O   UNL     1      -4.381   3.339  -0.378  1.00  0.00    -0.246 OA
BRANCH  31  33
ATOM     33  C   UNL     1      -3.813   2.468   1.736  1.00  0.00     0.060 A 
ATOM     34  C   UNL     1      -5.006   1.864   2.146  1.00  0.00     0.016 A 
ATOM     35  C   UNL     1      -2.954   3.052   2.670  1.00  0.00     0.016 A 
ATOM     36  C   UNL     1      -5.379   1.898   3.485  1.00  0.00     0.010 A 
ATOM     37  C   UNL     1      -3.334   3.087   4.019  1.00  0.00     0.010 A 
ATOM     38  C   UNL     1      -4.573   2.556   4.424  1.00  0.00    -0.014 A 
BRANCH  38  39
ATOM     39  C   UNL     1      -5.126   2.807   5.780  1.00  0.00     0.031 A 
ATOM     40  C   UNL     1      -5.636   4.181   6.133  1.00  0.00     0.074 A 
ATOM     41  C   UNL     1      -5.249   1.799   6.663  1.00  0.00     0.049 A 
ATOM     42  N   UNL     1      -6.199   4.595   7.239  1.00  0.00    -0.248 NA
ATOM     43  C   UNL     1      -5.501   5.224   5.103  1.00  0.00     0.031 C 
ATOM     44  C   UNL     1      -4.812   0.422   6.436  1.00  0.00     0.029 A 
ATOM     45  N   UNL     1      -5.772   1.782   7.932  1.00  0.00    -0.354 N 
ATOM     46  C   UNL     1      -6.469   5.946   7.047  1.00  0.00     0.074 A 
ATOM     47  C   UNL     1      -5.986   6.288   5.726  1.00  0.00     0.031 C 
ATOM     48  C   UNL     1      -5.069  -0.304   7.537  1.00  0.00     0.029 A 
ATOM     49  C   UNL     1      -5.663   0.561   8.555  1.00  0.00     0.049 A 
ATOM     50  H   UNL     1      -6.186   2.568   8.355  1.00  0.00     0.167 HD
ATOM     51  C   UNL     1      -7.083   6.819   7.882  1.00  0.00     0.034 A 
ATOM     52  C   UNL     1      -5.984   0.189   9.810  1.00  0.00     0.034 A 
ATOM     53  C   UNL     1      -7.576   6.478   9.190  1.00  0.00     0.049 A 
ATOM     54  C   UNL     1      -6.626   1.191  10.734  1.00  0.00     0.074 A 
ATOM     55  C   UNL     1      -8.231   7.288  10.101  1.00  0.00     0.029 A 
ATOM     56  N   UNL     1      -7.463   5.228   9.778  1.00  0.00    -0.354 N 
ATOM     57  N   UNL     1      -6.961   2.436  10.500  1.00  0.00    -0.248 NA
ATOM     58  C   UNL     1      -6.970   0.722  12.085  1.00  0.00     0.031 C 
ATOM     59  C   UNL     1      -8.487   6.535  11.253  1.00  0.00     0.029 A 
ATOM     60  C   UNL     1      -8.027   5.246  11.043  1.00  0.00     0.049 A 
ATOM     61  H   UNL     1      -7.043   4.442   9.359  1.00  0.00     0.167 HD
ATOM     62  C   UNL     1      -7.587   2.888  11.657  1.00  0.00     0.074 A 
ATOM     63  C   UNL     1      -7.608   1.773  12.581  1.00  0.00     0.031 C 
ATOM     64  C   UNL     1      -8.088   4.117  11.935  1.00  0.00     0.034 A 
BRANCH  51  65
ATOM     65  C   UNL     1      -7.281   8.233   7.396  1.00  0.00     0.023 A 
ATOM     66  C   UNL     1      -8.234   8.499   6.392  1.00  0.00     0.012 A 
ATOM     67  C   UNL     1      -6.574   9.305   7.976  1.00  0.00     0.148 A 
ATOM     68  C   UNL     1      -8.457   9.803   5.949  1.00  0.00     0.002 A 
ATOM     69  C   UNL     1      -6.834  10.607   7.563  1.00  0.00     0.091 A 
ATOM     70  F   UNL     1      -5.660   9.032   8.918  1.00  0.00    -0.205 F 
ATOM     71  C   UNL     1      -7.766  10.856   6.542  1.00  0.00     0.022 A 
BRANCH  69  72
ATOM     72  S   UNL     1      -6.055  12.039   8.316  1.00  0.00     0.127 S 
ATOM     73  O   UNL     1      -5.201  12.516   7.229  1.00  0.00    -0.237 OA
ATOM     74  O   UNL     1      -7.205  12.896   8.608  1.00  0.00    -0.237 OA
ATOM     75  O   UNL     1      -5.350  11.545   9.490  1.00  0.00    -0.744 OA
ENDBRANCH  69  72
ENDBRANCH  51  65
BRANCH  52  76
ATOM     76  C   UNL     1      -5.712  -1.202  10.269  1.00  0.00     0.023 A 
ATOM     77  C   UNL     1      -6.782  -2.067  10.572  1.00  0.00     0.012 A 
ATOM     78  C   UNL     1      -4.391  -1.669  10.413  1.00  0.00     0.148 A 
ATOM     79  C   UNL     1      -6.540  -3.356  11.049  1.00  0.00     0.002 A 
ATOM     80  C   UNL     1      -4.158  -2.974  10.829  1.00  0.00     0.091 A 
ATOM     81  F   UNL     1      -3.386  -0.826  10.138  1.00  0.00    -0.205 F 
ATOM     82  C   UNL     1      -5.230  -3.812  11.168  1.00  0.00     0.022 A 
BRANCH  80  83
ATOM     83  S   UNL     1      -2.509  -3.682  10.877  1.00  0.00     0.127 S 
ATOM     84  O   UNL     1      -2.267  -3.780  12.313  1.00  0.00    -0.237 OA
ATOM     85  O   UNL     1      -2.712  -4.961  10.195  1.00  0.00    -0.237 OA
ATOM     86  O   UNL     1      -1.660  -2.747  10.151  1.00  0.00    -0.744 OA
ENDBRANCH  80  83
ENDBRANCH  52  76
BRANCH  64  87
ATOM     87  C   UNL     1      -8.749   4.314  13.277  1.00  0.00     0.023 A 
ATOM     88  C   UNL     1      -7.971   4.334  14.452  1.00  0.00     0.012 A 
ATOM     89  C   UNL     1     -10.138   4.532  13.366  1.00  0.00     0.148 A 
ATOM     90  C   UNL     1      -8.571   4.523  15.697  1.00  0.00     0.002 A 
ATOM     91  C   UNL     1     -10.722   4.774  14.604  1.00  0.00     0.091 A 
ATOM     92  F   UNL     1     -10.866   4.494  12.240  1.00  0.00    -0.205 F 
ATOM     93  C   UNL     1      -9.942   4.754  15.772  1.00  0.00     0.022 A 
BRANCH  91  94
ATOM     94  S   UNL     1     -12.463   5.176  14.788  1.00  0.00     0.127 S 
ATOM     95  O   UNL     1     -12.987   3.956  15.399  1.00  0.00    -0.237 OA
ATOM     96  O   UNL     1     -12.420   6.335  15.680  1.00  0.00    -0.237 OA
ATOM     97  O   UNL     1     -12.953   5.463  13.447  1.00  0.00    -0.744 OA
ENDBRANCH  91  94
ENDBRANCH  64  87
ENDBRANCH  38  39
ENDBRANCH  31  33
ENDBRANCH  30  31
ENDBRANCH  29  30
ENDBRANCH  28  29
ENDBRANCH  27  28
ENDBRANCH   1  27
TORSDOF 23
