REMARK SMILES CC[NH2+][C@]1(C(=O)OCCOCCOC(=O)c2ccc(-c3c4nc(c(-c5cccc(S(=O)(=O)[O-])c5F)c5ccc([nH]5)c(-c5cccc(S(=O)(=O)[O-])c5F)c5nc(c(-c6cccc(S(=O)(=O)[O-])c6F)c6ccc3[nH]6)C=C5)C=C4)cc2)CCC[C@H]([N@@H+]2CCC[C@@H]2C(C)C)C1
REMARK SMILES IDX 11 1 10 2 9 3 8 4 7 5 5 6 6 7 4 8 79 9 91 10 80 11 82 12
REMARK SMILES IDX 81 13 3 14 2 17 1 18 83 19 84 20 87 21 85 23 86 24 88 25
REMARK SMILES IDX 89 26 90 27 12 28 13 29 14 30 15 31 16 32 17 33 78 34 18 35
REMARK SMILES IDX 77 36 19 37 20 38 21 39 71 40 22 41 76 42 70 43 72 44 23 45
REMARK SMILES IDX 75 46 69 47 68 48 24 50 56 51 36 52 55 53 37 54 40 55 54 56
REMARK SMILES IDX 73 57 38 58 39 59 53 61 74 62 41 63 25 64 26 65 34 66 27 67
REMARK SMILES IDX 29 68 35 69 28 70 30 71 31 72 32 73 33 74 57 75 58 76 66 77
REMARK SMILES IDX 59 78 61 79 67 80 60 81 62 82 63 83 64 84 65 85 42 86 43 87
REMARK SMILES IDX 51 88 44 89 46 90 52 91 45 92 47 93 48 94 49 95 50 96
REMARK H PARENT 3 15 3 16 83 22 72 49 40 60
REMARK Flexibility Score: inf
ROOT
ATOM      1  C   UNL     1       4.026   2.697  -2.537  1.00  0.00     0.202 C 
ENDROOT
BRANCH   1   2
ATOM      2  O   UNL     1       4.375   1.418  -2.013  1.00  0.00    -0.374 OA
BRANCH   2   3
ATOM      3  C   UNL     1       3.485   0.310  -2.175  1.00  0.00     0.202 C 
BRANCH   3   4
ATOM      4  C   UNL     1       2.170   0.230  -1.387  1.00  0.00     0.261 C 
BRANCH   4   5
ATOM      5  O   UNL     1       1.308   1.341  -1.652  1.00  0.00    -0.459 OA
BRANCH   5   6
ATOM      6  C   UNL     1       1.592   2.389  -0.836  1.00  0.00     0.368 C 
ATOM      7  O   UNL     1       2.491   2.336   0.004  1.00  0.00    -0.245 OA
BRANCH   6   8
ATOM      8  C   UNL     1       0.702   3.648  -1.057  1.00  0.00     0.200 C 
ATOM      9  C   UNL     1       0.515   3.998   0.568  1.00  0.00     0.081 C 
ATOM     10  C   UNL     1       1.423   4.937  -1.457  1.00  0.00     0.146 C 
ATOM     11  C   UNL     1       0.236   5.388   1.195  1.00  0.00     0.013 C 
ATOM     12  C   UNL     1       0.476   6.123  -1.097  1.00  0.00     0.191 C 
ATOM     13  C   UNL     1       0.762   6.503   0.341  1.00  0.00     0.065 C 
BRANCH   8  14
ATOM     14  N   UNL     1      -0.034   3.566  -2.399  1.00  0.00    -0.332 N 
ATOM     15  H   UNL     1      -0.154   4.550  -2.636  1.00  0.00     0.347 HD
ATOM     16  H   UNL     1       0.556   2.810  -2.748  1.00  0.00     0.347 HD
BRANCH  14  17
ATOM     17  C   UNL     1      -1.258   2.976  -2.923  1.00  0.00     0.257 C 
ATOM     18  C   UNL     1      -1.919   3.829  -4.037  1.00  0.00     0.071 C 
ENDBRANCH  14  17
ENDBRANCH   8  14
BRANCH  12  19
ATOM     19  N   UNL     1      -0.980   5.991  -1.393  1.00  0.00    -0.330 N 
ATOM     20  C   UNL     1      -1.531   7.303  -1.761  1.00  0.00     0.262 C 
ATOM     21  C   UNL     1      -2.118   5.173  -0.764  1.00  0.00     0.187 C 
ATOM     22  H   UNL     1      -0.738   5.217  -2.011  1.00  0.00     0.348 HD
ATOM     23  C   UNL     1      -2.461   7.633  -0.629  1.00  0.00     0.067 C 
ATOM     24  C   UNL     1      -3.028   6.300  -0.203  1.00  0.00     0.071 C 
BRANCH  21  25
ATOM     25  C   UNL     1      -2.344   3.822   0.218  1.00  0.00     0.041 C 
ATOM     26  C   UNL     1      -3.839   3.612   0.552  1.00  0.00     0.014 C 
ATOM     27  C   UNL     1      -1.919   2.341  -0.071  1.00  0.00     0.014 C 
ENDBRANCH  21  25
ENDBRANCH  12  19
ENDBRANCH   6   8
ENDBRANCH   5   6
ENDBRANCH   4   5
ENDBRANCH   3   4
ENDBRANCH   2   3
ENDBRANCH   1   2
BRANCH   1  28
ATOM     28  C   UNL     1       4.153   2.990  -4.028  1.00  0.00     0.261 C 
BRANCH  28  29
ATOM     29  O   UNL     1       3.355   2.099  -4.810  1.00  0.00    -0.460 OA
BRANCH  29  30
ATOM     30  C   UNL     1       4.059   1.047  -5.279  1.00  0.00     0.338 C 
ATOM     31  O   UNL     1       5.268   0.864  -5.166  1.00  0.00    -0.246 OA
BRANCH  30  32
ATOM     32  C   UNL     1       3.152   0.009  -5.784  1.00  0.00     0.060 A 
ATOM     33  C   UNL     1       3.432  -1.310  -5.402  1.00  0.00     0.016 A 
ATOM     34  C   UNL     1       2.110   0.300  -6.665  1.00  0.00     0.016 A 
ATOM     35  C   UNL     1       2.752  -2.358  -5.995  1.00  0.00     0.010 A 
ATOM     36  C   UNL     1       1.431  -0.756  -7.269  1.00  0.00     0.010 A 
ATOM     37  C   UNL     1       1.803  -2.083  -6.985  1.00  0.00    -0.014 A 
BRANCH  37  38
ATOM     38  C   UNL     1       1.366  -3.186  -7.861  1.00  0.00     0.031 A 
ATOM     39  C   UNL     1       1.972  -3.295  -9.233  1.00  0.00     0.074 A 
ATOM     40  C   UNL     1       0.486  -4.096  -7.414  1.00  0.00     0.049 A 
ATOM     41  N   UNL     1       1.735  -4.169 -10.173  1.00  0.00    -0.248 NA
ATOM     42  C   UNL     1       2.981  -2.282  -9.596  1.00  0.00     0.031 C 
ATOM     43  C   UNL     1      -0.134  -4.089  -6.089  1.00  0.00     0.029 A 
ATOM     44  N   UNL     1      -0.049  -5.192  -8.035  1.00  0.00    -0.354 N 
ATOM     45  C   UNL     1       2.530  -3.792 -11.249  1.00  0.00     0.074 A 
ATOM     46  C   UNL     1       3.252  -2.605 -10.852  1.00  0.00     0.031 C 
ATOM     47  C   UNL     1      -0.992  -5.119  -6.007  1.00  0.00     0.029 A 
ATOM     48  C   UNL     1      -1.002  -5.832  -7.282  1.00  0.00     0.049 A 
ATOM     49  H   UNL     1       0.222  -5.491  -8.933  1.00  0.00     0.167 HD
ATOM     50  C   UNL     1       2.652  -4.391 -12.455  1.00  0.00     0.034 A 
ATOM     51  C   UNL     1      -1.812  -6.857  -7.605  1.00  0.00     0.034 A 
ATOM     52  C   UNL     1       1.940  -5.583 -12.826  1.00  0.00     0.049 A 
ATOM     53  C   UNL     1      -1.676  -7.487  -8.965  1.00  0.00     0.074 A 
ATOM     54  C   UNL     1       2.022  -6.302 -14.004  1.00  0.00     0.029 A 
ATOM     55  N   UNL     1       1.004  -6.224 -12.028  1.00  0.00    -0.354 N 
ATOM     56  N   UNL     1      -0.852  -7.180  -9.938  1.00  0.00    -0.248 NA
ATOM     57  C   UNL     1      -2.557  -8.625  -9.260  1.00  0.00     0.031 C 
ATOM     58  C   UNL     1       1.101  -7.351 -13.937  1.00  0.00     0.029 A 
ATOM     59  C   UNL     1       0.485  -7.319 -12.695  1.00  0.00     0.049 A 
ATOM     60  H   UNL     1       0.747  -5.941 -11.121  1.00  0.00     0.167 HD
ATOM     61  C   UNL     1      -1.085  -8.112 -10.943  1.00  0.00     0.074 A 
ATOM     62  C   UNL     1      -2.116  -9.003 -10.452  1.00  0.00     0.031 C 
ATOM     63  C   UNL     1      -0.506  -8.219 -12.165  1.00  0.00     0.034 A 
BRANCH  50  64
ATOM     64  C   UNL     1       3.585  -3.772 -13.462  1.00  0.00     0.023 A 
ATOM     65  C   UNL     1       4.980  -3.841 -13.270  1.00  0.00     0.012 A 
ATOM     66  C   UNL     1       3.078  -3.175 -14.633  1.00  0.00     0.148 A 
ATOM     67  C   UNL     1       5.854  -3.301 -14.214  1.00  0.00     0.002 A 
ATOM     68  C   UNL     1       3.955  -2.683 -15.592  1.00  0.00     0.091 A 
ATOM     69  F   UNL     1       1.748  -3.097 -14.785  1.00  0.00    -0.205 F 
ATOM     70  C   UNL     1       5.342  -2.735 -15.379  1.00  0.00     0.022 A 
BRANCH  68  71
ATOM     71  S   UNL     1       3.398  -2.009 -17.160  1.00  0.00     0.127 S 
ATOM     72  O   UNL     1       3.775  -0.602 -17.027  1.00  0.00    -0.237 OA
ATOM     73  O   UNL     1       4.200  -2.767 -18.120  1.00  0.00    -0.237 OA
ATOM     74  O   UNL     1       1.966  -2.265 -17.225  1.00  0.00    -0.744 OA
ENDBRANCH  68  71
ENDBRANCH  50  64
BRANCH  51  75
ATOM     75  C   UNL     1      -2.811  -7.355  -6.620  1.00  0.00     0.023 A 
ATOM     76  C   UNL     1      -2.664  -8.638  -6.061  1.00  0.00     0.012 A 
ATOM     77  C   UNL     1      -3.899  -6.552  -6.225  1.00  0.00     0.148 A 
ATOM     78  C   UNL     1      -3.606  -9.129  -5.155  1.00  0.00     0.002 A 
ATOM     79  C   UNL     1      -4.799  -7.023  -5.279  1.00  0.00     0.091 A 
ATOM     80  F   UNL     1      -4.025  -5.337  -6.777  1.00  0.00    -0.205 F 
ATOM     81  C   UNL     1      -4.667  -8.319  -4.758  1.00  0.00     0.022 A 
BRANCH  79  82
ATOM     82  S   UNL     1      -6.117  -6.002  -4.612  1.00  0.00     0.127 S 
ATOM     83  O   UNL     1      -7.304  -6.644  -5.170  1.00  0.00    -0.237 OA
ATOM     84  O   UNL     1      -5.937  -6.182  -3.171  1.00  0.00    -0.237 OA
ATOM     85  O   UNL     1      -5.848  -4.651  -5.086  1.00  0.00    -0.744 OA
ENDBRANCH  79  82
ENDBRANCH  51  75
BRANCH  63  86
ATOM     86  C   UNL     1      -0.928  -9.372 -13.038  1.00  0.00     0.023 A 
ATOM     87  C   UNL     1      -2.207  -9.384 -13.629  1.00  0.00     0.012 A 
ATOM     88  C   UNL     1      -0.021 -10.410 -13.328  1.00  0.00     0.148 A 
ATOM     89  C   UNL     1      -2.589 -10.432 -14.465  1.00  0.00     0.002 A 
ATOM     90  C   UNL     1      -0.388 -11.420 -14.207  1.00  0.00     0.091 A 
ATOM     91  F   UNL     1       1.186 -10.386 -12.743  1.00  0.00    -0.205 F 
ATOM     92  C   UNL     1      -1.677 -11.441 -14.764  1.00  0.00     0.022 A 
BRANCH  90  93
ATOM     93  S   UNL     1       0.754 -12.703 -14.731  1.00  0.00     0.127 S 
ATOM     94  O   UNL     1       0.190 -13.886 -14.082  1.00  0.00    -0.237 OA
ATOM     95  O   UNL     1       0.603 -12.675 -16.186  1.00  0.00    -0.237 OA
ATOM     96  O   UNL     1       2.067 -12.297 -14.250  1.00  0.00    -0.744 OA
ENDBRANCH  90  93
ENDBRANCH  63  86
ENDBRANCH  37  38
ENDBRANCH  30  32
ENDBRANCH  29  30
ENDBRANCH  28  29
ENDBRANCH   1  28
TORSDOF 21
