REMARK SMILES CCCCCCNC(=O)Oc1cccc(-c2ccc([C@@H](C)C(=O)OCCOCCOC(=O)c3ccc(-c4c5nc(c(-c6cccc(S(=O)(=O)[O-])c6F)c6ccc([nH]6)c(-c6cccc(S(=O)(=O)[O-])c6F)c6nc(c(-c7cccc(S(=O)(=O)[O-])c7F)c7ccc4[nH]7)C=C6)C=C5)cc3)cc2F)c1
REMARK SMILES IDX 24 1 22 2 23 3 20 4 21 5 19 6 16 7 17 8 97 9 18 10 96 11
REMARK SMILES IDX 98 12 15 13 11 14 12 15 99 16 13 17 14 18 10 19 8 20 7 21
REMARK SMILES IDX 9 23 6 24 5 25 4 26 3 27 2 28 1 29 25 30 26 31 27 32 28 33
REMARK SMILES IDX 29 34 30 35 31 36 32 37 33 38 34 39 95 40 35 41 94 42 36 43
REMARK SMILES IDX 37 44 38 45 88 46 39 47 93 48 87 49 89 50 40 51 92 52 86 53
REMARK SMILES IDX 85 54 41 56 73 57 53 58 72 59 54 60 57 61 71 62 90 63 55 64
REMARK SMILES IDX 56 65 70 67 91 68 58 69 42 70 43 71 51 72 44 73 46 74 52 75
REMARK SMILES IDX 45 76 47 77 48 78 49 79 50 80 74 81 75 82 83 83 76 84 78 85
REMARK SMILES IDX 84 86 77 87 79 88 80 89 81 90 82 91 59 92 60 93 68 94 61 95
REMARK SMILES IDX 63 96 69 97 62 98 64 99 65 100 66 101 67 102
REMARK H PARENT 7 22 89 55 57 66
REMARK Flexibility Score: inf
ROOT
ATOM      1  O   UNL     1      -3.865  11.063  10.267  1.00  0.00    -0.463 OA
ENDROOT
BRANCH   1   2
ATOM      2  C   UNL     1      -4.381  11.837   9.279  1.00  0.00     0.313 C 
ATOM      3  O   UNL     1      -4.099  13.019   9.101  1.00  0.00    -0.252 OA
BRANCH   2   4
ATOM      4  C   UNL     1      -5.382  11.115   8.392  1.00  0.00     0.126 C 
ATOM      5  C   UNL     1      -6.797  11.450   8.856  1.00  0.00     0.025 C 
BRANCH   4   6
ATOM      6  C   UNL     1      -5.196   9.617   8.166  1.00  0.00    -0.031 A 
ATOM      7  C   UNL     1      -5.086   6.814   7.603  1.00  0.00     0.018 A 
ATOM      8  C   UNL     1      -5.306   7.293   8.906  1.00  0.00     0.012 A 
ATOM      9  C   UNL     1      -4.871   7.772   6.604  1.00  0.00     0.131 A 
ATOM     10  C   UNL     1      -5.364   8.669   9.183  1.00  0.00     0.005 A 
ATOM     11  C   UNL     1      -4.923   9.143   6.873  1.00  0.00     0.044 A 
ATOM     12  F   UNL     1      -4.656   7.394   5.334  1.00  0.00    -0.206 F 
BRANCH   7  13
ATOM     13  C   UNL     1      -5.149   5.372   7.295  1.00  0.00    -0.012 A 
ATOM     14  C   UNL     1      -4.255   3.365   6.253  1.00  0.00     0.133 A 
ATOM     15  C   UNL     1      -5.367   2.626   6.650  1.00  0.00     0.047 A 
ATOM     16  C   UNL     1      -4.143   4.725   6.555  1.00  0.00     0.056 A 
ATOM     17  C   UNL     1      -6.370   3.248   7.384  1.00  0.00     0.004 A 
ATOM     18  C   UNL     1      -6.260   4.606   7.703  1.00  0.00     0.009 A 
BRANCH  14  19
ATOM     19  O   UNL     1      -3.322   2.700   5.437  1.00  0.00    -0.410 OA
BRANCH  19  20
ATOM     20  C   UNL     1      -1.983   2.747   5.782  1.00  0.00     0.412 C 
ATOM     21  N   UNL     1      -1.178   2.031   4.941  1.00  0.00    -0.321 N 
ATOM     22  H   UNL     1      -0.216   2.033   5.147  1.00  0.00     0.167 HD
ATOM     23  O   UNL     1      -1.503   3.352   6.744  1.00  0.00    -0.224 OA
BRANCH  21  24
ATOM     24  C   UNL     1      -1.590   1.270   3.778  1.00  0.00     0.119 C 
BRANCH  24  25
ATOM     25  C   UNL     1      -0.993   1.832   2.487  1.00  0.00     0.021 C 
BRANCH  25  26
ATOM     26  C   UNL     1       0.537   1.750   2.396  1.00  0.00     0.002 C 
BRANCH  26  27
ATOM     27  C   UNL     1       1.130   0.338   2.456  1.00  0.00    -0.000 C 
BRANCH  27  28
ATOM     28  C   UNL     1       0.659  -0.622   1.360  1.00  0.00    -0.003 C 
ATOM     29  C   UNL     1       1.049  -0.176  -0.041  1.00  0.00     0.004 C 
ENDBRANCH  27  28
ENDBRANCH  26  27
ENDBRANCH  25  26
ENDBRANCH  24  25
ENDBRANCH  21  24
ENDBRANCH  19  20
ENDBRANCH  14  19
ENDBRANCH   7  13
ENDBRANCH   4   6
ENDBRANCH   2   4
ENDBRANCH   1   2
BRANCH   1  30
ATOM     30  C   UNL     1      -2.816  11.655  11.053  1.00  0.00     0.261 C 
BRANCH  30  31
ATOM     31  C   UNL     1      -1.486  10.926  10.848  1.00  0.00     0.202 C 
BRANCH  31  32
ATOM     32  O   UNL     1      -0.901  11.016   9.548  1.00  0.00    -0.374 OA
BRANCH  32  33
ATOM     33  C   UNL     1      -1.476  10.225   8.509  1.00  0.00     0.202 C 
BRANCH  33  34
ATOM     34  C   UNL     1      -1.173   8.721   8.514  1.00  0.00     0.261 C 
BRANCH  34  35
ATOM     35  O   UNL     1      -1.678   8.053   9.681  1.00  0.00    -0.460 OA
BRANCH  35  36
ATOM     36  C   UNL     1      -0.718   7.638  10.543  1.00  0.00     0.338 C 
ATOM     37  O   UNL     1       0.490   7.730  10.394  1.00  0.00    -0.246 OA
BRANCH  36  38
ATOM     38  C   UNL     1      -1.316   7.215  11.824  1.00  0.00     0.060 A 
ATOM     39  C   UNL     1      -0.762   7.763  12.989  1.00  0.00     0.016 A 
ATOM     40  C   UNL     1      -2.313   6.240  11.903  1.00  0.00     0.016 A 
ATOM     41  C   UNL     1      -1.140   7.277  14.236  1.00  0.00     0.010 A 
ATOM     42  C   UNL     1      -2.692   5.753  13.162  1.00  0.00     0.010 A 
ATOM     43  C   UNL     1      -2.068   6.231  14.329  1.00  0.00    -0.014 A 
BRANCH  43  44
ATOM     44  C   UNL     1      -2.228   5.540  15.634  1.00  0.00     0.031 A 
ATOM     45  C   UNL     1      -1.535   4.219  15.852  1.00  0.00     0.074 A 
ATOM     46  C   UNL     1      -2.913   6.115  16.640  1.00  0.00     0.049 A 
ATOM     47  N   UNL     1      -1.477   3.483  16.931  1.00  0.00    -0.248 NA
ATOM     48  C   UNL     1      -0.806   3.655  14.703  1.00  0.00     0.031 C 
ATOM     49  C   UNL     1      -3.615   7.395  16.561  1.00  0.00     0.029 A 
ATOM     50  N   UNL     1      -3.131   5.691  17.927  1.00  0.00    -0.354 N 
ATOM     51  C   UNL     1      -0.722   2.366  16.590  1.00  0.00     0.074 A 
ATOM     52  C   UNL     1      -0.366   2.507  15.196  1.00  0.00     0.031 C 
ATOM     53  C   UNL     1      -4.194   7.649  17.747  1.00  0.00     0.029 A 
ATOM     54  C   UNL     1      -3.919   6.544  18.663  1.00  0.00     0.049 A 
ATOM     55  H   UNL     1      -2.759   4.854  18.289  1.00  0.00     0.167 HD
ATOM     56  C   UNL     1      -0.334   1.330  17.371  1.00  0.00     0.034 A 
ATOM     57  C   UNL     1      -4.371   6.441  19.929  1.00  0.00     0.034 A 
ATOM     58  C   UNL     1      -0.667   1.199  18.764  1.00  0.00     0.049 A 
ATOM     59  C   UNL     1      -3.954   5.257  20.765  1.00  0.00     0.074 A 
ATOM     60  C   UNL     1      -0.296   0.200  19.647  1.00  0.00     0.029 A 
ATOM     61  N   UNL     1      -1.454   2.090  19.476  1.00  0.00    -0.354 N 
ATOM     62  N   UNL     1      -3.146   4.271  20.459  1.00  0.00    -0.248 NA
ATOM     63  C   UNL     1      -4.484   5.192  22.136  1.00  0.00     0.031 C 
ATOM     64  C   UNL     1      -0.879   0.476  20.889  1.00  0.00     0.029 A 
ATOM     65  C   UNL     1      -1.590   1.660  20.785  1.00  0.00     0.049 A 
ATOM     66  H   UNL     1      -1.857   2.908  19.105  1.00  0.00     0.167 HD
ATOM     67  C   UNL     1      -3.041   3.492  21.607  1.00  0.00     0.074 A 
ATOM     68  C   UNL     1      -3.849   4.135  22.622  1.00  0.00     0.031 C 
ATOM     69  C   UNL     1      -2.352   2.340  21.801  1.00  0.00     0.034 A 
BRANCH  56  70
ATOM     70  C   UNL     1       0.532   0.268  16.744  1.00  0.00     0.023 A 
ATOM     71  C   UNL     1       1.881   0.557  16.451  1.00  0.00     0.012 A 
ATOM     72  C   UNL     1       0.033  -1.026  16.498  1.00  0.00     0.148 A 
ATOM     73  C   UNL     1       2.711  -0.416  15.895  1.00  0.00     0.002 A 
ATOM     74  C   UNL     1       0.879  -2.003  15.983  1.00  0.00     0.091 A 
ATOM     75  F   UNL     1      -1.257  -1.275  16.764  1.00  0.00    -0.205 F 
ATOM     76  C   UNL     1       2.214  -1.697  15.672  1.00  0.00     0.022 A 
BRANCH  74  77
ATOM     77  S   UNL     1       0.356  -3.703  15.730  1.00  0.00     0.127 S 
ATOM     78  O   UNL     1       0.333  -3.791  14.271  1.00  0.00    -0.237 OA
ATOM     79  O   UNL     1       1.437  -4.455  16.368  1.00  0.00    -0.237 OA
ATOM     80  O   UNL     1      -0.939  -3.828  16.383  1.00  0.00    -0.744 OA
ENDBRANCH  74  77
ENDBRANCH  56  70
BRANCH  57  81
ATOM     81  C   UNL     1      -5.238   7.507  20.506  1.00  0.00     0.023 A 
ATOM     82  C   UNL     1      -4.748   8.315  21.551  1.00  0.00     0.012 A 
ATOM     83  C   UNL     1      -6.546   7.721  20.031  1.00  0.00     0.148 A 
ATOM     84  C   UNL     1      -5.556   9.290  22.136  1.00  0.00     0.002 A 
ATOM     85  C   UNL     1      -7.327   8.732  20.580  1.00  0.00     0.091 A 
ATOM     86  F   UNL     1      -7.004   6.929  19.051  1.00  0.00    -0.205 F 
ATOM     87  C   UNL     1      -6.841   9.506  21.645  1.00  0.00     0.022 A 
BRANCH  85  88
ATOM     88  S   UNL     1      -8.943   9.159  19.922  1.00  0.00     0.127 S 
ATOM     89  O   UNL     1      -9.834   8.640  20.956  1.00  0.00    -0.237 OA
ATOM     90  O   UNL     1      -8.865  10.618  19.850  1.00  0.00    -0.237 OA
ATOM     91  O   UNL     1      -9.023   8.501  18.625  1.00  0.00    -0.744 OA
ENDBRANCH  85  88
ENDBRANCH  57  81
BRANCH  69  92
ATOM     92  C   UNL     1      -2.408   1.711  23.170  1.00  0.00     0.023 A 
ATOM     93  C   UNL     1      -3.593   1.083  23.604  1.00  0.00     0.012 A 
ATOM     94  C   UNL     1      -1.268   1.682  23.998  1.00  0.00     0.148 A 
ATOM     95  C   UNL     1      -3.654   0.469  24.854  1.00  0.00     0.002 A 
ATOM     96  C   UNL     1      -1.321   1.025  25.222  1.00  0.00     0.091 A 
ATOM     97  F   UNL     1      -0.155   2.299  23.576  1.00  0.00    -0.205 F 
ATOM     98  C   UNL     1      -2.516   0.430  25.657  1.00  0.00     0.022 A 
BRANCH  96  99
ATOM     99  S   UNL     1       0.119   0.840  26.280  1.00  0.00     0.127 S 
ATOM    100  O   UNL     1      -0.189   1.769  27.367  1.00  0.00    -0.237 OA
ATOM    101  O   UNL     1       0.054  -0.574  26.650  1.00  0.00    -0.237 OA
ATOM    102  O   UNL     1       1.268   1.197  25.459  1.00  0.00    -0.744 OA
ENDBRANCH  96  99
ENDBRANCH  69  92
ENDBRANCH  43  44
ENDBRANCH  36  38
ENDBRANCH  35  36
ENDBRANCH  34  35
ENDBRANCH  33  34
ENDBRANCH  32  33
ENDBRANCH  31  32
ENDBRANCH  30  31
ENDBRANCH   1  30
TORSDOF 26
