REMARK SMILES O=C(/C=C\c1ccc(OCc2ccc(Br)cc2)cc1)OCCOCCOC(=O)c1ccc(-c2c3nc(c(-c4cccc(S(=O)(=O)[O-])c4F)c4ccc([nH]4)c(-c4cccc(S(=O)(=O)[O-])c4F)c4nc(c(-c5cccc(S(=O)(=O)[O-])c5F)c5ccc2[nH]5)C=C4)C=C3)cc1
REMARK SMILES IDX 22 1 21 2 20 3 2 4 1 5 3 6 4 7 5 8 6 9 19 10 7 11 18 12 8 13
REMARK SMILES IDX 9 14 10 15 11 16 12 17 17 18 13 19 16 20 14 21 15 22 23 23
REMARK SMILES IDX 24 24 25 25 26 26 27 27 28 28 29 29 30 30 91 31 31 32 90 33
REMARK SMILES IDX 32 34 33 35 34 36 84 37 35 38 89 39 83 40 85 41 36 42 88 43
REMARK SMILES IDX 82 44 81 45 37 47 69 48 49 49 68 50 50 51 53 52 67 53 86 54
REMARK SMILES IDX 51 55 52 56 66 58 87 59 54 60 38 61 39 62 47 63 40 64 42 65
REMARK SMILES IDX 48 66 41 67 43 68 44 69 45 70 46 71 70 72 71 73 79 74 72 75
REMARK SMILES IDX 74 76 80 77 73 78 75 79 76 80 77 81 78 82 55 83 56 84 64 85
REMARK SMILES IDX 57 86 59 87 65 88 58 89 60 90 61 91 62 92 63 93
REMARK H PARENT 85 46 53 57
REMARK Flexibility Score: inf
ROOT
ATOM      1  C   UNL     1       3.608  -1.545  -0.163  1.00  0.00     0.202 C 
ENDROOT
BRANCH   1   2
ATOM      2  C   UNL     1       3.224  -0.282   0.609  1.00  0.00     0.261 C 
BRANCH   2   3
ATOM      3  O   UNL     1       2.499   0.694  -0.155  1.00  0.00    -0.460 OA
BRANCH   3   4
ATOM      4  C   UNL     1       2.809   1.228  -1.347  1.00  0.00     0.330 C 
ATOM      5  O   UNL     1       1.950   1.865  -1.959  1.00  0.00    -0.247 OA
BRANCH   4   6
ATOM      6  C   UNL     1       4.085   0.988  -2.056  1.00  0.00     0.094 C 
ATOM      7  C   UNL     1       5.408   0.967  -1.805  1.00  0.00     0.015 C 
BRANCH   7   8
ATOM      8  C   UNL     1       6.171   1.204  -0.581  1.00  0.00    -0.025 A 
ATOM      9  C   UNL     1       6.738   2.460  -0.360  1.00  0.00     0.012 A 
ATOM     10  C   UNL     1       6.423   0.187   0.343  1.00  0.00     0.012 A 
ATOM     11  C   UNL     1       7.361   2.743   0.855  1.00  0.00     0.047 A 
ATOM     12  C   UNL     1       6.988   0.483   1.583  1.00  0.00     0.047 A 
ATOM     13  C   UNL     1       7.370   1.789   1.865  1.00  0.00     0.119 A 
BRANCH  13  14
ATOM     14  O   UNL     1       7.751   2.238   3.094  1.00  0.00    -0.489 OA
BRANCH  14  15
ATOM     15  C   UNL     1       7.007   1.708   4.196  1.00  0.00     0.265 C 
BRANCH  15  16
ATOM     16  C   UNL     1       5.508   1.982   4.196  1.00  0.00    -0.011 A 
ATOM     17  C   UNL     1       4.591   0.931   4.018  1.00  0.00     0.008 A 
ATOM     18  C   UNL     1       5.013   3.243   4.553  1.00  0.00     0.008 A 
ATOM     19  C   UNL     1       3.233   1.101   4.304  1.00  0.00     0.016 A 
ATOM     20  C   UNL     1       3.651   3.420   4.828  1.00  0.00     0.016 A 
ATOM     21  C   UNL     1       2.773   2.342   4.728  1.00  0.00     0.017 A 
ATOM     22  Br  UNL     1       0.959   2.542   5.217  1.00  0.00    -0.051 Br
ENDBRANCH  15  16
ENDBRANCH  14  15
ENDBRANCH  13  14
ENDBRANCH   7   8
ENDBRANCH   4   6
ENDBRANCH   3   4
ENDBRANCH   2   3
ENDBRANCH   1   2
BRANCH   1  23
ATOM     23  O   UNL     1       2.517  -2.286  -0.692  1.00  0.00    -0.374 OA
BRANCH  23  24
ATOM     24  C   UNL     1       1.612  -2.837   0.264  1.00  0.00     0.202 C 
BRANCH  24  25
ATOM     25  C   UNL     1       2.231  -3.878   1.207  1.00  0.00     0.261 C 
BRANCH  25  26
ATOM     26  O   UNL     1       2.874  -3.267   2.352  1.00  0.00    -0.460 OA
BRANCH  26  27
ATOM     27  C   UNL     1       4.170  -3.615   2.579  1.00  0.00     0.338 C 
ATOM     28  O   UNL     1       4.878  -4.273   1.839  1.00  0.00    -0.246 OA
BRANCH  27  29
ATOM     29  C   UNL     1       4.678  -2.996   3.833  1.00  0.00     0.060 A 
ATOM     30  C   UNL     1       6.037  -2.660   3.908  1.00  0.00     0.016 A 
ATOM     31  C   UNL     1       3.859  -2.790   4.949  1.00  0.00     0.016 A 
ATOM     32  C   UNL     1       6.568  -2.109   5.083  1.00  0.00     0.010 A 
ATOM     33  C   UNL     1       4.396  -2.253   6.131  1.00  0.00     0.010 A 
ATOM     34  C   UNL     1       5.755  -1.909   6.212  1.00  0.00    -0.014 A 
BRANCH  34  35
ATOM     35  C   UNL     1       6.377  -1.509   7.510  1.00  0.00     0.031 A 
ATOM     36  C   UNL     1       7.003  -2.574   8.353  1.00  0.00     0.074 A 
ATOM     37  C   UNL     1       6.393  -0.237   7.954  1.00  0.00     0.049 A 
ATOM     38  N   UNL     1       7.631  -2.458   9.491  1.00  0.00    -0.248 NA
ATOM     39  C   UNL     1       6.869  -3.955   7.865  1.00  0.00     0.031 C 
ATOM     40  C   UNL     1       5.722   0.864   7.295  1.00  0.00     0.029 A 
ATOM     41  N   UNL     1       6.982   0.357   9.046  1.00  0.00    -0.354 N 
ATOM     42  C   UNL     1       7.923  -3.753   9.887  1.00  0.00     0.074 A 
ATOM     43  C   UNL     1       7.428  -4.637   8.852  1.00  0.00     0.031 C 
ATOM     44  C   UNL     1       6.014   2.018   7.912  1.00  0.00     0.029 A 
ATOM     45  C   UNL     1       6.811   1.727   9.096  1.00  0.00     0.049 A 
ATOM     46  H   UNL     1       7.480  -0.148   9.729  1.00  0.00     0.167 HD
ATOM     47  C   UNL     1       8.521  -4.173  11.025  1.00  0.00     0.034 A 
ATOM     48  C   UNL     1       7.207   2.639  10.009  1.00  0.00     0.034 A 
ATOM     49  C   UNL     1       8.956  -3.301  12.080  1.00  0.00     0.049 A 
ATOM     50  C   UNL     1       7.896   2.143  11.253  1.00  0.00     0.074 A 
ATOM     51  C   UNL     1       9.559  -3.638  13.278  1.00  0.00     0.029 A 
ATOM     52  N   UNL     1       8.802  -1.922  12.084  1.00  0.00    -0.354 N 
ATOM     53  N   UNL     1       8.248   0.920  11.566  1.00  0.00    -0.248 NA
ATOM     54  C   UNL     1       8.221   3.143  12.282  1.00  0.00     0.031 C 
ATOM     55  C   UNL     1       9.738  -2.467  14.021  1.00  0.00     0.029 A 
ATOM     56  C   UNL     1       9.297  -1.394  13.265  1.00  0.00     0.049 A 
ATOM     57  H   UNL     1       8.401  -1.396  11.355  1.00  0.00     0.167 HD
ATOM     58  C   UNL     1       8.845   1.003  12.817  1.00  0.00     0.074 A 
ATOM     59  C   UNL     1       8.843   2.403  13.189  1.00  0.00     0.031 C 
ATOM     60  C   UNL     1       9.327   0.007  13.600  1.00  0.00     0.034 A 
BRANCH  47  61
ATOM     61  C   UNL     1       8.683  -5.657  11.186  1.00  0.00     0.023 A 
ATOM     62  C   UNL     1       9.611  -6.354  10.386  1.00  0.00     0.012 A 
ATOM     63  C   UNL     1       7.890  -6.365  12.108  1.00  0.00     0.148 A 
ATOM     64  C   UNL     1       9.709  -7.742  10.464  1.00  0.00     0.002 A 
ATOM     65  C   UNL     1       8.029  -7.742  12.215  1.00  0.00     0.091 A 
ATOM     66  F   UNL     1       6.995  -5.684  12.837  1.00  0.00    -0.205 F 
ATOM     67  C   UNL     1       8.924  -8.434  11.382  1.00  0.00     0.022 A 
BRANCH  65  68
ATOM     68  S   UNL     1       7.110  -8.716  13.410  1.00  0.00     0.127 S 
ATOM     69  O   UNL     1       6.248  -9.514  12.538  1.00  0.00    -0.237 OA
ATOM     70  O   UNL     1       8.176  -9.470  14.069  1.00  0.00    -0.237 OA
ATOM     71  O   UNL     1       6.418  -7.762  14.264  1.00  0.00    -0.744 OA
ENDBRANCH  65  68
ENDBRANCH  47  61
BRANCH  48  72
ATOM     72  C   UNL     1       6.962   4.104   9.816  1.00  0.00     0.023 A 
ATOM     73  C   UNL     1       8.060   4.986   9.721  1.00  0.00     0.012 A 
ATOM     74  C   UNL     1       5.661   4.639   9.752  1.00  0.00     0.148 A 
ATOM     75  C   UNL     1       7.867   6.366   9.604  1.00  0.00     0.002 A 
ATOM     76  C   UNL     1       5.476   6.004   9.558  1.00  0.00     0.091 A 
ATOM     77  F   UNL     1       4.623   3.802   9.882  1.00  0.00    -0.205 F 
ATOM     78  C   UNL     1       6.575   6.873   9.509  1.00  0.00     0.022 A 
BRANCH  76  79
ATOM     79  S   UNL     1       3.854   6.722   9.271  1.00  0.00     0.127 S 
ATOM     80  O   UNL     1       3.637   7.476  10.502  1.00  0.00    -0.237 OA
ATOM     81  O   UNL     1       4.094   7.537   8.080  1.00  0.00    -0.237 OA
ATOM     82  O   UNL     1       2.961   5.592   9.052  1.00  0.00    -0.744 OA
ENDBRANCH  76  79
ENDBRANCH  48  72
BRANCH  60  83
ATOM     83  C   UNL     1       9.949   0.396  14.914  1.00  0.00     0.023 A 
ATOM     84  C   UNL     1       9.145   0.843  15.982  1.00  0.00     0.012 A 
ATOM     85  C   UNL     1      11.336   0.246  15.106  1.00  0.00     0.148 A 
ATOM     86  C   UNL     1       9.719   1.165  17.211  1.00  0.00     0.002 A 
ATOM     87  C   UNL     1      11.892   0.514  16.349  1.00  0.00     0.091 A 
ATOM     88  F   UNL     1      12.084  -0.158  14.069  1.00  0.00    -0.205 F 
ATOM     89  C   UNL     1      11.089   0.988  17.399  1.00  0.00     0.022 A 
BRANCH  87  90
ATOM     90  S   UNL     1      13.625   0.214  16.708  1.00  0.00     0.127 S 
ATOM     91  O   UNL     1      14.147   1.575  16.818  1.00  0.00    -0.237 OA
ATOM     92  O   UNL     1      13.556  -0.519  17.972  1.00  0.00    -0.237 OA
ATOM     93  O   UNL     1      14.139  -0.562  15.587  1.00  0.00    -0.744 OA
ENDBRANCH  87  90
ENDBRANCH  60  83
ENDBRANCH  34  35
ENDBRANCH  27  29
ENDBRANCH  26  27
ENDBRANCH  25  26
ENDBRANCH  24  25
ENDBRANCH  23  24
ENDBRANCH   1  23
TORSDOF 21
