REMARK SMILES O=C(C[N@@H+]1CCC[C@@H]1c1nc2ccccc2s1)Nc1sc2c(c1C(=O)OCCOCCOC(=O)c1ccc(-c3c4nc(c(-c5cccc(S(=O)(=O)[O-])c5F)c5ccc([nH]5)c(-c5cccc(S(=O)(=O)[O-])c5F)c5nc(c(-c6cccc(S(=O)(=O)[O-])c6F)c6ccc3[nH]6)C=C5)C=C4)cc1)CCCC2
REMARK SMILES IDX 28 1 27 2 26 3 24 4 25 5 23 6 19 7 20 8 21 9 22 10 101 11
REMARK SMILES IDX 98 12 100 13 99 14 18 15 1 16 2 17 3 19 4 20 5 21 8 22 6 24
REMARK SMILES IDX 7 25 9 26 10 27 17 28 11 29 16 30 12 31 15 32 13 33 14 34
REMARK SMILES IDX 29 35 30 36 31 37 32 38 33 39 34 40 35 41 36 42 97 43 37 44
REMARK SMILES IDX 96 45 38 46 39 47 40 48 90 49 41 50 95 51 89 52 91 53 42 54
REMARK SMILES IDX 94 55 88 56 87 57 43 59 75 60 55 61 74 62 56 63 59 64 73 65
REMARK SMILES IDX 92 66 57 67 58 68 72 70 93 71 60 72 44 73 45 74 53 75 46 76
REMARK SMILES IDX 48 77 54 78 47 79 49 80 50 81 51 82 52 83 76 84 77 85 85 86
REMARK SMILES IDX 78 87 80 88 86 89 79 90 81 91 82 92 83 93 84 94 61 95 62 96
REMARK SMILES IDX 70 97 63 98 65 99 71 100 64 101 66 102 67 103 68 104 69 105
REMARK H PARENT 18 18 4 23 91 58 59 69
REMARK Flexibility Score: inf
ROOT
ATOM      1  C   UNL     1       5.919   2.016  -4.647  1.00  0.00     0.202 C 
ENDROOT
BRANCH   1   2
ATOM      2  C   UNL     1       4.590   1.476  -5.180  1.00  0.00     0.261 C 
BRANCH   2   3
ATOM      3  O   UNL     1       3.481   2.131  -4.546  1.00  0.00    -0.460 OA
BRANCH   3   4
ATOM      4  C   UNL     1       2.867   1.405  -3.571  1.00  0.00     0.341 C 
ATOM      5  O   UNL     1       3.092   0.215  -3.364  1.00  0.00    -0.246 OA
BRANCH   4   6
ATOM      6  C   UNL     1       1.995   2.204  -2.703  1.00  0.00     0.098 A 
ATOM      7  C   UNL     1       1.640   1.736  -1.441  1.00  0.00     0.110 A 
ATOM      8  S   UNL     1       0.585   2.781  -0.627  1.00  0.00    -0.122 S 
ATOM      9  C   UNL     1       0.592   3.896  -1.905  1.00  0.00     0.011 A 
ATOM     10  C   UNL     1       1.435   3.523  -2.938  1.00  0.00    -0.017 A 
ATOM     11  C   UNL     1      -0.225   5.151  -1.856  1.00  0.00     0.047 C 
ATOM     12  C   UNL     1       1.623   4.407  -4.146  1.00  0.00     0.038 C 
ATOM     13  C   UNL     1      -0.346   5.760  -3.259  1.00  0.00     0.006 C 
ATOM     14  C   UNL     1       1.018   5.811  -3.955  1.00  0.00     0.005 C 
BRANCH   7  15
ATOM     15  N   UNL     1       2.092   0.566  -0.857  1.00  0.00    -0.312 N 
ATOM     16  O   UNL     1       0.982   0.461   1.201  1.00  0.00    -0.268 OA
ATOM     17  C   UNL     1       1.793   0.034   0.381  1.00  0.00     0.280 C 
ATOM     18  H   UNL     1       2.717   0.036  -1.403  1.00  0.00     0.170 HD
BRANCH  17  19
ATOM     19  C   UNL     1       2.521  -1.306   0.637  1.00  0.00     0.364 C 
BRANCH  19  20
ATOM     20  N   UNL     1       3.583  -1.576  -0.379  1.00  0.00    -0.319 N 
ATOM     21  C   UNL     1       3.561  -2.999  -0.767  1.00  0.00     0.263 C 
ATOM     22  C   UNL     1       4.992  -1.366   0.106  1.00  0.00     0.245 C 
ATOM     23  H   UNL     1       3.369  -0.920  -1.130  1.00  0.00     0.349 HD
ATOM     24  C   UNL     1       4.317  -3.700   0.341  1.00  0.00     0.068 C 
ATOM     25  C   UNL     1       5.446  -2.735   0.657  1.00  0.00     0.079 C 
BRANCH  22  26
ATOM     26  C   UNL     1       5.271  -0.222   1.063  1.00  0.00     0.151 A 
ATOM     27  N   UNL     1       4.393   0.679   1.444  1.00  0.00    -0.235 NA
ATOM     28  S   UNL     1       6.841  -0.021   1.756  1.00  0.00    -0.113 S 
ATOM     29  C   UNL     1       4.907   1.474   2.446  1.00  0.00     0.082 A 
ATOM     30  C   UNL     1       6.236   1.222   2.784  1.00  0.00     0.055 A 
ATOM     31  C   UNL     1       4.200   2.470   3.146  1.00  0.00     0.030 A 
ATOM     32  C   UNL     1       6.882   1.922   3.816  1.00  0.00     0.021 A 
ATOM     33  C   UNL     1       4.829   3.166   4.182  1.00  0.00     0.002 A 
ATOM     34  C   UNL     1       6.152   2.890   4.514  1.00  0.00     0.002 A 
ENDBRANCH  22  26
ENDBRANCH  19  20
ENDBRANCH  17  19
ENDBRANCH   7  15
ENDBRANCH   4   6
ENDBRANCH   3   4
ENDBRANCH   2   3
ENDBRANCH   1   2
BRANCH   1  35
ATOM     35  O   UNL     1       6.166   1.788  -3.257  1.00  0.00    -0.374 OA
BRANCH  35  36
ATOM     36  C   UNL     1       5.646   2.763  -2.346  1.00  0.00     0.202 C 
BRANCH  36  37
ATOM     37  C   UNL     1       6.454   4.059  -2.209  1.00  0.00     0.261 C 
BRANCH  37  38
ATOM     38  O   UNL     1       6.331   4.882  -3.385  1.00  0.00    -0.460 OA
BRANCH  38  39
ATOM     39  C   UNL     1       7.448   4.966  -4.148  1.00  0.00     0.338 C 
ATOM     40  O   UNL     1       8.547   4.501  -3.895  1.00  0.00    -0.246 OA
BRANCH  39  41
ATOM     41  C   UNL     1       7.112   5.544  -5.466  1.00  0.00     0.060 A 
ATOM     42  C   UNL     1       7.582   4.871  -6.602  1.00  0.00     0.016 A 
ATOM     43  C   UNL     1       6.399   6.737  -5.596  1.00  0.00     0.016 A 
ATOM     44  C   UNL     1       7.389   5.417  -7.870  1.00  0.00     0.010 A 
ATOM     45  C   UNL     1       6.213   7.288  -6.869  1.00  0.00     0.010 A 
ATOM     46  C   UNL     1       6.740   6.650  -8.007  1.00  0.00    -0.014 A 
BRANCH  46  47
ATOM     47  C   UNL     1       6.737   7.337  -9.321  1.00  0.00     0.031 A 
ATOM     48  C   UNL     1       7.727   8.441  -9.569  1.00  0.00     0.074 A 
ATOM     49  C   UNL     1       5.859   6.988 -10.278  1.00  0.00     0.049 A 
ATOM     50  N   UNL     1       7.881   9.192 -10.628  1.00  0.00    -0.248 NA
ATOM     51  C   UNL     1       8.667   8.742  -8.476  1.00  0.00     0.031 C 
ATOM     52  C   UNL     1       4.849   5.939 -10.156  1.00  0.00     0.029 A 
ATOM     53  N   UNL     1       5.660   7.504 -11.535  1.00  0.00    -0.354 N 
ATOM     54  C   UNL     1       8.910  10.075 -10.320  1.00  0.00     0.074 A 
ATOM     55  C   UNL     1       9.338   9.772  -8.972  1.00  0.00     0.031 C 
ATOM     56  C   UNL     1       4.112   5.911 -11.280  1.00  0.00     0.029 A 
ATOM     57  C   UNL     1       4.586   6.952 -12.191  1.00  0.00     0.049 A 
ATOM     58  H   UNL     1       6.232   8.202 -11.928  1.00  0.00     0.167 HD
ATOM     59  C   UNL     1       9.459  11.040 -11.095  1.00  0.00     0.034 A 
ATOM     60  C   UNL     1       4.034   7.266 -13.380  1.00  0.00     0.034 A 
ATOM     61  C   UNL     1       9.051  11.322 -12.444  1.00  0.00     0.049 A 
ATOM     62  C   UNL     1       4.660   8.349 -14.221  1.00  0.00     0.074 A 
ATOM     63  C   UNL     1       9.588  12.239 -13.330  1.00  0.00     0.029 A 
ATOM     64  N   UNL     1       7.997  10.703 -13.097  1.00  0.00    -0.354 N 
ATOM     65  N   UNL     1       5.718   9.081 -13.970  1.00  0.00    -0.248 NA
ATOM     66  C   UNL     1       4.037   8.624 -15.524  1.00  0.00     0.031 C 
ATOM     67  C   UNL     1       8.843  12.189 -14.514  1.00  0.00     0.029 A 
ATOM     68  C   UNL     1       7.858  11.225 -14.371  1.00  0.00     0.049 A 
ATOM     69  H   UNL     1       7.431   9.996 -12.711  1.00  0.00     0.167 HD
ATOM     70  C   UNL     1       5.908   9.878 -15.094  1.00  0.00     0.074 A 
ATOM     71  C   UNL     1       4.866   9.525 -16.036  1.00  0.00     0.031 C 
ATOM     72  C   UNL     1       6.851  10.825 -15.321  1.00  0.00     0.034 A 
BRANCH  59  73
ATOM     73  C   UNL     1      10.588  11.846 -10.509  1.00  0.00     0.023 A 
ATOM     74  C   UNL     1      11.861  11.258 -10.364  1.00  0.00     0.012 A 
ATOM     75  C   UNL     1      10.404  13.196 -10.154  1.00  0.00     0.148 A 
ATOM     76  C   UNL     1      12.927  11.994  -9.846  1.00  0.00     0.002 A 
ATOM     77  C   UNL     1      11.481  13.934  -9.678  1.00  0.00     0.091 A 
ATOM     78  F   UNL     1       9.180  13.729 -10.276  1.00  0.00    -0.205 F 
ATOM     79  C   UNL     1      12.739  13.333  -9.514  1.00  0.00     0.022 A 
BRANCH  77  80
ATOM     80  S   UNL     1      11.355  15.685  -9.293  1.00  0.00     0.127 S 
ATOM     81  O   UNL     1      11.381  15.667  -7.831  1.00  0.00    -0.237 OA
ATOM     82  O   UNL     1      12.563  16.226  -9.917  1.00  0.00    -0.237 OA
ATOM     83  O   UNL     1      10.109  16.137  -9.894  1.00  0.00    -0.744 OA
ENDBRANCH  77  80
ENDBRANCH  59  73
BRANCH  60  84
ATOM     84  C   UNL     1       2.840   6.517 -13.862  1.00  0.00     0.023 A 
ATOM     85  C   UNL     1       2.965   5.635 -14.953  1.00  0.00     0.012 A 
ATOM     86  C   UNL     1       1.590   6.652 -13.227  1.00  0.00     0.148 A 
ATOM     87  C   UNL     1       1.861   4.920 -15.418  1.00  0.00     0.002 A 
ATOM     88  C   UNL     1       0.508   5.896 -13.661  1.00  0.00     0.091 A 
ATOM     89  F   UNL     1       1.488   7.512 -12.204  1.00  0.00    -0.205 F 
ATOM     90  C   UNL     1       0.636   5.041 -14.766  1.00  0.00     0.022 A 
BRANCH  88  91
ATOM     91  S   UNL     1      -1.067   5.891 -12.797  1.00  0.00     0.127 S 
ATOM     92  O   UNL     1      -1.923   6.620 -13.729  1.00  0.00    -0.237 OA
ATOM     93  O   UNL     1      -1.349   4.458 -12.692  1.00  0.00    -0.237 OA
ATOM     94  O   UNL     1      -0.816   6.546 -11.520  1.00  0.00    -0.744 OA
ENDBRANCH  88  91
ENDBRANCH  60  84
BRANCH  72  95
ATOM     95  C   UNL     1       6.833  11.532 -16.652  1.00  0.00     0.023 A 
ATOM     96  C   UNL     1       5.839  12.495 -16.919  1.00  0.00     0.012 A 
ATOM     97  C   UNL     1       7.849  11.306 -17.601  1.00  0.00     0.148 A 
ATOM     98  C   UNL     1       5.842  13.201 -18.122  1.00  0.00     0.002 A 
ATOM     99  C   UNL     1       7.872  12.047 -18.777  1.00  0.00     0.091 A 
ATOM    100  F   UNL     1       8.775  10.373 -17.337  1.00  0.00    -0.205 F 
ATOM    101  C   UNL     1       6.864  12.986 -19.044  1.00  0.00     0.022 A 
BRANCH  99 102
ATOM    102  S   UNL     1       9.203  11.904 -19.976  1.00  0.00     0.127 S 
ATOM    103  O   UNL     1       8.557  11.152 -21.050  1.00  0.00    -0.237 OA
ATOM    104  O   UNL     1       9.487  13.303 -20.296  1.00  0.00    -0.237 OA
ATOM    105  O   UNL     1      10.286  11.212 -19.290  1.00  0.00    -0.744 OA
ENDBRANCH  99 102
ENDBRANCH  72  95
ENDBRANCH  46  47
ENDBRANCH  39  41
ENDBRANCH  38  39
ENDBRANCH  37  38
ENDBRANCH  36  37
ENDBRANCH  35  36
ENDBRANCH   1  35
TORSDOF 21
