REMARK SMILES C=C(c1ccccc1)[C@@H](C(=O)OCCOCCOC(=O)c1ccc(-c2c3nc(c(-c4cccc(S(=O)(=O)[O-])c4F)c4ccc([nH]4)c(-c4cccc(S(=O)(=O)[O-])c4F)c4nc(c(-c5cccc(S(=O)(=O)[O-])c5F)c5ccc2[nH]5)C=C4)C=C3)cc1)S(C)(=O)=O
REMARK SMILES IDX 16 1 15 2 14 3 13 4 12 5 10 6 11 7 9 8 2 9 1 10 3 11 4 12
REMARK SMILES IDX 8 13 5 14 7 15 6 16 84 17 85 18 86 19 87 20 17 21 18 22
REMARK SMILES IDX 19 23 20 24 21 25 22 26 83 27 23 28 82 29 24 30 25 31 26 32
REMARK SMILES IDX 76 33 27 34 81 35 75 36 77 37 28 38 80 39 74 40 73 41 29 43
REMARK SMILES IDX 61 44 41 45 60 46 42 47 45 48 59 49 78 50 43 51 44 52 58 54
REMARK SMILES IDX 79 55 46 56 30 57 31 58 39 59 32 60 34 61 40 62 33 63 35 64
REMARK SMILES IDX 36 65 37 66 38 67 62 68 63 69 71 70 64 71 66 72 72 73 65 74
REMARK SMILES IDX 67 75 68 76 69 77 70 78 47 79 48 80 56 81 49 82 51 83 57 84
REMARK SMILES IDX 50 85 52 86 53 87 54 88 55 89
REMARK H PARENT 77 42 45 53
REMARK Flexibility Score: inf
ROOT
ATOM      1  C   UNL     1       3.698   0.748  -1.745  1.00  0.00     0.202 C 
ENDROOT
BRANCH   1   2
ATOM      2  O   UNL     1       4.199   0.795  -3.080  1.00  0.00    -0.374 OA
BRANCH   2   3
ATOM      3  C   UNL     1       3.268   1.102  -4.115  1.00  0.00     0.202 C 
BRANCH   3   4
ATOM      4  C   UNL     1       2.270   0.014  -4.527  1.00  0.00     0.261 C 
BRANCH   4   5
ATOM      5  O   UNL     1       1.492  -0.491  -3.424  1.00  0.00    -0.462 OA
BRANCH   5   6
ATOM      6  C   UNL     1       1.746  -1.789  -3.085  1.00  0.00     0.328 C 
ATOM      7  O   UNL     1       2.513  -2.506  -3.718  1.00  0.00    -0.250 OA
BRANCH   6   8
ATOM      8  C   UNL     1       0.922  -2.283  -1.903  1.00  0.00     0.247 C 
BRANCH   8   9
ATOM      9  C   UNL     1       0.241  -1.243  -1.004  1.00  0.00    -0.019 C 
ATOM     10  C   UNL     1       0.812  -0.543  -0.002  1.00  0.00     0.015 C 
BRANCH   9  11
ATOM     11  C   UNL     1      -1.224  -1.050  -1.169  1.00  0.00    -0.021 A 
ATOM     12  C   UNL     1      -2.103  -2.142  -1.187  1.00  0.00     0.008 A 
ATOM     13  C   UNL     1      -1.768   0.243  -1.259  1.00  0.00     0.008 A 
ATOM     14  C   UNL     1      -3.483  -1.948  -1.282  1.00  0.00     0.001 A 
ATOM     15  C   UNL     1      -3.150   0.436  -1.342  1.00  0.00     0.001 A 
ATOM     16  C   UNL     1      -4.006  -0.660  -1.353  1.00  0.00     0.000 A 
ENDBRANCH   9  11
ENDBRANCH   8   9
BRANCH   8  17
ATOM     17  S   UNL     1       2.003  -3.381  -0.952  1.00  0.00     0.165 S 
ATOM     18  C   UNL     1       0.988  -3.958   0.386  1.00  0.00     0.159 C 
ATOM     19  O   UNL     1       2.288  -4.579  -1.724  1.00  0.00    -0.228 OA
ATOM     20  O   UNL     1       3.092  -2.625  -0.355  1.00  0.00    -0.228 OA
ENDBRANCH   8  17
ENDBRANCH   6   8
ENDBRANCH   5   6
ENDBRANCH   4   5
ENDBRANCH   3   4
ENDBRANCH   2   3
ENDBRANCH   1   2
BRANCH   1  21
ATOM     21  C   UNL     1       3.346   2.085  -1.077  1.00  0.00     0.261 C 
BRANCH  21  22
ATOM     22  O   UNL     1       2.279   2.779  -1.749  1.00  0.00    -0.460 OA
BRANCH  22  23
ATOM     23  C   UNL     1       2.631   3.968  -2.294  1.00  0.00     0.338 C 
ATOM     24  O   UNL     1       3.706   4.546  -2.172  1.00  0.00    -0.246 OA
BRANCH  23  25
ATOM     25  C   UNL     1       1.602   4.418  -3.247  1.00  0.00     0.060 A 
ATOM     26  C   UNL     1       2.010   4.671  -4.564  1.00  0.00     0.016 A 
ATOM     27  C   UNL     1       0.281   4.645  -2.857  1.00  0.00     0.016 A 
ATOM     28  C   UNL     1       1.106   5.190  -5.489  1.00  0.00     0.010 A 
ATOM     29  C   UNL     1      -0.622   5.176  -3.785  1.00  0.00     0.010 A 
ATOM     30  C   UNL     1      -0.206   5.479  -5.095  1.00  0.00    -0.014 A 
BRANCH  30  31
ATOM     31  C   UNL     1      -1.111   6.190  -6.028  1.00  0.00     0.031 A 
ATOM     32  C   UNL     1      -1.329   7.667  -5.866  1.00  0.00     0.074 A 
ATOM     33  C   UNL     1      -1.745   5.517  -7.005  1.00  0.00     0.049 A 
ATOM     34  N   UNL     1      -2.093   8.471  -6.558  1.00  0.00    -0.248 NA
ATOM     35  C   UNL     1      -0.591   8.325  -4.776  1.00  0.00     0.031 C 
ATOM     36  C   UNL     1      -1.624   4.081  -7.250  1.00  0.00     0.029 A 
ATOM     37  N   UNL     1      -2.642   5.949  -7.949  1.00  0.00    -0.354 N 
ATOM     38  C   UNL     1      -1.951   9.724  -5.974  1.00  0.00     0.074 A 
ATOM     39  C   UNL     1      -1.036   9.570  -4.863  1.00  0.00     0.031 C 
ATOM     40  C   UNL     1      -2.455   3.741  -8.249  1.00  0.00     0.029 A 
ATOM     41  C   UNL     1      -3.178   4.930  -8.698  1.00  0.00     0.049 A 
ATOM     42  H   UNL     1      -2.879   6.896  -8.076  1.00  0.00     0.167 HD
ATOM     43  C   UNL     1      -2.518  10.898  -6.339  1.00  0.00     0.034 A 
ATOM     44  C   UNL     1      -4.163   4.947  -9.619  1.00  0.00     0.034 A 
ATOM     45  C   UNL     1      -3.417  11.049  -7.452  1.00  0.00     0.049 A 
ATOM     46  C   UNL     1      -4.794   6.259  -9.999  1.00  0.00     0.074 A 
ATOM     47  C   UNL     1      -3.984  12.208  -7.950  1.00  0.00     0.029 A 
ATOM     48  N   UNL     1      -3.901  10.004  -8.225  1.00  0.00    -0.354 N 
ATOM     49  N   UNL     1      -4.536   7.461  -9.542  1.00  0.00    -0.248 NA
ATOM     50  C   UNL     1      -5.828   6.224 -11.044  1.00  0.00     0.031 C 
ATOM     51  C   UNL     1      -4.838  11.860  -9.003  1.00  0.00     0.029 A 
ATOM     52  C   UNL     1      -4.782  10.486  -9.178  1.00  0.00     0.049 A 
ATOM     53  H   UNL     1      -3.654   9.058  -8.112  1.00  0.00     0.167 HD
ATOM     54  C   UNL     1      -5.361   8.327 -10.252  1.00  0.00     0.074 A 
ATOM     55  C   UNL     1      -6.108   7.513 -11.190  1.00  0.00     0.031 C 
ATOM     56  C   UNL     1      -5.499   9.671 -10.127  1.00  0.00     0.034 A 
BRANCH  43  57
ATOM     57  C   UNL     1      -2.164  12.119  -5.531  1.00  0.00     0.023 A 
ATOM     58  C   UNL     1      -0.878  12.685  -5.646  1.00  0.00     0.012 A 
ATOM     59  C   UNL     1      -3.110  12.723  -4.680  1.00  0.00     0.148 A 
ATOM     60  C   UNL     1      -0.526  13.808  -4.898  1.00  0.00     0.002 A 
ATOM     61  C   UNL     1      -2.765  13.867  -3.969  1.00  0.00     0.091 A 
ATOM     62  F   UNL     1      -4.319  12.156  -4.561  1.00  0.00    -0.205 F 
ATOM     63  C   UNL     1      -1.471  14.403  -4.067  1.00  0.00     0.022 A 
BRANCH  61  64
ATOM     64  S   UNL     1      -3.940  14.741  -2.929  1.00  0.00     0.127 S 
ATOM     65  O   UNL     1      -3.514  14.331  -1.592  1.00  0.00    -0.237 OA
ATOM     66  O   UNL     1      -3.662  16.141  -3.254  1.00  0.00    -0.237 OA
ATOM     67  O   UNL     1      -5.257  14.277  -3.342  1.00  0.00    -0.744 OA
ENDBRANCH  61  64
ENDBRANCH  43  57
BRANCH  44  68
ATOM     68  C   UNL     1      -4.594   3.667 -10.245  1.00  0.00     0.023 A 
ATOM     69  C   UNL     1      -4.274   3.399 -11.588  1.00  0.00     0.012 A 
ATOM     70  C   UNL     1      -5.261   2.684  -9.486  1.00  0.00     0.148 A 
ATOM     71  C   UNL     1      -4.623   2.179 -12.170  1.00  0.00     0.002 A 
ATOM     72  C   UNL     1      -5.555   1.451 -10.053  1.00  0.00     0.091 A 
ATOM     73  F   UNL     1      -5.570   2.969  -8.212  1.00  0.00    -0.205 F 
ATOM     74  C   UNL     1      -5.250   1.201 -11.400  1.00  0.00     0.022 A 
BRANCH  72  75
ATOM     75  S   UNL     1      -6.230   0.087  -9.099  1.00  0.00     0.127 S 
ATOM     76  O   UNL     1      -7.565  -0.050  -9.675  1.00  0.00    -0.237 OA
ATOM     77  O   UNL     1      -5.302  -0.996  -9.427  1.00  0.00    -0.237 OA
ATOM     78  O   UNL     1      -6.185   0.516  -7.708  1.00  0.00    -0.744 OA
ENDBRANCH  72  75
ENDBRANCH  44  68
BRANCH  56  79
ATOM     79  C   UNL     1      -6.495  10.359 -11.025  1.00  0.00     0.023 A 
ATOM     80  C   UNL     1      -7.874  10.206 -10.777  1.00  0.00     0.012 A 
ATOM     81  C   UNL     1      -6.070  11.219 -12.057  1.00  0.00     0.148 A 
ATOM     82  C   UNL     1      -8.814  10.877 -11.559  1.00  0.00     0.002 A 
ATOM     83  C   UNL     1      -7.011  11.921 -12.802  1.00  0.00     0.091 A 
ATOM     84  F   UNL     1      -4.754  11.338 -12.287  1.00  0.00    -0.205 F 
ATOM     85  C   UNL     1      -8.383  11.743 -12.562  1.00  0.00     0.022 A 
BRANCH  83  86
ATOM     86  S   UNL     1      -6.550  13.126 -14.052  1.00  0.00     0.127 S 
ATOM     87  O   UNL     1      -6.925  12.435 -15.285  1.00  0.00    -0.237 OA
ATOM     88  O   UNL     1      -7.399  14.268 -13.710  1.00  0.00    -0.237 OA
ATOM     89  O   UNL     1      -5.123  13.360 -13.878  1.00  0.00    -0.744 OA
ENDBRANCH  83  86
ENDBRANCH  56  79
ENDBRANCH  30  31
ENDBRANCH  23  25
ENDBRANCH  22  23
ENDBRANCH  21  22
ENDBRANCH   1  21
TORSDOF 20
