REMARK SMILES COc1cccc(-c2c(C(=O)OCCOCCOC(=O)c3ccc(-c4c5nc(c(-c6cccc(S(=O)(=O)[O-])c6F)c6ccc([nH]6)c(-c6cccc(S(=O)(=O)[O-])c6F)c6nc(c(-c7cccc(S(=O)(=O)[O-])c7F)c7ccc4[nH]7)C=C6)C=C5)cc3)nnn2-c2ccc(OC(F)(F)F)cc2)c1
REMARK SMILES IDX 15 1 14 2 13 3 12 4 10 5 11 6 9 7 8 8 86 9 84 10 85 11 7 12
REMARK SMILES IDX 3 13 4 14 98 15 5 16 6 17 2 18 1 19 87 20 88 21 97 22 89 23
REMARK SMILES IDX 96 24 90 25 91 26 92 27 93 28 94 29 95 30 16 31 17 32 18 33
REMARK SMILES IDX 19 34 20 35 21 36 22 37 83 38 23 39 82 40 24 41 25 42 26 43
REMARK SMILES IDX 76 44 27 45 81 46 75 47 77 48 28 49 80 50 74 51 73 52 29 54
REMARK SMILES IDX 61 55 41 56 60 57 42 58 45 59 59 60 78 61 43 62 44 63 58 65
REMARK SMILES IDX 79 66 46 67 30 68 31 69 39 70 32 71 34 72 40 73 33 74 35 75
REMARK SMILES IDX 36 76 37 77 38 78 62 79 63 80 71 81 64 82 66 83 72 84 65 85
REMARK SMILES IDX 67 86 68 87 69 88 70 89 47 90 48 91 56 92 49 93 51 94 57 95
REMARK SMILES IDX 50 96 52 97 53 98 54 99 55 100
REMARK H PARENT 77 53 45 64
REMARK Flexibility Score: inf
ROOT
ATOM      1  O   UNL     1       4.131  -8.505  -0.846  1.00  0.00    -0.374 OA
ENDROOT
BRANCH   1   2
ATOM      2  C   UNL     1       2.767  -8.402  -0.439  1.00  0.00     0.202 C 
BRANCH   2   3
ATOM      3  C   UNL     1       2.462  -7.987   1.001  1.00  0.00     0.261 C 
BRANCH   3   4
ATOM      4  O   UNL     1       2.884  -6.645   1.289  1.00  0.00    -0.458 OA
BRANCH   4   5
ATOM      5  C   UNL     1       3.940  -6.544   2.150  1.00  0.00     0.361 C 
ATOM      6  O   UNL     1       4.448  -7.491   2.735  1.00  0.00    -0.244 OA
BRANCH   5   7
ATOM      7  C   UNL     1       4.485  -5.201   2.228  1.00  0.00     0.198 A 
ATOM      8  C   UNL     1       3.845  -3.975   2.345  1.00  0.00     0.109 A 
ATOM      9  N   UNL     1       4.912  -3.110   2.589  1.00  0.00    -0.212 N 
ATOM     10  N   UNL     1       5.845  -4.999   2.152  1.00  0.00    -0.122 NA
ATOM     11  N   UNL     1       6.077  -3.700   2.241  1.00  0.00    -0.061 NA
BRANCH   8  12
ATOM     12  C   UNL     1       2.441  -3.554   2.335  1.00  0.00     0.007 A 
ATOM     13  C   UNL     1       0.763  -1.882   1.752  1.00  0.00     0.119 A 
ATOM     14  C   UNL     1      -0.177  -2.584   2.505  1.00  0.00     0.046 A 
ATOM     15  C   UNL     1       2.064  -2.376   1.655  1.00  0.00     0.056 A 
ATOM     16  C   UNL     1       0.167  -3.777   3.139  1.00  0.00     0.005 A 
ATOM     17  C   UNL     1       1.473  -4.260   3.058  1.00  0.00     0.011 A 
BRANCH  13  18
ATOM     18  O   UNL     1       0.312  -0.702   1.234  1.00  0.00    -0.497 OA
ATOM     19  C   UNL     1       0.991  -0.177   0.097  1.00  0.00     0.278 C 
ENDBRANCH  13  18
ENDBRANCH   8  12
BRANCH   9  20
ATOM     20  C   UNL     1       4.916  -1.885   3.293  1.00  0.00     0.067 A 
ATOM     21  C   UNL     1       5.795  -0.866   2.925  1.00  0.00     0.032 A 
ATOM     22  C   UNL     1       4.064  -1.718   4.391  1.00  0.00     0.032 A 
ATOM     23  C   UNL     1       5.762   0.345   3.624  1.00  0.00     0.049 A 
ATOM     24  C   UNL     1       4.072  -0.522   5.109  1.00  0.00     0.049 A 
ATOM     25  C   UNL     1       4.905   0.525   4.717  1.00  0.00     0.129 A 
BRANCH  25  26
ATOM     26  O   UNL     1       4.979   1.754   5.308  1.00  0.00    -0.406 OA
BRANCH  26  27
ATOM     27  C   UNL     1       4.134   1.998   6.419  1.00  0.00     0.573 C 
ATOM     28  F   UNL     1       2.831   1.840   6.105  1.00  0.00    -0.132 F 
ATOM     29  F   UNL     1       4.447   1.178   7.449  1.00  0.00    -0.132 F 
ATOM     30  F   UNL     1       4.315   3.270   6.838  1.00  0.00    -0.132 F 
ENDBRANCH  26  27
ENDBRANCH  25  26
ENDBRANCH   9  20
ENDBRANCH   5   7
ENDBRANCH   4   5
ENDBRANCH   3   4
ENDBRANCH   2   3
ENDBRANCH   1   2
BRANCH   1  31
ATOM     31  C   UNL     1       4.962  -7.348  -0.908  1.00  0.00     0.202 C 
BRANCH  31  32
ATOM     32  C   UNL     1       4.674  -6.286  -1.960  1.00  0.00     0.261 C 
BRANCH  32  33
ATOM     33  O   UNL     1       3.341  -5.815  -1.890  1.00  0.00    -0.460 OA
BRANCH  33  34
ATOM     34  C   UNL     1       2.521  -6.369  -2.816  1.00  0.00     0.338 C 
ATOM     35  O   UNL     1       2.733  -7.353  -3.494  1.00  0.00    -0.246 OA
BRANCH  34  36
ATOM     36  C   UNL     1       1.361  -5.487  -2.984  1.00  0.00     0.060 A 
ATOM     37  C   UNL     1       0.513  -5.814  -4.044  1.00  0.00     0.016 A 
ATOM     38  C   UNL     1       1.388  -4.213  -2.400  1.00  0.00     0.016 A 
ATOM     39  C   UNL     1      -0.082  -4.780  -4.722  1.00  0.00     0.010 A 
ATOM     40  C   UNL     1       0.822  -3.182  -3.098  1.00  0.00     0.010 A 
ATOM     41  C   UNL     1       0.189  -3.476  -4.301  1.00  0.00    -0.014 A 
BRANCH  41  42
ATOM     42  C   UNL     1      -0.301  -2.387  -5.105  1.00  0.00     0.031 A 
ATOM     43  C   UNL     1      -1.737  -2.157  -4.875  1.00  0.00     0.074 A 
ATOM     44  C   UNL     1       0.510  -1.646  -5.880  1.00  0.00     0.049 A 
ATOM     45  N   UNL     1      -2.711  -2.509  -5.644  1.00  0.00    -0.248 NA
ATOM     46  C   UNL     1      -2.149  -1.733  -3.528  1.00  0.00     0.031 C 
ATOM     47  C   UNL     1       1.975  -1.661  -5.945  1.00  0.00     0.029 A 
ATOM     48  N   UNL     1       0.178  -0.617  -6.698  1.00  0.00    -0.354 N 
ATOM     49  C   UNL     1      -3.851  -2.085  -4.975  1.00  0.00     0.074 A 
ATOM     50  C   UNL     1      -3.469  -1.904  -3.602  1.00  0.00     0.031 C 
ATOM     51  C   UNL     1       2.401  -0.535  -6.566  1.00  0.00     0.029 A 
ATOM     52  C   UNL     1       1.246   0.199  -7.052  1.00  0.00     0.049 A 
ATOM     53  H   UNL     1      -0.741  -0.461  -7.015  1.00  0.00     0.167 HD
ATOM     54  C   UNL     1      -4.908  -1.580  -5.664  1.00  0.00     0.034 A 
ATOM     55  C   UNL     1       1.154   1.423  -7.630  1.00  0.00     0.034 A 
ATOM     56  C   UNL     1      -4.822  -1.916  -7.065  1.00  0.00     0.049 A 
ATOM     57  C   UNL     1      -0.187   1.510  -8.253  1.00  0.00     0.074 A 
ATOM     58  C   UNL     1      -4.788  -3.087  -7.792  1.00  0.00     0.029 A 
ATOM     59  N   UNL     1      -4.338  -0.931  -7.892  1.00  0.00    -0.354 N 
ATOM     60  N   UNL     1      -0.551   0.772  -9.265  1.00  0.00    -0.248 NA
ATOM     61  C   UNL     1      -1.275   2.079  -7.473  1.00  0.00     0.031 C 
ATOM     62  C   UNL     1      -3.898  -2.828  -8.875  1.00  0.00     0.029 A 
ATOM     63  C   UNL     1      -3.477  -1.498  -8.791  1.00  0.00     0.049 A 
ATOM     64  H   UNL     1      -4.571   0.025  -7.845  1.00  0.00     0.167 HD
ATOM     65  C   UNL     1      -1.857   0.403  -8.971  1.00  0.00     0.074 A 
ATOM     66  C   UNL     1      -2.289   1.338  -7.932  1.00  0.00     0.031 C 
ATOM     67  C   UNL     1      -2.349  -0.804  -9.378  1.00  0.00     0.034 A 
BRANCH  54  68
ATOM     68  C   UNL     1      -5.766  -0.431  -5.179  1.00  0.00     0.023 A 
ATOM     69  C   UNL     1      -6.889  -0.103  -5.968  1.00  0.00     0.012 A 
ATOM     70  C   UNL     1      -5.394   0.503  -4.182  1.00  0.00     0.148 A 
ATOM     71  C   UNL     1      -7.564   1.112  -5.814  1.00  0.00     0.002 A 
ATOM     72  C   UNL     1      -6.114   1.672  -3.979  1.00  0.00     0.091 A 
ATOM     73  F   UNL     1      -4.257   0.354  -3.501  1.00  0.00    -0.205 F 
ATOM     74  C   UNL     1      -7.180   1.999  -4.815  1.00  0.00     0.022 A 
BRANCH  72  75
ATOM     75  S   UNL     1      -5.674   2.831  -2.675  1.00  0.00     0.127 S 
ATOM     76  O   UNL     1      -5.108   3.934  -3.446  1.00  0.00    -0.237 OA
ATOM     77  O   UNL     1      -6.977   3.100  -2.067  1.00  0.00    -0.237 OA
ATOM     78  O   UNL     1      -4.747   2.116  -1.806  1.00  0.00    -0.744 OA
ENDBRANCH  72  75
ENDBRANCH  54  68
BRANCH  55  79
ATOM     79  C   UNL     1       2.016   2.614  -7.453  1.00  0.00     0.023 A 
ATOM     80  C   UNL     1       2.033   3.627  -8.431  1.00  0.00     0.012 A 
ATOM     81  C   UNL     1       2.605   2.888  -6.198  1.00  0.00     0.148 A 
ATOM     82  C   UNL     1       2.601   4.879  -8.162  1.00  0.00     0.002 A 
ATOM     83  C   UNL     1       3.171   4.131  -5.936  1.00  0.00     0.091 A 
ATOM     84  F   UNL     1       2.530   1.958  -5.237  1.00  0.00    -0.205 F 
ATOM     85  C   UNL     1       3.162   5.135  -6.914  1.00  0.00     0.022 A 
BRANCH  83  86
ATOM     86  S   UNL     1       3.880   4.548  -4.336  1.00  0.00     0.127 S 
ATOM     87  O   UNL     1       5.226   4.981  -4.709  1.00  0.00    -0.237 OA
ATOM     88  O   UNL     1       2.995   5.618  -3.882  1.00  0.00    -0.237 OA
ATOM     89  O   UNL     1       3.837   3.324  -3.546  1.00  0.00    -0.744 OA
ENDBRANCH  83  86
ENDBRANCH  55  79
BRANCH  67  90
ATOM     90  C   UNL     1      -1.519  -1.599 -10.358  1.00  0.00     0.023 A 
ATOM     91  C   UNL     1      -0.273  -2.164 -10.009  1.00  0.00     0.012 A 
ATOM     92  C   UNL     1      -2.093  -1.934 -11.594  1.00  0.00     0.148 A 
ATOM     93  C   UNL     1       0.393  -3.030 -10.883  1.00  0.00     0.002 A 
ATOM     94  C   UNL     1      -1.453  -2.831 -12.439  1.00  0.00     0.091 A 
ATOM     95  F   UNL     1      -3.282  -1.395 -11.903  1.00  0.00    -0.205 F 
ATOM     96  C   UNL     1      -0.205  -3.374 -12.092  1.00  0.00     0.022 A 
BRANCH  94  97
ATOM     97  S   UNL     1      -2.226  -3.420 -13.946  1.00  0.00     0.127 S 
ATOM     98  O   UNL     1      -1.406  -2.788 -14.977  1.00  0.00    -0.237 OA
ATOM     99  O   UNL     1      -2.061  -4.870 -13.835  1.00  0.00    -0.237 OA
ATOM    100  O   UNL     1      -3.612  -2.972 -13.890  1.00  0.00    -0.744 OA
ENDBRANCH  94  97
ENDBRANCH  67  90
ENDBRANCH  41  42
ENDBRANCH  34  36
ENDBRANCH  33  34
ENDBRANCH  32  33
ENDBRANCH  31  32
ENDBRANCH   1  31
TORSDOF 22
