REMARK SMILES COc1ccc(-c2noc(CC(=O)OCCOCCOC(=O)c3ccc(-c4c5nc(c(-c6cccc(S(=O)(=O)[O-])c6F)c6ccc([nH]6)c(-c6cccc(S(=O)(=O)[O-])c6F)c6nc(c(-c7cccc(S(=O)(=O)[O-])c7F)c7ccc4[nH]7)C=C6)C=C5)cc3)c2-c2ccc(OC)cc2)cc1
REMARK SMILES IDX 17 1 16 2 15 3 14 4 12 5 13 6 11 7 10 8 7 9 8 10 86 11 9 12
REMARK SMILES IDX 6 13 3 14 4 15 96 16 5 17 95 18 2 19 1 20 87 21 88 22 94 23
REMARK SMILES IDX 89 24 93 25 90 26 91 27 92 28 18 29 19 30 20 31 21 32 22 33
REMARK SMILES IDX 23 34 24 35 85 36 25 37 84 38 26 39 27 40 28 41 78 42 29 43
REMARK SMILES IDX 83 44 77 45 79 46 30 47 82 48 76 49 75 50 31 52 63 53 43 54
REMARK SMILES IDX 62 55 44 56 47 57 61 58 80 59 45 60 46 61 60 63 81 64 48 65
REMARK SMILES IDX 32 66 33 67 41 68 34 69 36 70 42 71 35 72 37 73 38 74 39 75
REMARK SMILES IDX 40 76 64 77 65 78 73 79 66 80 68 81 74 82 67 83 69 84 70 85
REMARK SMILES IDX 71 86 72 87 49 88 50 89 58 90 51 91 53 92 59 93 52 94 54 95
REMARK SMILES IDX 55 96 56 97 57 98
REMARK H PARENT 79 51 47 62
REMARK Flexibility Score: inf
ROOT
ATOM      1  O   UNL     1       1.502   0.573  12.793  1.00  0.00    -0.374 OA
ENDROOT
BRANCH   1   2
ATOM      2  C   UNL     1       1.352   1.952  12.453  1.00  0.00     0.202 C 
BRANCH   2   3
ATOM      3  C   UNL     1       2.562   2.643  11.816  1.00  0.00     0.261 C 
BRANCH   3   4
ATOM      4  O   UNL     1       2.970   2.002  10.595  1.00  0.00    -0.463 OA
BRANCH   4   5
ATOM      5  C   UNL     1       4.209   1.451  10.609  1.00  0.00     0.313 C 
ATOM      6  O   UNL     1       5.013   1.569  11.532  1.00  0.00    -0.252 OA
BRANCH   5   7
ATOM      7  C   UNL     1       4.545   0.598   9.416  1.00  0.00     0.201 C 
BRANCH   7   8
ATOM      8  C   UNL     1       3.518   0.482   8.351  1.00  0.00     0.156 A 
ATOM      9  C   UNL     1       2.260   0.295   6.528  1.00  0.00     0.122 A 
ATOM     10  N   UNL     1       1.698  -0.490   7.460  1.00  0.00    -0.079 NA
ATOM     11  C   UNL     1       3.399   0.966   7.066  1.00  0.00     0.053 A 
ATOM     12  O   UNL     1       2.497  -0.388   8.581  1.00  0.00    -0.359 OA
BRANCH   9  13
ATOM     13  C   UNL     1       1.764   0.331   5.157  1.00  0.00     0.005 A 
ATOM     14  C   UNL     1       0.857   0.449   2.494  1.00  0.00     0.118 A 
ATOM     15  C   UNL     1      -0.017   0.698   3.557  1.00  0.00     0.047 A 
ATOM     16  C   UNL     1       2.188   0.138   2.765  1.00  0.00     0.047 A 
ATOM     17  C   UNL     1       0.426   0.627   4.883  1.00  0.00     0.014 A 
ATOM     18  C   UNL     1       2.638   0.079   4.089  1.00  0.00     0.014 A 
BRANCH  14  19
ATOM     19  O   UNL     1       0.301   0.564   1.250  1.00  0.00    -0.497 OA
ATOM     20  C   UNL     1       1.046   0.031   0.164  1.00  0.00     0.278 C 
ENDBRANCH  14  19
ENDBRANCH   9  13
BRANCH  11  21
ATOM     21  C   UNL     1       4.329   1.885   6.452  1.00  0.00    -0.012 A 
ATOM     22  C   UNL     1       3.886   3.122   5.979  1.00  0.00     0.013 A 
ATOM     23  C   UNL     1       5.679   1.539   6.322  1.00  0.00     0.013 A 
ATOM     24  C   UNL     1       4.797   4.016   5.412  1.00  0.00     0.047 A 
ATOM     25  C   UNL     1       6.588   2.440   5.766  1.00  0.00     0.047 A 
ATOM     26  C   UNL     1       6.151   3.687   5.320  1.00  0.00     0.118 A 
BRANCH  26  27
ATOM     27  O   UNL     1       6.946   4.645   4.757  1.00  0.00    -0.497 OA
ATOM     28  C   UNL     1       8.342   4.524   4.995  1.00  0.00     0.278 C 
ENDBRANCH  26  27
ENDBRANCH  11  21
ENDBRANCH   7   8
ENDBRANCH   5   7
ENDBRANCH   4   5
ENDBRANCH   3   4
ENDBRANCH   2   3
ENDBRANCH   1   2
BRANCH   1  29
ATOM     29  C   UNL     1       1.451  -0.372  11.722  1.00  0.00     0.202 C 
BRANCH  29  30
ATOM     30  C   UNL     1       0.083  -0.621  11.072  1.00  0.00     0.261 C 
BRANCH  30  31
ATOM     31  O   UNL     1      -0.428   0.544  10.400  1.00  0.00    -0.460 OA
BRANCH  31  32
ATOM     32  C   UNL     1      -1.615   0.996  10.865  1.00  0.00     0.338 C 
ATOM     33  O   UNL     1      -2.322   0.474  11.720  1.00  0.00    -0.246 OA
BRANCH  32  34
ATOM     34  C   UNL     1      -1.888   2.346  10.343  1.00  0.00     0.060 A 
ATOM     35  C   UNL     1      -2.099   3.367  11.279  1.00  0.00     0.016 A 
ATOM     36  C   UNL     1      -2.014   2.600   8.976  1.00  0.00     0.016 A 
ATOM     37  C   UNL     1      -2.485   4.636  10.853  1.00  0.00     0.010 A 
ATOM     38  C   UNL     1      -2.412   3.875   8.551  1.00  0.00     0.010 A 
ATOM     39  C   UNL     1      -2.680   4.889   9.489  1.00  0.00    -0.014 A 
BRANCH  39  40
ATOM     40  C   UNL     1      -3.265   6.185   9.065  1.00  0.00     0.031 A 
ATOM     41  C   UNL     1      -4.732   6.267   8.742  1.00  0.00     0.074 A 
ATOM     42  C   UNL     1      -2.497   7.287   8.986  1.00  0.00     0.049 A 
ATOM     43  N   UNL     1      -5.441   7.302   8.371  1.00  0.00    -0.248 NA
ATOM     44  C   UNL     1      -5.505   5.019   8.856  1.00  0.00     0.031 C 
ATOM     45  C   UNL     1      -1.065   7.338   9.274  1.00  0.00     0.029 A 
ATOM     46  N   UNL     1      -2.814   8.571   8.620  1.00  0.00    -0.354 N 
ATOM     47  C   UNL     1      -6.735   6.830   8.187  1.00  0.00     0.074 A 
ATOM     48  C   UNL     1      -6.712   5.412   8.475  1.00  0.00     0.031 C 
ATOM     49  C   UNL     1      -0.620   8.585   9.048  1.00  0.00     0.029 A 
ATOM     50  C   UNL     1      -1.730   9.415   8.582  1.00  0.00     0.049 A 
ATOM     51  H   UNL     1      -3.730   8.861   8.406  1.00  0.00     0.167 HD
ATOM     52  C   UNL     1      -7.845   7.518   7.829  1.00  0.00     0.034 A 
ATOM     53  C   UNL     1      -1.639  10.704   8.198  1.00  0.00     0.034 A 
ATOM     54  C   UNL     1      -7.873   8.931   7.562  1.00  0.00     0.049 A 
ATOM     55  C   UNL     1      -2.883  11.437   7.770  1.00  0.00     0.074 A 
ATOM     56  C   UNL     1      -8.963   9.727   7.253  1.00  0.00     0.029 A 
ATOM     57  N   UNL     1      -6.761   9.758   7.555  1.00  0.00    -0.354 N 
ATOM     58  N   UNL     1      -4.123  11.011   7.737  1.00  0.00    -0.248 NA
ATOM     59  C   UNL     1      -2.720  12.838   7.353  1.00  0.00     0.031 C 
ATOM     60  C   UNL     1      -8.505  11.031   7.034  1.00  0.00     0.029 A 
ATOM     61  C   UNL     1      -7.133  11.051   7.225  1.00  0.00     0.049 A 
ATOM     62  H   UNL     1      -5.841   9.469   7.755  1.00  0.00     0.167 HD
ATOM     63  C   UNL     1      -4.889  12.095   7.321  1.00  0.00     0.074 A 
ATOM     64  C   UNL     1      -3.977  13.206   7.141  1.00  0.00     0.031 C 
ATOM     65  C   UNL     1      -6.224  12.160   7.090  1.00  0.00     0.034 A 
BRANCH  52  66
ATOM     66  C   UNL     1      -9.140   6.755   7.739  1.00  0.00     0.023 A 
ATOM     67  C   UNL     1      -9.798   6.364   8.922  1.00  0.00     0.012 A 
ATOM     68  C   UNL     1      -9.737   6.483   6.493  1.00  0.00     0.148 A 
ATOM     69  C   UNL     1     -11.017   5.689   8.867  1.00  0.00     0.002 A 
ATOM     70  C   UNL     1     -10.971   5.844   6.446  1.00  0.00     0.091 A 
ATOM     71  F   UNL     1      -9.084   6.843   5.378  1.00  0.00    -0.205 F 
ATOM     72  C   UNL     1     -11.608   5.439   7.631  1.00  0.00     0.022 A 
BRANCH  70  73
ATOM     73  S   UNL     1     -11.845   5.540   4.906  1.00  0.00     0.127 S 
ATOM     74  O   UNL     1     -11.682   4.095   4.755  1.00  0.00    -0.237 OA
ATOM     75  O   UNL     1     -13.206   5.969   5.233  1.00  0.00    -0.237 OA
ATOM     76  O   UNL     1     -11.178   6.355   3.901  1.00  0.00    -0.744 OA
ENDBRANCH  70  73
ENDBRANCH  52  66
BRANCH  53  77
ATOM     77  C   UNL     1      -0.319  11.395   8.229  1.00  0.00     0.023 A 
ATOM     78  C   UNL     1      -0.089  12.414   9.172  1.00  0.00     0.012 A 
ATOM     79  C   UNL     1       0.715  11.032   7.343  1.00  0.00     0.148 A 
ATOM     80  C   UNL     1       1.139  13.075   9.219  1.00  0.00     0.002 A 
ATOM     81  C   UNL     1       1.954  11.656   7.432  1.00  0.00     0.091 A 
ATOM     82  F   UNL     1       0.469  10.076   6.436  1.00  0.00    -0.205 F 
ATOM     83  C   UNL     1       2.163  12.688   8.358  1.00  0.00     0.022 A 
BRANCH  81  84
ATOM     84  S   UNL     1       3.365  11.128   6.453  1.00  0.00     0.127 S 
ATOM     85  O   UNL     1       3.482  12.216   5.486  1.00  0.00    -0.237 OA
ATOM     86  O   UNL     1       4.428  11.078   7.457  1.00  0.00    -0.237 OA
ATOM     87  O   UNL     1       2.996   9.828   5.907  1.00  0.00    -0.744 OA
ENDBRANCH  81  84
ENDBRANCH  53  77
BRANCH  65  88
ATOM     88  C   UNL     1      -6.790  13.477   6.623  1.00  0.00     0.023 A 
ATOM     89  C   UNL     1      -6.552  13.904   5.302  1.00  0.00     0.012 A 
ATOM     90  C   UNL     1      -7.615  14.252   7.462  1.00  0.00     0.148 A 
ATOM     91  C   UNL     1      -7.101  15.096   4.831  1.00  0.00     0.002 A 
ATOM     92  C   UNL     1      -8.195  15.417   6.972  1.00  0.00     0.091 A 
ATOM     93  F   UNL     1      -7.816  13.839   8.722  1.00  0.00    -0.205 F 
ATOM     94  C   UNL     1      -7.931  15.846   5.661  1.00  0.00     0.022 A 
BRANCH  92  95
ATOM     95  S   UNL     1      -9.348  16.400   7.939  1.00  0.00     0.127 S 
ATOM     96  O   UNL     1      -8.533  17.565   8.281  1.00  0.00    -0.237 OA
ATOM     97  O   UNL     1     -10.417  16.666   6.975  1.00  0.00    -0.237 OA
ATOM     98  O   UNL     1      -9.744  15.562   9.062  1.00  0.00    -0.744 OA
ENDBRANCH  92  95
ENDBRANCH  65  88
ENDBRANCH  39  40
ENDBRANCH  32  34
ENDBRANCH  31  32
ENDBRANCH  30  31
ENDBRANCH  29  30
ENDBRANCH   1  29
TORSDOF 22
