REMARK SMILES C[C@H](NC(=O)N1CC[C@H](C(=O)OCCOCCOC(=O)c2ccc(-c3c4nc(c(-c5cccc(S(=O)(=O)[O-])c5F)c5ccc([nH]5)c(-c5cccc(S(=O)(=O)[O-])c5F)c5nc(c(-c6cccc(S(=O)(=O)[O-])c6F)c6ccc3[nH]6)C=C5)C=C4)cc2)[C@@H]1C)[C@@H]1CCCO1
REMARK SMILES IDX 15 1 14 2 13 3 12 4 10 5 11 6 9 7 6 8 7 9 84 10 8 11 85 12
REMARK SMILES IDX 4 13 3 14 5 16 2 17 1 18 86 19 87 20 90 21 88 22 89 23 16 24
REMARK SMILES IDX 17 25 18 26 19 27 20 28 21 29 22 30 83 31 23 32 82 33 24 34
REMARK SMILES IDX 25 35 26 36 76 37 27 38 81 39 75 40 77 41 28 42 80 43 74 44
REMARK SMILES IDX 73 45 29 47 61 48 41 49 60 50 42 51 45 52 59 53 78 54 43 55
REMARK SMILES IDX 44 56 58 58 79 59 46 60 30 61 31 62 39 63 32 64 34 65 40 66
REMARK SMILES IDX 33 67 35 68 36 69 37 70 38 71 62 72 63 73 71 74 64 75 66 76
REMARK SMILES IDX 72 77 65 78 67 79 68 80 69 81 70 82 47 83 48 84 56 85 49 86
REMARK SMILES IDX 51 87 57 88 50 89 52 90 53 91 54 92 55 93
REMARK H PARENT 3 15 77 46 45 57
REMARK Flexibility Score: inf
ROOT
ATOM      1  O   UNL     1       7.016   3.273   3.954  1.00  0.00    -0.374 OA
ENDROOT
BRANCH   1   2
ATOM      2  C   UNL     1       6.460   4.385   4.663  1.00  0.00     0.202 C 
BRANCH   2   3
ATOM      3  C   UNL     1       5.527   5.319   3.884  1.00  0.00     0.261 C 
BRANCH   3   4
ATOM      4  O   UNL     1       4.252   4.685   3.665  1.00  0.00    -0.463 OA
BRANCH   4   5
ATOM      5  C   UNL     1       3.862   4.495   2.373  1.00  0.00     0.311 C 
ATOM      6  O   UNL     1       4.460   4.892   1.385  1.00  0.00    -0.252 OA
BRANCH   5   7
ATOM      7  C   UNL     1       2.576   3.701   2.345  1.00  0.00     0.123 C 
ATOM      8  N   UNL     1       1.592   2.380   0.630  1.00  0.00    -0.321 N 
ATOM      9  C   UNL     1       1.407   3.763   0.251  1.00  0.00     0.122 C 
ATOM     10  C   UNL     1       2.606   2.303   1.677  1.00  0.00     0.098 C 
ATOM     11  C   UNL     1       1.502   4.488   1.579  1.00  0.00     0.039 C 
ATOM     12  C   UNL     1       3.916   1.752   1.111  1.00  0.00     0.032 C 
BRANCH   8  13
ATOM     13  C   UNL     1       1.131   1.366  -0.155  1.00  0.00     0.317 C 
ATOM     14  N   UNL     1       1.093   0.097   0.336  1.00  0.00    -0.333 N 
ATOM     15  H   UNL     1       1.698  -0.548  -0.096  1.00  0.00     0.165 HD
ATOM     16  O   UNL     1       0.863   1.531  -1.346  1.00  0.00    -0.249 OA
BRANCH  14  17
ATOM     17  C   UNL     1       0.259  -0.439   1.435  1.00  0.00     0.109 C 
ATOM     18  C   UNL     1       0.537   0.084   2.837  1.00  0.00     0.034 C 
BRANCH  17  19
ATOM     19  C   UNL     1      -1.265  -0.393   1.163  1.00  0.00     0.140 C 
ATOM     20  C   UNL     1      -1.756  -1.515   0.259  1.00  0.00     0.036 C 
ATOM     21  O   UNL     1      -1.710   0.837   0.567  1.00  0.00    -0.376 OA
ATOM     22  C   UNL     1      -3.044  -0.930  -0.258  1.00  0.00     0.031 C 
ATOM     23  C   UNL     1      -2.651   0.516  -0.469  1.00  0.00     0.160 C 
ENDBRANCH  17  19
ENDBRANCH  14  17
ENDBRANCH   8  13
ENDBRANCH   5   7
ENDBRANCH   4   5
ENDBRANCH   3   4
ENDBRANCH   2   3
ENDBRANCH   1   2
BRANCH   1  24
ATOM     24  C   UNL     1       6.119   2.237   3.579  1.00  0.00     0.202 C 
BRANCH  24  25
ATOM     25  C   UNL     1       5.755   1.156   4.606  1.00  0.00     0.261 C 
BRANCH  25  26
ATOM     26  O   UNL     1       5.492   1.685   5.902  1.00  0.00    -0.460 OA
BRANCH  26  27
ATOM     27  C   UNL     1       6.593   1.727   6.687  1.00  0.00     0.338 C 
ATOM     28  O   UNL     1       7.702   1.274   6.441  1.00  0.00    -0.246 OA
BRANCH  27  29
ATOM     29  C   UNL     1       6.306   2.578   7.844  1.00  0.00     0.060 A 
ATOM     30  C   UNL     1       7.156   3.666   8.069  1.00  0.00     0.016 A 
ATOM     31  C   UNL     1       5.237   2.300   8.699  1.00  0.00     0.016 A 
ATOM     32  C   UNL     1       6.970   4.460   9.191  1.00  0.00     0.010 A 
ATOM     33  C   UNL     1       5.058   3.092   9.829  1.00  0.00     0.010 A 
ATOM     34  C   UNL     1       5.950   4.145  10.097  1.00  0.00    -0.014 A 
BRANCH  34  35
ATOM     35  C   UNL     1       5.928   4.812  11.413  1.00  0.00     0.031 A 
ATOM     36  C   UNL     1       6.483   4.073  12.595  1.00  0.00     0.074 A 
ATOM     37  C   UNL     1       5.433   6.054  11.535  1.00  0.00     0.049 A 
ATOM     38  N   UNL     1       6.546   4.443  13.845  1.00  0.00    -0.248 NA
ATOM     39  C   UNL     1       7.038   2.733  12.335  1.00  0.00     0.031 C 
ATOM     40  C   UNL     1       4.883   6.855  10.441  1.00  0.00     0.029 A 
ATOM     41  N   UNL     1       5.294   6.850  12.641  1.00  0.00    -0.354 N 
ATOM     42  C   UNL     1       7.117   3.374  14.525  1.00  0.00     0.074 A 
ATOM     43  C   UNL     1       7.367   2.334  13.553  1.00  0.00     0.031 C 
ATOM     44  C   UNL     1       4.444   8.024  10.938  1.00  0.00     0.029 A 
ATOM     45  C   UNL     1       4.654   8.037  12.383  1.00  0.00     0.049 A 
ATOM     46  H   UNL     1       5.622   6.595  13.534  1.00  0.00     0.167 HD
ATOM     47  C   UNL     1       7.417   3.277  15.841  1.00  0.00     0.034 A 
ATOM     48  C   UNL     1       4.262   9.008  13.229  1.00  0.00     0.034 A 
ATOM     49  C   UNL     1       7.169   4.326  16.791  1.00  0.00     0.049 A 
ATOM     50  C   UNL     1       4.577   8.861  14.694  1.00  0.00     0.074 A 
ATOM     51  C   UNL     1       7.468   4.354  18.140  1.00  0.00     0.029 A 
ATOM     52  N   UNL     1       6.546   5.529  16.491  1.00  0.00    -0.354 N 
ATOM     53  N   UNL     1       5.210   7.891  15.310  1.00  0.00    -0.248 NA
ATOM     54  C   UNL     1       4.152   9.956  15.577  1.00  0.00     0.031 C 
ATOM     55  C   UNL     1       6.988   5.559  18.665  1.00  0.00     0.029 A 
ATOM     56  C   UNL     1       6.434   6.301  17.633  1.00  0.00     0.049 A 
ATOM     57  H   UNL     1       6.229   5.794  15.598  1.00  0.00     0.167 HD
ATOM     58  C   UNL     1       5.296   8.275  16.643  1.00  0.00     0.074 A 
ATOM     59  C   UNL     1       4.664   9.575  16.741  1.00  0.00     0.031 C 
ATOM     60  C   UNL     1       5.841   7.613  17.694  1.00  0.00     0.034 A 
BRANCH  47  61
ATOM     61  C   UNL     1       8.049   1.998  16.321  1.00  0.00     0.023 A 
ATOM     62  C   UNL     1       9.375   1.685  15.956  1.00  0.00     0.012 A 
ATOM     63  C   UNL     1       7.341   1.120  17.166  1.00  0.00     0.148 A 
ATOM     64  C   UNL     1       9.973   0.503  16.392  1.00  0.00     0.002 A 
ATOM     65  C   UNL     1       7.961  -0.031  17.636  1.00  0.00     0.091 A 
ATOM     66  F   UNL     1       6.074   1.421  17.482  1.00  0.00    -0.205 F 
ATOM     67  C   UNL     1       9.270  -0.348  17.240  1.00  0.00     0.022 A 
BRANCH  65  68
ATOM     68  S   UNL     1       7.169  -1.153  18.794  1.00  0.00     0.127 S 
ATOM     69  O   UNL     1       6.963  -2.338  17.963  1.00  0.00    -0.237 OA
ATOM     70  O   UNL     1       8.195  -1.302  19.826  1.00  0.00    -0.237 OA
ATOM     71  O   UNL     1       5.953  -0.484  19.236  1.00  0.00    -0.744 OA
ENDBRANCH  65  68
ENDBRANCH  47  61
BRANCH  48  72
ATOM     72  C   UNL     1       3.558  10.213  12.708  1.00  0.00     0.023 A 
ATOM     73  C   UNL     1       4.199  11.466  12.744  1.00  0.00     0.012 A 
ATOM     74  C   UNL     1       2.264  10.119  12.159  1.00  0.00     0.148 A 
ATOM     75  C   UNL     1       3.552  12.609  12.274  1.00  0.00     0.002 A 
ATOM     76  C   UNL     1       1.647  11.251  11.642  1.00  0.00     0.091 A 
ATOM     77  F   UNL     1       1.666   8.919  12.144  1.00  0.00    -0.205 F 
ATOM     78  C   UNL     1       2.281  12.501  11.715  1.00  0.00     0.022 A 
BRANCH  76  79
ATOM     79  S   UNL     1       0.068  11.185  10.789  1.00  0.00     0.127 S 
ATOM     80  O   UNL     1      -0.802  11.905  11.716  1.00  0.00    -0.237 OA
ATOM     81  O   UNL     1       0.369  11.895   9.546  1.00  0.00    -0.237 OA
ATOM     82  O   UNL     1      -0.229   9.769  10.617  1.00  0.00    -0.744 OA
ENDBRANCH  76  79
ENDBRANCH  48  72
BRANCH  60  83
ATOM     83  C   UNL     1       5.824   8.301  19.035  1.00  0.00     0.023 A 
ATOM     84  C   UNL     1       4.615   8.442  19.742  1.00  0.00     0.012 A 
ATOM     85  C   UNL     1       7.028   8.736  19.624  1.00  0.00     0.148 A 
ATOM     86  C   UNL     1       4.599   9.040  21.002  1.00  0.00     0.002 A 
ATOM     87  C   UNL     1       7.012   9.278  20.902  1.00  0.00     0.091 A 
ATOM     88  F   UNL     1       8.166   8.604  18.927  1.00  0.00    -0.205 F 
ATOM     89  C   UNL     1       5.797   9.445  21.587  1.00  0.00     0.022 A 
BRANCH  87  90
ATOM     90  S   UNL     1       8.514   9.732  21.776  1.00  0.00     0.127 S 
ATOM     91  O   UNL     1       8.413  11.190  21.803  1.00  0.00    -0.237 OA
ATOM     92  O   UNL     1       8.324   9.082  23.073  1.00  0.00    -0.237 OA
ATOM     93  O   UNL     1       9.617   9.199  20.987  1.00  0.00    -0.744 OA
ENDBRANCH  87  90
ENDBRANCH  60  83
ENDBRANCH  34  35
ENDBRANCH  27  29
ENDBRANCH  26  27
ENDBRANCH  25  26
ENDBRANCH  24  25
ENDBRANCH   1  24
TORSDOF 20
