REMARK SMILES CCOC(=O)c1cccc(NC(=O)CCC(=O)OCCOCCOC(=O)c2ccc(-c3c4nc(c(-c5cccc(S(=O)(=O)[O-])c5F)c5ccc([nH]5)c(-c5cccc(S(=O)(=O)[O-])c5F)c5nc(c(-c6cccc(S(=O)(=O)[O-])c6F)c6ccc3[nH]6)C=C5)C=C4)cc2)c1
REMARK SMILES IDX 19 1 18 2 16 3 17 4 15 5 14 6 12 7 11 8 13 10 10 11 6 12
REMARK SMILES IDX 7 13 90 14 8 15 9 16 4 17 5 18 3 19 2 20 1 21 20 22 21 23
REMARK SMILES IDX 22 24 23 25 24 26 25 27 26 28 27 29 28 30 89 31 29 32 88 33
REMARK SMILES IDX 30 34 31 35 32 36 82 37 33 38 87 39 81 40 83 41 34 42 86 43
REMARK SMILES IDX 80 44 79 45 35 47 67 48 47 49 66 50 48 51 51 52 65 53 84 54
REMARK SMILES IDX 49 55 50 56 64 58 85 59 52 60 36 61 37 62 45 63 38 64 40 65
REMARK SMILES IDX 46 66 39 67 41 68 42 69 43 70 44 71 68 72 69 73 77 74 70 75
REMARK SMILES IDX 72 76 78 77 71 78 73 79 74 80 75 81 76 82 53 83 54 84 62 85
REMARK SMILES IDX 55 86 57 87 63 88 56 89 58 90 59 91 60 92 61 93
REMARK H PARENT 11 9 83 46 51 57
REMARK Flexibility Score: inf
ROOT
ATOM      1  C   UNL     1       4.622  -4.654   1.830  1.00  0.00     0.261 C 
ENDROOT
BRANCH   1   2
ATOM      2  O   UNL     1       4.902  -6.244   2.127  1.00  0.00    -0.463 OA
BRANCH   2   3
ATOM      3  C   UNL     1       6.035  -6.687   2.724  1.00  0.00     0.306 C 
ATOM      4  O   UNL     1       7.144  -6.193   2.560  1.00  0.00    -0.252 OA
BRANCH   3   5
ATOM      5  C   UNL     1       5.748  -7.793   3.737  1.00  0.00     0.132 C 
BRANCH   5   6
ATOM      6  C   UNL     1       4.657  -7.593   4.802  1.00  0.00     0.112 C 
BRANCH   6   7
ATOM      7  C   UNL     1       3.214  -7.582   4.344  1.00  0.00     0.224 C 
ATOM      8  N   UNL     1       2.664  -6.524   3.689  1.00  0.00    -0.326 N 
ATOM      9  H   UNL     1       1.705  -6.617   3.486  1.00  0.00     0.169 HD
ATOM     10  O   UNL     1       2.496  -8.558   4.580  1.00  0.00    -0.275 OA
BRANCH   8  11
ATOM     11  C   UNL     1       3.243  -5.325   3.257  1.00  0.00     0.042 A 
ATOM     12  C   UNL     1       3.298  -3.182   0.974  1.00  0.00     0.062 A 
ATOM     13  C   UNL     1       4.861  -2.555   1.593  1.00  0.00     0.016 A 
ATOM     14  C   UNL     1       2.493  -4.562   1.798  1.00  0.00     0.041 A 
ATOM     15  C   UNL     1       5.635  -3.288   3.039  1.00  0.00     0.003 A 
ATOM     16  C   UNL     1       4.816  -4.664   3.882  1.00  0.00     0.026 A 
BRANCH  12  17
ATOM     17  C   UNL     1       2.646  -2.375  -0.073  1.00  0.00     0.338 C 
ATOM     18  O   UNL     1       3.256  -1.868  -0.997  1.00  0.00    -0.246 OA
BRANCH  17  19
ATOM     19  O   UNL     1       1.365  -2.148   0.297  1.00  0.00    -0.462 OA
BRANCH  19  20
ATOM     20  C   UNL     1       0.630  -1.208  -0.511  1.00  0.00     0.230 C 
ATOM     21  C   UNL     1       0.958   0.233  -0.150  1.00  0.00     0.049 C 
ENDBRANCH  19  20
ENDBRANCH  17  19
ENDBRANCH  12  17
ENDBRANCH   8  11
ENDBRANCH   6   7
ENDBRANCH   5   6
ENDBRANCH   3   5
ENDBRANCH   2   3
ENDBRANCH   1   2
BRANCH   1  22
ATOM     22  C   UNL     1       3.534  -3.257   3.116  1.00  0.00     0.202 C 
BRANCH  22  23
ATOM     23  O   UNL     1       3.962  -2.416   4.360  1.00  0.00    -0.374 OA
BRANCH  23  24
ATOM     24  C   UNL     1       3.833  -2.856   5.714  1.00  0.00     0.202 C 
BRANCH  24  25
ATOM     25  C   UNL     1       2.541  -3.411   6.349  1.00  0.00     0.261 C 
BRANCH  25  26
ATOM     26  O   UNL     1       1.555  -3.987   5.498  1.00  0.00    -0.460 OA
BRANCH  26  27
ATOM     27  C   UNL     1       0.670  -3.096   4.986  1.00  0.00     0.338 C 
ATOM     28  O   UNL     1       0.672  -1.889   5.155  1.00  0.00    -0.246 OA
BRANCH  27  29
ATOM     29  C   UNL     1      -0.225  -3.795   4.037  1.00  0.00     0.060 A 
ATOM     30  C   UNL     1      -0.445  -3.197   2.792  1.00  0.00     0.016 A 
ATOM     31  C   UNL     1      -0.859  -4.997   4.361  1.00  0.00     0.016 A 
ATOM     32  C   UNL     1      -1.315  -3.786   1.872  1.00  0.00     0.010 A 
ATOM     33  C   UNL     1      -1.756  -5.570   3.451  1.00  0.00     0.010 A 
ATOM     34  C   UNL     1      -2.012  -4.950   2.214  1.00  0.00    -0.014 A 
BRANCH  34  35
ATOM     35  C   UNL     1      -3.182  -5.366   1.397  1.00  0.00     0.031 A 
ATOM     36  C   UNL     1      -4.541  -4.872   1.815  1.00  0.00     0.074 A 
ATOM     37  C   UNL     1      -3.060  -6.142   0.306  1.00  0.00     0.049 A 
ATOM     38  N   UNL     1      -5.715  -5.122   1.299  1.00  0.00    -0.248 NA
ATOM     39  C   UNL     1      -4.573  -3.966   2.976  1.00  0.00     0.031 C 
ATOM     40  C   UNL     1      -1.804  -6.644  -0.243  1.00  0.00     0.029 A 
ATOM     41  N   UNL     1      -4.023  -6.658  -0.528  1.00  0.00    -0.354 N 
ATOM     42  C   UNL     1      -6.628  -4.432   2.087  1.00  0.00     0.074 A 
ATOM     43  C   UNL     1      -5.872  -3.762   3.123  1.00  0.00     0.031 C 
ATOM     44  C   UNL     1      -2.074  -7.416  -1.312  1.00  0.00     0.029 A 
ATOM     45  C   UNL     1      -3.523  -7.492  -1.500  1.00  0.00     0.049 A 
ATOM     46  H   UNL     1      -4.981  -6.450  -0.437  1.00  0.00     0.167 HD
ATOM     47  C   UNL     1      -7.974  -4.353   1.962  1.00  0.00     0.034 A 
ATOM     48  C   UNL     1      -4.163  -8.248  -2.417  1.00  0.00     0.034 A 
ATOM     49  C   UNL     1      -8.730  -5.035   0.949  1.00  0.00     0.049 A 
ATOM     50  C   UNL     1      -5.672  -8.220  -2.480  1.00  0.00     0.074 A 
ATOM     51  C   UNL     1     -10.097  -5.015   0.735  1.00  0.00     0.029 A 
ATOM     52  N   UNL     1      -8.190  -5.885  -0.004  1.00  0.00    -0.354 N 
ATOM     53  N   UNL     1      -6.519  -7.507  -1.777  1.00  0.00    -0.248 NA
ATOM     54  C   UNL     1      -6.313  -9.086  -3.483  1.00  0.00     0.031 C 
ATOM     55  C   UNL     1     -10.387  -5.895  -0.312  1.00  0.00     0.029 A 
ATOM     56  C   UNL     1      -9.196  -6.414  -0.794  1.00  0.00     0.049 A 
ATOM     57  H   UNL     1      -7.231  -6.084  -0.103  1.00  0.00     0.167 HD
ATOM     58  C   UNL     1      -7.783  -7.802  -2.282  1.00  0.00     0.074 A 
ATOM     59  C   UNL     1      -7.590  -8.753  -3.357  1.00  0.00     0.031 C 
ATOM     60  C   UNL     1      -8.992  -7.327  -1.890  1.00  0.00     0.034 A 
BRANCH  47  61
ATOM     61  C   UNL     1      -8.707  -3.513   2.977  1.00  0.00     0.023 A 
ATOM     62  C   UNL     1      -8.544  -2.112   2.987  1.00  0.00     0.012 A 
ATOM     63  C   UNL     1      -9.551  -4.115   3.930  1.00  0.00     0.148 A 
ATOM     64  C   UNL     1      -9.158  -1.332   3.967  1.00  0.00     0.002 A 
ATOM     65  C   UNL     1     -10.203  -3.326   4.869  1.00  0.00     0.091 A 
ATOM     66  F   UNL     1      -9.680  -5.450   3.919  1.00  0.00    -0.205 F 
ATOM     67  C   UNL     1      -9.992  -1.938   4.903  1.00  0.00     0.022 A 
BRANCH  65  68
ATOM     68  S   UNL     1     -11.359  -4.002   6.065  1.00  0.00     0.127 S 
ATOM     69  O   UNL     1     -10.614  -3.848   7.314  1.00  0.00    -0.237 OA
ATOM     70  O   UNL     1     -12.505  -3.103   5.924  1.00  0.00    -0.237 OA
ATOM     71  O   UNL     1     -11.609  -5.375   5.652  1.00  0.00    -0.744 OA
ENDBRANCH  65  68
ENDBRANCH  47  61
BRANCH  48  72
ATOM     72  C   UNL     1      -3.386  -9.086  -3.376  1.00  0.00     0.023 A 
ATOM     73  C   UNL     1      -3.396  -8.765  -4.748  1.00  0.00     0.012 A 
ATOM     74  C   UNL     1      -2.643 -10.200  -2.939  1.00  0.00     0.148 A 
ATOM     75  C   UNL     1      -2.705  -9.553  -5.670  1.00  0.00     0.002 A 
ATOM     76  C   UNL     1      -1.913 -10.949  -3.855  1.00  0.00     0.091 A 
ATOM     77  F   UNL     1      -2.658 -10.498  -1.633  1.00  0.00    -0.205 F 
ATOM     78  C   UNL     1      -1.956 -10.638  -5.223  1.00  0.00     0.022 A 
BRANCH  76  79
ATOM     79  S   UNL     1      -0.834 -12.298  -3.365  1.00  0.00     0.127 S 
ATOM     80  O   UNL     1      -1.450 -13.437  -4.041  1.00  0.00    -0.237 OA
ATOM     81  O   UNL     1       0.448 -11.868  -3.923  1.00  0.00    -0.237 OA
ATOM     82  O   UNL     1      -0.880 -12.335  -1.910  1.00  0.00    -0.744 OA
ENDBRANCH  76  79
ENDBRANCH  48  72
BRANCH  60  83
ATOM     83  C   UNL     1     -10.213  -7.771  -2.660  1.00  0.00     0.023 A 
ATOM     84  C   UNL     1     -10.688  -9.093  -2.551  1.00  0.00     0.012 A 
ATOM     85  C   UNL     1     -10.942  -6.839  -3.428  1.00  0.00     0.148 A 
ATOM     86  C   UNL     1     -11.847  -9.488  -3.220  1.00  0.00     0.002 A 
ATOM     87  C   UNL     1     -12.126  -7.225  -4.046  1.00  0.00     0.091 A 
ATOM     88  F   UNL     1     -10.469  -5.589  -3.533  1.00  0.00    -0.205 F 
ATOM     89  C   UNL     1     -12.572  -8.553  -3.955  1.00  0.00     0.022 A 
BRANCH  87  90
ATOM     90  S   UNL     1     -13.178  -6.066  -4.928  1.00  0.00     0.127 S 
ATOM     91  O   UNL     1     -13.047  -6.535  -6.306  1.00  0.00    -0.237 OA
ATOM     92  O   UNL     1     -14.486  -6.316  -4.321  1.00  0.00    -0.237 OA
ATOM     93  O   UNL     1     -12.630  -4.742  -4.668  1.00  0.00    -0.744 OA
ENDBRANCH  87  90
ENDBRANCH  60  83
ENDBRANCH  34  35
ENDBRANCH  27  29
ENDBRANCH  26  27
ENDBRANCH  25  26
ENDBRANCH  24  25
ENDBRANCH  23  24
ENDBRANCH  22  23
ENDBRANCH   1  22
TORSDOF 23
