REMARK SMILES [NH3+]C1(C(=O)N2[C@@H](C(=O)OCCOCCOC(=O)c3ccc(-c4c5nc(c(-c6cccc(S(=O)(=O)[O-])c6F)c6ccc([nH]6)c(-c6cccc(S(=O)(=O)[O-])c6F)c6nc(c(-c7cccc(S(=O)(=O)[O-])c7F)c7ccc4[nH]7)C=C6)C=C5)cc3)CC[C@@H]3CCCC[C@@H]32)CC1
REMARK SMILES IDX 12 1 11 2 10 3 9 4 7 5 8 6 6 7 5 8 88 9 81 10 83 11 87 12
REMARK SMILES IDX 82 13 84 14 86 15 85 16 3 17 4 18 2 19 89 20 90 21 1 22
REMARK SMILES IDX 13 26 14 27 15 28 16 29 17 30 18 31 19 32 80 33 20 34 79 35
REMARK SMILES IDX 21 36 22 37 23 38 73 39 24 40 78 41 72 42 74 43 25 44 77 45
REMARK SMILES IDX 71 46 70 47 26 49 58 50 38 51 57 52 39 53 42 54 56 55 75 56
REMARK SMILES IDX 40 57 41 58 55 60 76 61 43 62 27 63 28 64 36 65 29 66 31 67
REMARK SMILES IDX 37 68 30 69 32 70 33 71 34 72 35 73 59 74 60 75 68 76 61 77
REMARK SMILES IDX 63 78 69 79 62 80 64 81 65 82 66 83 67 84 44 85 45 86 53 87
REMARK SMILES IDX 46 88 48 89 54 90 47 91 49 92 50 93 51 94 52 95
REMARK H PARENT 1 23 1 24 1 25 74 48 42 59
REMARK Flexibility Score: inf
ROOT
ATOM      1  O   UNL     1      -3.737  -4.273   0.602  1.00  0.00    -0.374 OA
ENDROOT
BRANCH   1   2
ATOM      2  C   UNL     1      -3.242  -3.222   1.435  1.00  0.00     0.202 C 
BRANCH   2   3
ATOM      3  C   UNL     1      -1.880  -2.651   1.036  1.00  0.00     0.261 C 
BRANCH   3   4
ATOM      4  O   UNL     1      -2.001  -1.777  -0.098  1.00  0.00    -0.462 OA
BRANCH   4   5
ATOM      5  C   UNL     1      -1.738  -2.343  -1.302  1.00  0.00     0.328 C 
ATOM      6  O   UNL     1      -1.383  -3.505  -1.477  1.00  0.00    -0.250 OA
BRANCH   5   7
ATOM      7  C   UNL     1      -1.920  -1.351  -2.445  1.00  0.00     0.195 C 
ATOM      8  N   UNL     1      -0.759  -0.531  -2.827  1.00  0.00    -0.320 N 
ATOM      9  C   UNL     1      -0.939   0.195  -4.107  1.00  0.00     0.089 C 
ATOM     10  C   UNL     1      -3.205  -0.520  -2.350  1.00  0.00     0.037 C 
ATOM     11  C   UNL     1      -2.284   0.969  -4.160  1.00  0.00     0.012 C 
ATOM     12  C   UNL     1      -0.708  -0.758  -5.294  1.00  0.00     0.025 C 
ATOM     13  C   UNL     1      -3.480   0.113  -3.712  1.00  0.00     0.008 C 
ATOM     14  C   UNL     1      -2.511   1.575  -5.547  1.00  0.00     0.006 C 
ATOM     15  C   UNL     1      -1.219  -0.297  -6.657  1.00  0.00     0.002 C 
ATOM     16  C   UNL     1      -2.502   0.523  -6.646  1.00  0.00     0.000 C 
BRANCH   8  17
ATOM     17  C   UNL     1      -0.139   0.206  -1.806  1.00  0.00     0.284 C 
ATOM     18  O   UNL     1      -0.439   1.378  -1.591  1.00  0.00    -0.268 OA
BRANCH  17  19
ATOM     19  C   UNL     1       1.029  -0.445  -1.046  1.00  0.00     0.174 C 
ATOM     20  C   UNL     1       2.163  -1.028  -1.874  1.00  0.00     0.086 C 
ATOM     21  C   UNL     1       1.329  -1.929  -1.026  1.00  0.00     0.086 C 
BRANCH  19  22
ATOM     22  N   UNL     1       1.458   0.336   0.139  1.00  0.00    -0.345 N 
ATOM     23  H   UNL     1       1.203   1.315   0.011  1.00  0.00     0.345 HD
ATOM     24  H   UNL     1       2.469   0.260   0.250  1.00  0.00     0.345 HD
ATOM     25  H   UNL     1       0.996  -0.029   0.972  1.00  0.00     0.345 HD
ENDBRANCH  19  22
ENDBRANCH  17  19
ENDBRANCH   8  17
ENDBRANCH   5   7
ENDBRANCH   4   5
ENDBRANCH   3   4
ENDBRANCH   2   3
ENDBRANCH   1   2
BRANCH   1  26
ATOM     26  C   UNL     1      -4.460  -3.883  -0.565  1.00  0.00     0.202 C 
BRANCH  26  27
ATOM     27  C   UNL     1      -5.949  -3.588  -0.366  1.00  0.00     0.261 C 
BRANCH  27  28
ATOM     28  O   UNL     1      -6.139  -2.423   0.453  1.00  0.00    -0.460 OA
BRANCH  28  29
ATOM     29  C   UNL     1      -6.494  -2.697   1.726  1.00  0.00     0.338 C 
ATOM     30  O   UNL     1      -6.784  -3.803   2.183  1.00  0.00    -0.246 OA
BRANCH  29  31
ATOM     31  C   UNL     1      -6.321  -1.517   2.591  1.00  0.00     0.060 A 
ATOM     32  C   UNL     1      -5.742  -1.740   3.845  1.00  0.00     0.016 A 
ATOM     33  C   UNL     1      -6.774  -0.243   2.234  1.00  0.00     0.016 A 
ATOM     34  C   UNL     1      -5.712  -0.721   4.788  1.00  0.00     0.010 A 
ATOM     35  C   UNL     1      -6.739   0.785   3.185  1.00  0.00     0.010 A 
ATOM     36  C   UNL     1      -6.268   0.529   4.484  1.00  0.00    -0.014 A 
BRANCH  36  37
ATOM     37  C   UNL     1      -6.512   1.470   5.603  1.00  0.00     0.031 A 
ATOM     38  C   UNL     1      -7.895   1.557   6.193  1.00  0.00     0.074 A 
ATOM     39  C   UNL     1      -5.496   2.160   6.151  1.00  0.00     0.049 A 
ATOM     40  N   UNL     1      -8.302   2.200   7.256  1.00  0.00    -0.248 NA
ATOM     41  C   UNL     1      -8.961   0.816   5.497  1.00  0.00     0.031 C 
ATOM     42  C   UNL     1      -4.117   2.159   5.666  1.00  0.00     0.029 A 
ATOM     43  N   UNL     1      -5.471   2.992   7.241  1.00  0.00    -0.354 N 
ATOM     44  C   UNL     1      -9.668   1.957   7.348  1.00  0.00     0.074 A 
ATOM     45  C   UNL     1     -10.027   1.127   6.220  1.00  0.00     0.031 C 
ATOM     46  C   UNL     1      -3.379   2.958   6.455  1.00  0.00     0.029 A 
ATOM     47  C   UNL     1      -4.233   3.530   7.494  1.00  0.00     0.049 A 
ATOM     48  H   UNL     1      -6.266   3.185   7.790  1.00  0.00     0.167 HD
ATOM     49  C   UNL     1     -10.541   2.365   8.299  1.00  0.00     0.034 A 
ATOM     50  C   UNL     1      -3.835   4.384   8.457  1.00  0.00     0.034 A 
ATOM     51  C   UNL     1     -10.178   3.171   9.433  1.00  0.00     0.049 A 
ATOM     52  C   UNL     1      -4.825   4.818   9.507  1.00  0.00     0.074 A 
ATOM     53  C   UNL     1     -10.979   3.606  10.473  1.00  0.00     0.029 A 
ATOM     54  N   UNL     1      -8.906   3.669   9.673  1.00  0.00    -0.354 N 
ATOM     55  N   UNL     1      -6.083   4.475   9.649  1.00  0.00    -0.248 NA
ATOM     56  C   UNL     1      -4.327   5.720  10.555  1.00  0.00     0.031 C 
ATOM     57  C   UNL     1     -10.196   4.385  11.332  1.00  0.00     0.029 A 
ATOM     58  C   UNL     1      -8.901   4.413  10.840  1.00  0.00     0.049 A 
ATOM     59  H   UNL     1      -8.123   3.517   9.097  1.00  0.00     0.167 HD
ATOM     60  C   UNL     1      -6.516   5.089  10.820  1.00  0.00     0.074 A 
ATOM     61  C   UNL     1      -5.377   5.803  11.360  1.00  0.00     0.031 C 
ATOM     62  C   UNL     1      -7.747   5.075  11.391  1.00  0.00     0.034 A 
BRANCH  49  63
ATOM     63  C   UNL     1     -11.974   1.919   8.169  1.00  0.00     0.023 A 
ATOM     64  C   UNL     1     -12.312   0.576   8.434  1.00  0.00     0.012 A 
ATOM     65  C   UNL     1     -12.991   2.834   7.835  1.00  0.00     0.148 A 
ATOM     66  C   UNL     1     -13.635   0.144   8.340  1.00  0.00     0.002 A 
ATOM     67  C   UNL     1     -14.313   2.406   7.785  1.00  0.00     0.091 A 
ATOM     68  F   UNL     1     -12.647   4.100   7.560  1.00  0.00    -0.205 F 
ATOM     69  C   UNL     1     -14.635   1.060   8.027  1.00  0.00     0.022 A 
BRANCH  67  70
ATOM     70  S   UNL     1     -15.680   3.526   7.464  1.00  0.00     0.127 S 
ATOM     71  O   UNL     1     -16.075   3.129   6.113  1.00  0.00    -0.237 OA
ATOM     72  O   UNL     1     -16.634   3.157   8.511  1.00  0.00    -0.237 OA
ATOM     73  O   UNL     1     -15.135   4.870   7.587  1.00  0.00    -0.744 OA
ENDBRANCH  67  70
ENDBRANCH  49  63
BRANCH  50  74
ATOM     74  C   UNL     1      -2.417   4.837   8.508  1.00  0.00     0.023 A 
ATOM     75  C   UNL     1      -1.580   4.400   9.554  1.00  0.00     0.012 A 
ATOM     76  C   UNL     1      -1.889   5.682   7.513  1.00  0.00     0.148 A 
ATOM     77  C   UNL     1      -0.252   4.821   9.623  1.00  0.00     0.002 A 
ATOM     78  C   UNL     1      -0.551   6.052   7.558  1.00  0.00     0.091 A 
ATOM     79  F   UNL     1      -2.707   6.101   6.538  1.00  0.00    -0.205 F 
ATOM     80  C   UNL     1       0.266   5.637   8.621  1.00  0.00     0.022 A 
BRANCH  78  81
ATOM     81  S   UNL     1       0.229   6.992   6.241  1.00  0.00     0.127 S 
ATOM     82  O   UNL     1       0.421   8.293   6.876  1.00  0.00    -0.237 OA
ATOM     83  O   UNL     1       1.458   6.229   6.014  1.00  0.00    -0.237 OA
ATOM     84  O   UNL     1      -0.711   6.960   5.129  1.00  0.00    -0.744 OA
ENDBRANCH  78  81
ENDBRANCH  50  74
BRANCH  62  85
ATOM     85  C   UNL     1      -7.921   5.828  12.685  1.00  0.00     0.023 A 
ATOM     86  C   UNL     1      -7.915   7.237  12.684  1.00  0.00     0.012 A 
ATOM     87  C   UNL     1      -8.141   5.140  13.895  1.00  0.00     0.148 A 
ATOM     88  C   UNL     1      -8.081   7.948  13.872  1.00  0.00     0.002 A 
ATOM     89  C   UNL     1      -8.355   5.856  15.067  1.00  0.00     0.091 A 
ATOM     90  F   UNL     1      -8.124   3.799  13.883  1.00  0.00    -0.205 F 
ATOM     91  C   UNL     1      -8.311   7.259  15.060  1.00  0.00     0.022 A 
BRANCH  89  92
ATOM     92  S   UNL     1      -8.754   5.045  16.619  1.00  0.00     0.127 S 
ATOM     93  O   UNL     1      -7.468   5.079  17.314  1.00  0.00    -0.237 OA
ATOM     94  O   UNL     1      -9.775   5.929  17.184  1.00  0.00    -0.237 OA
ATOM     95  O   UNL     1      -9.242   3.720  16.259  1.00  0.00    -0.744 OA
ENDBRANCH  89  92
ENDBRANCH  62  85
ENDBRANCH  36  37
ENDBRANCH  29  31
ENDBRANCH  28  29
ENDBRANCH  27  28
ENDBRANCH  26  27
ENDBRANCH   1  26
TORSDOF 20
