REMARK SMILES O=C(CCCNS(=O)(=O)c1ccc2c3c(cccc13)C(=O)N2)OCCOCCOC(=O)c1ccc(-c2c3nc(c(-c4cccc(S(=O)(=O)[O-])c4F)c4ccc([nH]4)c(-c4cccc(S(=O)(=O)[O-])c4F)c4nc(c(-c5cccc(S(=O)(=O)[O-])c5F)c5ccc2[nH]5)C=C4)C=C3)cc1
REMARK SMILES IDX 25 1 24 2 23 3 2 4 1 5 3 6 4 7 5 8 6 9 7 11 8 12 9 13 10 14
REMARK SMILES IDX 11 15 19 16 12 17 14 18 18 19 13 20 15 21 17 22 22 23 16 24
REMARK SMILES IDX 20 25 21 27 26 28 27 29 28 30 29 31 30 32 31 33 32 34 33 35
REMARK SMILES IDX 94 36 34 37 93 38 35 39 36 40 37 41 87 42 38 43 92 44 86 45
REMARK SMILES IDX 88 46 39 47 91 48 85 49 84 50 40 52 72 53 52 54 71 55 53 56
REMARK SMILES IDX 56 57 70 58 89 59 54 60 55 61 69 63 90 64 57 65 41 66 42 67
REMARK SMILES IDX 50 68 43 69 45 70 51 71 44 72 46 73 47 74 48 75 49 76 73 77
REMARK SMILES IDX 74 78 82 79 75 80 77 81 83 82 76 83 78 84 79 85 80 86 81 87
REMARK SMILES IDX 58 88 59 89 67 90 60 91 62 92 68 93 61 94 63 95 64 96 65 97
REMARK SMILES IDX 66 98
REMARK H PARENT 6 10 22 26 88 51 56 62
REMARK Flexibility Score: inf
ROOT
ATOM      1  C   UNL     1       3.707   0.408   1.586  1.00  0.00     0.202 C 
ENDROOT
BRANCH   1   2
ATOM      2  C   UNL     1       3.406   1.229   0.351  1.00  0.00     0.261 C 
BRANCH   2   3
ATOM      3  O   UNL     1       2.164   0.877  -0.261  1.00  0.00    -0.463 OA
BRANCH   3   4
ATOM      4  C   UNL     1       2.057  -0.018  -1.263  1.00  0.00     0.305 C 
ATOM      5  O   UNL     1       0.986  -0.121  -1.864  1.00  0.00    -0.252 OA
BRANCH   4   6
ATOM      6  C   UNL     1       3.205  -0.944  -1.610  1.00  0.00     0.124 C 
BRANCH   6   7
ATOM      7  C   UNL     1       4.197  -0.498  -2.682  1.00  0.00     0.028 C 
BRANCH   7   8
ATOM      8  C   UNL     1       5.431   0.308  -2.257  1.00  0.00     0.099 C 
BRANCH   8   9
ATOM      9  N   UNL     1       6.128  -0.299  -1.122  1.00  0.00    -0.211 NA
ATOM     10  H   UNL     1       6.630  -1.105  -1.494  1.00  0.00     0.141 HD
BRANCH   9  11
ATOM     11  S   UNL     1       7.240   0.559  -0.190  1.00  0.00     0.241 S 
ATOM     12  O   UNL     1       6.497   1.529   0.585  1.00  0.00    -0.207 OA
ATOM     13  O   UNL     1       8.070  -0.430   0.451  1.00  0.00    -0.207 OA
BRANCH  11  14
ATOM     14  C   UNL     1       8.234   1.407  -1.388  1.00  0.00     0.090 A 
ATOM     15  C   UNL     1       9.057   0.590  -2.210  1.00  0.00     0.024 A 
ATOM     16  C   UNL     1       8.184   2.828  -1.552  1.00  0.00     0.005 A 
ATOM     17  C   UNL     1       9.818   1.133  -3.256  1.00  0.00     0.028 A 
ATOM     18  C   UNL     1       8.932   3.283  -2.598  1.00  0.00     0.019 A 
ATOM     19  C   UNL     1       7.505   3.866  -0.848  1.00  0.00     0.010 A 
ATOM     20  C   UNL     1       9.707   2.498  -3.425  1.00  0.00     0.050 A 
ATOM     21  C   UNL     1       9.044   4.599  -3.025  1.00  0.00     0.050 A 
ATOM     22  C   UNL     1       7.605   5.218  -1.239  1.00  0.00     0.002 A 
ATOM     23  N   UNL     1      10.284   3.331  -4.363  1.00  0.00    -0.321 N 
ATOM     24  C   UNL     1       8.371   5.609  -2.345  1.00  0.00     0.014 A 
ATOM     25  C   UNL     1       9.910   4.669  -4.184  1.00  0.00     0.256 C 
ATOM     26  H   UNL     1      10.889   3.021  -5.076  1.00  0.00     0.170 HD
ATOM     27  O   UNL     1      10.274   5.590  -4.900  1.00  0.00    -0.269 OA
ENDBRANCH  11  14
ENDBRANCH   9  11
ENDBRANCH   8   9
ENDBRANCH   7   8
ENDBRANCH   6   7
ENDBRANCH   4   6
ENDBRANCH   3   4
ENDBRANCH   2   3
ENDBRANCH   1   2
BRANCH   1  28
ATOM     28  O   UNL     1       3.627  -1.005   1.418  1.00  0.00    -0.374 OA
BRANCH  28  29
ATOM     29  C   UNL     1       2.541  -1.591   2.134  1.00  0.00     0.202 C 
BRANCH  29  30
ATOM     30  C   UNL     1       2.807  -1.774   3.639  1.00  0.00     0.261 C 
BRANCH  30  31
ATOM     31  O   UNL     1       3.172  -0.540   4.289  1.00  0.00    -0.460 OA
BRANCH  31  32
ATOM     32  C   UNL     1       4.508  -0.342   4.464  1.00  0.00     0.338 C 
ATOM     33  O   UNL     1       5.387  -1.177   4.327  1.00  0.00    -0.246 OA
BRANCH  32  34
ATOM     34  C   UNL     1       4.777   1.114   4.615  1.00  0.00     0.060 A 
ATOM     35  C   UNL     1       5.874   1.652   3.923  1.00  0.00     0.016 A 
ATOM     36  C   UNL     1       3.949   1.958   5.359  1.00  0.00     0.016 A 
ATOM     37  C   UNL     1       6.145   3.020   3.968  1.00  0.00     0.010 A 
ATOM     38  C   UNL     1       4.251   3.324   5.449  1.00  0.00     0.010 A 
ATOM     39  C   UNL     1       5.366   3.856   4.775  1.00  0.00    -0.014 A 
BRANCH  39  40
ATOM     40  C   UNL     1       5.893   5.195   5.137  1.00  0.00     0.031 A 
ATOM     41  C   UNL     1       6.814   5.270   6.327  1.00  0.00     0.074 A 
ATOM     42  C   UNL     1       5.595   6.311   4.446  1.00  0.00     0.049 A 
ATOM     43  N   UNL     1       7.398   6.311   6.856  1.00  0.00    -0.248 NA
ATOM     44  C   UNL     1       7.122   3.998   7.007  1.00  0.00     0.031 C 
ATOM     45  C   UNL     1       4.735   6.380   3.267  1.00  0.00     0.029 A 
ATOM     46  N   UNL     1       5.976   7.616   4.661  1.00  0.00    -0.354 N 
ATOM     47  C   UNL     1       8.123   5.824   7.936  1.00  0.00     0.074 A 
ATOM     48  C   UNL     1       7.913   4.397   7.992  1.00  0.00     0.031 C 
ATOM     49  C   UNL     1       4.625   7.667   2.884  1.00  0.00     0.029 A 
ATOM     50  C   UNL     1       5.393   8.514   3.798  1.00  0.00     0.049 A 
ATOM     51  H   UNL     1       6.608   7.881   5.368  1.00  0.00     0.167 HD
ATOM     52  C   UNL     1       8.906   6.503   8.800  1.00  0.00     0.034 A 
ATOM     53  C   UNL     1       5.455   9.862   3.764  1.00  0.00     0.034 A 
ATOM     54  C   UNL     1       9.139   7.915   8.746  1.00  0.00     0.049 A 
ATOM     55  C   UNL     1       6.305  10.601   4.769  1.00  0.00     0.074 A 
ATOM     56  C   UNL     1       9.960   8.673   9.560  1.00  0.00     0.029 A 
ATOM     57  N   UNL     1       8.544   8.780   7.847  1.00  0.00    -0.354 N 
ATOM     58  N   UNL     1       7.072  10.114   5.713  1.00  0.00    -0.248 NA
ATOM     59  C   UNL     1       6.315  12.073   4.695  1.00  0.00     0.031 C 
ATOM     60  C   UNL     1       9.842  10.007   9.169  1.00  0.00     0.029 A 
ATOM     61  C   UNL     1       8.966  10.071   8.098  1.00  0.00     0.049 A 
ATOM     62  H   UNL     1       7.917   8.516   7.136  1.00  0.00     0.167 HD
ATOM     63  C   UNL     1       7.668  11.211   6.329  1.00  0.00     0.074 A 
ATOM     64  C   UNL     1       7.187  12.391   5.644  1.00  0.00     0.031 C 
ATOM     65  C   UNL     1       8.525  11.235   7.377  1.00  0.00     0.034 A 
BRANCH  52  66
ATOM     66  C   UNL     1       9.610   5.733   9.877  1.00  0.00     0.023 A 
ATOM     67  C   UNL     1      10.808   5.061   9.570  1.00  0.00     0.012 A 
ATOM     68  C   UNL     1       9.162   5.798  11.209  1.00  0.00     0.148 A 
ATOM     69  C   UNL     1      11.562   4.472  10.582  1.00  0.00     0.002 A 
ATOM     70  C   UNL     1       9.933   5.234  12.216  1.00  0.00     0.091 A 
ATOM     71  F   UNL     1       8.009   6.434  11.463  1.00  0.00    -0.205 F 
ATOM     72  C   UNL     1      11.132   4.572  11.904  1.00  0.00     0.022 A 
BRANCH  70  73
ATOM     73  S   UNL     1       9.498   5.351  13.953  1.00  0.00     0.127 S 
ATOM     74  O   UNL     1       9.377   3.941  14.322  1.00  0.00    -0.237 OA
ATOM     75  O   UNL     1      10.664   6.032  14.513  1.00  0.00    -0.237 OA
ATOM     76  O   UNL     1       8.254   6.107  14.010  1.00  0.00    -0.744 OA
ENDBRANCH  70  73
ENDBRANCH  52  66
BRANCH  53  77
ATOM     77  C   UNL     1       4.688  10.616   2.732  1.00  0.00     0.023 A 
ATOM     78  C   UNL     1       5.370  11.240   1.670  1.00  0.00     0.012 A 
ATOM     79  C   UNL     1       3.284  10.708   2.798  1.00  0.00     0.148 A 
ATOM     80  C   UNL     1       4.667  11.955   0.698  1.00  0.00     0.002 A 
ATOM     81  C   UNL     1       2.587  11.390   1.807  1.00  0.00     0.091 A 
ATOM     82  F   UNL     1       2.659  10.119   3.827  1.00  0.00    -0.205 F 
ATOM     83  C   UNL     1       3.278  12.023   0.762  1.00  0.00     0.022 A 
BRANCH  81  84
ATOM     84  S   UNL     1       0.793  11.468   1.760  1.00  0.00     0.127 S 
ATOM     85  O   UNL     1       0.551  12.900   1.923  1.00  0.00    -0.237 OA
ATOM     86  O   UNL     1       0.509  10.943   0.424  1.00  0.00    -0.237 OA
ATOM     87  O   UNL     1       0.330  10.626   2.854  1.00  0.00    -0.744 OA
ENDBRANCH  81  84
ENDBRANCH  53  77
BRANCH  65  88
ATOM     88  C   UNL     1       9.035  12.559   7.877  1.00  0.00     0.023 A 
ATOM     89  C   UNL     1       8.222  13.330   8.728  1.00  0.00     0.012 A 
ATOM     90  C   UNL     1      10.377  12.933   7.665  1.00  0.00     0.148 A 
ATOM     91  C   UNL     1       8.740  14.455   9.369  1.00  0.00     0.002 A 
ATOM     92  C   UNL     1      10.895  14.037   8.332  1.00  0.00     0.091 A 
ATOM     93  F   UNL     1      11.130  12.174   6.856  1.00  0.00    -0.205 F 
ATOM     94  C   UNL     1      10.078  14.799   9.183  1.00  0.00     0.022 A 
BRANCH  92  95
ATOM     95  S   UNL     1      12.623  14.518   8.220  1.00  0.00     0.127 S 
ATOM     96  O   UNL     1      12.523  15.842   7.608  1.00  0.00    -0.237 OA
ATOM     97  O   UNL     1      13.034  14.523   9.623  1.00  0.00    -0.237 OA
ATOM     98  O   UNL     1      13.273  13.508   7.395  1.00  0.00    -0.744 OA
ENDBRANCH  92  95
ENDBRANCH  65  88
ENDBRANCH  39  40
ENDBRANCH  32  34
ENDBRANCH  31  32
ENDBRANCH  30  31
ENDBRANCH  29  30
ENDBRANCH  28  29
ENDBRANCH   1  28
TORSDOF 22
