REMARK SMILES C/C(=N/OCc1ccccc1Nc1c(Cl)cccc1Cl)C(=O)OCCOCCOC(=O)c1ccc(-c2c3nc(c(-c4cccc(S(=O)(=O)[O-])c4F)c4ccc([nH]4)c(-c4cccc(S(=O)(=O)[O-])c4F)c4nc(c(-c5cccc(S(=O)(=O)[O-])c5F)c5ccc2[nH]5)C=C4)C=C3)cc1
REMARK SMILES IDX 25 1 24 2 23 3 21 4 22 5 2 6 1 7 3 8 4 9 5 10 6 11 7 12
REMARK SMILES IDX 11 13 8 14 10 15 9 16 12 17 13 19 14 20 19 21 15 22 16 23
REMARK SMILES IDX 18 24 20 25 17 26 26 27 27 28 28 29 29 30 30 31 31 32 32 33
REMARK SMILES IDX 33 34 94 35 34 36 93 37 35 38 36 39 37 40 87 41 38 42 92 43
REMARK SMILES IDX 86 44 88 45 39 46 91 47 85 48 84 49 40 51 72 52 52 53 71 54
REMARK SMILES IDX 53 55 56 56 70 57 89 58 54 59 55 60 69 62 90 63 57 64 41 65
REMARK SMILES IDX 42 66 50 67 43 68 45 69 51 70 44 71 46 72 47 73 48 74 49 75
REMARK SMILES IDX 73 76 74 77 82 78 75 79 77 80 83 81 76 82 78 83 79 84 80 85
REMARK SMILES IDX 81 86 58 87 59 88 67 89 60 90 62 91 68 92 61 93 63 94 64 95
REMARK SMILES IDX 65 96 66 97
REMARK H PARENT 12 18 88 50 56 61
REMARK Flexibility Score: inf
ROOT
ATOM      1  C   UNL     1       0.986  -4.779   2.841  1.00  0.00     0.202 C 
ENDROOT
BRANCH   1   2
ATOM      2  C   UNL     1       1.855  -3.572   3.221  1.00  0.00     0.261 C 
BRANCH   2   3
ATOM      3  O   UNL     1       1.107  -2.376   2.960  1.00  0.00    -0.459 OA
BRANCH   3   4
ATOM      4  C   UNL     1       1.765  -1.377   2.338  1.00  0.00     0.355 C 
ATOM      5  O   UNL     1       2.965  -1.270   2.148  1.00  0.00    -0.245 OA
BRANCH   4   6
ATOM      6  C   UNL     1       0.760  -0.558   1.550  1.00  0.00     0.161 C 
ATOM      7  C   UNL     1       1.008  -0.500   0.066  1.00  0.00     0.079 C 
ATOM      8  N   UNL     1      -0.271   0.066   2.041  1.00  0.00    -0.084 NA
BRANCH   8   9
ATOM      9  O   UNL     1      -0.277   0.021   3.447  1.00  0.00    -0.390 OA
BRANCH   9  10
ATOM     10  C   UNL     1      -1.260   0.934   3.964  1.00  0.00     0.302 C 
BRANCH  10  11
ATOM     11  C   UNL     1      -0.652   2.249   4.420  1.00  0.00     0.016 A 
ATOM     12  C   UNL     1      -1.025   2.739   5.687  1.00  0.00     0.009 A 
ATOM     13  C   UNL     1       0.229   3.020   3.622  1.00  0.00     0.045 A 
ATOM     14  C   UNL     1      -0.514   3.942   6.171  1.00  0.00     0.001 A 
ATOM     15  C   UNL     1       0.753   4.213   4.140  1.00  0.00     0.026 A 
ATOM     16  C   UNL     1       0.384   4.673   5.403  1.00  0.00     0.002 A 
BRANCH  13  17
ATOM     17  N   UNL     1       0.552   2.614   2.315  1.00  0.00    -0.353 N 
ATOM     18  H   UNL     1      -0.159   2.091   1.880  1.00  0.00     0.167 HD
BRANCH  17  19
ATOM     19  C   UNL     1       1.690   2.804   1.500  1.00  0.00     0.076 A 
ATOM     20  C   UNL     1       1.500   3.073   0.125  1.00  0.00     0.066 A 
ATOM     21  C   UNL     1       3.012   2.583   1.934  1.00  0.00     0.066 A 
ATOM     22  Cl  UNL     1      -0.090   3.285  -0.533  1.00  0.00    -0.082 Cl
ATOM     23  C   UNL     1       2.575   3.147  -0.767  1.00  0.00     0.023 A 
ATOM     24  C   UNL     1       4.088   2.660   1.036  1.00  0.00     0.023 A 
ATOM     25  Cl  UNL     1       3.400   2.091   3.547  1.00  0.00    -0.082 Cl
ATOM     26  C   UNL     1       3.872   2.942  -0.311  1.00  0.00     0.003 A 
ENDBRANCH  17  19
ENDBRANCH  13  17
ENDBRANCH  10  11
ENDBRANCH   9  10
ENDBRANCH   8   9
ENDBRANCH   4   6
ENDBRANCH   3   4
ENDBRANCH   2   3
ENDBRANCH   1   2
BRANCH   1  27
ATOM     27  O   UNL     1       0.878  -5.043   1.434  1.00  0.00    -0.374 OA
BRANCH  27  28
ATOM     28  C   UNL     1       0.135  -4.111   0.653  1.00  0.00     0.202 C 
BRANCH  28  29
ATOM     29  C   UNL     1      -1.386  -4.287   0.603  1.00  0.00     0.261 C 
BRANCH  29  30
ATOM     30  O   UNL     1      -1.984  -4.226   1.903  1.00  0.00    -0.460 OA
BRANCH  30  31
ATOM     31  C   UNL     1      -2.336  -5.435   2.402  1.00  0.00     0.338 C 
ATOM     32  O   UNL     1      -2.265  -6.514   1.837  1.00  0.00    -0.246 OA
BRANCH  31  33
ATOM     33  C   UNL     1      -2.677  -5.308   3.829  1.00  0.00     0.060 A 
ATOM     34  C   UNL     1      -2.031  -6.178   4.715  1.00  0.00     0.016 A 
ATOM     35  C   UNL     1      -3.654  -4.419   4.283  1.00  0.00     0.016 A 
ATOM     36  C   UNL     1      -2.402  -6.205   6.055  1.00  0.00     0.010 A 
ATOM     37  C   UNL     1      -4.031  -4.454   5.629  1.00  0.00     0.010 A 
ATOM     38  C   UNL     1      -3.435  -5.375   6.509  1.00  0.00    -0.014 A 
BRANCH  38  39
ATOM     39  C   UNL     1      -3.984  -5.591   7.867  1.00  0.00     0.031 A 
ATOM     40  C   UNL     1      -5.235  -6.411   8.025  1.00  0.00     0.074 A 
ATOM     41  C   UNL     1      -3.361  -5.084   8.945  1.00  0.00     0.049 A 
ATOM     42  N   UNL     1      -5.867  -6.751   9.117  1.00  0.00    -0.248 NA
ATOM     43  C   UNL     1      -5.857  -6.913   6.788  1.00  0.00     0.031 C 
ATOM     44  C   UNL     1      -2.149  -4.267   8.913  1.00  0.00     0.029 A 
ATOM     45  N   UNL     1      -3.678  -5.168  10.277  1.00  0.00    -0.354 N 
ATOM     46  C   UNL     1      -6.972  -7.483   8.702  1.00  0.00     0.074 A 
ATOM     47  C   UNL     1      -6.933  -7.530   7.257  1.00  0.00     0.031 C 
ATOM     48  C   UNL     1      -1.841  -3.898  10.169  1.00  0.00     0.029 A 
ATOM     49  C   UNL     1      -2.838  -4.443  11.088  1.00  0.00     0.049 A 
ATOM     50  H   UNL     1      -4.434  -5.697  10.619  1.00  0.00     0.167 HD
ATOM     51  C   UNL     1      -7.925  -8.078   9.457  1.00  0.00     0.034 A 
ATOM     52  C   UNL     1      -2.881  -4.234  12.418  1.00  0.00     0.034 A 
ATOM     53  C   UNL     1      -7.946  -8.055  10.894  1.00  0.00     0.049 A 
ATOM     54  C   UNL     1      -3.948  -4.914  13.236  1.00  0.00     0.074 A 
ATOM     55  C   UNL     1      -8.833  -8.680  11.752  1.00  0.00     0.029 A 
ATOM     56  N   UNL     1      -7.045  -7.360  11.686  1.00  0.00    -0.354 N 
ATOM     57  N   UNL     1      -4.901  -5.724  12.840  1.00  0.00    -0.248 NA
ATOM     58  C   UNL     1      -3.923  -4.684  14.688  1.00  0.00     0.031 C 
ATOM     59  C   UNL     1      -8.480  -8.347  13.063  1.00  0.00     0.029 A 
ATOM     60  C   UNL     1      -7.361  -7.531  13.023  1.00  0.00     0.049 A 
ATOM     61  H   UNL     1      -6.291  -6.825  11.348  1.00  0.00     0.167 HD
ATOM     62  C   UNL     1      -5.565  -6.126  13.994  1.00  0.00     0.074 A 
ATOM     63  C   UNL     1      -4.892  -5.487  15.106  1.00  0.00     0.031 C 
ATOM     64  C   UNL     1      -6.645  -6.936  14.122  1.00  0.00     0.034 A 
BRANCH  51  65
ATOM     65  C   UNL     1      -9.010  -8.837   8.744  1.00  0.00     0.023 A 
ATOM     66  C   UNL     1      -8.722 -10.095   8.178  1.00  0.00     0.012 A 
ATOM     67  C   UNL     1     -10.326  -8.338   8.691  1.00  0.00     0.148 A 
ATOM     68  C   UNL     1      -9.722 -10.836   7.549  1.00  0.00     0.002 A 
ATOM     69  C   UNL     1     -11.326  -9.099   8.097  1.00  0.00     0.091 A 
ATOM     70  F   UNL     1     -10.572  -7.128   9.213  1.00  0.00    -0.205 F 
ATOM     71  C   UNL     1     -11.025 -10.343   7.519  1.00  0.00     0.022 A 
BRANCH  69  72
ATOM     72  S   UNL     1     -13.046  -8.584   8.071  1.00  0.00     0.127 S 
ATOM     73  O   UNL     1     -13.232  -8.245   6.661  1.00  0.00    -0.237 OA
ATOM     74  O   UNL     1     -13.739  -9.799   8.502  1.00  0.00    -0.237 OA
ATOM     75  O   UNL     1     -13.145  -7.467   9.001  1.00  0.00    -0.744 OA
ENDBRANCH  69  72
ENDBRANCH  51  65
BRANCH  52  76
ATOM     76  C   UNL     1      -1.855  -3.370  13.066  1.00  0.00     0.023 A 
ATOM     77  C   UNL     1      -0.888  -3.948  13.911  1.00  0.00     0.012 A 
ATOM     78  C   UNL     1      -1.822  -1.982  12.834  1.00  0.00     0.148 A 
ATOM     79  C   UNL     1       0.074  -3.155  14.537  1.00  0.00     0.002 A 
ATOM     80  C   UNL     1      -0.828  -1.205  13.417  1.00  0.00     0.091 A 
ATOM     81  F   UNL     1      -2.764  -1.446  12.044  1.00  0.00    -0.205 F 
ATOM     82  C   UNL     1       0.111  -1.786  14.282  1.00  0.00     0.022 A 
BRANCH  80  83
ATOM     83  S   UNL     1      -0.636   0.540  13.037  1.00  0.00     0.127 S 
ATOM     84  O   UNL     1      -1.172   1.171  14.240  1.00  0.00    -0.237 OA
ATOM     85  O   UNL     1       0.814   0.659  12.872  1.00  0.00    -0.237 OA
ATOM     86  O   UNL     1      -1.394   0.756  11.812  1.00  0.00    -0.744 OA
ENDBRANCH  80  83
ENDBRANCH  52  76
BRANCH  64  87
ATOM     87  C   UNL     1      -7.156  -7.209  15.512  1.00  0.00     0.023 A 
ATOM     88  C   UNL     1      -7.851  -6.202  16.210  1.00  0.00     0.012 A 
ATOM     89  C   UNL     1      -7.018  -8.485  16.094  1.00  0.00     0.148 A 
ATOM     90  C   UNL     1      -8.374  -6.451  17.479  1.00  0.00     0.002 A 
ATOM     91  C   UNL     1      -7.582  -8.739  17.338  1.00  0.00     0.091 A 
ATOM     92  F   UNL     1      -6.336  -9.425  15.423  1.00  0.00    -0.205 F 
ATOM     93  C   UNL     1      -8.251  -7.721  18.037  1.00  0.00     0.022 A 
BRANCH  91  94
ATOM     94  S   UNL     1      -7.552 -10.373  18.086  1.00  0.00     0.127 S 
ATOM     95  O   UNL     1      -6.500 -10.223  19.090  1.00  0.00    -0.237 OA
ATOM     96  O   UNL     1      -8.904 -10.494  18.633  1.00  0.00    -0.237 OA
ATOM     97  O   UNL     1      -7.259 -11.300  17.001  1.00  0.00    -0.744 OA
ENDBRANCH  91  94
ENDBRANCH  64  87
ENDBRANCH  38  39
ENDBRANCH  31  33
ENDBRANCH  30  31
ENDBRANCH  29  30
ENDBRANCH  28  29
ENDBRANCH  27  28
ENDBRANCH   1  27
TORSDOF 22
