REMARK SMILES NS(=O)(=O)c1ccc(N2N=C(C(=O)OCCOCCOC(=O)c3ccc(-c4c5nc(c(-c6cccc(S(=O)(=O)[O-])c6F)c6ccc([nH]6)c(-c6cccc(S(=O)(=O)[O-])c6F)c6nc(c(-c7cccc(S(=O)(=O)[O-])c7F)c7ccc4[nH]7)C=C6)C=C5)cc3)C[C@H]2c2ccco2)cc1
REMARK SMILES IDX 17 1 16 2 15 3 14 4 12 5 13 6 11 7 9 8 10 9 87 10 86 11 8 12
REMARK SMILES IDX 5 13 6 14 94 15 7 16 93 17 2 18 3 19 4 20 1 21 88 24 89 25
REMARK SMILES IDX 92 26 90 27 91 28 18 29 19 30 20 31 21 32 22 33 23 34 24 35
REMARK SMILES IDX 85 36 25 37 84 38 26 39 27 40 28 41 78 42 29 43 83 44 77 45
REMARK SMILES IDX 79 46 30 47 82 48 76 49 75 50 31 52 63 53 43 54 62 55 44 56
REMARK SMILES IDX 47 57 61 58 80 59 45 60 46 61 60 63 81 64 48 65 32 66 33 67
REMARK SMILES IDX 41 68 34 69 36 70 42 71 35 72 37 73 38 74 39 75 40 76 64 77
REMARK SMILES IDX 65 78 73 79 66 80 68 81 74 82 67 83 69 84 70 85 71 86 72 87
REMARK SMILES IDX 49 88 50 89 58 90 51 91 53 92 59 93 52 94 54 95 55 96 56 97
REMARK SMILES IDX 57 98
REMARK H PARENT 1 22 1 23 79 51 47 62
REMARK Flexibility Score: inf
ROOT
ATOM      1  O   UNL     1       5.542   7.508   6.526  1.00  0.00    -0.374 OA
ENDROOT
BRANCH   1   2
ATOM      2  C   UNL     1       5.339   8.915   6.681  1.00  0.00     0.202 C 
BRANCH   2   3
ATOM      3  C   UNL     1       5.108   9.697   5.385  1.00  0.00     0.261 C 
BRANCH   3   4
ATOM      4  O   UNL     1       3.886   9.269   4.764  1.00  0.00    -0.459 OA
BRANCH   4   5
ATOM      5  C   UNL     1       4.007   8.838   3.493  1.00  0.00     0.354 C 
ATOM      6  O   UNL     1       4.958   8.955   2.744  1.00  0.00    -0.245 OA
BRANCH   5   7
ATOM      7  C   UNL     1       2.796   8.010   3.147  1.00  0.00     0.148 C 
ATOM      8  N   UNL     1       1.591   6.458   2.362  1.00  0.00    -0.254 N 
ATOM      9  N   UNL     1       2.882   6.854   2.558  1.00  0.00    -0.169 NA
ATOM     10  C   UNL     1       0.628   7.552   2.592  1.00  0.00     0.180 C 
ATOM     11  C   UNL     1       1.424   8.428   3.572  1.00  0.00     0.101 C 
BRANCH   8  12
ATOM     12  C   UNL     1       1.347   5.312   1.624  1.00  0.00     0.060 A 
ATOM     13  C   UNL     1       0.824   2.954   0.181  1.00  0.00     0.082 A 
ATOM     14  C   UNL     1       1.127   2.880   1.541  1.00  0.00     0.024 A 
ATOM     15  C   UNL     1       0.824   4.186  -0.474  1.00  0.00     0.024 A 
ATOM     16  C   UNL     1       1.392   4.057   2.250  1.00  0.00     0.029 A 
ATOM     17  C   UNL     1       1.091   5.352   0.249  1.00  0.00     0.029 A 
BRANCH  13  18
ATOM     18  S   UNL     1       0.464   1.502  -0.756  1.00  0.00     0.238 S 
ATOM     19  O   UNL     1       1.147   1.589  -2.034  1.00  0.00    -0.207 OA
ATOM     20  O   UNL     1      -0.942   1.222  -0.649  1.00  0.00    -0.207 OA
BRANCH  18  21
ATOM     21  N   UNL     1       1.248   0.261   0.062  1.00  0.00    -0.225 NA
ATOM     22  H   UNL     1       1.086  -0.622  -0.423  1.00  0.00     0.137 HD
ATOM     23  H   UNL     1       0.884   0.198   1.013  1.00  0.00     0.137 HD
ENDBRANCH  18  21
ENDBRANCH  13  18
ENDBRANCH   8  12
BRANCH  10  24
ATOM     24  C   UNL     1       0.186   8.340   1.391  1.00  0.00     0.128 A 
ATOM     25  C   UNL     1      -0.828   8.166   0.468  1.00  0.00     0.048 A 
ATOM     26  O   UNL     1       0.883   9.477   1.091  1.00  0.00    -0.467 OA
ATOM     27  C   UNL     1      -0.734   9.246  -0.444  1.00  0.00     0.042 A 
ATOM     28  C   UNL     1       0.311  10.025  -0.009  1.00  0.00     0.195 A 
ENDBRANCH  10  24
ENDBRANCH   5   7
ENDBRANCH   4   5
ENDBRANCH   3   4
ENDBRANCH   2   3
ENDBRANCH   1   2
BRANCH   1  29
ATOM     29  C   UNL     1       4.388   6.699   6.296  1.00  0.00     0.202 C 
BRANCH  29  30
ATOM     30  C   UNL     1       3.537   6.351   7.524  1.00  0.00     0.261 C 
BRANCH  30  31
ATOM     31  O   UNL     1       2.995   7.517   8.168  1.00  0.00    -0.460 OA
BRANCH  31  32
ATOM     32  C   UNL     1       3.553   7.796   9.373  1.00  0.00     0.338 C 
ATOM     33  O   UNL     1       4.373   7.121   9.975  1.00  0.00    -0.246 OA
BRANCH  32  34
ATOM     34  C   UNL     1       3.163   9.145   9.827  1.00  0.00     0.060 A 
ATOM     35  C   UNL     1       4.194   9.996  10.241  1.00  0.00     0.016 A 
ATOM     36  C   UNL     1       1.829   9.547   9.928  1.00  0.00     0.016 A 
ATOM     37  C   UNL     1       3.892  11.226  10.819  1.00  0.00     0.010 A 
ATOM     38  C   UNL     1       1.528  10.786  10.508  1.00  0.00     0.010 A 
ATOM     39  C   UNL     1       2.556  11.612  10.996  1.00  0.00    -0.014 A 
BRANCH  39  40
ATOM     40  C   UNL     1       2.266  12.830  11.793  1.00  0.00     0.031 A 
ATOM     41  C   UNL     1       1.825  12.699  13.225  1.00  0.00     0.074 A 
ATOM     42  C   UNL     1       2.442  14.050  11.258  1.00  0.00     0.049 A 
ATOM     43  N   UNL     1       1.641  13.633  14.121  1.00  0.00    -0.248 NA
ATOM     44  C   UNL     1       1.551  11.337  13.710  1.00  0.00     0.031 C 
ATOM     45  C   UNL     1       2.830  14.313   9.873  1.00  0.00     0.029 A 
ATOM     46  N   UNL     1       2.307  15.297  11.815  1.00  0.00    -0.354 N 
ATOM     47  C   UNL     1       1.218  12.979  15.272  1.00  0.00     0.074 A 
ATOM     48  C   UNL     1       1.143  11.570  14.950  1.00  0.00     0.031 C 
ATOM     49  C   UNL     1       2.886  15.642   9.683  1.00  0.00     0.029 A 
ATOM     50  C   UNL     1       2.536  16.322  10.930  1.00  0.00     0.049 A 
ATOM     51  H   UNL     1       2.069  15.443  12.759  1.00  0.00     0.167 HD
ATOM     52  C   UNL     1       0.942  13.497  16.493  1.00  0.00     0.034 A 
ATOM     53  C   UNL     1       2.473  17.657  11.101  1.00  0.00     0.034 A 
ATOM     54  C   UNL     1       1.029  14.897  16.817  1.00  0.00     0.049 A 
ATOM     55  C   UNL     1       2.191  18.214  12.471  1.00  0.00     0.074 A 
ATOM     56  C   UNL     1       0.830  15.512  18.041  1.00  0.00     0.029 A 
ATOM     57  N   UNL     1       1.325  15.902  15.909  1.00  0.00    -0.354 N 
ATOM     58  N   UNL     1       1.951  17.572  13.588  1.00  0.00    -0.248 NA
ATOM     59  C   UNL     1       2.221  19.677  12.614  1.00  0.00     0.031 C 
ATOM     60  C   UNL     1       0.983  16.893  17.867  1.00  0.00     0.029 A 
ATOM     61  C   UNL     1       1.303  17.135  16.540  1.00  0.00     0.049 A 
ATOM     62  H   UNL     1       1.521  15.761  14.955  1.00  0.00     0.167 HD
ATOM     63  C   UNL     1       1.833  18.547  14.573  1.00  0.00     0.074 A 
ATOM     64  C   UNL     1       2.049  19.823  13.922  1.00  0.00     0.031 C 
ATOM     65  C   UNL     1       1.560  18.398  15.894  1.00  0.00     0.034 A 
BRANCH  52  66
ATOM     66  C   UNL     1       0.552  12.530  17.581  1.00  0.00     0.023 A 
ATOM     67  C   UNL     1       1.526  11.669  18.129  1.00  0.00     0.012 A 
ATOM     68  C   UNL     1      -0.764  12.487  18.080  1.00  0.00     0.148 A 
ATOM     69  C   UNL     1       1.188  10.753  19.124  1.00  0.00     0.002 A 
ATOM     70  C   UNL     1      -1.084  11.601  19.103  1.00  0.00     0.091 A 
ATOM     71  F   UNL     1      -1.685  13.292  17.531  1.00  0.00    -0.205 F 
ATOM     72  C   UNL     1      -0.114  10.726  19.617  1.00  0.00     0.022 A 
BRANCH  70  73
ATOM     73  S   UNL     1      -2.717  11.551  19.850  1.00  0.00     0.127 S 
ATOM     74  O   UNL     1      -3.302  10.378  19.203  1.00  0.00    -0.237 OA
ATOM     75  O   UNL     1      -2.407  11.373  21.269  1.00  0.00    -0.237 OA
ATOM     76  O   UNL     1      -3.337  12.829  19.526  1.00  0.00    -0.744 OA
ENDBRANCH  70  73
ENDBRANCH  52  66
BRANCH  53  77
ATOM     77  C   UNL     1       2.749  18.550   9.942  1.00  0.00     0.023 A 
ATOM     78  C   UNL     1       3.954  19.276   9.888  1.00  0.00     0.012 A 
ATOM     79  C   UNL     1       1.852  18.620   8.859  1.00  0.00     0.148 A 
ATOM     80  C   UNL     1       4.253  20.070   8.780  1.00  0.00     0.002 A 
ATOM     81  C   UNL     1       2.182  19.366   7.735  1.00  0.00     0.091 A 
ATOM     82  F   UNL     1       0.706  17.929   8.940  1.00  0.00    -0.205 F 
ATOM     83  C   UNL     1       3.375  20.104   7.699  1.00  0.00     0.022 A 
BRANCH  81  84
ATOM     84  S   UNL     1       1.183  19.351   6.242  1.00  0.00     0.127 S 
ATOM     85  O   UNL     1       0.682  20.723   6.203  1.00  0.00    -0.237 OA
ATOM     86  O   UNL     1       2.179  19.028   5.220  1.00  0.00    -0.237 OA
ATOM     87  O   UNL     1       0.177  18.318   6.449  1.00  0.00    -0.744 OA
ENDBRANCH  81  84
ENDBRANCH  53  77
BRANCH  65  88
ATOM     88  C   UNL     1       1.501  19.644  16.741  1.00  0.00     0.023 A 
ATOM     89  C   UNL     1       0.411  20.529  16.613  1.00  0.00     0.012 A 
ATOM     90  C   UNL     1       2.491  19.906  17.710  1.00  0.00     0.148 A 
ATOM     91  C   UNL     1       0.326  21.670  17.410  1.00  0.00     0.002 A 
ATOM     92  C   UNL     1       2.374  21.021  18.533  1.00  0.00     0.091 A 
ATOM     93  F   UNL     1       3.533  19.067  17.805  1.00  0.00    -0.205 F 
ATOM     94  C   UNL     1       1.300  21.910  18.377  1.00  0.00     0.022 A 
BRANCH  92  95
ATOM     95  S   UNL     1       3.535  21.352  19.864  1.00  0.00     0.127 S 
ATOM     96  O   UNL     1       4.361  22.409  19.284  1.00  0.00    -0.237 OA
ATOM     97  O   UNL     1       2.655  21.793  20.947  1.00  0.00    -0.237 OA
ATOM     98  O   UNL     1       4.215  20.089  20.120  1.00  0.00    -0.744 OA
ENDBRANCH  92  95
ENDBRANCH  65  88
ENDBRANCH  39  40
ENDBRANCH  32  34
ENDBRANCH  31  32
ENDBRANCH  30  31
ENDBRANCH  29  30
ENDBRANCH   1  29
TORSDOF 21
