REMARK SMILES O=C(CSc1nnc2sc3ccccc3n12)N[C@H](Cc1c[nH]c2ccccc12)C(=O)OCCOCCOC(=O)c1ccc(-c2c3nc(c(-c4cccc(S(=O)(=O)[O-])c4F)c4ccc([nH]4)c(-c4cccc(S(=O)(=O)[O-])c4F)c4nc(c(-c5cccc(S(=O)(=O)[O-])c5F)c5ccc2[nH]5)C=C4)C=C3)cc1
REMARK SMILES IDX 33 1 32 2 31 3 29 4 30 5 18 6 17 7 1 8 2 9 3 11 4 12 5 13
REMARK SMILES IDX 6 14 16 15 7 16 8 17 15 18 9 19 10 20 14 21 11 22 13 23
REMARK SMILES IDX 12 24 19 25 20 26 21 27 28 28 22 29 23 30 27 31 24 33 26 34
REMARK SMILES IDX 25 35 34 36 35 37 36 38 37 39 38 40 39 41 40 42 41 43 102 44
REMARK SMILES IDX 42 45 101 46 43 47 44 48 45 49 95 50 46 51 100 52 94 53
REMARK SMILES IDX 96 54 47 55 99 56 93 57 92 58 48 60 80 61 60 62 79 63 61 64
REMARK SMILES IDX 64 65 78 66 97 67 62 68 63 69 77 71 98 72 65 73 49 74 50 75
REMARK SMILES IDX 58 76 51 77 53 78 59 79 52 80 54 81 55 82 56 83 57 84 81 85
REMARK SMILES IDX 82 86 90 87 83 88 85 89 91 90 84 91 86 92 87 93 88 94 89 95
REMARK SMILES IDX 66 96 67 97 75 98 68 99 70 100 76 101 69 102 71 103 72 104
REMARK SMILES IDX 73 105 74 106
REMARK H PARENT 17 10 22 32 96 59 64 70
REMARK Flexibility Score: inf
ROOT
ATOM      1  C   UNL     1       2.710   2.968   4.989  1.00  0.00     0.202 C 
ENDROOT
BRANCH   1   2
ATOM      2  C   UNL     1       3.374   1.640   4.601  1.00  0.00     0.261 C 
BRANCH   2   3
ATOM      3  O   UNL     1       3.160   1.132   3.287  1.00  0.00    -0.462 OA
BRANCH   3   4
ATOM      4  C   UNL     1       2.268   0.124   3.218  1.00  0.00     0.329 C 
ATOM      5  O   UNL     1       1.383  -0.069   4.054  1.00  0.00    -0.250 OA
BRANCH   4   6
ATOM      6  C   UNL     1       2.522  -0.887   2.083  1.00  0.00     0.196 C 
BRANCH   6   7
ATOM      7  N   UNL     1       2.678  -2.187   2.793  1.00  0.00    -0.342 N 
ATOM      8  O   UNL     1       4.633  -1.588   3.803  1.00  0.00    -0.274 OA
ATOM      9  C   UNL     1       3.730  -2.412   3.662  1.00  0.00     0.231 C 
ATOM     10  H   UNL     1       2.018  -2.901   2.640  1.00  0.00     0.164 HD
BRANCH   9  11
ATOM     11  C   UNL     1       3.784  -3.758   4.373  1.00  0.00     0.178 C 
BRANCH  11  12
ATOM     12  S   UNL     1       2.216  -4.596   4.510  1.00  0.00    -0.076 SA
BRANCH  12  13
ATOM     13  C   UNL     1       1.393  -4.211   5.992  1.00  0.00     0.197 A 
ATOM     14  N   UNL     1       0.363  -4.984   6.328  1.00  0.00    -0.122 NA
ATOM     15  N   UNL     1       1.230  -3.002   6.626  1.00  0.00    -0.260 N 
ATOM     16  N   UNL     1      -0.592  -4.212   6.962  1.00  0.00    -0.118 NA
ATOM     17  C   UNL     1      -0.077  -3.018   7.035  1.00  0.00     0.217 A 
ATOM     18  C   UNL     1       1.921  -1.842   6.978  1.00  0.00     0.068 A 
ATOM     19  S   UNL     1      -0.661  -1.503   7.617  1.00  0.00    -0.094 S 
ATOM     20  C   UNL     1       1.015  -0.886   7.480  1.00  0.00     0.055 A 
ATOM     21  C   UNL     1       3.284  -1.621   7.015  1.00  0.00     0.028 A 
ATOM     22  C   UNL     1       1.449   0.355   7.906  1.00  0.00     0.021 A 
ATOM     23  C   UNL     1       3.732  -0.386   7.494  1.00  0.00     0.002 A 
ATOM     24  C   UNL     1       2.820   0.598   7.910  1.00  0.00     0.002 A 
ENDBRANCH  12  13
ENDBRANCH  11  12
ENDBRANCH   9  11
ENDBRANCH   6   7
BRANCH   6  25
ATOM     25  C   UNL     1       3.558  -0.752   0.940  1.00  0.00     0.074 C 
BRANCH  25  26
ATOM     26  C   UNL     1       4.059   0.589   0.491  1.00  0.00    -0.020 A 
ATOM     27  C   UNL     1       4.968   1.348   1.201  1.00  0.00     0.087 A 
ATOM     28  C   UNL     1       3.901   1.265  -0.773  1.00  0.00     0.003 A 
ATOM     29  N   UNL     1       5.184   2.519   0.541  1.00  0.00    -0.361 N 
ATOM     30  C   UNL     1       4.546   2.500  -0.670  1.00  0.00     0.046 A 
ATOM     31  C   UNL     1       3.301   0.952  -2.013  1.00  0.00     0.010 A 
ATOM     32  H   UNL     1       5.720   3.269   0.885  1.00  0.00     0.166 HD
ATOM     33  C   UNL     1       4.536   3.473  -1.677  1.00  0.00     0.026 A 
ATOM     34  C   UNL     1       3.348   1.885  -3.064  1.00  0.00     0.001 A 
ATOM     35  C   UNL     1       3.932   3.137  -2.886  1.00  0.00     0.002 A 
ENDBRANCH  25  26
ENDBRANCH   6  25
ENDBRANCH   4   6
ENDBRANCH   3   4
ENDBRANCH   2   3
ENDBRANCH   1   2
BRANCH   1  36
ATOM     36  O   UNL     1       1.616   3.456   4.226  1.00  0.00    -0.374 OA
BRANCH  36  37
ATOM     37  C   UNL     1       1.817   3.683   2.832  1.00  0.00     0.202 C 
BRANCH  37  38
ATOM     38  C   UNL     1       3.004   4.564   2.410  1.00  0.00     0.261 C 
BRANCH  38  39
ATOM     39  O   UNL     1       4.242   4.018   2.875  1.00  0.00    -0.460 OA
BRANCH  39  40
ATOM     40  C   UNL     1       5.271   4.895   2.978  1.00  0.00     0.338 C 
ATOM     41  O   UNL     1       5.427   5.926   2.353  1.00  0.00    -0.246 OA
BRANCH  40  42
ATOM     42  C   UNL     1       5.990   4.483   4.192  1.00  0.00     0.060 A 
ATOM     43  C   UNL     1       6.567   3.216   4.285  1.00  0.00     0.016 A 
ATOM     44  C   UNL     1       5.811   5.286   5.323  1.00  0.00     0.016 A 
ATOM     45  C   UNL     1       6.853   2.703   5.545  1.00  0.00     0.010 A 
ATOM     46  C   UNL     1       6.108   4.773   6.579  1.00  0.00     0.010 A 
ATOM     47  C   UNL     1       6.577   3.462   6.696  1.00  0.00    -0.014 A 
BRANCH  47  48
ATOM     48  C   UNL     1       6.976   2.903   7.992  1.00  0.00     0.031 A 
ATOM     49  C   UNL     1       8.442   2.686   8.100  1.00  0.00     0.074 A 
ATOM     50  C   UNL     1       6.188   2.769   9.081  1.00  0.00     0.049 A 
ATOM     51  N   UNL     1       9.089   1.582   8.286  1.00  0.00    -0.248 NA
ATOM     52  C   UNL     1       9.294   3.860   7.843  1.00  0.00     0.031 C 
ATOM     53  C   UNL     1       4.843   3.320   9.246  1.00  0.00     0.029 A 
ATOM     54  N   UNL     1       6.465   2.239  10.318  1.00  0.00    -0.354 N 
ATOM     55  C   UNL     1      10.421   1.973   8.403  1.00  0.00     0.074 A 
ATOM     56  C   UNL     1      10.512   3.333   7.938  1.00  0.00     0.031 C 
ATOM     57  C   UNL     1       4.507   3.289  10.553  1.00  0.00     0.029 A 
ATOM     58  C   UNL     1       5.568   2.643  11.306  1.00  0.00     0.049 A 
ATOM     59  H   UNL     1       7.222   1.634  10.490  1.00  0.00     0.167 HD
ATOM     60  C   UNL     1      11.311   1.283   9.163  1.00  0.00     0.034 A 
ATOM     61  C   UNL     1       5.724   2.549  12.650  1.00  0.00     0.034 A 
ATOM     62  C   UNL     1      10.843  -0.011   9.548  1.00  0.00     0.049 A 
ATOM     63  C   UNL     1       6.740   1.512  12.935  1.00  0.00     0.074 A 
ATOM     64  C   UNL     1      10.792  -1.279   9.018  1.00  0.00     0.029 A 
ATOM     65  N   UNL     1      10.029   0.013  10.643  1.00  0.00    -0.354 N 
ATOM     66  N   UNL     1       6.580   0.241  12.697  1.00  0.00    -0.248 NA
ATOM     67  C   UNL     1       8.088   1.917  13.325  1.00  0.00     0.031 C 
ATOM     68  C   UNL     1       9.827  -1.997   9.784  1.00  0.00     0.029 A 
ATOM     69  C   UNL     1       9.318  -1.149  10.762  1.00  0.00     0.049 A 
ATOM     70  H   UNL     1       9.962   0.771  11.268  1.00  0.00     0.167 HD
ATOM     71  C   UNL     1       7.865  -0.226  12.515  1.00  0.00     0.074 A 
ATOM     72  C   UNL     1       8.743   0.781  13.086  1.00  0.00     0.031 C 
ATOM     73  C   UNL     1       8.136  -1.185  11.591  1.00  0.00     0.034 A 
BRANCH  60  74
ATOM     74  C   UNL     1      12.407   1.961   9.942  1.00  0.00     0.023 A 
ATOM     75  C   UNL     1      13.521   1.205  10.349  1.00  0.00     0.012 A 
ATOM     76  C   UNL     1      12.256   3.251  10.503  1.00  0.00     0.148 A 
ATOM     77  C   UNL     1      14.463   1.728  11.243  1.00  0.00     0.002 A 
ATOM     78  C   UNL     1      13.240   3.801  11.312  1.00  0.00     0.091 A 
ATOM     79  F   UNL     1      11.092   3.899  10.360  1.00  0.00    -0.205 F 
ATOM     80  C   UNL     1      14.339   3.036  11.702  1.00  0.00     0.022 A 
BRANCH  78  81
ATOM     81  S   UNL     1      13.150   5.509  11.857  1.00  0.00     0.127 S 
ATOM     82  O   UNL     1      12.741   5.353  13.249  1.00  0.00    -0.237 OA
ATOM     83  O   UNL     1      14.528   5.959  11.659  1.00  0.00    -0.237 OA
ATOM     84  O   UNL     1      12.186   6.139  10.963  1.00  0.00    -0.744 OA
ENDBRANCH  78  81
ENDBRANCH  60  74
BRANCH  61  85
ATOM     85  C   UNL     1       5.228   3.430  13.744  1.00  0.00     0.023 A 
ATOM     86  C   UNL     1       5.338   2.985  15.081  1.00  0.00     0.012 A 
ATOM     87  C   UNL     1       4.936   4.793  13.530  1.00  0.00     0.148 A 
ATOM     88  C   UNL     1       5.246   3.877  16.156  1.00  0.00     0.002 A 
ATOM     89  C   UNL     1       4.819   5.672  14.604  1.00  0.00     0.091 A 
ATOM     90  F   UNL     1       4.875   5.263  12.279  1.00  0.00    -0.205 F 
ATOM     91  C   UNL     1       4.998   5.224  15.917  1.00  0.00     0.022 A 
BRANCH  89  92
ATOM     92  S   UNL     1       4.486   7.419  14.346  1.00  0.00     0.127 S 
ATOM     93  O   UNL     1       3.608   7.739  15.473  1.00  0.00    -0.237 OA
ATOM     94  O   UNL     1       5.822   7.999  14.426  1.00  0.00    -0.237 OA
ATOM     95  O   UNL     1       3.829   7.495  13.046  1.00  0.00    -0.744 OA
ENDBRANCH  89  92
ENDBRANCH  61  85
BRANCH  73  96
ATOM     96  C   UNL     1       7.074  -2.184  11.275  1.00  0.00     0.023 A 
ATOM     97  C   UNL     1       5.903  -1.862  10.568  1.00  0.00     0.012 A 
ATOM     98  C   UNL     1       7.328  -3.520  11.627  1.00  0.00     0.148 A 
ATOM     99  C   UNL     1       4.995  -2.865  10.220  1.00  0.00     0.002 A 
ATOM    100  C   UNL     1       6.449  -4.517  11.236  1.00  0.00     0.091 A 
ATOM    101  F   UNL     1       8.446  -3.789  12.317  1.00  0.00    -0.205 F 
ATOM    102  C   UNL     1       5.277  -4.194  10.536  1.00  0.00     0.022 A 
BRANCH 100 103
ATOM    103  S   UNL     1       6.800  -6.251  11.526  1.00  0.00     0.127 S 
ATOM    104  O   UNL     1       5.713  -6.637  12.424  1.00  0.00    -0.237 OA
ATOM    105  O   UNL     1       6.709  -6.806  10.175  1.00  0.00    -0.237 OA
ATOM    106  O   UNL     1       8.134  -6.305  12.111  1.00  0.00    -0.744 OA
ENDBRANCH 100 103
ENDBRANCH  73  96
ENDBRANCH  47  48
ENDBRANCH  40  42
ENDBRANCH  39  40
ENDBRANCH  38  39
ENDBRANCH  37  38
ENDBRANCH  36  37
ENDBRANCH   1  36
TORSDOF 23
