REMARK SMILES CC[C@H]1CCC[C@](Cc2ccc(OC)cc2)(C(=O)OCCOCCOC(=O)c2ccc(-c3c4nc(c(-c5cccc(S(=O)(=O)[O-])c5F)c5ccc([nH]5)c(-c5cccc(S(=O)(=O)[O-])c5F)c5nc(c(-c6cccc(S(=O)(=O)[O-])c6F)c6ccc3[nH]6)C=C5)C=C4)cc2)C1
REMARK SMILES IDX 22 1 21 2 20 3 19 4 17 5 18 6 7 7 3 8 4 9 91 10 5 11 6 12
REMARK SMILES IDX 2 13 1 14 8 15 9 16 10 17 16 18 11 19 15 20 12 21 13 22
REMARK SMILES IDX 14 23 23 24 24 25 25 26 26 27 27 28 28 29 29 30 90 31 30 32
REMARK SMILES IDX 89 33 31 34 32 35 33 36 83 37 34 38 88 39 82 40 84 41 35 42
REMARK SMILES IDX 87 43 81 44 80 45 36 47 68 48 48 49 67 50 49 51 52 52 66 53
REMARK SMILES IDX 85 54 50 55 51 56 65 58 86 59 53 60 37 61 38 62 46 63 39 64
REMARK SMILES IDX 41 65 47 66 40 67 42 68 43 69 44 70 45 71 69 72 70 73 78 74
REMARK SMILES IDX 71 75 73 76 79 77 72 78 74 79 75 80 76 81 77 82 54 83 55 84
REMARK SMILES IDX 63 85 56 86 58 87 64 88 57 89 59 90 60 91 61 92 62 93
REMARK H PARENT 84 46 52 57
REMARK Flexibility Score: inf
ROOT
ATOM      1  O   UNL     1       1.209   6.091   4.613  1.00  0.00    -0.374 OA
ENDROOT
BRANCH   1   2
ATOM      2  C   UNL     1      -0.193   5.866   4.715  1.00  0.00     0.202 C 
BRANCH   2   3
ATOM      3  C   UNL     1      -0.830   4.700   3.955  1.00  0.00     0.261 C 
BRANCH   3   4
ATOM      4  O   UNL     1      -0.353   3.398   4.335  1.00  0.00    -0.463 OA
BRANCH   4   5
ATOM      5  C   UNL     1       0.602   2.916   3.503  1.00  0.00     0.312 C 
ATOM      6  O   UNL     1       1.194   3.612   2.679  1.00  0.00    -0.252 OA
BRANCH   5   7
ATOM      7  C   UNL     1       0.878   1.400   3.633  1.00  0.00     0.072 C 
ATOM      8  C   UNL     1       0.493  -0.402   1.683  1.00  0.00    -0.010 C 
ATOM      9  C   UNL     1      -0.215  -1.290   2.740  1.00  0.00     0.003 C 
ATOM     10  C   UNL     1       0.689   1.038   2.133  1.00  0.00     0.022 C 
ATOM     11  C   UNL     1      -0.263  -0.833   4.214  1.00  0.00     0.001 C 
ATOM     12  C   UNL     1      -0.193   0.671   4.457  1.00  0.00     0.019 C 
BRANCH   8  13
ATOM     13  C   UNL     1       1.808  -0.919   1.029  1.00  0.00     0.000 C 
ATOM     14  C   UNL     1       2.036  -0.397  -0.388  1.00  0.00     0.004 C 
ENDBRANCH   8  13
BRANCH   7  15
ATOM     15  C   UNL     1       2.324   1.339   4.297  1.00  0.00     0.054 C 
BRANCH  15  16
ATOM     16  C   UNL     1       3.121   0.083   4.628  1.00  0.00    -0.047 A 
ATOM     17  C   UNL     1       4.208   0.078   5.513  1.00  0.00     0.007 A 
ATOM     18  C   UNL     1       2.894  -1.115   3.982  1.00  0.00     0.007 A 
ATOM     19  C   UNL     1       5.022  -1.073   5.668  1.00  0.00     0.046 A 
ATOM     20  C   UNL     1       3.692  -2.245   4.088  1.00  0.00     0.046 A 
ATOM     21  C   UNL     1       4.786  -2.231   4.922  1.00  0.00     0.118 A 
BRANCH  21  22
ATOM     22  O   UNL     1       5.649  -3.285   5.063  1.00  0.00    -0.497 OA
ATOM     23  C   UNL     1       5.471  -4.348   4.121  1.00  0.00     0.278 C 
ENDBRANCH  21  22
ENDBRANCH  15  16
ENDBRANCH   7  15
ENDBRANCH   5   7
ENDBRANCH   4   5
ENDBRANCH   3   4
ENDBRANCH   2   3
ENDBRANCH   1   2
BRANCH   1  24
ATOM     24  C   UNL     1       2.106   5.174   5.230  1.00  0.00     0.202 C 
BRANCH  24  25
ATOM     25  C   UNL     1       2.204   5.137   6.757  1.00  0.00     0.261 C 
BRANCH  25  26
ATOM     26  O   UNL     1       0.946   4.884   7.397  1.00  0.00    -0.460 OA
BRANCH  26  27
ATOM     27  C   UNL     1       0.417   5.982   7.991  1.00  0.00     0.338 C 
ATOM     28  O   UNL     1       0.925   7.087   8.073  1.00  0.00    -0.246 OA
BRANCH  27  29
ATOM     29  C   UNL     1      -0.980   5.737   8.392  1.00  0.00     0.060 A 
ATOM     30  C   UNL     1      -1.922   6.698   8.001  1.00  0.00     0.016 A 
ATOM     31  C   UNL     1      -1.341   4.676   9.224  1.00  0.00     0.016 A 
ATOM     32  C   UNL     1      -3.205   6.663   8.528  1.00  0.00     0.010 A 
ATOM     33  C   UNL     1      -2.634   4.644   9.756  1.00  0.00     0.010 A 
ATOM     34  C   UNL     1      -3.545   5.675   9.460  1.00  0.00    -0.014 A 
BRANCH  34  35
ATOM     35  C   UNL     1      -4.777   5.863  10.260  1.00  0.00     0.031 A 
ATOM     36  C   UNL     1      -4.659   6.417  11.655  1.00  0.00     0.074 A 
ATOM     37  C   UNL     1      -5.985   5.618   9.722  1.00  0.00     0.049 A 
ATOM     38  N   UNL     1      -5.603   6.730  12.503  1.00  0.00    -0.248 NA
ATOM     39  C   UNL     1      -3.296   6.652  12.162  1.00  0.00     0.031 C 
ATOM     40  C   UNL     1      -6.218   5.090   8.379  1.00  0.00     0.029 A 
ATOM     41  N   UNL     1      -7.240   5.778  10.247  1.00  0.00    -0.354 N 
ATOM     42  C   UNL     1      -4.952   7.173  13.649  1.00  0.00     0.074 A 
ATOM     43  C   UNL     1      -3.532   7.070  13.396  1.00  0.00     0.031 C 
ATOM     44  C   UNL     1      -7.542   4.954   8.190  1.00  0.00     0.029 A 
ATOM     45  C   UNL     1      -8.244   5.370   9.403  1.00  0.00     0.049 A 
ATOM     46  H   UNL     1      -7.407   6.150  11.143  1.00  0.00     0.167 HD
ATOM     47  C   UNL     1      -5.486   7.644  14.800  1.00  0.00     0.034 A 
ATOM     48  C   UNL     1      -9.577   5.328   9.594  1.00  0.00     0.034 A 
ATOM     49  C   UNL     1      -6.899   7.767  15.036  1.00  0.00     0.049 A 
ATOM     50  C   UNL     1     -10.147   5.853  10.885  1.00  0.00     0.074 A 
ATOM     51  C   UNL     1      -7.545   8.268  16.152  1.00  0.00     0.029 A 
ATOM     52  N   UNL     1      -7.886   7.377  14.144  1.00  0.00    -0.354 N 
ATOM     53  N   UNL     1      -9.521   6.373  11.914  1.00  0.00    -0.248 NA
ATOM     54  C   UNL     1     -11.609   5.824  11.024  1.00  0.00     0.031 C 
ATOM     55  C   UNL     1      -8.924   8.156  15.944  1.00  0.00     0.029 A 
ATOM     56  C   UNL     1      -9.137   7.617  14.685  1.00  0.00     0.049 A 
ATOM     57  H   UNL     1      -7.721   6.986  13.255  1.00  0.00     0.167 HD
ATOM     58  C   UNL     1     -10.513   6.769  12.805  1.00  0.00     0.074 A 
ATOM     59  C   UNL     1     -11.782   6.447  12.183  1.00  0.00     0.031 C 
ATOM     60  C   UNL     1     -10.389   7.336  14.031  1.00  0.00     0.034 A 
BRANCH  47  61
ATOM     61  C   UNL     1      -4.537   8.080  15.886  1.00  0.00     0.023 A 
ATOM     62  C   UNL     1      -3.794   9.269  15.731  1.00  0.00     0.012 A 
ATOM     63  C   UNL     1      -4.415   7.340  17.078  1.00  0.00     0.148 A 
ATOM     64  C   UNL     1      -2.922   9.697  16.732  1.00  0.00     0.002 A 
ATOM     65  C   UNL     1      -3.578   7.797  18.089  1.00  0.00     0.091 A 
ATOM     66  F   UNL     1      -5.110   6.200  17.196  1.00  0.00    -0.205 F 
ATOM     67  C   UNL     1      -2.822   8.967  17.914  1.00  0.00     0.022 A 
BRANCH  65  68
ATOM     68  S   UNL     1      -3.439   6.970  19.678  1.00  0.00     0.127 S 
ATOM     69  O   UNL     1      -2.091   6.410  19.603  1.00  0.00    -0.237 OA
ATOM     70  O   UNL     1      -3.586   8.083  20.617  1.00  0.00    -0.237 OA
ATOM     71  O   UNL     1      -4.520   5.995  19.720  1.00  0.00    -0.744 OA
ENDBRANCH  65  68
ENDBRANCH  47  61
BRANCH  48  72
ATOM     72  C   UNL     1     -10.464   4.808   8.516  1.00  0.00     0.023 A 
ATOM     73  C   UNL     1     -11.325   5.687   7.832  1.00  0.00     0.012 A 
ATOM     74  C   UNL     1     -10.440   3.447   8.152  1.00  0.00     0.148 A 
ATOM     75  C   UNL     1     -12.169   5.215   6.827  1.00  0.00     0.002 A 
ATOM     76  C   UNL     1     -11.240   2.995   7.111  1.00  0.00     0.091 A 
ATOM     77  F   UNL     1      -9.624   2.624   8.826  1.00  0.00    -0.205 F 
ATOM     78  C   UNL     1     -12.120   3.872   6.459  1.00  0.00     0.022 A 
BRANCH  76  79
ATOM     79  S   UNL     1     -11.142   1.315   6.484  1.00  0.00     0.127 S 
ATOM     80  O   UNL     1     -12.414   0.753   6.931  1.00  0.00    -0.237 OA
ATOM     81  O   UNL     1     -11.039   1.537   5.041  1.00  0.00    -0.237 OA
ATOM     82  O   UNL     1      -9.947   0.739   7.087  1.00  0.00    -0.744 OA
ENDBRANCH  76  79
ENDBRANCH  48  72
BRANCH  60  83
ATOM     83  C   UNL     1     -11.656   7.685  14.768  1.00  0.00     0.023 A 
ATOM     84  C   UNL     1     -12.464   6.663  15.304  1.00  0.00     0.012 A 
ATOM     85  C   UNL     1     -12.013   9.031  14.981  1.00  0.00     0.148 A 
ATOM     86  C   UNL     1     -13.630   6.973  16.003  1.00  0.00     0.002 A 
ATOM     87  C   UNL     1     -13.149   9.334  15.723  1.00  0.00     0.091 A 
ATOM     88  F   UNL     1     -11.243   9.991  14.449  1.00  0.00    -0.205 F 
ATOM     89  C   UNL     1     -13.966   8.307  16.221  1.00  0.00     0.022 A 
BRANCH  87  90
ATOM     90  S   UNL     1     -13.601  11.023  16.136  1.00  0.00     0.127 S 
ATOM     91  O   UNL     1     -14.716  11.265  15.224  1.00  0.00    -0.237 OA
ATOM     92  O   UNL     1     -13.979  10.909  17.545  1.00  0.00    -0.237 OA
ATOM     93  O   UNL     1     -12.408  11.825  15.897  1.00  0.00    -0.744 OA
ENDBRANCH  87  90
ENDBRANCH  60  83
ENDBRANCH  34  35
ENDBRANCH  27  29
ENDBRANCH  26  27
ENDBRANCH  25  26
ENDBRANCH  24  25
ENDBRANCH   1  24
TORSDOF 21
