REMARK SMILES O=C(CCC(=O)OCCOCCOC(=O)c1ccc(-c2c3nc(c(-c4cccc(S(=O)(=O)[O-])c4F)c4ccc([nH]4)c(-c4cccc(S(=O)(=O)[O-])c4F)c4nc(c(-c5cccc(S(=O)(=O)[O-])c5F)c5ccc2[nH]5)C=C4)C=C3)cc1)Nc1ccc(Br)c([N+](=O)[O-])c1
REMARK SMILES IDX 9 1 8 2 7 3 5 4 6 5 4 6 3 7 2 8 1 9 79 10 80 12 81 13 89 14
REMARK SMILES IDX 82 15 85 16 83 17 84 18 86 19 87 20 88 21 10 22 11 23 12 24
REMARK SMILES IDX 13 25 14 26 15 27 16 28 17 29 78 30 18 31 77 32 19 33 20 34
REMARK SMILES IDX 21 35 71 36 22 37 76 38 70 39 72 40 23 41 75 42 69 43 68 44
REMARK SMILES IDX 24 46 56 47 36 48 55 49 37 50 40 51 54 52 73 53 38 54 39 55
REMARK SMILES IDX 53 57 74 58 41 59 25 60 26 61 34 62 27 63 29 64 35 65 28 66
REMARK SMILES IDX 30 67 31 68 32 69 33 70 57 71 58 72 66 73 59 74 61 75 67 76
REMARK SMILES IDX 60 77 62 78 63 79 64 80 65 81 42 82 43 83 51 84 44 85 46 86
REMARK SMILES IDX 52 87 45 88 47 89 48 90 49 91 50 92
REMARK H PARENT 79 11 72 45 40 56
REMARK Flexibility Score: inf
ROOT
ATOM      1  C   UNL     1       6.503   0.960  -1.731  1.00  0.00     0.202 C 
ENDROOT
BRANCH   1   2
ATOM      2  C   UNL     1       5.928  -0.301  -2.386  1.00  0.00     0.261 C 
BRANCH   2   3
ATOM      3  O   UNL     1       4.733  -0.747  -1.704  1.00  0.00    -0.463 OA
BRANCH   3   4
ATOM      4  C   UNL     1       4.787  -1.967  -1.099  1.00  0.00     0.306 C 
ATOM      5  O   UNL     1       5.758  -2.709  -1.092  1.00  0.00    -0.252 OA
BRANCH   4   6
ATOM      6  C   UNL     1       3.467  -2.303  -0.440  1.00  0.00     0.132 C 
BRANCH   6   7
ATOM      7  C   UNL     1       3.062  -1.349   0.679  1.00  0.00     0.112 C 
BRANCH   7   8
ATOM      8  C   UNL     1       2.071  -0.264   0.286  1.00  0.00     0.224 C 
ATOM      9  O   UNL     1       1.077  -0.070   0.980  1.00  0.00    -0.275 OA
ATOM     10  N   UNL     1       2.408   0.443  -0.848  1.00  0.00    -0.326 N 
ATOM     11  H   UNL     1       3.271   0.232  -1.272  1.00  0.00     0.169 HD
BRANCH  10  12
ATOM     12  C   UNL     1       1.621   1.441  -1.450  1.00  0.00     0.048 A 
ATOM     13  C   UNL     1       1.735   1.594  -2.834  1.00  0.00     0.028 A 
ATOM     14  C   UNL     1       0.727   2.243  -0.744  1.00  0.00     0.113 A 
ATOM     15  C   UNL     1       0.875   2.457  -3.520  1.00  0.00     0.025 A 
ATOM     16  C   UNL     1      -0.064   3.172  -1.440  1.00  0.00     0.285 A 
ATOM     17  C   UNL     1      -0.024   3.270  -2.828  1.00  0.00     0.095 A 
ATOM     18  Br  UNL     1      -1.140   4.424  -3.833  1.00  0.00    -0.043 Br
BRANCH  16  19
ATOM     19  N   UNL     1      -0.869   4.079  -0.648  1.00  0.00     0.064 N 
ATOM     20  O   UNL     1      -0.627   5.289  -0.754  1.00  0.00    -0.258 OA
ATOM     21  O   UNL     1      -1.658   3.575   0.163  1.00  0.00    -0.258 OA
ENDBRANCH  16  19
ENDBRANCH  10  12
ENDBRANCH   7   8
ENDBRANCH   6   7
ENDBRANCH   4   6
ENDBRANCH   3   4
ENDBRANCH   2   3
ENDBRANCH   1   2
BRANCH   1  22
ATOM     22  O   UNL     1       7.203   0.754  -0.502  1.00  0.00    -0.374 OA
BRANCH  22  23
ATOM     23  C   UNL     1       6.396   0.578   0.659  1.00  0.00     0.202 C 
BRANCH  23  24
ATOM     24  C   UNL     1       5.889   1.858   1.337  1.00  0.00     0.261 C 
BRANCH  24  25
ATOM     25  O   UNL     1       5.051   2.642   0.470  1.00  0.00    -0.460 OA
BRANCH  25  26
ATOM     26  C   UNL     1       5.643   3.757  -0.031  1.00  0.00     0.338 C 
ATOM     27  O   UNL     1       6.758   4.175   0.225  1.00  0.00    -0.246 OA
BRANCH  26  28
ATOM     28  C   UNL     1       4.809   4.324  -1.110  1.00  0.00     0.060 A 
ATOM     29  C   UNL     1       5.398   4.494  -2.370  1.00  0.00     0.016 A 
ATOM     30  C   UNL     1       3.499   4.740  -0.883  1.00  0.00     0.016 A 
ATOM     31  C   UNL     1       4.684   5.098  -3.408  1.00  0.00     0.010 A 
ATOM     32  C   UNL     1       2.790   5.345  -1.927  1.00  0.00     0.010 A 
ATOM     33  C   UNL     1       3.375   5.545  -3.195  1.00  0.00    -0.014 A 
BRANCH  33  34
ATOM     34  C   UNL     1       2.624   6.299  -4.239  1.00  0.00     0.031 A 
ATOM     35  C   UNL     1       2.243   7.735  -3.982  1.00  0.00     0.074 A 
ATOM     36  C   UNL     1       2.205   5.701  -5.372  1.00  0.00     0.049 A 
ATOM     37  N   UNL     1       1.474   8.526  -4.683  1.00  0.00    -0.248 NA
ATOM     38  C   UNL     1       2.818   8.364  -2.781  1.00  0.00     0.031 C 
ATOM     39  C   UNL     1       2.513   4.332  -5.780  1.00  0.00     0.029 A 
ATOM     40  N   UNL     1       1.339   6.148  -6.345  1.00  0.00    -0.354 N 
ATOM     41  C   UNL     1       1.469   9.743  -4.012  1.00  0.00     0.074 A 
ATOM     42  C   UNL     1       2.265   9.567  -2.816  1.00  0.00     0.031 C 
ATOM     43  C   UNL     1       1.741   4.003  -6.830  1.00  0.00     0.029 A 
ATOM     44  C   UNL     1       0.891   5.139  -7.168  1.00  0.00     0.049 A 
ATOM     45  H   UNL     1       1.070   7.090  -6.442  1.00  0.00     0.167 HD
ATOM     46  C   UNL     1       0.901  10.917  -4.381  1.00  0.00     0.034 A 
ATOM     47  C   UNL     1      -0.127   5.111  -8.053  1.00  0.00     0.034 A 
ATOM     48  C   UNL     1       0.120  11.093  -5.575  1.00  0.00     0.049 A 
ATOM     49  C   UNL     1      -0.862   6.382  -8.374  1.00  0.00     0.074 A 
ATOM     50  C   UNL     1      -0.396  12.262  -6.104  1.00  0.00     0.029 A 
ATOM     51  N   UNL     1      -0.290  10.063  -6.406  1.00  0.00    -0.354 N 
ATOM     52  N   UNL     1      -0.706   7.574  -7.853  1.00  0.00    -0.248 NA
ATOM     53  C   UNL     1      -1.856   6.324  -9.455  1.00  0.00     0.031 C 
ATOM     54  C   UNL     1      -1.152  11.932  -7.236  1.00  0.00     0.029 A 
ATOM     55  C   UNL     1      -1.079  10.562  -7.429  1.00  0.00     0.049 A 
ATOM     56  H   UNL     1      -0.055   9.114  -6.287  1.00  0.00     0.167 HD
ATOM     57  C   UNL     1      -1.533   8.421  -8.583  1.00  0.00     0.074 A 
ATOM     58  C   UNL     1      -2.197   7.601  -9.576  1.00  0.00     0.031 C 
ATOM     59  C   UNL     1      -1.708   9.759  -8.447  1.00  0.00     0.034 A 
BRANCH  46  60
ATOM     60  C   UNL     1       1.165  12.117  -3.507  1.00  0.00     0.023 A 
ATOM     61  C   UNL     1       2.466  12.663  -3.458  1.00  0.00     0.012 A 
ATOM     62  C   UNL     1       0.135  12.726  -2.765  1.00  0.00     0.148 A 
ATOM     63  C   UNL     1       2.749  13.760  -2.647  1.00  0.00     0.002 A 
ATOM     64  C   UNL     1       0.416  13.849  -1.994  1.00  0.00     0.091 A 
ATOM     65  F   UNL     1      -1.092  12.188  -2.810  1.00  0.00    -0.205 F 
ATOM     66  C   UNL     1       1.724  14.357  -1.921  1.00  0.00     0.022 A 
BRANCH  64  67
ATOM     67  S   UNL     1      -0.852  14.741  -1.086  1.00  0.00     0.127 S 
ATOM     68  O   UNL     1      -0.558  14.352   0.292  1.00  0.00    -0.237 OA
ATOM     69  O   UNL     1      -0.537  16.134  -1.406  1.00  0.00    -0.237 OA
ATOM     70  O   UNL     1      -2.126  14.274  -1.615  1.00  0.00    -0.744 OA
ENDBRANCH  64  67
ENDBRANCH  46  60
BRANCH  47  71
ATOM     71  C   UNL     1      -0.495   3.826  -8.711  1.00  0.00     0.023 A 
ATOM     72  C   UNL     1      -0.127   3.588 -10.046  1.00  0.00     0.012 A 
ATOM     73  C   UNL     1      -1.183   2.824  -7.997  1.00  0.00     0.148 A 
ATOM     74  C   UNL     1      -0.456   2.381 -10.667  1.00  0.00     0.002 A 
ATOM     75  C   UNL     1      -1.469   1.608  -8.606  1.00  0.00     0.091 A 
ATOM     76  F   UNL     1      -1.534   3.076  -6.731  1.00  0.00    -0.205 F 
ATOM     77  C   UNL     1      -1.118   1.389  -9.946  1.00  0.00     0.022 A 
BRANCH  75  78
ATOM     78  S   UNL     1      -2.210   0.232  -7.719  1.00  0.00     0.127 S 
ATOM     79  O   UNL     1      -3.490   0.086  -8.406  1.00  0.00    -0.237 OA
ATOM     80  O   UNL     1      -1.244  -0.838  -7.975  1.00  0.00    -0.237 OA
ATOM     81  O   UNL     1      -2.283   0.652  -6.327  1.00  0.00    -0.744 OA
ENDBRANCH  75  78
ENDBRANCH  47  71
BRANCH  59  82
ATOM     82  C   UNL     1      -2.616  10.455  -9.428  1.00  0.00     0.023 A 
ATOM     83  C   UNL     1      -4.011  10.283  -9.343  1.00  0.00     0.012 A 
ATOM     84  C   UNL     1      -2.087  11.343 -10.387  1.00  0.00     0.148 A 
ATOM     85  C   UNL     1      -4.863  10.964 -10.213  1.00  0.00     0.002 A 
ATOM     86  C   UNL     1      -2.944  12.056 -11.217  1.00  0.00     0.091 A 
ATOM     87  F   UNL     1      -0.755  11.479 -10.465  1.00  0.00    -0.205 F 
ATOM     88  C   UNL     1      -4.332  11.858 -11.140  1.00  0.00     0.022 A 
BRANCH  86  89
ATOM     89  S   UNL     1      -2.358  13.298 -12.376  1.00  0.00     0.127 S 
ATOM     90  O   UNL     1      -2.640  12.662 -13.662  1.00  0.00    -0.237 OA
ATOM     91  O   UNL     1      -3.215  14.442 -12.061  1.00  0.00    -0.237 OA
ATOM     92  O   UNL     1      -0.947  13.497 -12.077  1.00  0.00    -0.744 OA
ENDBRANCH  86  89
ENDBRANCH  59  82
ENDBRANCH  33  34
ENDBRANCH  26  28
ENDBRANCH  25  26
ENDBRANCH  24  25
ENDBRANCH  23  24
ENDBRANCH  22  23
ENDBRANCH   1  22
TORSDOF 21
