REMARK SMILES Cc1ccc(Cl)c(Nc2ccccc2C(=O)N[C@@H](C)C(=O)OCCOCCOC(=O)c2ccc(-c3c4nc(c(-c5cccc(S(=O)(=O)[O-])c5F)c5ccc([nH]5)c(-c5cccc(S(=O)(=O)[O-])c5F)c5nc(c(-c6cccc(S(=O)(=O)[O-])c6F)c6ccc3[nH]6)C=C5)C=C4)cc2)c1Cl
REMARK SMILES IDX 24 1 23 2 22 3 20 4 21 5 18 6 19 7 17 8 15 9 16 10 14 12
REMARK SMILES IDX 9 13 10 14 11 15 13 16 12 17 8 18 7 20 1 21 2 22 3 23 94 24
REMARK SMILES IDX 4 25 95 26 5 27 6 28 25 29 26 30 27 31 28 32 29 33 30 34
REMARK SMILES IDX 31 35 32 36 93 37 33 38 92 39 34 40 35 41 36 42 86 43 37 44
REMARK SMILES IDX 91 45 85 46 87 47 38 48 90 49 84 50 83 51 39 53 71 54 51 55
REMARK SMILES IDX 70 56 52 57 55 58 69 59 88 60 53 61 54 62 68 64 89 65 56 66
REMARK SMILES IDX 40 67 41 68 49 69 42 70 44 71 50 72 43 73 45 74 46 75 47 76
REMARK SMILES IDX 48 77 72 78 73 79 81 80 74 81 76 82 82 83 75 84 77 85 78 86
REMARK SMILES IDX 79 87 80 88 57 89 58 90 66 91 59 92 61 93 67 94 60 95 62 96
REMARK SMILES IDX 63 97 64 98 65 99
REMARK H PARENT 17 11 8 19 87 52 55 63
REMARK Flexibility Score: inf
ROOT
ATOM      1  C   UNL     1       0.530   3.669  -0.959  1.00  0.00     0.202 C 
ENDROOT
BRANCH   1   2
ATOM      2  C   UNL     1      -0.589   3.211   0.083  1.00  0.00     0.261 C 
BRANCH   2   3
ATOM      3  O   UNL     1      -0.430   1.972   0.859  1.00  0.00    -0.462 OA
BRANCH   3   4
ATOM      4  C   UNL     1      -1.579   1.244   1.113  1.00  0.00     0.328 C 
ATOM      5  O   UNL     1      -2.699   1.674   0.836  1.00  0.00    -0.250 OA
BRANCH   4   6
ATOM      6  C   UNL     1      -1.373  -0.271   1.566  1.00  0.00     0.189 C 
ATOM      7  C   UNL     1      -2.561  -0.731   2.418  1.00  0.00     0.043 C 
BRANCH   6   8
ATOM      8  N   UNL     1      -0.142  -0.694   2.231  1.00  0.00    -0.339 N 
ATOM      9  C   UNL     1       0.656  -1.818   2.273  1.00  0.00     0.254 C 
ATOM     10  O   UNL     1       1.482  -1.726   3.200  1.00  0.00    -0.269 OA
ATOM     11  H   UNL     1       0.216   0.019   2.807  1.00  0.00     0.164 HD
BRANCH   9  12
ATOM     12  C   UNL     1       0.758  -3.082   1.399  1.00  0.00     0.063 A 
ATOM     13  C   UNL     1      -0.036  -3.669   0.376  1.00  0.00     0.051 A 
ATOM     14  C   UNL     1       0.395  -4.879  -0.260  1.00  0.00     0.027 A 
ATOM     15  C   UNL     1       1.609  -5.489   0.025  1.00  0.00     0.002 A 
ATOM     16  C   UNL     1       1.971  -3.791   1.687  1.00  0.00     0.016 A 
ATOM     17  C   UNL     1       2.401  -4.942   1.010  1.00  0.00     0.001 A 
BRANCH  13  18
ATOM     18  N   UNL     1      -1.117  -3.079  -0.320  1.00  0.00    -0.352 N 
ATOM     19  H   UNL     1      -2.031  -3.295  -0.027  1.00  0.00     0.167 HD
BRANCH  18  20
ATOM     20  C   UNL     1      -0.954  -2.179  -1.434  1.00  0.00     0.077 A 
ATOM     21  C   UNL     1       1.379   0.259  -0.566  1.00  0.00     0.046 C 
ATOM     22  C   UNL     1       0.304  -0.213  -1.496  1.00  0.00    -0.030 A 
ATOM     23  C   UNL     1      -0.811   0.510  -1.933  1.00  0.00     0.006 A 
ATOM     24  C   UNL     1       0.277  -1.576  -1.639  1.00  0.00     0.069 A 
ATOM     25  C   UNL     1      -1.993  -0.159  -2.254  1.00  0.00     0.023 A 
ATOM     26  Cl  UNL     1       1.769  -2.428  -1.839  1.00  0.00    -0.082 Cl
ATOM     27  C   UNL     1      -2.086  -1.505  -1.919  1.00  0.00     0.066 A 
ATOM     28  Cl  UNL     1      -3.621  -2.286  -1.954  1.00  0.00    -0.082 Cl
ENDBRANCH  18  20
ENDBRANCH  13  18
ENDBRANCH   9  12
ENDBRANCH   6   8
ENDBRANCH   4   6
ENDBRANCH   3   4
ENDBRANCH   2   3
ENDBRANCH   1   2
BRANCH   1  29
ATOM     29  O   UNL     1       1.307   2.703  -1.675  1.00  0.00    -0.374 OA
BRANCH  29  30
ATOM     30  C   UNL     1       2.733   2.923  -1.771  1.00  0.00     0.202 C 
BRANCH  30  31
ATOM     31  C   UNL     1       3.595   2.494  -0.559  1.00  0.00     0.261 C 
BRANCH  31  32
ATOM     32  O   UNL     1       2.923   2.887   0.636  1.00  0.00    -0.460 OA
BRANCH  32  33
ATOM     33  C   UNL     1       3.663   3.453   1.599  1.00  0.00     0.338 C 
ATOM     34  O   UNL     1       4.881   3.442   1.729  1.00  0.00    -0.246 OA
BRANCH  33  35
ATOM     35  C   UNL     1       2.738   4.329   2.319  1.00  0.00     0.060 A 
ATOM     36  C   UNL     1       2.193   5.388   1.582  1.00  0.00     0.016 A 
ATOM     37  C   UNL     1       2.483   4.195   3.680  1.00  0.00     0.016 A 
ATOM     38  C   UNL     1       1.399   6.338   2.195  1.00  0.00     0.010 A 
ATOM     39  C   UNL     1       1.726   5.185   4.315  1.00  0.00     0.010 A 
ATOM     40  C   UNL     1       1.241   6.288   3.581  1.00  0.00    -0.014 A 
BRANCH  40  41
ATOM     41  C   UNL     1       0.910   7.565   4.250  1.00  0.00     0.031 A 
ATOM     42  C   UNL     1       2.054   8.404   4.758  1.00  0.00     0.074 A 
ATOM     43  C   UNL     1      -0.345   8.043   4.291  1.00  0.00     0.049 A 
ATOM     44  N   UNL     1       2.026   9.563   5.359  1.00  0.00    -0.248 NA
ATOM     45  C   UNL     1       3.411   7.868   4.549  1.00  0.00     0.031 C 
ATOM     46  C   UNL     1      -1.530   7.374   3.762  1.00  0.00     0.029 A 
ATOM     47  N   UNL     1      -0.819   9.217   4.818  1.00  0.00    -0.354 N 
ATOM     48  C   UNL     1       3.351   9.873   5.638  1.00  0.00     0.074 A 
ATOM     49  C   UNL     1       4.160   8.783   5.142  1.00  0.00     0.031 C 
ATOM     50  C   UNL     1      -2.607   8.136   4.024  1.00  0.00     0.029 A 
ATOM     51  C   UNL     1      -2.186   9.330   4.759  1.00  0.00     0.049 A 
ATOM     52  H   UNL     1      -0.236   9.911   5.201  1.00  0.00     0.167 HD
ATOM     53  C   UNL     1       3.857  10.972   6.243  1.00  0.00     0.034 A 
ATOM     54  C   UNL     1      -3.002  10.275   5.266  1.00  0.00     0.034 A 
ATOM     55  C   UNL     1       3.069  12.077   6.710  1.00  0.00     0.049 A 
ATOM     56  C   UNL     1      -2.416  11.466   5.983  1.00  0.00     0.074 A 
ATOM     57  C   UNL     1       3.503  13.239   7.322  1.00  0.00     0.029 A 
ATOM     58  N   UNL     1       1.690  12.159   6.626  1.00  0.00    -0.354 N 
ATOM     59  N   UNL     1      -1.159  11.782   6.178  1.00  0.00    -0.248 NA
ATOM     60  C   UNL     1      -3.368  12.452   6.519  1.00  0.00     0.031 C 
ATOM     61  C   UNL     1       2.381  14.016   7.630  1.00  0.00     0.029 A 
ATOM     62  C   UNL     1       1.253  13.351   7.179  1.00  0.00     0.049 A 
ATOM     63  H   UNL     1       1.105  11.472   6.230  1.00  0.00     0.167 HD
ATOM     64  C   UNL     1      -1.169  13.018   6.819  1.00  0.00     0.074 A 
ATOM     65  C   UNL     1      -2.557  13.403   6.962  1.00  0.00     0.031 C 
ATOM     66  C   UNL     1      -0.124  13.762   7.260  1.00  0.00     0.034 A 
BRANCH  53  67
ATOM     67  C   UNL     1       5.348  11.034   6.429  1.00  0.00     0.023 A 
ATOM     68  C   UNL     1       6.185  11.285   5.324  1.00  0.00     0.012 A 
ATOM     69  C   UNL     1       5.912  10.897   7.712  1.00  0.00     0.148 A 
ATOM     70  C   UNL     1       7.566  11.375   5.489  1.00  0.00     0.002 A 
ATOM     71  C   UNL     1       7.284  11.034   7.875  1.00  0.00     0.091 A 
ATOM     72  F   UNL     1       5.099  10.627   8.743  1.00  0.00    -0.205 F 
ATOM     73  C   UNL     1       8.113  11.263   6.765  1.00  0.00     0.022 A 
BRANCH  71  74
ATOM     74  S   UNL     1       8.070  10.991   9.489  1.00  0.00     0.127 S 
ATOM     75  O   UNL     1       8.761   9.704   9.446  1.00  0.00    -0.237 OA
ATOM     76  O   UNL     1       8.950  12.158   9.433  1.00  0.00    -0.237 OA
ATOM     77  O   UNL     1       6.992  11.091  10.463  1.00  0.00    -0.744 OA
ENDBRANCH  71  74
ENDBRANCH  53  67
BRANCH  54  78
ATOM     78  C   UNL     1      -4.476  10.144   5.108  1.00  0.00     0.023 A 
ATOM     79  C   UNL     1      -5.175  11.058   4.297  1.00  0.00     0.012 A 
ATOM     80  C   UNL     1      -5.188   9.123   5.768  1.00  0.00     0.148 A 
ATOM     81  C   UNL     1      -6.562  10.981   4.175  1.00  0.00     0.002 A 
ATOM     82  C   UNL     1      -6.561   9.016   5.594  1.00  0.00     0.091 A 
ATOM     83  F   UNL     1      -4.505   8.277   6.552  1.00  0.00    -0.205 F 
ATOM     84  C   UNL     1      -7.254   9.955   4.814  1.00  0.00     0.022 A 
BRANCH  82  85
ATOM     85  S   UNL     1      -7.512   7.654   6.275  1.00  0.00     0.127 S 
ATOM     86  O   UNL     1      -8.294   8.323   7.311  1.00  0.00    -0.237 OA
ATOM     87  O   UNL     1      -8.281   7.213   5.110  1.00  0.00    -0.237 OA
ATOM     88  O   UNL     1      -6.531   6.687   6.748  1.00  0.00    -0.744 OA
ENDBRANCH  82  85
ENDBRANCH  54  78
BRANCH  66  89
ATOM     89  C   UNL     1      -0.420  15.102   7.888  1.00  0.00     0.023 A 
ATOM     90  C   UNL     1      -1.010  15.168   9.166  1.00  0.00     0.012 A 
ATOM     91  C   UNL     1      -0.052  16.297   7.237  1.00  0.00     0.148 A 
ATOM     92  C   UNL     1      -1.264  16.401   9.768  1.00  0.00     0.002 A 
ATOM     93  C   UNL     1      -0.264  17.520   7.864  1.00  0.00     0.091 A 
ATOM     94  F   UNL     1       0.494  16.219   6.014  1.00  0.00    -0.205 F 
ATOM     95  C   UNL     1      -0.882  17.575   9.123  1.00  0.00     0.022 A 
BRANCH  93  96
ATOM     96  S   UNL     1       0.282  19.075   7.145  1.00  0.00     0.127 S 
ATOM     97  O   UNL     1      -0.976  19.635   6.655  1.00  0.00    -0.237 OA
ATOM     98  O   UNL     1       0.851  19.772   8.300  1.00  0.00    -0.237 OA
ATOM     99  O   UNL     1       1.254  18.719   6.120  1.00  0.00    -0.744 OA
ENDBRANCH  93  96
ENDBRANCH  66  89
ENDBRANCH  40  41
ENDBRANCH  33  35
ENDBRANCH  32  33
ENDBRANCH  31  32
ENDBRANCH  30  31
ENDBRANCH  29  30
ENDBRANCH   1  29
TORSDOF 21
