REMARK SMILES CC(=O)N[C@H]1[C@@H](Oc2ccc(C)c(C)c2)O[C@H]2CO[C@H](c3ccco3)O[C@@H]2[C@H]1OCC(=O)OCCOCCOC(=O)c1ccc(-c2c3nc(c(-c4cccc(S(=O)(=O)[O-])c4F)c4ccc([nH]4)c(-c4cccc(S(=O)(=O)[O-])c4F)c4nc(c(-c5cccc(S(=O)(=O)[O-])c5F)c5ccc2[nH]5)C=C4)C=C3)cc1
REMARK SMILES IDX 35 1 34 2 33 3 31 4 32 5 30 6 29 7 28 8 5 9 6 10 16 11 27 12
REMARK SMILES IDX 17 13 26 14 18 15 20 16 19 17 4 18 1 19 2 20 3 21 7 23 8 24
REMARK SMILES IDX 9 25 15 26 10 27 13 28 11 29 14 30 12 31 21 32 22 33 25 34
REMARK SMILES IDX 23 35 24 36 36 37 37 38 38 39 39 40 40 41 41 42 42 43 43 44
REMARK SMILES IDX 104 45 44 46 103 47 45 48 46 49 47 50 97 51 48 52 102 53
REMARK SMILES IDX 96 54 98 55 49 56 101 57 95 58 94 59 50 61 82 62 62 63 81 64
REMARK SMILES IDX 63 65 66 66 80 67 99 68 64 69 65 70 79 72 100 73 67 74 51 75
REMARK SMILES IDX 52 76 60 77 53 78 55 79 61 80 54 81 56 82 57 83 58 84 59 85
REMARK SMILES IDX 83 86 84 87 92 88 85 89 87 90 93 91 86 92 88 93 89 94 90 95
REMARK SMILES IDX 91 96 68 97 69 98 77 99 70 100 72 101 78 102 71 103 73 104
REMARK SMILES IDX 74 105 75 106 76 107
REMARK H PARENT 4 22 98 60 66 71
REMARK Flexibility Score: inf
ROOT
ATOM      1  C   UNL     1      -3.511  -5.107   1.310  1.00  0.00     0.202 C 
ENDROOT
BRANCH   1   2
ATOM      2  C   UNL     1      -3.348  -4.386  -0.033  1.00  0.00     0.261 C 
BRANCH   2   3
ATOM      3  O   UNL     1      -2.012  -3.860  -0.236  1.00  0.00    -0.462 OA
BRANCH   3   4
ATOM      4  C   UNL     1      -1.942  -2.509  -0.219  1.00  0.00     0.332 C 
ATOM      5  O   UNL     1      -2.898  -1.779   0.040  1.00  0.00    -0.250 OA
BRANCH   4   6
ATOM      6  C   UNL     1      -0.561  -1.876  -0.495  1.00  0.00     0.283 C 
BRANCH   6   7
ATOM      7  O   UNL     1       0.761  -2.303  -0.690  1.00  0.00    -0.361 OA
BRANCH   7   8
ATOM      8  C   UNL     1       1.588  -2.659   0.421  1.00  0.00     0.179 C 
ATOM      9  C   UNL     1       1.982  -1.524   1.522  1.00  0.00     0.182 C 
ATOM     10  C   UNL     1       2.349  -2.117   2.975  1.00  0.00     0.333 C 
ATOM     11  O   UNL     1       1.816  -3.418   3.225  1.00  0.00    -0.332 OA
ATOM     12  C   UNL     1       1.093  -3.990   0.989  1.00  0.00     0.184 C 
ATOM     13  C   UNL     1       2.058  -4.319   2.138  1.00  0.00     0.180 C 
ATOM     14  O   UNL     1       0.850  -5.066  -0.028  1.00  0.00    -0.337 OA
ATOM     15  C   UNL     1       1.830  -5.715   2.612  1.00  0.00     0.199 C 
ATOM     16  C   UNL     1       0.365  -6.213   0.719  1.00  0.00     0.319 C 
ATOM     17  O   UNL     1       1.518  -6.512   1.506  1.00  0.00    -0.343 OA
BRANCH   9  18
ATOM     18  N   UNL     1       1.107  -0.347   1.613  1.00  0.00    -0.345 N 
ATOM     19  C   UNL     1       1.643   0.816  -0.491  1.00  0.00     0.114 C 
ATOM     20  C   UNL     1       0.944   0.741   0.826  1.00  0.00     0.217 C 
ATOM     21  O   UNL     1       0.199   1.636   1.223  1.00  0.00    -0.275 OA
ATOM     22  H   UNL     1       0.521  -0.352   2.404  1.00  0.00     0.164 HD
ENDBRANCH   9  18
BRANCH  10  23
ATOM     23  O   UNL     1       2.197  -1.226   4.131  1.00  0.00    -0.463 OA
BRANCH  23  24
ATOM     24  C   UNL     1       0.971  -0.827   4.609  1.00  0.00     0.123 A 
ATOM     25  C   UNL     1      -0.236  -1.334   4.160  1.00  0.00     0.047 A 
ATOM     26  C   UNL     1       0.935   0.275   5.480  1.00  0.00     0.050 A 
ATOM     27  C   UNL     1      -1.425  -0.626   4.367  1.00  0.00     0.007 A 
ATOM     28  C   UNL     1      -0.274   0.968   5.754  1.00  0.00    -0.045 A 
ATOM     29  C   UNL     1      -1.455   0.551   5.119  1.00  0.00    -0.048 A 
ATOM     30  C   UNL     1      -0.254   2.157   6.680  1.00  0.00     0.045 C 
ATOM     31  C   UNL     1      -2.742   1.331   5.169  1.00  0.00     0.044 C 
ENDBRANCH  23  24
ENDBRANCH  10  23
BRANCH  16  32
ATOM     32  C   UNL     1      -0.239  -7.731  -0.039  1.00  0.00     0.159 A 
ATOM     33  C   UNL     1      -0.434  -9.656   0.477  1.00  0.00     0.051 A 
ATOM     34  O   UNL     1       0.695  -7.865  -1.641  1.00  0.00    -0.464 OA
ATOM     35  C   UNL     1       0.673 -10.646  -0.842  1.00  0.00     0.042 A 
ATOM     36  C   UNL     1       1.164  -9.557  -2.085  1.00  0.00     0.195 A 
ENDBRANCH  16  32
ENDBRANCH   7   8
ENDBRANCH   6   7
ENDBRANCH   4   6
ENDBRANCH   3   4
ENDBRANCH   2   3
ENDBRANCH   1   2
BRANCH   1  37
ATOM     37  O   UNL     1      -3.521  -4.300   2.486  1.00  0.00    -0.374 OA
BRANCH  37  38
ATOM     38  C   UNL     1      -2.240  -3.943   2.987  1.00  0.00     0.202 C 
BRANCH  38  39
ATOM     39  C   UNL     1      -1.509  -4.999   3.849  1.00  0.00     0.261 C 
BRANCH  39  40
ATOM     40  O   UNL     1      -1.165  -6.147   3.046  1.00  0.00    -0.460 OA
BRANCH  40  41
ATOM     41  C   UNL     1      -1.053  -7.427   3.477  1.00  0.00     0.338 C 
ATOM     42  O   UNL     1      -1.274  -7.848   4.590  1.00  0.00    -0.246 OA
BRANCH  41  43
ATOM     43  C   UNL     1      -0.759  -8.214   2.228  1.00  0.00     0.060 A 
ATOM     44  C   UNL     1      -2.160  -8.282   1.219  1.00  0.00     0.016 A 
ATOM     45  C   UNL     1       0.864  -8.609   1.683  1.00  0.00     0.016 A 
ATOM     46  C   UNL     1      -2.191  -8.706  -0.414  1.00  0.00     0.010 A 
ATOM     47  C   UNL     1       1.086  -8.929  -0.092  1.00  0.00     0.010 A 
ATOM     48  C   UNL     1      -0.667  -9.133  -1.218  1.00  0.00    -0.014 A 
BRANCH  48  49
ATOM     49  C   UNL     1      -1.385 -10.492  -2.172  1.00  0.00     0.031 A 
ATOM     50  C   UNL     1      -1.276 -12.034  -1.758  1.00  0.00     0.074 A 
ATOM     51  C   UNL     1      -2.223 -10.373  -3.228  1.00  0.00     0.049 A 
ATOM     52  N   UNL     1      -1.002 -13.074  -2.524  1.00  0.00    -0.248 NA
ATOM     53  C   UNL     1      -1.339 -12.415  -0.329  1.00  0.00     0.031 C 
ATOM     54  C   UNL     1      -2.839  -9.155  -3.730  1.00  0.00     0.029 A 
ATOM     55  N   UNL     1      -2.689 -11.361  -4.091  1.00  0.00    -0.354 N 
ATOM     56  C   UNL     1      -0.547 -14.088  -1.664  1.00  0.00     0.074 A 
ATOM     57  C   UNL     1      -0.643 -13.551  -0.329  1.00  0.00     0.031 C 
ATOM     58  C   UNL     1      -3.567  -9.453  -4.826  1.00  0.00     0.029 A 
ATOM     59  C   UNL     1      -3.372 -10.863  -5.178  1.00  0.00     0.049 A 
ATOM     60  H   UNL     1      -2.543 -12.323  -3.939  1.00  0.00     0.167 HD
ATOM     61  C   UNL     1      -0.080 -15.334  -1.960  1.00  0.00     0.034 A 
ATOM     62  C   UNL     1      -3.720 -11.435  -6.356  1.00  0.00     0.034 A 
ATOM     63  C   UNL     1      -0.399 -16.002  -3.197  1.00  0.00     0.049 A 
ATOM     64  C   UNL     1      -3.350 -12.870  -6.681  1.00  0.00     0.074 A 
ATOM     65  C   UNL     1      -0.168 -17.322  -3.554  1.00  0.00     0.029 A 
ATOM     66  N   UNL     1      -1.121 -15.432  -4.229  1.00  0.00    -0.354 N 
ATOM     67  N   UNL     1      -2.698 -13.748  -5.960  1.00  0.00    -0.248 NA
ATOM     68  C   UNL     1      -3.772 -13.391  -7.997  1.00  0.00     0.031 C 
ATOM     69  C   UNL     1      -0.715 -17.535  -4.822  1.00  0.00     0.029 A 
ATOM     70  C   UNL     1      -1.352 -16.371  -5.215  1.00  0.00     0.049 A 
ATOM     71  H   UNL     1      -1.424 -14.496  -4.257  1.00  0.00     0.167 HD
ATOM     72  C   UNL     1      -2.683 -14.928  -6.707  1.00  0.00     0.074 A 
ATOM     73  C   UNL     1      -3.388 -14.659  -7.937  1.00  0.00     0.031 C 
ATOM     74  C   UNL     1      -2.129 -16.127  -6.399  1.00  0.00     0.034 A 
BRANCH  61  75
ATOM     75  C   UNL     1       0.775 -16.110  -0.962  1.00  0.00     0.023 A 
ATOM     76  C   UNL     1       0.291 -16.502   0.299  1.00  0.00     0.012 A 
ATOM     77  C   UNL     1       2.076 -16.543  -1.341  1.00  0.00     0.148 A 
ATOM     78  C   UNL     1       1.097 -17.220   1.191  1.00  0.00     0.002 A 
ATOM     79  C   UNL     1       2.844 -17.322  -0.478  1.00  0.00     0.091 A 
ATOM     80  F   UNL     1       2.539 -16.197  -2.551  1.00  0.00    -0.205 F 
ATOM     81  C   UNL     1       2.366 -17.637   0.800  1.00  0.00     0.022 A 
BRANCH  79  82
ATOM     82  S   UNL     1       4.443 -18.016  -0.930  1.00  0.00     0.127 S 
ATOM     83  O   UNL     1       5.342 -17.302  -0.023  1.00  0.00    -0.237 OA
ATOM     84  O   UNL     1       4.264 -19.433  -0.613  1.00  0.00    -0.237 OA
ATOM     85  O   UNL     1       4.630 -17.726  -2.344  1.00  0.00    -0.744 OA
ENDBRANCH  79  82
ENDBRANCH  61  75
BRANCH  62  86
ATOM     86  C   UNL     1      -4.429 -10.617  -7.389  1.00  0.00     0.023 A 
ATOM     87  C   UNL     1      -5.753 -10.938  -7.752  1.00  0.00     0.012 A 
ATOM     88  C   UNL     1      -3.793  -9.527  -8.014  1.00  0.00     0.148 A 
ATOM     89  C   UNL     1      -6.421 -10.200  -8.730  1.00  0.00     0.002 A 
ATOM     90  C   UNL     1      -4.488  -8.753  -8.934  1.00  0.00     0.091 A 
ATOM     91  F   UNL     1      -2.522  -9.261  -7.684  1.00  0.00    -0.205 F 
ATOM     92  C   UNL     1      -5.796  -9.098  -9.308  1.00  0.00     0.022 A 
BRANCH  90  93
ATOM     93  S   UNL     1      -3.815  -7.239  -9.625  1.00  0.00     0.127 S 
ATOM     94  O   UNL     1      -3.716  -7.576 -11.043  1.00  0.00    -0.237 OA
ATOM     95  O   UNL     1      -4.860  -6.272  -9.291  1.00  0.00    -0.237 OA
ATOM     96  O   UNL     1      -2.547  -7.020  -8.942  1.00  0.00    -0.744 OA
ENDBRANCH  90  93
ENDBRANCH  62  86
BRANCH  74  97
ATOM     97  C   UNL     1      -2.360 -17.301  -7.318  1.00  0.00     0.023 A 
ATOM     98  C   UNL     1      -1.702 -17.395  -8.558  1.00  0.00     0.012 A 
ATOM     99  C   UNL     1      -3.155 -18.379  -6.874  1.00  0.00     0.148 A 
ATOM    100  C   UNL     1      -1.850 -18.535  -9.351  1.00  0.00     0.002 A 
ATOM    101  C   UNL     1      -3.255 -19.531  -7.643  1.00  0.00     0.091 A 
ATOM    102  F   UNL     1      -3.781 -18.265  -5.693  1.00  0.00    -0.205 F 
ATOM    103  C   UNL     1      -2.613 -19.606  -8.889  1.00  0.00     0.022 A 
BRANCH 101 104
ATOM    104  S   UNL     1      -4.131 -20.995  -7.080  1.00  0.00     0.127 S 
ATOM    105  O   UNL     1      -5.230 -21.072  -8.042  1.00  0.00    -0.237 OA
ATOM    106  O   UNL     1      -3.116 -22.037  -7.228  1.00  0.00    -0.237 OA
ATOM    107  O   UNL     1      -4.533 -20.726  -5.706  1.00  0.00    -0.744 OA
ENDBRANCH 101 104
ENDBRANCH  74  97
ENDBRANCH  48  49
ENDBRANCH  41  43
ENDBRANCH  40  41
ENDBRANCH  39  40
ENDBRANCH  38  39
ENDBRANCH  37  38
ENDBRANCH   1  37
TORSDOF 23
