REMARK SMILES COc1ccc(F)cc1[C@H](C)NC(=O)[C@H]1CC=CC[C@@H]1C(=O)OCCOCCOC(=O)c1ccc(-c2c3nc(c(-c4cccc(S(=O)(=O)[O-])c4F)c4ccc([nH]4)c(-c4cccc(S(=O)(=O)[O-])c4F)c4nc(c(-c5cccc(S(=O)(=O)[O-])c5F)c5ccc2[nH]5)C=C4)C=C3)cc1
REMARK SMILES IDX 25 1 24 2 23 3 21 4 22 5 20 6 15 7 16 8 17 9 19 10 18 11
REMARK SMILES IDX 13 12 12 13 14 15 10 16 11 17 9 18 3 19 4 20 5 21 8 22 6 23
REMARK SMILES IDX 7 24 2 25 1 26 26 27 27 28 28 29 29 30 30 31 31 32 32 33
REMARK SMILES IDX 33 34 94 35 34 36 93 37 35 38 36 39 37 40 87 41 38 42 92 43
REMARK SMILES IDX 86 44 88 45 39 46 91 47 85 48 84 49 40 51 72 52 52 53 71 54
REMARK SMILES IDX 53 55 56 56 70 57 89 58 54 59 55 60 69 62 90 63 57 64 41 65
REMARK SMILES IDX 42 66 50 67 43 68 45 69 51 70 44 71 46 72 47 73 48 74 49 75
REMARK SMILES IDX 73 76 74 77 82 78 75 79 77 80 83 81 76 82 78 83 79 84 80 85
REMARK SMILES IDX 81 86 58 87 59 88 67 89 60 90 62 91 68 92 61 93 63 94 64 95
REMARK SMILES IDX 65 96 66 97
REMARK H PARENT 12 14 88 50 56 61
REMARK Flexibility Score: inf
ROOT
ATOM      1  C   UNL     1      -1.399  -4.285   4.398  1.00  0.00     0.202 C 
ENDROOT
BRANCH   1   2
ATOM      2  C   UNL     1      -2.772  -4.591   3.790  1.00  0.00     0.261 C 
BRANCH   2   3
ATOM      3  O   UNL     1      -2.696  -5.120   2.459  1.00  0.00    -0.463 OA
BRANCH   3   4
ATOM      4  C   UNL     1      -2.959  -4.204   1.486  1.00  0.00     0.310 C 
ATOM      5  O   UNL     1      -3.227  -3.028   1.706  1.00  0.00    -0.252 OA
BRANCH   4   6
ATOM      6  C   UNL     1      -2.747  -4.789   0.090  1.00  0.00     0.115 C 
ATOM      7  C   UNL     1      -2.815  -3.618  -0.913  1.00  0.00     0.097 C 
ATOM      8  C   UNL     1      -4.251  -3.098  -1.103  1.00  0.00     0.041 C 
ATOM      9  C   UNL     1      -5.333  -4.125  -0.946  1.00  0.00    -0.030 C 
ATOM     10  C   UNL     1      -3.755  -5.905  -0.195  1.00  0.00     0.043 C 
ATOM     11  C   UNL     1      -5.112  -5.387  -0.556  1.00  0.00    -0.030 C 
BRANCH   7  12
ATOM     12  C   UNL     1      -2.189  -3.922  -2.266  1.00  0.00     0.224 C 
ATOM     13  N   UNL     1      -1.738  -2.888  -3.042  1.00  0.00    -0.349 N 
ATOM     14  H   UNL     1      -1.594  -3.109  -3.991  1.00  0.00     0.164 HD
ATOM     15  O   UNL     1      -2.102  -5.062  -2.719  1.00  0.00    -0.275 OA
BRANCH  13  16
ATOM     16  C   UNL     1      -1.438  -1.503  -2.673  1.00  0.00     0.113 C 
ATOM     17  C   UNL     1       0.037  -1.214  -2.982  1.00  0.00     0.036 C 
BRANCH  16  18
ATOM     18  C   UNL     1      -2.366  -0.517  -3.363  1.00  0.00     0.019 A 
ATOM     19  C   UNL     1      -3.274   0.277  -2.624  1.00  0.00     0.124 A 
ATOM     20  C   UNL     1      -4.082   1.220  -3.275  1.00  0.00     0.050 A 
ATOM     21  C   UNL     1      -4.013   1.371  -4.659  1.00  0.00     0.043 A 
ATOM     22  C   UNL     1      -2.327  -0.360  -4.761  1.00  0.00     0.049 A 
ATOM     23  C   UNL     1      -3.140   0.579  -5.388  1.00  0.00     0.123 A 
ATOM     24  F   UNL     1      -3.065   0.733  -6.716  1.00  0.00    -0.207 F 
BRANCH  19  25
ATOM     25  O   UNL     1      -3.272   0.121  -1.262  1.00  0.00    -0.496 OA
ATOM     26  C   UNL     1      -4.509   0.381  -0.600  1.00  0.00     0.278 C 
ENDBRANCH  19  25
ENDBRANCH  16  18
ENDBRANCH  13  16
ENDBRANCH   7  12
ENDBRANCH   4   6
ENDBRANCH   3   4
ENDBRANCH   2   3
ENDBRANCH   1   2
BRANCH   1  27
ATOM     27  O   UNL     1      -0.504  -3.454   3.664  1.00  0.00    -0.374 OA
BRANCH  27  28
ATOM     28  C   UNL     1       0.171  -4.013   2.538  1.00  0.00     0.202 C 
BRANCH  28  29
ATOM     29  C   UNL     1       1.235  -5.089   2.789  1.00  0.00     0.261 C 
BRANCH  29  30
ATOM     30  O   UNL     1       0.678  -6.306   3.313  1.00  0.00    -0.460 OA
BRANCH  30  31
ATOM     31  C   UNL     1       1.068  -6.611   4.573  1.00  0.00     0.338 C 
ATOM     32  O   UNL     1       1.872  -5.998   5.265  1.00  0.00    -0.246 OA
BRANCH  31  33
ATOM     33  C   UNL     1       0.234  -7.698   5.112  1.00  0.00     0.060 A 
ATOM     34  C   UNL     1      -0.447  -7.460   6.314  1.00  0.00     0.016 A 
ATOM     35  C   UNL     1       0.185  -8.952   4.502  1.00  0.00     0.016 A 
ATOM     36  C   UNL     1      -1.140  -8.492   6.939  1.00  0.00     0.010 A 
ATOM     37  C   UNL     1      -0.499  -9.991   5.138  1.00  0.00     0.010 A 
ATOM     38  C   UNL     1      -1.130  -9.775   6.377  1.00  0.00    -0.014 A 
BRANCH  38  39
ATOM     39  C   UNL     1      -1.650 -10.919   7.159  1.00  0.00     0.031 A 
ATOM     40  C   UNL     1      -0.678 -11.792   7.902  1.00  0.00     0.074 A 
ATOM     41  C   UNL     1      -2.970 -11.168   7.215  1.00  0.00     0.049 A 
ATOM     42  N   UNL     1      -0.907 -12.861   8.618  1.00  0.00    -0.248 NA
ATOM     43  C   UNL     1       0.743 -11.409   7.831  1.00  0.00     0.031 C 
ATOM     44  C   UNL     1      -4.005 -10.376   6.554  1.00  0.00     0.029 A 
ATOM     45  N   UNL     1      -3.662 -12.172   7.846  1.00  0.00    -0.354 N 
ATOM     46  C   UNL     1       0.336 -13.292   9.063  1.00  0.00     0.074 A 
ATOM     47  C   UNL     1       1.320 -12.378   8.528  1.00  0.00     0.031 C 
ATOM     48  C   UNL     1      -5.202 -10.937   6.797  1.00  0.00     0.029 A 
ATOM     49  C   UNL     1      -5.014 -12.140   7.606  1.00  0.00     0.049 A 
ATOM     50  H   UNL     1      -3.230 -12.849   8.415  1.00  0.00     0.167 HD
ATOM     51  C   UNL     1       0.629 -14.344   9.862  1.00  0.00     0.034 A 
ATOM     52  C   UNL     1      -5.987 -12.995   7.983  1.00  0.00     0.034 A 
ATOM     53  C   UNL     1      -0.355 -15.238  10.409  1.00  0.00     0.049 A 
ATOM     54  C   UNL     1      -5.630 -14.181   8.841  1.00  0.00     0.074 A 
ATOM     55  C   UNL     1      -0.160 -16.316  11.252  1.00  0.00     0.029 A 
ATOM     56  N   UNL     1      -1.718 -15.162  10.163  1.00  0.00    -0.354 N 
ATOM     57  N   UNL     1      -4.462 -14.525   9.329  1.00  0.00    -0.248 NA
ATOM     58  C   UNL     1      -6.727 -15.082   9.224  1.00  0.00     0.031 C 
ATOM     59  C   UNL     1      -1.403 -16.906  11.499  1.00  0.00     0.029 A 
ATOM     60  C   UNL     1      -2.375 -16.179  10.832  1.00  0.00     0.049 A 
ATOM     61  H   UNL     1      -2.152 -14.484   9.596  1.00  0.00     0.167 HD
ATOM     62  C   UNL     1      -4.688 -15.659  10.101  1.00  0.00     0.074 A 
ATOM     63  C   UNL     1      -6.108 -15.937  10.030  1.00  0.00     0.031 C 
ATOM     64  C   UNL     1      -3.797 -16.411  10.795  1.00  0.00     0.034 A 
BRANCH  51  65
ATOM     65  C   UNL     1       2.071 -14.570  10.230  1.00  0.00     0.023 A 
ATOM     66  C   UNL     1       2.689 -13.716  11.165  1.00  0.00     0.012 A 
ATOM     67  C   UNL     1       2.787 -15.669   9.717  1.00  0.00     0.148 A 
ATOM     68  C   UNL     1       4.004 -13.940  11.570  1.00  0.00     0.002 A 
ATOM     69  C   UNL     1       4.083 -15.911  10.157  1.00  0.00     0.091 A 
ATOM     70  F   UNL     1       2.188 -16.455   8.811  1.00  0.00    -0.205 F 
ATOM     71  C   UNL     1       4.695 -15.044  11.076  1.00  0.00     0.022 A 
BRANCH  69  72
ATOM     72  S   UNL     1       5.029 -17.349   9.643  1.00  0.00     0.127 S 
ATOM     73  O   UNL     1       6.065 -16.738   8.812  1.00  0.00    -0.237 OA
ATOM     74  O   UNL     1       5.506 -17.876  10.922  1.00  0.00    -0.237 OA
ATOM     75  O   UNL     1       4.095 -18.215   8.938  1.00  0.00    -0.744 OA
ENDBRANCH  69  72
ENDBRANCH  51  65
BRANCH  52  76
ATOM     76  C   UNL     1      -7.398 -12.723   7.590  1.00  0.00     0.023 A 
ATOM     77  C   UNL     1      -8.325 -12.328   8.573  1.00  0.00     0.012 A 
ATOM     78  C   UNL     1      -7.811 -12.797   6.245  1.00  0.00     0.148 A 
ATOM     79  C   UNL     1      -9.643 -12.026   8.228  1.00  0.00     0.002 A 
ATOM     80  C   UNL     1      -9.110 -12.441   5.900  1.00  0.00     0.091 A 
ATOM     81  F   UNL     1      -6.918 -13.191   5.327  1.00  0.00    -0.205 F 
ATOM     82  C   UNL     1     -10.031 -12.069   6.891  1.00  0.00     0.022 A 
BRANCH  80  83
ATOM     83  S   UNL     1      -9.662 -12.333   4.194  1.00  0.00     0.127 S 
ATOM     84  O   UNL     1     -10.635 -13.420   4.125  1.00  0.00    -0.237 OA
ATOM     85  O   UNL     1     -10.236 -10.988   4.149  1.00  0.00    -0.237 OA
ATOM     86  O   UNL     1      -8.466 -12.504   3.380  1.00  0.00    -0.744 OA
ENDBRANCH  80  83
ENDBRANCH  52  76
BRANCH  64  87
ATOM     87  C   UNL     1      -4.316 -17.600  11.562  1.00  0.00     0.023 A 
ATOM     88  C   UNL     1      -4.699 -18.764  10.867  1.00  0.00     0.012 A 
ATOM     89  C   UNL     1      -4.306 -17.607  12.972  1.00  0.00     0.148 A 
ATOM     90  C   UNL     1      -5.082 -19.910  11.563  1.00  0.00     0.002 A 
ATOM     91  C   UNL     1      -4.642 -18.768  13.658  1.00  0.00     0.091 A 
ATOM     92  F   UNL     1      -3.952 -16.484  13.614  1.00  0.00    -0.205 F 
ATOM     93  C   UNL     1      -5.040 -19.917  12.955  1.00  0.00     0.022 A 
BRANCH  91  94
ATOM     94  S   UNL     1      -4.516 -18.902  15.445  1.00  0.00     0.127 S 
ATOM     95  O   UNL     1      -5.923 -18.925  15.842  1.00  0.00    -0.237 OA
ATOM     96  O   UNL     1      -3.815 -20.176  15.613  1.00  0.00    -0.237 OA
ATOM     97  O   UNL     1      -3.763 -17.735  15.884  1.00  0.00    -0.744 OA
ENDBRANCH  91  94
ENDBRANCH  64  87
ENDBRANCH  38  39
ENDBRANCH  31  33
ENDBRANCH  30  31
ENDBRANCH  29  30
ENDBRANCH  28  29
ENDBRANCH  27  28
ENDBRANCH   1  27
TORSDOF 21
