REMARK SMILES O=C(OCCOCCOC(=O)c1cc2c(c(S(=O)(=O)Nc3cc(C(F)(F)F)ccc3-n3cccn3)c1)CCC2)c1ccc(-c2c3nc(c(-c4cccc(S(=O)(=O)[O-])c4F)c4ccc([nH]4)c(-c4cccc(S(=O)(=O)[O-])c4F)c4nc(c(-c5cccc(S(=O)(=O)[O-])c5F)c5ccc2[nH]5)C=C4)C=C3)cc1
REMARK SMILES IDX 7 1 6 2 5 3 4 4 3 5 2 6 1 7 40 8 41 9 102 10 42 11 101 12
REMARK SMILES IDX 43 13 44 14 45 15 95 16 46 17 100 18 94 19 96 20 47 21 99 22
REMARK SMILES IDX 93 23 92 24 48 26 80 27 60 28 79 29 61 30 64 31 78 32 97 33
REMARK SMILES IDX 62 34 63 35 77 37 98 38 65 39 49 40 50 41 58 42 51 43 53 44
REMARK SMILES IDX 59 45 52 46 54 47 55 48 56 49 57 50 81 51 82 52 90 53 83 54
REMARK SMILES IDX 85 55 91 56 84 57 86 58 87 59 88 60 89 61 66 62 67 63 75 64
REMARK SMILES IDX 68 65 70 66 76 67 69 68 71 69 72 70 73 71 74 72 8 73 9 74
REMARK SMILES IDX 10 75 11 76 12 77 13 78 36 79 14 80 16 81 15 82 39 83 37 84
REMARK SMILES IDX 38 85 17 86 18 87 19 88 20 89 21 91 22 92 30 93 23 94 29 95
REMARK SMILES IDX 28 96 31 97 32 98 35 99 33 100 34 101 24 102 25 103 26 104
REMARK SMILES IDX 27 105
REMARK H PARENT 96 25 64 36 20 90
REMARK Flexibility Score: inf
ROOT
ATOM      1  C   UNL     1       3.084   0.978   1.799  1.00  0.00     0.202 C 
ENDROOT
BRANCH   1   2
ATOM      2  O   UNL     1       4.220   0.347   1.189  1.00  0.00    -0.374 OA
BRANCH   2   3
ATOM      3  C   UNL     1       4.732   0.945   0.004  1.00  0.00     0.202 C 
BRANCH   3   4
ATOM      4  C   UNL     1       4.453   0.259  -1.332  1.00  0.00     0.261 C 
BRANCH   4   5
ATOM      5  O   UNL     1       3.071   0.309  -1.733  1.00  0.00    -0.460 OA
BRANCH   5   6
ATOM      6  C   UNL     1       2.028  -0.095  -0.972  1.00  0.00     0.338 C 
ATOM      7  O   UNL     1       1.019   0.601  -0.890  1.00  0.00    -0.246 OA
BRANCH   6   8
ATOM      8  C   UNL     1       2.014  -1.487  -0.454  1.00  0.00     0.060 A 
ATOM      9  C   UNL     1       3.142  -2.299  -0.356  1.00  0.00     0.016 A 
ATOM     10  C   UNL     1       0.751  -2.035  -0.180  1.00  0.00     0.016 A 
ATOM     11  C   UNL     1       3.002  -3.664  -0.320  1.00  0.00     0.010 A 
ATOM     12  C   UNL     1       0.608  -3.403  -0.047  1.00  0.00     0.010 A 
ATOM     13  C   UNL     1       1.724  -4.207  -0.245  1.00  0.00    -0.014 A 
BRANCH  13  14
ATOM     14  C   UNL     1       1.639  -5.651  -0.308  1.00  0.00     0.031 A 
ATOM     15  C   UNL     1       2.388  -6.337   0.776  1.00  0.00     0.074 A 
ATOM     16  C   UNL     1       0.910  -6.260  -1.261  1.00  0.00     0.049 A 
ATOM     17  N   UNL     1       3.384  -7.156   0.669  1.00  0.00    -0.248 NA
ATOM     18  C   UNL     1       2.119  -5.897   2.154  1.00  0.00     0.031 C 
ATOM     19  C   UNL     1      -0.027  -5.642  -2.205  1.00  0.00     0.029 A 
ATOM     20  N   UNL     1       0.729  -7.589  -1.475  1.00  0.00    -0.354 N 
ATOM     21  C   UNL     1       3.708  -7.514   1.978  1.00  0.00     0.074 A 
ATOM     22  C   UNL     1       3.057  -6.559   2.830  1.00  0.00     0.031 C 
ATOM     23  C   UNL     1      -0.879  -6.588  -2.657  1.00  0.00     0.029 A 
ATOM     24  C   UNL     1      -0.456  -7.877  -2.142  1.00  0.00     0.049 A 
ATOM     25  H   UNL     1       1.371  -8.278  -1.187  1.00  0.00     0.167 HD
ATOM     26  C   UNL     1       4.248  -8.731   2.260  1.00  0.00     0.034 A 
ATOM     27  C   UNL     1      -1.099  -9.070  -2.151  1.00  0.00     0.034 A 
ATOM     28  C   UNL     1       4.880  -9.299   1.095  1.00  0.00     0.049 A 
ATOM     29  C   UNL     1      -0.120 -10.105  -1.745  1.00  0.00     0.074 A 
ATOM     30  C   UNL     1       5.908  -8.918   0.257  1.00  0.00     0.029 A 
ATOM     31  N   UNL     1       4.190 -10.280   0.424  1.00  0.00    -0.354 N 
ATOM     32  N   UNL     1       0.919 -10.432  -2.463  1.00  0.00    -0.248 NA
ATOM     33  C   UNL     1      -0.042 -10.453  -0.335  1.00  0.00     0.031 C 
ATOM     34  C   UNL     1       5.502  -9.345  -1.041  1.00  0.00     0.029 A 
ATOM     35  C   UNL     1       4.283 -10.014  -0.913  1.00  0.00     0.049 A 
ATOM     36  H   UNL     1       3.714 -11.038   0.834  1.00  0.00     0.167 HD
ATOM     37  C   UNL     1       1.941 -10.596  -1.536  1.00  0.00     0.074 A 
ATOM     38  C   UNL     1       1.267 -10.706  -0.243  1.00  0.00     0.031 C 
ATOM     39  C   UNL     1       3.240 -10.327  -1.864  1.00  0.00     0.034 A 
BRANCH  26  40
ATOM     40  C   UNL     1       3.815  -9.598   3.433  1.00  0.00     0.023 A 
ATOM     41  C   UNL     1       4.430 -10.868   3.541  1.00  0.00     0.012 A 
ATOM     42  C   UNL     1       2.655  -9.390   4.216  1.00  0.00     0.148 A 
ATOM     43  C   UNL     1       3.851 -11.906   4.281  1.00  0.00     0.002 A 
ATOM     44  C   UNL     1       2.113 -10.407   4.992  1.00  0.00     0.091 A 
ATOM     45  F   UNL     1       1.984  -8.241   4.149  1.00  0.00    -0.205 F 
ATOM     46  C   UNL     1       2.684 -11.679   4.997  1.00  0.00     0.022 A 
BRANCH  44  47
ATOM     47  S   UNL     1       0.616 -10.156   5.959  1.00  0.00     0.127 S 
ATOM     48  O   UNL     1      -0.359 -10.915   5.181  1.00  0.00    -0.237 OA
ATOM     49  O   UNL     1       0.988 -10.752   7.242  1.00  0.00    -0.237 OA
ATOM     50  O   UNL     1       0.410  -8.714   6.009  1.00  0.00    -0.744 OA
ENDBRANCH  44  47
ENDBRANCH  26  40
BRANCH  27  51
ATOM     51  C   UNL     1      -2.559  -9.321  -2.160  1.00  0.00     0.023 A 
ATOM     52  C   UNL     1      -3.047 -10.578  -2.565  1.00  0.00     0.012 A 
ATOM     53  C   UNL     1      -3.458  -8.428  -1.532  1.00  0.00     0.148 A 
ATOM     54  C   UNL     1      -4.379 -10.942  -2.333  1.00  0.00     0.002 A 
ATOM     55  C   UNL     1      -4.784  -8.787  -1.317  1.00  0.00     0.091 A 
ATOM     56  F   UNL     1      -2.991  -7.265  -1.060  1.00  0.00    -0.205 F 
ATOM     57  C   UNL     1      -5.246 -10.050  -1.707  1.00  0.00     0.022 A 
BRANCH  55  58
ATOM     58  S   UNL     1      -5.954  -7.691  -0.503  1.00  0.00     0.127 S 
ATOM     59  O   UNL     1      -7.099  -7.741  -1.414  1.00  0.00    -0.237 OA
ATOM     60  O   UNL     1      -6.161  -8.364   0.776  1.00  0.00    -0.237 OA
ATOM     61  O   UNL     1      -5.301  -6.390  -0.435  1.00  0.00    -0.744 OA
ENDBRANCH  55  58
ENDBRANCH  27  51
BRANCH  39  62
ATOM     62  C   UNL     1       3.570 -10.079  -3.314  1.00  0.00     0.023 A 
ATOM     63  C   UNL     1       3.058  -8.974  -4.026  1.00  0.00     0.012 A 
ATOM     64  C   UNL     1       4.561 -10.873  -3.913  1.00  0.00     0.148 A 
ATOM     65  C   UNL     1       3.511  -8.681  -5.316  1.00  0.00     0.002 A 
ATOM     66  C   UNL     1       5.042 -10.552  -5.176  1.00  0.00     0.091 A 
ATOM     67  F   UNL     1       5.042 -11.916  -3.219  1.00  0.00    -0.205 F 
ATOM     68  C   UNL     1       4.513  -9.463  -5.886  1.00  0.00     0.022 A 
BRANCH  66  69
ATOM     69  S   UNL     1       6.420 -11.440  -5.903  1.00  0.00     0.127 S 
ATOM     70  O   UNL     1       5.755 -12.270  -6.904  1.00  0.00    -0.237 OA
ATOM     71  O   UNL     1       7.238 -10.357  -6.453  1.00  0.00    -0.237 OA
ATOM     72  O   UNL     1       7.054 -12.162  -4.807  1.00  0.00    -0.744 OA
ENDBRANCH  66  69
ENDBRANCH  39  62
ENDBRANCH  13  14
ENDBRANCH   6   8
ENDBRANCH   5   6
ENDBRANCH   4   5
ENDBRANCH   3   4
ENDBRANCH   2   3
ENDBRANCH   1   2
BRANCH   1  73
ATOM     73  C   UNL     1       3.256   2.373   2.421  1.00  0.00     0.261 C 
BRANCH  73  74
ATOM     74  O   UNL     1       3.530   3.390   1.437  1.00  0.00    -0.460 OA
BRANCH  74  75
ATOM     75  C   UNL     1       4.824   3.779   1.315  1.00  0.00     0.338 C 
ATOM     76  O   UNL     1       5.765   3.462   2.028  1.00  0.00    -0.246 OA
BRANCH  75  77
ATOM     77  C   UNL     1       4.986   4.520   0.043  1.00  0.00     0.061 A 
ATOM     78  C   UNL     1       4.083   5.527  -0.284  1.00  0.00     0.019 A 
ATOM     79  C   UNL     1       6.059   4.191  -0.826  1.00  0.00     0.038 A 
ATOM     80  C   UNL     1       4.298   6.213  -1.461  1.00  0.00    -0.043 A 
ATOM     81  C   UNL     1       6.245   4.870  -2.049  1.00  0.00     0.092 A 
ATOM     82  C   UNL     1       5.330   5.865  -2.364  1.00  0.00    -0.024 A 
ATOM     83  C   UNL     1       3.533   7.409  -1.947  1.00  0.00     0.036 C 
ATOM     84  C   UNL     1       5.179   6.731  -3.575  1.00  0.00     0.037 C 
ATOM     85  C   UNL     1       4.562   7.974  -2.925  1.00  0.00     0.010 C 
BRANCH  81  86
ATOM     86  S   UNL     1       7.478   4.276  -3.193  1.00  0.00     0.262 S 
ATOM     87  O   UNL     1       8.087   3.103  -2.596  1.00  0.00    -0.201 OA
ATOM     88  O   UNL     1       6.849   4.171  -4.493  1.00  0.00    -0.201 OA
BRANCH  86  89
ATOM     89  N   UNL     1       8.787   5.362  -3.408  1.00  0.00    -0.277 N 
ATOM     90  H   UNL     1       9.692   4.998  -3.538  1.00  0.00     0.180 HD
BRANCH  89  91
ATOM     91  C   UNL     1       8.606   6.786  -3.403  1.00  0.00     0.075 A 
ATOM     92  C   UNL     1       8.429   7.449  -4.632  1.00  0.00     0.042 A 
ATOM     93  C   UNL     1       8.477   7.510  -2.208  1.00  0.00     0.089 A 
ATOM     94  C   UNL     1       8.041   8.805  -4.675  1.00  0.00     0.058 A 
ATOM     95  C   UNL     1       8.116   8.866  -2.246  1.00  0.00     0.031 A 
ATOM     96  C   UNL     1       7.905   9.508  -3.469  1.00  0.00     0.015 A 
BRANCH  93  97
ATOM     97  N   UNL     1       8.654   6.892  -0.946  1.00  0.00    -0.239 N 
ATOM     98  C   UNL     1       9.479   5.838  -0.623  1.00  0.00     0.115 A 
ATOM     99  N   UNL     1       7.884   7.256   0.111  1.00  0.00    -0.177 NA
ATOM    100  C   UNL     1       9.072   5.375   0.603  1.00  0.00     0.042 A 
ATOM    101  C   UNL     1       8.061   6.266   0.992  1.00  0.00     0.135 A 
ENDBRANCH  93  97
BRANCH  94 102
ATOM    102  C   UNL     1       7.693   9.462  -5.992  1.00  0.00     0.416 C 
ATOM    103  F   UNL     1       8.786   9.714  -6.760  1.00  0.00    -0.166 F 
ATOM    104  F   UNL     1       6.865   8.693  -6.752  1.00  0.00    -0.166 F 
ATOM    105  F   UNL     1       7.052  10.657  -5.847  1.00  0.00    -0.166 F 
ENDBRANCH  94 102
ENDBRANCH  89  91
ENDBRANCH  86  89
ENDBRANCH  81  86
ENDBRANCH  75  77
ENDBRANCH  74  75
ENDBRANCH  73  74
ENDBRANCH   1  73
TORSDOF 22
