REMARK SMILES CCC[C@@H](CNC(=O)NCc1c(C)nn(C)c1C)C(=O)OCCOCCOC(=O)c1ccc(-c2c3nc(c(-c4cccc(S(=O)(=O)[O-])c4F)c4ccc([nH]4)c(-c4cccc(S(=O)(=O)[O-])c4F)c4nc(c(-c5cccc(S(=O)(=O)[O-])c5F)c5ccc2[nH]5)C=C4)C=C3)cc1
REMARK SMILES IDX 23 1 22 2 21 3 19 4 20 5 4 6 3 7 2 8 1 9 5 10 6 11 7 12 8 14
REMARK SMILES IDX 9 15 10 17 11 18 12 19 17 20 13 21 14 22 15 23 18 24 16 25
REMARK SMILES IDX 24 26 25 27 26 28 27 29 28 30 29 31 30 32 31 33 92 34 32 35
REMARK SMILES IDX 91 36 33 37 34 38 35 39 85 40 36 41 90 42 84 43 86 44 37 45
REMARK SMILES IDX 89 46 83 47 82 48 38 50 70 51 50 52 69 53 51 54 54 55 68 56
REMARK SMILES IDX 87 57 52 58 53 59 67 61 88 62 55 63 39 64 40 65 48 66 41 67
REMARK SMILES IDX 43 68 49 69 42 70 44 71 45 72 46 73 47 74 71 75 72 76 80 77
REMARK SMILES IDX 73 78 75 79 81 80 74 81 76 82 77 83 78 84 79 85 56 86 57 87
REMARK SMILES IDX 65 88 58 89 60 90 66 91 59 92 61 93 62 94 63 95 64 96
REMARK H PARENT 6 13 9 16 86 49 54 60
REMARK Flexibility Score: inf
ROOT
ATOM      1  C   UNL     1       2.356   2.682   5.979  1.00  0.00     0.202 C 
ENDROOT
BRANCH   1   2
ATOM      2  C   UNL     1       0.912   2.770   5.480  1.00  0.00     0.261 C 
BRANCH   2   3
ATOM      3  O   UNL     1       0.619   1.808   4.453  1.00  0.00    -0.463 OA
BRANCH   3   4
ATOM      4  C   UNL     1       0.414   2.311   3.208  1.00  0.00     0.310 C 
ATOM      5  O   UNL     1       0.542   3.490   2.893  1.00  0.00    -0.252 OA
BRANCH   4   6
ATOM      6  C   UNL     1      -0.026   1.255   2.214  1.00  0.00     0.118 C 
BRANCH   6   7
ATOM      7  C   UNL     1       0.761  -0.064   2.330  1.00  0.00     0.017 C 
BRANCH   7   8
ATOM      8  C   UNL     1       0.598  -1.016   1.136  1.00  0.00    -0.002 C 
ATOM      9  C   UNL     1       1.029  -0.413  -0.194  1.00  0.00     0.004 C 
ENDBRANCH   7   8
ENDBRANCH   6   7
BRANCH   6  10
ATOM     10  C   UNL     1      -1.544   1.081   2.271  1.00  0.00     0.133 C 
BRANCH  10  11
ATOM     11  N   UNL     1      -2.035   0.708   3.582  1.00  0.00    -0.337 N 
ATOM     12  C   UNL     1      -2.785   1.324   4.505  1.00  0.00     0.315 C 
ATOM     13  H   UNL     1      -1.758  -0.197   3.854  1.00  0.00     0.165 HD
ATOM     14  O   UNL     1      -3.149   0.663   5.477  1.00  0.00    -0.249 OA
ATOM     15  N   UNL     1      -3.184   2.596   4.424  1.00  0.00    -0.334 N 
ATOM     16  H   UNL     1      -3.897   2.814   5.067  1.00  0.00     0.165 HD
BRANCH  15  17
ATOM     17  C   UNL     1      -2.806   3.720   3.607  1.00  0.00     0.157 C 
BRANCH  17  18
ATOM     18  C   UNL     1      -3.853   4.099   2.611  1.00  0.00     0.015 A 
ATOM     19  C   UNL     1      -4.013   5.415   2.079  1.00  0.00     0.065 A 
ATOM     20  C   UNL     1      -4.810   3.345   1.939  1.00  0.00     0.040 A 
ATOM     21  C   UNL     1      -3.220   6.639   2.365  1.00  0.00     0.069 C 
ATOM     22  N   UNL     1      -5.023   5.486   1.208  1.00  0.00    -0.178 NA
ATOM     23  N   UNL     1      -5.511   4.237   1.167  1.00  0.00    -0.272 N 
ATOM     24  C   UNL     1      -5.144   1.896   1.943  1.00  0.00     0.067 C 
ATOM     25  C   UNL     1      -6.670   3.989   0.342  1.00  0.00     0.174 C 
ENDBRANCH  17  18
ENDBRANCH  15  17
ENDBRANCH  10  11
ENDBRANCH   6  10
ENDBRANCH   4   6
ENDBRANCH   3   4
ENDBRANCH   2   3
ENDBRANCH   1   2
BRANCH   1  26
ATOM     26  O   UNL     1       3.389   2.998   5.048  1.00  0.00    -0.374 OA
BRANCH  26  27
ATOM     27  C   UNL     1       3.657   2.064   4.006  1.00  0.00     0.202 C 
BRANCH  27  28
ATOM     28  C   UNL     1       4.369   0.760   4.384  1.00  0.00     0.261 C 
BRANCH  28  29
ATOM     29  O   UNL     1       3.638  -0.029   5.338  1.00  0.00    -0.460 OA
BRANCH  29  30
ATOM     30  C   UNL     1       4.243  -0.131   6.545  1.00  0.00     0.338 C 
ATOM     31  O   UNL     1       5.348   0.306   6.848  1.00  0.00    -0.246 OA
BRANCH  30  32
ATOM     32  C   UNL     1       3.343  -0.711   7.558  1.00  0.00     0.060 A 
ATOM     33  C   UNL     1       3.221  -0.013   8.765  1.00  0.00     0.016 A 
ATOM     34  C   UNL     1       2.750  -1.966   7.401  1.00  0.00     0.016 A 
ATOM     35  C   UNL     1       2.591  -0.607   9.854  1.00  0.00     0.010 A 
ATOM     36  C   UNL     1       2.115  -2.563   8.500  1.00  0.00     0.010 A 
ATOM     37  C   UNL     1       2.090  -1.911   9.746  1.00  0.00    -0.014 A 
BRANCH  37  38
ATOM     38  C   UNL     1       1.733  -2.631  10.995  1.00  0.00     0.031 A 
ATOM     39  C   UNL     1       2.731  -3.587  11.598  1.00  0.00     0.074 A 
ATOM     40  C   UNL     1       0.576  -2.377  11.632  1.00  0.00     0.049 A 
ATOM     41  N   UNL     1       2.679  -4.229  12.736  1.00  0.00    -0.248 NA
ATOM     42  C   UNL     1       3.950  -3.853  10.815  1.00  0.00     0.031 C 
ATOM     43  C   UNL     1      -0.474  -1.480  11.152  1.00  0.00     0.029 A 
ATOM     44  N   UNL     1       0.092  -2.857  12.823  1.00  0.00    -0.354 N 
ATOM     45  C   UNL     1       3.845  -4.984  12.800  1.00  0.00     0.074 A 
ATOM     46  C   UNL     1       4.574  -4.741  11.574  1.00  0.00     0.031 C 
ATOM     47  C   UNL     1      -1.485  -1.481  12.038  1.00  0.00     0.029 A 
ATOM     48  C   UNL     1      -1.155  -2.379  13.144  1.00  0.00     0.049 A 
ATOM     49  H   UNL     1       0.592  -3.483  13.395  1.00  0.00     0.167 HD
ATOM     50  C   UNL     1       4.285  -5.787  13.797  1.00  0.00     0.034 A 
ATOM     51  C   UNL     1      -1.940  -2.634  14.210  1.00  0.00     0.034 A 
ATOM     52  C   UNL     1       3.579  -6.007  15.030  1.00  0.00     0.049 A 
ATOM     53  C   UNL     1      -1.423  -3.525  15.310  1.00  0.00     0.074 A 
ATOM     54  C   UNL     1       3.966  -6.765  16.121  1.00  0.00     0.029 A 
ATOM     55  N   UNL     1       2.337  -5.474  15.334  1.00  0.00    -0.354 N 
ATOM     56  N   UNL     1      -0.259  -4.120  15.416  1.00  0.00    -0.248 NA
ATOM     57  C   UNL     1      -2.313  -3.744  16.460  1.00  0.00     0.031 C 
ATOM     58  C   UNL     1       2.949  -6.703  17.080  1.00  0.00     0.029 A 
ATOM     59  C   UNL     1       1.937  -5.892  16.592  1.00  0.00     0.049 A 
ATOM     60  H   UNL     1       1.815  -4.885  14.743  1.00  0.00     0.167 HD
ATOM     61  C   UNL     1      -0.264  -4.755  16.653  1.00  0.00     0.074 A 
ATOM     62  C   UNL     1      -1.538  -4.450  17.273  1.00  0.00     0.031 C 
ATOM     63  C   UNL     1       0.690  -5.537  17.219  1.00  0.00     0.034 A 
BRANCH  50  64
ATOM     64  C   UNL     1       5.621  -6.457  13.612  1.00  0.00     0.023 A 
ATOM     65  C   UNL     1       6.801  -5.694  13.727  1.00  0.00     0.012 A 
ATOM     66  C   UNL     1       5.714  -7.842  13.374  1.00  0.00     0.148 A 
ATOM     67  C   UNL     1       8.052  -6.293  13.579  1.00  0.00     0.002 A 
ATOM     68  C   UNL     1       6.965  -8.439  13.265  1.00  0.00     0.091 A 
ATOM     69  F   UNL     1       4.580  -8.546  13.241  1.00  0.00    -0.205 F 
ATOM     70  C   UNL     1       8.134  -7.665  13.358  1.00  0.00     0.022 A 
BRANCH  68  71
ATOM     71  S   UNL     1       7.174 -10.210  13.050  1.00  0.00     0.127 S 
ATOM     72  O   UNL     1       7.582 -10.291  11.649  1.00  0.00    -0.237 OA
ATOM     73  O   UNL     1       8.234 -10.516  14.012  1.00  0.00    -0.237 OA
ATOM     74  O   UNL     1       5.883 -10.806  13.364  1.00  0.00    -0.744 OA
ENDBRANCH  68  71
ENDBRANCH  50  64
BRANCH  51  75
ATOM     75  C   UNL     1      -3.277  -1.985  14.321  1.00  0.00     0.023 A 
ATOM     76  C   UNL     1      -3.489  -0.990  15.294  1.00  0.00     0.012 A 
ATOM     77  C   UNL     1      -4.332  -2.340  13.459  1.00  0.00     0.148 A 
ATOM     78  C   UNL     1      -4.737  -0.379  15.425  1.00  0.00     0.002 A 
ATOM     79  C   UNL     1      -5.557  -1.692  13.561  1.00  0.00     0.091 A 
ATOM     80  F   UNL     1      -4.116  -3.305  12.554  1.00  0.00    -0.205 F 
ATOM     81  C   UNL     1      -5.767  -0.722  14.553  1.00  0.00     0.022 A 
BRANCH  79  82
ATOM     82  S   UNL     1      -6.900  -1.987  12.405  1.00  0.00     0.127 S 
ATOM     83  O   UNL     1      -7.837  -2.752  13.225  1.00  0.00    -0.237 OA
ATOM     84  O   UNL     1      -7.331  -0.626  12.086  1.00  0.00    -0.237 OA
ATOM     85  O   UNL     1      -6.303  -2.705  11.288  1.00  0.00    -0.744 OA
ENDBRANCH  79  82
ENDBRANCH  51  75
BRANCH  63  86
ATOM     86  C   UNL     1       0.407  -6.103  18.587  1.00  0.00     0.023 A 
ATOM     87  C   UNL     1      -0.533  -7.143  18.730  1.00  0.00     0.012 A 
ATOM     88  C   UNL     1       1.114  -5.653  19.719  1.00  0.00     0.148 A 
ATOM     89  C   UNL     1      -0.793  -7.699  19.982  1.00  0.00     0.002 A 
ATOM     90  C   UNL     1       0.884  -6.244  20.957  1.00  0.00     0.091 A 
ATOM     91  F   UNL     1       1.992  -4.649  19.572  1.00  0.00    -0.205 F 
ATOM     92  C   UNL     1      -0.077  -7.258  21.093  1.00  0.00     0.022 A 
BRANCH  90  93
ATOM     93  S   UNL     1       1.831  -5.796  22.417  1.00  0.00     0.127 S 
ATOM     94  O   UNL     1       0.913  -4.891  23.105  1.00  0.00    -0.237 OA
ATOM     95  O   UNL     1       2.024  -7.088  23.078  1.00  0.00    -0.237 OA
ATOM     96  O   UNL     1       3.060  -5.191  21.918  1.00  0.00    -0.744 OA
ENDBRANCH  90  93
ENDBRANCH  63  86
ENDBRANCH  37  38
ENDBRANCH  30  32
ENDBRANCH  29  30
ENDBRANCH  28  29
ENDBRANCH  27  28
ENDBRANCH  26  27
ENDBRANCH   1  26
TORSDOF 23
