REMARK SMILES CC/C(C(=O)OCCOCCOC(=O)c1ccc(-c2c3nc(c(-c4cccc(S(=O)(=O)[O-])c4F)c4ccc([nH]4)c(-c4cccc(S(=O)(=O)[O-])c4F)c4nc(c(-c5cccc(S(=O)(=O)[O-])c5F)c5ccc2[nH]5)C=C4)C=C3)cc1)=C1\CCc2ccccc21
REMARK SMILES IDX 10 1 9 2 8 3 7 4 6 5 4 6 5 7 3 8 78 9 79 10 86 11 80 12
REMARK SMILES IDX 81 13 85 14 82 15 84 16 83 17 2 18 1 19 11 20 12 21 13 22
REMARK SMILES IDX 14 23 15 24 16 25 77 26 17 27 76 28 18 29 19 30 20 31 70 32
REMARK SMILES IDX 21 33 75 34 69 35 71 36 22 37 74 38 68 39 67 40 23 42 55 43
REMARK SMILES IDX 35 44 54 45 36 46 39 47 53 48 72 49 37 50 38 51 52 53 73 54
REMARK SMILES IDX 40 55 24 56 25 57 33 58 26 59 28 60 34 61 27 62 29 63 30 64
REMARK SMILES IDX 31 65 32 66 56 67 57 68 65 69 58 70 60 71 66 72 59 73 61 74
REMARK SMILES IDX 62 75 63 76 64 77 41 78 42 79 50 80 43 81 45 82 51 83 44 84
REMARK SMILES IDX 46 85 47 86 48 87 49 88
REMARK H PARENT 71 41 39 52
REMARK Flexibility Score: inf
ROOT
ATOM      1  C   UNL     1       1.507  -1.575   4.869  1.00  0.00     0.202 C 
ENDROOT
BRANCH   1   2
ATOM      2  O   UNL     1       2.876  -1.734   5.246  1.00  0.00    -0.374 OA
BRANCH   2   3
ATOM      3  C   UNL     1       3.593  -0.540   5.575  1.00  0.00     0.202 C 
BRANCH   3   4
ATOM      4  C   UNL     1       4.173   0.222   4.378  1.00  0.00     0.261 C 
BRANCH   4   5
ATOM      5  O   UNL     1       3.113   0.875   3.660  1.00  0.00    -0.460 OA
BRANCH   5   6
ATOM      6  C   UNL     1       2.739   0.315   2.496  1.00  0.00     0.334 C 
ATOM      7  O   UNL     1       3.357  -0.568   1.915  1.00  0.00    -0.247 OA
BRANCH   6   8
ATOM      8  C   UNL     1       1.385   0.780   2.033  1.00  0.00     0.041 C 
ATOM      9  C   UNL     1       0.693   1.877   2.427  1.00  0.00    -0.030 C 
ATOM     10  C   UNL     1      -0.476   2.455   1.633  1.00  0.00     0.041 C 
ATOM     11  C   UNL     1       0.920   2.901   3.464  1.00  0.00    -0.019 A 
ATOM     12  C   UNL     1      -0.250   3.973   1.678  1.00  0.00     0.041 C 
ATOM     13  C   UNL     1       0.396   4.120   3.017  1.00  0.00    -0.040 A 
ATOM     14  C   UNL     1       1.371   2.805   4.772  1.00  0.00     0.009 A 
ATOM     15  C   UNL     1       0.475   5.278   3.780  1.00  0.00     0.004 A 
ATOM     16  C   UNL     1       1.438   3.956   5.565  1.00  0.00     0.001 A 
ATOM     17  C   UNL     1       1.018   5.192   5.061  1.00  0.00     0.000 A 
BRANCH   8  18
ATOM     18  C   UNL     1       0.781  -0.212   1.048  1.00  0.00     0.040 C 
ATOM     19  C   UNL     1       1.287  -0.069  -0.378  1.00  0.00     0.009 C 
ENDBRANCH   8  18
ENDBRANCH   6   8
ENDBRANCH   5   6
ENDBRANCH   4   5
ENDBRANCH   3   4
ENDBRANCH   2   3
ENDBRANCH   1   2
BRANCH   1  20
ATOM     20  C   UNL     1       0.495  -1.559   6.018  1.00  0.00     0.261 C 
BRANCH  20  21
ATOM     21  O   UNL     1       0.656  -0.387   6.834  1.00  0.00    -0.460 OA
BRANCH  21  22
ATOM     22  C   UNL     1       1.312  -0.605   7.995  1.00  0.00     0.338 C 
ATOM     23  O   UNL     1       1.669  -1.687   8.445  1.00  0.00    -0.246 OA
BRANCH  22  24
ATOM     24  C   UNL     1       1.715   0.675   8.604  1.00  0.00     0.060 A 
ATOM     25  C   UNL     1       3.023   0.757   9.095  1.00  0.00     0.016 A 
ATOM     26  C   UNL     1       0.830   1.745   8.762  1.00  0.00     0.016 A 
ATOM     27  C   UNL     1       3.423   1.868   9.828  1.00  0.00     0.010 A 
ATOM     28  C   UNL     1       1.237   2.867   9.495  1.00  0.00     0.010 A 
ATOM     29  C   UNL     1       2.515   2.905  10.081  1.00  0.00    -0.014 A 
BRANCH  29  30
ATOM     30  C   UNL     1       2.871   3.924  11.100  1.00  0.00     0.031 A 
ATOM     31  C   UNL     1       2.248   3.842  12.469  1.00  0.00     0.074 A 
ATOM     32  C   UNL     1       3.788   4.872  10.836  1.00  0.00     0.049 A 
ATOM     33  N   UNL     1       2.487   4.566  13.532  1.00  0.00    -0.248 NA
ATOM     34  C   UNL     1       1.217   2.810  12.667  1.00  0.00     0.031 C 
ATOM     35  C   UNL     1       4.454   5.067   9.550  1.00  0.00     0.029 A 
ATOM     36  N   UNL     1       4.310   5.852  11.641  1.00  0.00    -0.354 N 
ATOM     37  C   UNL     1       1.618   4.101  14.512  1.00  0.00     0.074 A 
ATOM     38  C   UNL     1       0.831   3.047  13.911  1.00  0.00     0.031 C 
ATOM     39  C   UNL     1       5.290   6.115   9.649  1.00  0.00     0.029 A 
ATOM     40  C   UNL     1       5.208   6.670  10.999  1.00  0.00     0.049 A 
ATOM     41  H   UNL     1       4.064   5.960  12.589  1.00  0.00     0.167 HD
ATOM     42  C   UNL     1       1.498   4.497  15.802  1.00  0.00     0.034 A 
ATOM     43  C   UNL     1       5.883   7.747  11.447  1.00  0.00     0.034 A 
ATOM     44  C   UNL     1       2.296   5.527  16.409  1.00  0.00     0.049 A 
ATOM     45  C   UNL     1       5.746   8.159  12.889  1.00  0.00     0.074 A 
ATOM     46  C   UNL     1       2.293   5.957  17.724  1.00  0.00     0.029 A 
ATOM     47  N   UNL     1       3.229   6.304  15.739  1.00  0.00    -0.354 N 
ATOM     48  N   UNL     1       5.021   7.620  13.839  1.00  0.00    -0.248 NA
ATOM     49  C   UNL     1       6.559   9.301  13.332  1.00  0.00     0.031 C 
ATOM     50  C   UNL     1       3.198   7.018  17.841  1.00  0.00     0.029 A 
ATOM     51  C   UNL     1       3.797   7.220  16.608  1.00  0.00     0.049 A 
ATOM     52  H   UNL     1       3.454   6.217  14.784  1.00  0.00     0.167 HD
ATOM     53  C   UNL     1       5.316   8.331  14.998  1.00  0.00     0.074 A 
ATOM     54  C   UNL     1       6.305   9.325  14.633  1.00  0.00     0.031 C 
ATOM     55  C   UNL     1       4.809   8.181  16.247  1.00  0.00     0.034 A 
BRANCH  42  56
ATOM     56  C   UNL     1       0.464   3.799  16.649  1.00  0.00     0.023 A 
ATOM     57  C   UNL     1       0.660   2.458  17.039  1.00  0.00     0.012 A 
ATOM     58  C   UNL     1      -0.688   4.482  17.084  1.00  0.00     0.148 A 
ATOM     59  C   UNL     1      -0.293   1.796  17.812  1.00  0.00     0.002 A 
ATOM     60  C   UNL     1      -1.609   3.831  17.896  1.00  0.00     0.091 A 
ATOM     61  F   UNL     1      -0.871   5.748  16.684  1.00  0.00    -0.205 F 
ATOM     62  C   UNL     1      -1.421   2.485  18.249  1.00  0.00     0.022 A 
BRANCH  60  63
ATOM     63  S   UNL     1      -3.050   4.659  18.576  1.00  0.00     0.127 S 
ATOM     64  O   UNL     1      -4.130   4.068  17.788  1.00  0.00    -0.237 OA
ATOM     65  O   UNL     1      -3.016   4.237  19.977  1.00  0.00    -0.237 OA
ATOM     66  O   UNL     1      -2.829   6.083  18.368  1.00  0.00    -0.744 OA
ENDBRANCH  60  63
ENDBRANCH  42  56
BRANCH  43  67
ATOM     67  C   UNL     1       6.786   8.486  10.522  1.00  0.00     0.023 A 
ATOM     68  C   UNL     1       8.181   8.423  10.701  1.00  0.00     0.012 A 
ATOM     69  C   UNL     1       6.263   9.226   9.444  1.00  0.00     0.148 A 
ATOM     70  C   UNL     1       9.038   9.109   9.840  1.00  0.00     0.002 A 
ATOM     71  C   UNL     1       7.124   9.858   8.557  1.00  0.00     0.091 A 
ATOM     72  F   UNL     1       4.931   9.282   9.301  1.00  0.00    -0.205 F 
ATOM     73  C   UNL     1       8.511   9.816   8.762  1.00  0.00     0.022 A 
BRANCH  71  74
ATOM     74  S   UNL     1       6.541  10.680   7.070  1.00  0.00     0.127 S 
ATOM     75  O   UNL     1       6.861  12.076   7.355  1.00  0.00    -0.237 OA
ATOM     76  O   UNL     1       7.371  10.054   6.039  1.00  0.00    -0.237 OA
ATOM     77  O   UNL     1       5.122  10.366   6.974  1.00  0.00    -0.744 OA
ENDBRANCH  71  74
ENDBRANCH  43  67
BRANCH  55  78
ATOM     78  C   UNL     1       5.343   9.085  17.331  1.00  0.00     0.023 A 
ATOM     79  C   UNL     1       5.031  10.460  17.323  1.00  0.00     0.012 A 
ATOM     80  C   UNL     1       6.118   8.562  18.385  1.00  0.00     0.148 A 
ATOM     81  C   UNL     1       5.525  11.306  18.317  1.00  0.00     0.002 A 
ATOM     82  C   UNL     1       6.561   9.402  19.401  1.00  0.00     0.091 A 
ATOM     83  F   UNL     1       6.422   7.256  18.371  1.00  0.00    -0.205 F 
ATOM     84  C   UNL     1       6.280  10.777  19.360  1.00  0.00     0.022 A 
BRANCH  82  85
ATOM     85  S   UNL     1       7.454   8.783  20.832  1.00  0.00     0.127 S 
ATOM     86  O   UNL     1       8.826   9.180  20.523  1.00  0.00    -0.237 OA
ATOM     87  O   UNL     1       6.837   9.528  21.931  1.00  0.00    -0.237 OA
ATOM     88  O   UNL     1       7.205   7.348  20.866  1.00  0.00    -0.744 OA
ENDBRANCH  82  85
ENDBRANCH  55  78
ENDBRANCH  29  30
ENDBRANCH  22  24
ENDBRANCH  21  22
ENDBRANCH  20  21
ENDBRANCH   1  20
TORSDOF 18
