REMARK SMILES Cc1cccc(C(=O)Nc2cnc(N3CCN(c4cccc(C)c4)[C@H](C)C3)c(C(=O)OCCOCCOC(=O)c3ccc(-c4c5nc(c(-c6cccc(S(=O)(=O)[O-])c6F)c6ccc([nH]6)c(-c6cccc(S(=O)(=O)[O-])c6F)c6nc(c(-c7cccc(S(=O)(=O)[O-])c7F)c7ccc4[nH]7)C=C6)C=C5)cc3)c2)c1
REMARK SMILES IDX 35 1 34 2 33 3 32 4 31 5 29 6 30 7 28 8 10 9 11 10 103 11
REMARK SMILES IDX 12 12 13 13 9 14 7 15 8 16 6 18 1 19 2 20 3 21 104 22 4 23
REMARK SMILES IDX 5 24 14 25 15 26 27 27 16 28 25 29 17 30 26 31 18 32 19 33
REMARK SMILES IDX 24 34 20 35 22 36 21 37 23 38 36 39 37 40 38 41 39 42 40 43
REMARK SMILES IDX 41 44 102 45 42 46 101 47 43 48 44 49 45 50 95 51 46 52
REMARK SMILES IDX 100 53 94 54 96 55 47 56 99 57 93 58 92 59 48 61 80 62 60 63
REMARK SMILES IDX 79 64 61 65 64 66 78 67 97 68 62 69 63 70 77 72 98 73 65 74
REMARK SMILES IDX 49 75 50 76 58 77 51 78 53 79 59 80 52 81 54 82 55 83 56 84
REMARK SMILES IDX 57 85 81 86 82 87 90 88 83 89 85 90 91 91 84 92 86 93 87 94
REMARK SMILES IDX 88 95 89 96 66 97 67 98 75 99 68 100 70 101 76 102 69 103
REMARK SMILES IDX 71 104 72 105 73 106 74 107
REMARK H PARENT 9 17 96 60 64 71
REMARK Flexibility Score: inf
ROOT
ATOM      1  C   UNL     1       3.976   4.460  -4.499  1.00  0.00     0.202 C 
ENDROOT
BRANCH   1   2
ATOM      2  O   UNL     1       3.769   3.087  -4.279  1.00  0.00    -0.374 OA
BRANCH   2   3
ATOM      3  C   UNL     1       2.519   2.555  -4.679  1.00  0.00     0.202 C 
BRANCH   3   4
ATOM      4  C   UNL     1       2.009   1.805  -3.481  1.00  0.00     0.261 C 
BRANCH   4   5
ATOM      5  O   UNL     1       1.781   2.697  -2.388  1.00  0.00    -0.460 OA
BRANCH   5   6
ATOM      6  C   UNL     1       2.817   2.885  -1.526  1.00  0.00     0.342 C 
ATOM      7  O   UNL     1       3.986   2.568  -1.694  1.00  0.00    -0.246 OA
BRANCH   6   8
ATOM      8  C   UNL     1       2.299   3.609  -0.359  1.00  0.00     0.104 A 
ATOM      9  C   UNL     1       0.313   4.292   0.834  1.00  0.00     0.061 A 
ATOM     10  C   UNL     1       1.147   5.132   1.552  1.00  0.00     0.139 A 
ATOM     11  C   UNL     1       0.913   3.521  -0.133  1.00  0.00     0.047 A 
ATOM     12  N   UNL     1       2.511   5.136   1.452  1.00  0.00    -0.236 NA
ATOM     13  C   UNL     1       3.108   4.355   0.508  1.00  0.00     0.143 A 
BRANCH   9  14
ATOM     14  N   UNL     1      -1.082   4.245   1.019  1.00  0.00    -0.321 N 
ATOM     15  C   UNL     1      -1.931   3.158   0.848  1.00  0.00     0.255 C 
ATOM     16  O   UNL     1      -3.091   3.349   0.482  1.00  0.00    -0.269 OA
ATOM     17  H   UNL     1      -1.508   5.085   1.306  1.00  0.00     0.170 HD
BRANCH  15  18
ATOM     18  C   UNL     1      -1.507   1.774   1.249  1.00  0.00     0.040 A 
ATOM     19  C   UNL     1       1.266   0.043   3.173  1.00  0.00     0.044 C 
ATOM     20  C   UNL     1      -0.026   0.260   2.450  1.00  0.00    -0.050 A 
ATOM     21  C   UNL     1      -0.815  -0.826   2.067  1.00  0.00     0.003 A 
ATOM     22  C   UNL     1      -0.407   1.553   2.083  1.00  0.00     0.017 A 
ATOM     23  C   UNL     1      -1.946  -0.623   1.281  1.00  0.00     0.001 A 
ATOM     24  C   UNL     1      -2.285   0.670   0.864  1.00  0.00     0.014 A 
ENDBRANCH  15  18
ENDBRANCH   9  14
BRANCH  13  25
ATOM     25  N   UNL     1       4.484   4.296   0.496  1.00  0.00    -0.352 N 
ATOM     26  C   UNL     1       5.215   3.748   1.661  1.00  0.00     0.139 C 
ATOM     27  C   UNL     1       5.295   4.922  -0.564  1.00  0.00     0.142 C 
ATOM     28  C   UNL     1       6.502   2.954   1.245  1.00  0.00     0.138 C 
ATOM     29  C   UNL     1       6.527   4.039  -0.934  1.00  0.00     0.098 C 
ATOM     30  N   UNL     1       7.298   3.783   0.311  1.00  0.00    -0.365 N 
ATOM     31  C   UNL     1       7.314   4.622  -2.107  1.00  0.00     0.033 C 
BRANCH  30  32
ATOM     32  C   UNL     1       8.678   3.713   0.258  1.00  0.00     0.037 A 
ATOM     33  C   UNL     1       9.400   4.912   0.167  1.00  0.00     0.026 A 
ATOM     34  C   UNL     1       9.401   2.520   0.177  1.00  0.00     0.029 A 
ATOM     35  C   UNL     1      10.779   4.930  -0.037  1.00  0.00     0.002 A 
ATOM     36  C   UNL     1      10.788   2.521  -0.076  1.00  0.00    -0.049 A 
ATOM     37  C   UNL     1      11.472   3.735  -0.162  1.00  0.00     0.003 A 
ATOM     38  C   UNL     1      11.550   1.241  -0.247  1.00  0.00     0.044 C 
ENDBRANCH  30  32
ENDBRANCH  13  25
ENDBRANCH   6   8
ENDBRANCH   5   6
ENDBRANCH   4   5
ENDBRANCH   3   4
ENDBRANCH   2   3
ENDBRANCH   1   2
BRANCH   1  39
ATOM     39  C   UNL     1       4.293   4.681  -5.971  1.00  0.00     0.261 C 
BRANCH  39  40
ATOM     40  O   UNL     1       5.440   3.871  -6.332  1.00  0.00    -0.460 OA
BRANCH  40  41
ATOM     41  C   UNL     1       5.133   2.612  -6.780  1.00  0.00     0.338 C 
ATOM     42  O   UNL     1       4.350   2.394  -7.692  1.00  0.00    -0.246 OA
BRANCH  41  43
ATOM     43  C   UNL     1       5.677   1.563  -5.849  1.00  0.00     0.060 A 
ATOM     44  C   UNL     1       5.157   0.261  -5.889  1.00  0.00     0.016 A 
ATOM     45  C   UNL     1       6.416   1.954  -4.735  1.00  0.00     0.016 A 
ATOM     46  C   UNL     1       5.178  -0.545  -4.735  1.00  0.00     0.010 A 
ATOM     47  C   UNL     1       6.370   1.175  -3.582  1.00  0.00     0.010 A 
ATOM     48  C   UNL     1       5.680  -0.049  -3.536  1.00  0.00    -0.014 A 
BRANCH  48  49
ATOM     49  C   UNL     1       5.404  -0.593  -2.182  1.00  0.00     0.031 A 
ATOM     50  C   UNL     1       6.496  -0.738  -1.181  1.00  0.00     0.074 A 
ATOM     51  C   UNL     1       4.140  -0.550  -1.698  1.00  0.00     0.049 A 
ATOM     52  N   UNL     1       6.330  -0.915   0.088  1.00  0.00    -0.248 NA
ATOM     53  C   UNL     1       7.897  -0.790  -1.577  1.00  0.00     0.031 C 
ATOM     54  C   UNL     1       3.742  -0.022  -0.390  1.00  0.00     0.029 A 
ATOM     55  N   UNL     1       2.939  -0.940  -2.287  1.00  0.00    -0.354 N 
ATOM     56  C   UNL     1       7.566  -0.982   0.696  1.00  0.00     0.074 A 
ATOM     57  C   UNL     1       8.507  -0.914  -0.392  1.00  0.00     0.031 C 
ATOM     58  C   UNL     1       2.420  -0.145  -0.251  1.00  0.00     0.029 A 
ATOM     59  C   UNL     1       1.924  -0.963  -1.327  1.00  0.00     0.049 A 
ATOM     60  H   UNL     1       2.823  -1.166  -3.239  1.00  0.00     0.167 HD
ATOM     61  C   UNL     1       7.635  -1.039   2.058  1.00  0.00     0.034 A 
ATOM     62  C   UNL     1       0.991  -1.933  -1.160  1.00  0.00     0.034 A 
ATOM     63  C   UNL     1       6.300  -1.279   2.637  1.00  0.00     0.049 A 
ATOM     64  C   UNL     1       1.341  -2.769   0.057  1.00  0.00     0.074 A 
ATOM     65  C   UNL     1       5.431  -0.572   3.448  1.00  0.00     0.029 A 
ATOM     66  N   UNL     1       5.605  -2.424   2.240  1.00  0.00    -0.354 N 
ATOM     67  N   UNL     1       2.311  -2.513   0.901  1.00  0.00    -0.248 NA
ATOM     68  C   UNL     1       0.591  -3.961   0.429  1.00  0.00     0.031 C 
ATOM     69  C   UNL     1       4.258  -1.355   3.618  1.00  0.00     0.029 A 
ATOM     70  C   UNL     1       4.350  -2.481   2.816  1.00  0.00     0.049 A 
ATOM     71  H   UNL     1       5.964  -3.105   1.627  1.00  0.00     0.167 HD
ATOM     72  C   UNL     1       2.436  -3.542   1.800  1.00  0.00     0.074 A 
ATOM     73  C   UNL     1       1.265  -4.360   1.520  1.00  0.00     0.031 C 
ATOM     74  C   UNL     1       3.512  -3.668   2.649  1.00  0.00     0.034 A 
BRANCH  61  75
ATOM     75  C   UNL     1       8.866  -0.741   2.930  1.00  0.00     0.023 A 
ATOM     76  C   UNL     1       8.622  -0.338   4.267  1.00  0.00     0.012 A 
ATOM     77  C   UNL     1      10.233  -0.766   2.558  1.00  0.00     0.148 A 
ATOM     78  C   UNL     1       9.621   0.122   5.132  1.00  0.00     0.002 A 
ATOM     79  C   UNL     1      11.240  -0.267   3.411  1.00  0.00     0.091 A 
ATOM     80  F   UNL     1      10.585  -1.304   1.388  1.00  0.00    -0.205 F 
ATOM     81  C   UNL     1      10.929   0.191   4.693  1.00  0.00     0.022 A 
BRANCH  79  82
ATOM     82  S   UNL     1      12.988  -0.142   2.948  1.00  0.00     0.127 S 
ATOM     83  O   UNL     1      13.145   1.296   2.722  1.00  0.00    -0.237 OA
ATOM     84  O   UNL     1      13.680  -0.634   4.140  1.00  0.00    -0.237 OA
ATOM     85  O   UNL     1      13.156  -0.974   1.763  1.00  0.00    -0.744 OA
ENDBRANCH  79  82
ENDBRANCH  61  75
BRANCH  62  86
ATOM     86  C   UNL     1       0.358  -2.350  -2.445  1.00  0.00     0.023 A 
ATOM     87  C   UNL     1      -0.501  -1.379  -3.019  1.00  0.00     0.012 A 
ATOM     88  C   UNL     1       1.080  -3.193  -3.292  1.00  0.00     0.148 A 
ATOM     89  C   UNL     1      -0.405  -1.065  -4.378  1.00  0.00     0.002 A 
ATOM     90  C   UNL     1       1.234  -2.821  -4.627  1.00  0.00     0.091 A 
ATOM     91  F   UNL     1       1.785  -4.193  -2.747  1.00  0.00    -0.205 F 
ATOM     92  C   UNL     1       0.530  -1.732  -5.163  1.00  0.00     0.022 A 
BRANCH  90  93
ATOM     93  S   UNL     1       2.630  -3.493  -5.539  1.00  0.00     0.127 S 
ATOM     94  O   UNL     1       2.083  -4.735  -6.069  1.00  0.00    -0.237 OA
ATOM     95  O   UNL     1       2.902  -2.454  -6.532  1.00  0.00    -0.237 OA
ATOM     96  O   UNL     1       3.657  -3.608  -4.511  1.00  0.00    -0.744 OA
ENDBRANCH  90  93
ENDBRANCH  62  86
BRANCH  74  97
ATOM     97  C   UNL     1       3.902  -4.938   3.416  1.00  0.00     0.023 A 
ATOM     98  C   UNL     1       3.205  -6.152   3.281  1.00  0.00     0.012 A 
ATOM     99  C   UNL     1       5.073  -4.991   4.230  1.00  0.00     0.148 A 
ATOM    100  C   UNL     1       3.580  -7.324   3.946  1.00  0.00     0.002 A 
ATOM    101  C   UNL     1       5.500  -6.183   4.814  1.00  0.00     0.091 A 
ATOM    102  F   UNL     1       5.785  -3.882   4.460  1.00  0.00    -0.205 F 
ATOM    103  C   UNL     1       4.738  -7.345   4.700  1.00  0.00     0.022 A 
BRANCH 101 104
ATOM    104  S   UNL     1       7.083  -6.344   5.652  1.00  0.00     0.127 S 
ATOM    105  O   UNL     1       6.662  -6.507   7.043  1.00  0.00    -0.237 OA
ATOM    106  O   UNL     1       7.626  -7.556   5.034  1.00  0.00    -0.237 OA
ATOM    107  O   UNL     1       7.822  -5.127   5.356  1.00  0.00    -0.744 OA
ENDBRANCH 101 104
ENDBRANCH  74  97
ENDBRANCH  48  49
ENDBRANCH  41  43
ENDBRANCH  40  41
ENDBRANCH  39  40
ENDBRANCH   1  39
TORSDOF 21
