REMARK SMILES O=C(OCCOCCOC(=O)[C@H]1CCC[N@@H+]1Cc1ccccc1[N+](=O)[O-])c1ccc(-c2c3nc(c(-c4cccc(S(=O)(=O)[O-])c4F)c4ccc([nH]4)c(-c4cccc(S(=O)(=O)[O-])c4F)c4nc(c(-c5cccc(S(=O)(=O)[O-])c5F)c5ccc2[nH]5)C=C4)C=C3)cc1
REMARK SMILES IDX 6 1 5 2 4 3 3 4 2 5 1 6 27 7 28 8 89 9 29 10 88 11 30 12
REMARK SMILES IDX 31 13 32 14 82 15 33 16 87 17 81 18 83 19 34 20 86 21 80 22
REMARK SMILES IDX 79 23 35 25 67 26 47 27 66 28 48 29 51 30 65 31 84 32 49 33
REMARK SMILES IDX 50 34 64 36 85 37 52 38 36 39 37 40 45 41 38 42 40 43 46 44
REMARK SMILES IDX 39 45 41 46 42 47 43 48 44 49 68 50 69 51 77 52 70 53 72 54
REMARK SMILES IDX 78 55 71 56 73 57 74 58 75 59 76 60 53 61 54 62 62 63 55 64
REMARK SMILES IDX 57 65 63 66 56 67 58 68 59 69 60 70 61 71 7 72 8 73 9 74
REMARK SMILES IDX 10 75 11 76 12 77 13 78 16 79 14 80 15 81 17 83 18 84 19 85
REMARK SMILES IDX 23 86 20 87 22 88 21 89 24 90 25 91 26 92
REMARK H PARENT 83 24 51 35 16 82
REMARK Flexibility Score: inf
ROOT
ATOM      1  O   UNL     1       7.652   0.018   3.334  1.00  0.00    -0.374 OA
ENDROOT
BRANCH   1   2
ATOM      2  C   UNL     1       6.873   0.310   2.174  1.00  0.00     0.202 C 
BRANCH   2   3
ATOM      3  C   UNL     1       7.630   0.187   0.848  1.00  0.00     0.261 C 
BRANCH   3   4
ATOM      4  O   UNL     1       8.250  -1.099   0.729  1.00  0.00    -0.460 OA
BRANCH   4   5
ATOM      5  C   UNL     1       9.517  -1.431   1.079  1.00  0.00     0.338 C 
ATOM      6  O   UNL     1       9.854  -2.610   0.981  1.00  0.00    -0.246 OA
BRANCH   5   7
ATOM      7  C   UNL     1      10.533  -0.444   1.563  1.00  0.00     0.060 A 
ATOM      8  C   UNL     1      10.243   0.734   2.256  1.00  0.00     0.016 A 
ATOM      9  C   UNL     1      11.884  -0.786   1.394  1.00  0.00     0.016 A 
ATOM     10  C   UNL     1      11.232   1.553   2.760  1.00  0.00     0.010 A 
ATOM     11  C   UNL     1      12.897   0.021   1.920  1.00  0.00     0.010 A 
ATOM     12  C   UNL     1      12.561   1.188   2.613  1.00  0.00    -0.014 A 
BRANCH  12  13
ATOM     13  C   UNL     1      13.558   2.108   3.167  1.00  0.00     0.031 A 
ATOM     14  C   UNL     1      14.270   3.021   2.229  1.00  0.00     0.074 A 
ATOM     15  C   UNL     1      13.693   2.188   4.503  1.00  0.00     0.049 A 
ATOM     16  N   UNL     1      15.209   3.885   2.486  1.00  0.00    -0.248 NA
ATOM     17  C   UNL     1      13.857   2.973   0.814  1.00  0.00     0.031 C 
ATOM     18  C   UNL     1      12.921   1.407   5.477  1.00  0.00     0.029 A 
ATOM     19  N   UNL     1      14.513   2.963   5.274  1.00  0.00    -0.354 N 
ATOM     20  C   UNL     1      15.550   4.434   1.259  1.00  0.00     0.074 A 
ATOM     21  C   UNL     1      14.688   3.844   0.262  1.00  0.00     0.031 C 
ATOM     22  C   UNL     1      13.323   1.730   6.716  1.00  0.00     0.029 A 
ATOM     23  C   UNL     1      14.424   2.678   6.616  1.00  0.00     0.049 A 
ATOM     24  H   UNL     1      15.108   3.656   4.905  1.00  0.00     0.167 HD
ATOM     25  C   UNL     1      16.521   5.335   1.004  1.00  0.00     0.034 A 
ATOM     26  C   UNL     1      15.199   3.097   7.633  1.00  0.00     0.034 A 
ATOM     27  C   UNL     1      17.349   5.902   2.031  1.00  0.00     0.049 A 
ATOM     28  C   UNL     1      16.316   4.049   7.301  1.00  0.00     0.074 A 
ATOM     29  C   UNL     1      18.376   6.815   1.902  1.00  0.00     0.029 A 
ATOM     30  N   UNL     1      17.251   5.585   3.379  1.00  0.00    -0.354 N 
ATOM     31  N   UNL     1      16.615   4.598   6.146  1.00  0.00    -0.248 NA
ATOM     32  C   UNL     1      17.201   4.445   8.402  1.00  0.00     0.031 C 
ATOM     33  C   UNL     1      18.931   7.015   3.169  1.00  0.00     0.029 A 
ATOM     34  C   UNL     1      18.220   6.262   4.093  1.00  0.00     0.049 A 
ATOM     35  H   UNL     1      16.589   4.970   3.769  1.00  0.00     0.167 HD
ATOM     36  C   UNL     1      17.709   5.417   6.384  1.00  0.00     0.074 A 
ATOM     37  C   UNL     1      17.996   5.320   7.802  1.00  0.00     0.031 C 
ATOM     38  C   UNL     1      18.434   6.163   5.514  1.00  0.00     0.034 A 
BRANCH  25  39
ATOM     39  C   UNL     1      16.781   5.695  -0.428  1.00  0.00     0.023 A 
ATOM     40  C   UNL     1      15.905   6.547  -1.126  1.00  0.00     0.012 A 
ATOM     41  C   UNL     1      17.930   5.198  -1.074  1.00  0.00     0.148 A 
ATOM     42  C   UNL     1      16.161   6.886  -2.455  1.00  0.00     0.002 A 
ATOM     43  C   UNL     1      18.201   5.573  -2.381  1.00  0.00     0.091 A 
ATOM     44  F   UNL     1      18.729   4.361  -0.396  1.00  0.00    -0.205 F 
ATOM     45  C   UNL     1      17.313   6.409  -3.078  1.00  0.00     0.022 A 
BRANCH  43  46
ATOM     46  S   UNL     1      19.689   5.065  -3.248  1.00  0.00     0.127 S 
ATOM     47  O   UNL     1      19.135   4.300  -4.363  1.00  0.00    -0.237 OA
ATOM     48  O   UNL     1      20.277   6.349  -3.617  1.00  0.00    -0.237 OA
ATOM     49  O   UNL     1      20.467   4.282  -2.293  1.00  0.00    -0.744 OA
ENDBRANCH  43  46
ENDBRANCH  25  39
BRANCH  26  50
ATOM     50  C   UNL     1      14.996   2.581   9.018  1.00  0.00     0.023 A 
ATOM     51  C   UNL     1      14.659   3.467  10.058  1.00  0.00     0.012 A 
ATOM     52  C   UNL     1      15.164   1.212   9.316  1.00  0.00     0.148 A 
ATOM     53  C   UNL     1      14.540   3.009  11.373  1.00  0.00     0.002 A 
ATOM     54  C   UNL     1      14.985   0.753  10.616  1.00  0.00     0.091 A 
ATOM     55  F   UNL     1      15.508   0.380   8.322  1.00  0.00    -0.205 F 
ATOM     56  C   UNL     1      14.695   1.653  11.650  1.00  0.00     0.022 A 
BRANCH  54  57
ATOM     57  S   UNL     1      15.047  -0.993  11.031  1.00  0.00     0.127 S 
ATOM     58  O   UNL     1      16.343  -1.097  11.696  1.00  0.00    -0.237 OA
ATOM     59  O   UNL     1      13.888  -1.139  11.914  1.00  0.00    -0.237 OA
ATOM     60  O   UNL     1      14.922  -1.701   9.763  1.00  0.00    -0.744 OA
ENDBRANCH  54  57
ENDBRANCH  26  50
BRANCH  38  61
ATOM     61  C   UNL     1      19.582   6.947   6.082  1.00  0.00     0.023 A 
ATOM     62  C   UNL     1      20.755   6.278   6.482  1.00  0.00     0.012 A 
ATOM     63  C   UNL     1      19.528   8.353   6.128  1.00  0.00     0.148 A 
ATOM     64  C   UNL     1      21.851   7.000   6.950  1.00  0.00     0.002 A 
ATOM     65  C   UNL     1      20.644   9.067   6.538  1.00  0.00     0.091 A 
ATOM     66  F   UNL     1      18.392   8.961   5.755  1.00  0.00    -0.205 F 
ATOM     67  C   UNL     1      21.800   8.392   6.963  1.00  0.00     0.022 A 
BRANCH  65  68
ATOM     68  S   UNL     1      20.710  10.859   6.480  1.00  0.00     0.127 S 
ATOM     69  O   UNL     1      20.718  11.202   7.901  1.00  0.00    -0.237 OA
ATOM     70  O   UNL     1      21.976  11.098   5.786  1.00  0.00    -0.237 OA
ATOM     71  O   UNL     1      19.526  11.284   5.745  1.00  0.00    -0.744 OA
ENDBRANCH  65  68
ENDBRANCH  38  61
ENDBRANCH  12  13
ENDBRANCH   5   7
ENDBRANCH   4   5
ENDBRANCH   3   4
ENDBRANCH   2   3
ENDBRANCH   1   2
BRANCH   1  72
ATOM     72  C   UNL     1       7.717  -1.352   3.737  1.00  0.00     0.202 C 
BRANCH  72  73
ATOM     73  C   UNL     1       7.140  -1.495   5.143  1.00  0.00     0.261 C 
BRANCH  73  74
ATOM     74  O   UNL     1       5.779  -1.039   5.097  1.00  0.00    -0.459 OA
BRANCH  74  75
ATOM     75  C   UNL     1       5.659   0.307   5.303  1.00  0.00     0.365 C 
ATOM     76  O   UNL     1       6.481   1.004   5.887  1.00  0.00    -0.245 OA
BRANCH  75  77
ATOM     77  C   UNL     1       4.332   0.811   4.711  1.00  0.00     0.295 C 
ATOM     78  C   UNL     1       3.538   1.399   5.863  1.00  0.00     0.083 C 
ATOM     79  N   UNL     1       4.558   1.949   3.785  1.00  0.00    -0.319 N 
ATOM     80  C   UNL     1       4.033   2.838   5.951  1.00  0.00     0.068 C 
ATOM     81  C   UNL     1       4.748   3.128   4.632  1.00  0.00     0.263 C 
ATOM     82  H   UNL     1       5.391   1.756   3.228  1.00  0.00     0.349 HD
BRANCH  79  83
ATOM     83  C   UNL     1       3.623   2.117   2.663  1.00  0.00     0.307 C 
BRANCH  83  84
ATOM     84  C   UNL     1       2.149   2.030   2.995  1.00  0.00     0.084 A 
ATOM     85  C   UNL     1       1.514   0.779   2.857  1.00  0.00     0.017 A 
ATOM     86  C   UNL     1       1.404   3.073   3.575  1.00  0.00     0.278 A 
ATOM     87  C   UNL     1       0.246   0.551   3.395  1.00  0.00     0.001 A 
ATOM     88  C   UNL     1       0.150   2.835   4.158  1.00  0.00     0.086 A 
ATOM     89  C   UNL     1      -0.414   1.564   4.085  1.00  0.00     0.007 A 
BRANCH  86  90
ATOM     90  N   UNL     1       1.883   4.451   3.573  1.00  0.00     0.063 N 
ATOM     91  O   UNL     1       1.749   5.103   4.618  1.00  0.00    -0.258 OA
ATOM     92  O   UNL     1       2.337   4.894   2.510  1.00  0.00    -0.258 OA
ENDBRANCH  86  90
ENDBRANCH  83  84
ENDBRANCH  79  83
ENDBRANCH  75  77
ENDBRANCH  74  75
ENDBRANCH  73  74
ENDBRANCH  72  73
ENDBRANCH   1  72
TORSDOF 20
