REMARK SMILES C[N@@H+](CC(=O)OCCOCCOC(=O)c1ccc(-c2c3nc(c(-c4cccc(S(=O)(=O)[O-])c4F)c4ccc([nH]4)c(-c4cccc(S(=O)(=O)[O-])c4F)c4nc(c(-c5cccc(S(=O)(=O)[O-])c5F)c5ccc2[nH]5)C=C4)C=C3)cc1)Cc1cccc2c1OCCO2
REMARK SMILES IDX 9 1 8 2 7 3 6 4 4 5 5 6 3 7 2 8 1 9 78 11 79 12 80 13 84 14
REMARK SMILES IDX 81 15 83 16 85 17 82 18 88 19 86 20 87 21 10 22 11 23 12 24
REMARK SMILES IDX 13 25 14 26 15 27 16 28 77 29 17 30 76 31 18 32 19 33 20 34
REMARK SMILES IDX 70 35 21 36 75 37 69 38 71 39 22 40 74 41 68 42 67 43 23 45
REMARK SMILES IDX 55 46 35 47 54 48 36 49 39 50 53 51 72 52 37 53 38 54 52 56
REMARK SMILES IDX 73 57 40 58 24 59 25 60 33 61 26 62 28 63 34 64 27 65 29 66
REMARK SMILES IDX 30 67 31 68 32 69 56 70 57 71 65 72 58 73 60 74 66 75 59 76
REMARK SMILES IDX 61 77 62 78 63 79 64 80 41 81 42 82 50 83 43 84 45 85 51 86
REMARK SMILES IDX 44 87 46 88 47 89 48 90 49 91
REMARK H PARENT 2 10 71 44 39 55
REMARK Flexibility Score: inf
ROOT
ATOM      1  O   UNL     1      -2.449  -1.692  -3.506  1.00  0.00    -0.374 OA
ENDROOT
BRANCH   1   2
ATOM      2  C   UNL     1      -2.937  -0.369  -3.272  1.00  0.00     0.202 C 
BRANCH   2   3
ATOM      3  C   UNL     1      -2.748   0.489  -1.991  1.00  0.00     0.261 C 
BRANCH   3   4
ATOM      4  O   UNL     1      -1.869   0.056  -0.946  1.00  0.00    -0.459 OA
BRANCH   4   5
ATOM      5  C   UNL     1      -2.365  -0.862  -0.078  1.00  0.00     0.361 C 
ATOM      6  O   UNL     1      -3.533  -1.244  -0.090  1.00  0.00    -0.245 OA
BRANCH   5   7
ATOM      7  C   UNL     1      -1.356  -1.351   0.970  1.00  0.00     0.386 C 
BRANCH   7   8
ATOM      8  N   UNL     1       0.076  -1.359   0.645  1.00  0.00    -0.324 N 
ATOM      9  C   UNL     1       0.812  -0.130   0.832  1.00  0.00     0.333 C 
ATOM     10  H   UNL     1       0.294  -1.922   1.467  1.00  0.00     0.348 HD
BRANCH   8  11
ATOM     11  C   UNL     1       0.699  -2.461  -0.081  1.00  0.00     0.303 C 
BRANCH  11  12
ATOM     12  C   UNL     1       0.503  -2.432  -1.577  1.00  0.00     0.052 A 
ATOM     13  C   UNL     1       0.353  -0.832  -2.404  1.00  0.00     0.014 A 
ATOM     14  C   UNL     1       0.068  -3.935  -2.476  1.00  0.00     0.170 A 
ATOM     15  C   UNL     1      -0.302  -0.744  -4.089  1.00  0.00     0.005 A 
ATOM     16  C   UNL     1      -0.584  -3.838  -4.150  1.00  0.00     0.161 A 
ATOM     17  O   UNL     1       0.197  -5.167  -1.902  1.00  0.00    -0.486 OA
ATOM     18  C   UNL     1      -0.749  -2.255  -4.976  1.00  0.00     0.050 A 
ATOM     19  O   UNL     1      -0.942  -4.977  -4.807  1.00  0.00    -0.486 OA
ATOM     20  C   UNL     1       0.172  -6.165  -2.943  1.00  0.00     0.271 C 
ATOM     21  C   UNL     1      -1.054  -6.046  -3.861  1.00  0.00     0.271 C 
ENDBRANCH  11  12
ENDBRANCH   8  11
ENDBRANCH   7   8
ENDBRANCH   5   7
ENDBRANCH   4   5
ENDBRANCH   3   4
ENDBRANCH   2   3
ENDBRANCH   1   2
BRANCH   1  22
ATOM     22  C   UNL     1      -1.137  -2.216  -2.902  1.00  0.00     0.202 C 
BRANCH  22  23
ATOM     23  C   UNL     1       0.902  -2.401  -3.688  1.00  0.00     0.261 C 
BRANCH  23  24
ATOM     24  O   UNL     1       1.940  -1.257  -4.007  1.00  0.00    -0.460 OA
BRANCH  24  25
ATOM     25  C   UNL     1       2.196  -0.917  -5.293  1.00  0.00     0.338 C 
ATOM     26  O   UNL     1       2.032  -1.584  -6.299  1.00  0.00    -0.246 OA
BRANCH  25  27
ATOM     27  C   UNL     1       2.322   0.552  -5.270  1.00  0.00     0.060 A 
ATOM     28  C   UNL     1       1.446   1.291  -6.082  1.00  0.00     0.016 A 
ATOM     29  C   UNL     1       3.187   1.187  -4.375  1.00  0.00     0.016 A 
ATOM     30  C   UNL     1       1.475   2.678  -6.046  1.00  0.00     0.010 A 
ATOM     31  C   UNL     1       3.240   2.576  -4.361  1.00  0.00     0.010 A 
ATOM     32  C   UNL     1       2.431   3.313  -5.245  1.00  0.00    -0.014 A 
BRANCH  32  33
ATOM     33  C   UNL     1       2.874   4.665  -5.634  1.00  0.00     0.031 A 
ATOM     34  C   UNL     1       4.033   4.726  -6.593  1.00  0.00     0.074 A 
ATOM     35  C   UNL     1       2.282   5.773  -5.162  1.00  0.00     0.049 A 
ATOM     36  N   UNL     1       4.701   5.757  -7.026  1.00  0.00    -0.248 NA
ATOM     37  C   UNL     1       4.513   3.435  -7.128  1.00  0.00     0.031 C 
ATOM     38  C   UNL     1       1.133   5.806  -4.258  1.00  0.00     0.029 A 
ATOM     39  N   UNL     1       2.595   7.090  -5.364  1.00  0.00    -0.354 N 
ATOM     40  C   UNL     1       5.694   5.237  -7.848  1.00  0.00     0.074 A 
ATOM     41  C   UNL     1       5.559   3.802  -7.845  1.00  0.00     0.031 C 
ATOM     42  C   UNL     1       0.860   7.088  -3.953  1.00  0.00     0.029 A 
ATOM     43  C   UNL     1       1.833   7.954  -4.614  1.00  0.00     0.049 A 
ATOM     44  H   UNL     1       3.297   7.390  -5.986  1.00  0.00     0.167 HD
ATOM     45  C   UNL     1       6.630   5.902  -8.559  1.00  0.00     0.034 A 
ATOM     46  C   UNL     1       1.946   9.289  -4.466  1.00  0.00     0.034 A 
ATOM     47  C   UNL     1       6.741   7.330  -8.557  1.00  0.00     0.049 A 
ATOM     48  C   UNL     1       3.025  10.006  -5.240  1.00  0.00     0.074 A 
ATOM     49  C   UNL     1       7.637   8.126  -9.242  1.00  0.00     0.029 A 
ATOM     50  N   UNL     1       5.922   8.175  -7.823  1.00  0.00    -0.354 N 
ATOM     51  N   UNL     1       3.915   9.514  -6.070  1.00  0.00    -0.248 NA
ATOM     52  C   UNL     1       3.098  11.466  -5.084  1.00  0.00     0.031 C 
ATOM     53  C   UNL     1       7.376   9.455  -8.901  1.00  0.00     0.029 A 
ATOM     54  C   UNL     1       6.290   9.487  -8.038  1.00  0.00     0.049 A 
ATOM     55  H   UNL     1       5.188   7.882  -7.236  1.00  0.00     0.167 HD
ATOM     56  C   UNL     1       4.616  10.604  -6.574  1.00  0.00     0.074 A 
ATOM     57  C   UNL     1       4.042  11.784  -5.959  1.00  0.00     0.031 C 
ATOM     58  C   UNL     1       5.645  10.636  -7.457  1.00  0.00     0.034 A 
BRANCH  45  59
ATOM     59  C   UNL     1       7.584   5.090  -9.392  1.00  0.00     0.023 A 
ATOM     60  C   UNL     1       7.121   4.433 -10.550  1.00  0.00     0.012 A 
ATOM     61  C   UNL     1       8.945   5.000  -9.043  1.00  0.00     0.148 A 
ATOM     62  C   UNL     1       7.992   3.676 -11.333  1.00  0.00     0.002 A 
ATOM     63  C   UNL     1       9.816   4.285  -9.855  1.00  0.00     0.091 A 
ATOM     64  F   UNL     1       9.357   5.604  -7.920  1.00  0.00    -0.205 F 
ATOM     65  C   UNL     1       9.340   3.612 -10.992  1.00  0.00     0.022 A 
BRANCH  63  66
ATOM     66  S   UNL     1      11.583   4.205  -9.547  1.00  0.00     0.127 S 
ATOM     67  O   UNL     1      11.767   2.787  -9.243  1.00  0.00    -0.237 OA
ATOM     68  O   UNL     1      12.135   4.630 -10.833  1.00  0.00    -0.237 OA
ATOM     69  O   UNL     1      11.843   5.115  -8.440  1.00  0.00    -0.744 OA
ENDBRANCH  63  66
ENDBRANCH  45  59
BRANCH  46  70
ATOM     70  C   UNL     1       1.011  10.035  -3.576  1.00  0.00     0.023 A 
ATOM     71  C   UNL     1       0.095  10.947  -4.136  1.00  0.00     0.012 A 
ATOM     72  C   UNL     1       1.024   9.850  -2.180  1.00  0.00     0.148 A 
ATOM     73  C   UNL     1      -0.761  11.689  -3.321  1.00  0.00     0.002 A 
ATOM     74  C   UNL     1       0.130  10.550  -1.378  1.00  0.00     0.091 A 
ATOM     75  F   UNL     1       1.913   8.990  -1.662  1.00  0.00    -0.205 F 
ATOM     76  C   UNL     1      -0.750  11.485  -1.944  1.00  0.00     0.022 A 
BRANCH  74  77
ATOM     77  S   UNL     1      -0.011  10.257   0.389  1.00  0.00     0.127 S 
ATOM     78  O   UNL     1       0.566  11.480   0.942  1.00  0.00    -0.237 OA
ATOM     79  O   UNL     1      -1.458  10.125   0.559  1.00  0.00    -0.237 OA
ATOM     80  O   UNL     1       0.736   9.032   0.644  1.00  0.00    -0.744 OA
ENDBRANCH  74  77
ENDBRANCH  46  70
BRANCH  58  81
ATOM     81  C   UNL     1       6.167  11.983  -7.874  1.00  0.00     0.023 A 
ATOM     82  C   UNL     1       6.947  12.747  -6.987  1.00  0.00     0.012 A 
ATOM     83  C   UNL     1       5.963  12.437  -9.193  1.00  0.00     0.148 A 
ATOM     84  C   UNL     1       7.491  13.963  -7.397  1.00  0.00     0.002 A 
ATOM     85  C   UNL     1       6.555  13.620  -9.611  1.00  0.00     0.091 A 
ATOM     86  F   UNL     1       5.206  11.695 -10.014  1.00  0.00    -0.205 F 
ATOM     87  C   UNL     1       7.307  14.391  -8.711  1.00  0.00     0.022 A 
BRANCH  85  88
ATOM     88  S   UNL     1       6.463  14.192 -11.310  1.00  0.00     0.127 S 
ATOM     89  O   UNL     1       5.591  15.359 -11.183  1.00  0.00    -0.237 OA
ATOM     90  O   UNL     1       7.862  14.504 -11.606  1.00  0.00    -0.237 OA
ATOM     91  O   UNL     1       5.913  13.085 -12.080  1.00  0.00    -0.744 OA
ENDBRANCH  85  88
ENDBRANCH  58  81
ENDBRANCH  32  33
ENDBRANCH  25  27
ENDBRANCH  24  25
ENDBRANCH  23  24
ENDBRANCH  22  23
ENDBRANCH   1  22
TORSDOF 20
