REMARK SMILES CC(=O)Oc1ccc(Br)cc1C(=O)NCC(=O)OCCOCCOC(=O)c1ccc(-c2c3nc(c(-c4cccc(S(=O)(=O)[O-])c4F)c4ccc([nH]4)c(-c4cccc(S(=O)(=O)[O-])c4F)c4nc(c(-c5cccc(S(=O)(=O)[O-])c5F)c5ccc2[nH]5)C=C4)C=C3)cc1
REMARK SMILES IDX 20 1 19 2 18 3 16 4 17 5 15 6 14 7 12 8 13 9 11 11 5 12 6 13
REMARK SMILES IDX 7 14 10 15 8 16 9 17 4 18 2 19 1 20 3 21 21 22 22 23 23 24
REMARK SMILES IDX 24 25 25 26 26 27 27 28 28 29 89 30 29 31 88 32 30 33 31 34
REMARK SMILES IDX 32 35 82 36 33 37 87 38 81 39 83 40 34 41 86 42 80 43 79 44
REMARK SMILES IDX 35 46 67 47 47 48 66 49 48 50 51 51 65 52 84 53 49 54 50 55
REMARK SMILES IDX 64 57 85 58 52 59 36 60 37 61 45 62 38 63 40 64 46 65 39 66
REMARK SMILES IDX 41 67 42 68 43 69 44 70 68 71 69 72 77 73 70 74 72 75 78 76
REMARK SMILES IDX 71 77 73 78 74 79 75 80 76 81 53 82 54 83 62 84 55 85 57 86
REMARK SMILES IDX 63 87 56 88 58 89 59 90 60 91 61 92
REMARK H PARENT 14 10 83 45 51 56
REMARK Flexibility Score: inf
ROOT
ATOM      1  C   UNL     1       4.631  -0.908   1.500  1.00  0.00     0.202 C 
ENDROOT
BRANCH   1   2
ATOM      2  C   UNL     1       3.145  -0.899   1.140  1.00  0.00     0.261 C 
BRANCH   2   3
ATOM      3  O   UNL     1       2.926  -1.441  -0.172  1.00  0.00    -0.462 OA
BRANCH   3   4
ATOM      4  C   UNL     1       2.519  -0.582  -1.147  1.00  0.00     0.325 C 
ATOM      5  O   UNL     1       2.241   0.599  -0.977  1.00  0.00    -0.250 OA
BRANCH   4   6
ATOM      6  C   UNL     1       2.456  -1.258  -2.520  1.00  0.00     0.239 C 
BRANCH   6   7
ATOM      7  N   UNL     1       2.923  -2.630  -2.525  1.00  0.00    -0.341 N 
ATOM      8  C   UNL     1       2.318  -3.846  -2.425  1.00  0.00     0.255 C 
ATOM      9  O   UNL     1       3.088  -4.809  -2.501  1.00  0.00    -0.269 OA
ATOM     10  H   UNL     1       3.900  -2.699  -2.624  1.00  0.00     0.164 HD
BRANCH   8  11
ATOM     11  C   UNL     1       0.853  -4.114  -2.313  1.00  0.00     0.083 A 
ATOM     12  C   UNL     1      -0.150  -3.335  -1.718  1.00  0.00     0.143 A 
ATOM     13  C   UNL     1      -1.486  -3.783  -1.696  1.00  0.00     0.049 A 
ATOM     14  C   UNL     1      -1.831  -5.032  -2.205  1.00  0.00     0.019 A 
ATOM     15  C   UNL     1       0.473  -5.376  -2.829  1.00  0.00     0.033 A 
ATOM     16  C   UNL     1      -0.846  -5.826  -2.770  1.00  0.00     0.019 A 
ATOM     17  Br  UNL     1      -1.296  -7.522  -3.471  1.00  0.00    -0.051 Br
BRANCH  12  18
ATOM     18  O   UNL     1       0.085  -2.048  -1.207  1.00  0.00    -0.426 OA
BRANCH  18  19
ATOM     19  C   UNL     1      -0.405  -1.759   0.068  1.00  0.00     0.308 C 
ATOM     20  C   UNL     1      -0.490  -0.273   0.260  1.00  0.00     0.139 C 
ATOM     21  O   UNL     1      -0.732  -2.573   0.918  1.00  0.00    -0.252 OA
ENDBRANCH  18  19
ENDBRANCH  12  18
ENDBRANCH   8  11
ENDBRANCH   6   7
ENDBRANCH   4   6
ENDBRANCH   3   4
ENDBRANCH   2   3
ENDBRANCH   1   2
BRANCH   1  22
ATOM     22  O   UNL     1       5.465  -0.042   0.727  1.00  0.00    -0.374 OA
BRANCH  22  23
ATOM     23  C   UNL     1       5.826  -0.475  -0.583  1.00  0.00     0.202 C 
BRANCH  23  24
ATOM     24  C   UNL     1       6.946  -1.514  -0.700  1.00  0.00     0.261 C 
BRANCH  24  25
ATOM     25  O   UNL     1       6.641  -2.739  -0.017  1.00  0.00    -0.460 OA
BRANCH  25  26
ATOM     26  C   UNL     1       7.308  -2.899   1.150  1.00  0.00     0.338 C 
ATOM     27  O   UNL     1       8.158  -2.149   1.615  1.00  0.00    -0.246 OA
BRANCH  26  28
ATOM     28  C   UNL     1       6.769  -4.039   1.913  1.00  0.00     0.060 A 
ATOM     29  C   UNL     1       6.524  -3.833   3.277  1.00  0.00     0.016 A 
ATOM     30  C   UNL     1       6.592  -5.302   1.343  1.00  0.00     0.016 A 
ATOM     31  C   UNL     1       6.179  -4.905   4.094  1.00  0.00     0.010 A 
ATOM     32  C   UNL     1       6.250  -6.380   2.167  1.00  0.00     0.010 A 
ATOM     33  C   UNL     1       6.093  -6.194   3.553  1.00  0.00    -0.014 A 
BRANCH  33  34
ATOM     34  C   UNL     1       6.004  -7.356   4.467  1.00  0.00     0.031 A 
ATOM     35  C   UNL     1       7.256  -8.133   4.779  1.00  0.00     0.074 A 
ATOM     36  C   UNL     1       4.834  -7.699   5.033  1.00  0.00     0.049 A 
ATOM     37  N   UNL     1       7.414  -9.174   5.554  1.00  0.00    -0.248 NA
ATOM     38  C   UNL     1       8.496  -7.674   4.130  1.00  0.00     0.031 C 
ATOM     39  C   UNL     1       3.559  -7.019   4.812  1.00  0.00     0.029 A 
ATOM     40  N   UNL     1       4.528  -8.720   5.897  1.00  0.00    -0.354 N 
ATOM     41  C   UNL     1       8.759  -9.511   5.466  1.00  0.00     0.074 A 
ATOM     42  C   UNL     1       9.373  -8.573   4.553  1.00  0.00     0.031 C 
ATOM     43  C   UNL     1       2.599  -7.659   5.502  1.00  0.00     0.029 A 
ATOM     44  C   UNL     1       3.189  -8.803   6.196  1.00  0.00     0.049 A 
ATOM     45  H   UNL     1       5.202  -9.334   6.267  1.00  0.00     0.167 HD
ATOM     46  C   UNL     1       9.428 -10.503   6.101  1.00  0.00     0.034 A 
ATOM     47  C   UNL     1       2.516  -9.710   6.930  1.00  0.00     0.034 A 
ATOM     48  C   UNL     1       8.818 -11.420   7.026  1.00  0.00     0.049 A 
ATOM     49  C   UNL     1       3.280 -10.816   7.612  1.00  0.00     0.074 A 
ATOM     50  C   UNL     1       9.418 -12.427   7.760  1.00  0.00     0.029 A 
ATOM     51  N   UNL     1       7.467 -11.449   7.335  1.00  0.00    -0.354 N 
ATOM     52  N   UNL     1       4.572 -11.046   7.619  1.00  0.00    -0.248 NA
ATOM     53  C   UNL     1       2.499 -11.767   8.416  1.00  0.00     0.031 C 
ATOM     54  C   UNL     1       8.424 -13.082   8.495  1.00  0.00     0.029 A 
ATOM     55  C   UNL     1       7.210 -12.465   8.239  1.00  0.00     0.049 A 
ATOM     56  H   UNL     1       6.790 -10.837   6.966  1.00  0.00     0.167 HD
ATOM     57  C   UNL     1       4.761 -12.144   8.451  1.00  0.00     0.074 A 
ATOM     58  C   UNL     1       3.453 -12.520   8.947  1.00  0.00     0.031 C 
ATOM     59  C   UNL     1       5.910 -12.792   8.766  1.00  0.00     0.034 A 
BRANCH  46  60
ATOM     60  C   UNL     1      10.905 -10.630   5.839  1.00  0.00     0.023 A 
ATOM     61  C   UNL     1      11.794  -9.687   6.392  1.00  0.00     0.012 A 
ATOM     62  C   UNL     1      11.418 -11.710   5.094  1.00  0.00     0.148 A 
ATOM     63  C   UNL     1      13.169  -9.799   6.183  1.00  0.00     0.002 A 
ATOM     64  C   UNL     1      12.792 -11.838   4.925  1.00  0.00     0.091 A 
ATOM     65  F   UNL     1      10.555 -12.583   4.556  1.00  0.00    -0.205 F 
ATOM     66  C   UNL     1      13.667 -10.879   5.459  1.00  0.00     0.022 A 
BRANCH  64  67
ATOM     67  S   UNL     1      13.536 -13.233   4.073  1.00  0.00     0.127 S 
ATOM     68  O   UNL     1      13.997 -12.611   2.833  1.00  0.00    -0.237 OA
ATOM     69  O   UNL     1      14.606 -13.622   4.993  1.00  0.00    -0.237 OA
ATOM     70  O   UNL     1      12.478 -14.222   3.921  1.00  0.00    -0.744 OA
ENDBRANCH  64  67
ENDBRANCH  46  60
BRANCH  47  71
ATOM     71  C   UNL     1       1.039  -9.588   7.092  1.00  0.00     0.023 A 
ATOM     72  C   UNL     1       0.504  -9.241   8.347  1.00  0.00     0.012 A 
ATOM     73  C   UNL     1       0.166  -9.795   6.005  1.00  0.00     0.148 A 
ATOM     74  C   UNL     1      -0.876  -9.128   8.524  1.00  0.00     0.002 A 
ATOM     75  C   UNL     1      -1.203  -9.629   6.176  1.00  0.00     0.091 A 
ATOM     76  F   UNL     1       0.694 -10.145   4.824  1.00  0.00    -0.205 F 
ATOM     77  C   UNL     1      -1.728  -9.311   7.438  1.00  0.00     0.022 A 
BRANCH  75  78
ATOM     78  S   UNL     1      -2.363  -9.726   4.808  1.00  0.00     0.127 S 
ATOM     79  O   UNL     1      -3.049 -10.985   5.087  1.00  0.00    -0.237 OA
ATOM     80  O   UNL     1      -3.174  -8.525   5.012  1.00  0.00    -0.237 OA
ATOM     81  O   UNL     1      -1.549  -9.702   3.601  1.00  0.00    -0.744 OA
ENDBRANCH  75  78
ENDBRANCH  47  71
BRANCH  59  82
ATOM     82  C   UNL     1       5.819 -13.958   9.716  1.00  0.00     0.023 A 
ATOM     83  C   UNL     1       5.267 -15.177   9.277  1.00  0.00     0.012 A 
ATOM     84  C   UNL     1       6.355 -13.870  11.017  1.00  0.00     0.148 A 
ATOM     85  C   UNL     1       5.220 -16.282  10.127  1.00  0.00     0.002 A 
ATOM     86  C   UNL     1       6.348 -14.989  11.842  1.00  0.00     0.091 A 
ATOM     87  F   UNL     1       6.861 -12.697  11.423  1.00  0.00    -0.205 F 
ATOM     88  C   UNL     1       5.771 -16.191  11.403  1.00  0.00     0.022 A 
BRANCH  86  89
ATOM     89  S   UNL     1       7.121 -14.992  13.464  1.00  0.00     0.127 S 
ATOM     90  O   UNL     1       5.957 -14.970  14.349  1.00  0.00    -0.237 OA
ATOM     91  O   UNL     1       7.858 -16.256  13.457  1.00  0.00    -0.237 OA
ATOM     92  O   UNL     1       7.964 -13.804  13.508  1.00  0.00    -0.744 OA
ENDBRANCH  86  89
ENDBRANCH  59  82
ENDBRANCH  33  34
ENDBRANCH  26  28
ENDBRANCH  25  26
ENDBRANCH  24  25
ENDBRANCH  23  24
ENDBRANCH  22  23
ENDBRANCH   1  22
TORSDOF 21
