REMARK SMILES CC(C)(C)NS(=O)(=O)c1csc(C(=O)Nc2ccccc2C(=O)OCCOCCOC(=O)c2ccc(-c3c4nc(c(-c5cccc(S(=O)(=O)[O-])c5F)c5ccc([nH]5)c(-c5cccc(S(=O)(=O)[O-])c5F)c5nc(c(-c6cccc(S(=O)(=O)[O-])c6F)c6ccc3[nH]6)C=C5)C=C4)cc2)c1
REMARK SMILES IDX 26 1 25 2 24 3 22 4 23 5 21 6 16 7 17 8 18 9 20 10 19 11
REMARK SMILES IDX 15 12 13 13 14 14 12 16 9 17 10 18 96 19 11 20 6 21 7 22
REMARK SMILES IDX 8 23 5 24 2 26 1 27 3 28 4 29 27 30 28 31 29 32 30 33 31 34
REMARK SMILES IDX 32 35 33 36 34 37 95 38 35 39 94 40 36 41 37 42 38 43 88 44
REMARK SMILES IDX 39 45 93 46 87 47 89 48 40 49 92 50 86 51 85 52 41 54 73 55
REMARK SMILES IDX 53 56 72 57 54 58 57 59 71 60 90 61 55 62 56 63 70 65 91 66
REMARK SMILES IDX 58 67 42 68 43 69 51 70 44 71 46 72 52 73 45 74 47 75 48 76
REMARK SMILES IDX 49 77 50 78 74 79 75 80 83 81 76 82 78 83 84 84 77 85 79 86
REMARK SMILES IDX 80 87 81 88 82 89 59 90 60 91 68 92 61 93 63 94 69 95 62 96
REMARK SMILES IDX 64 97 65 98 66 99 67 100
REMARK H PARENT 15 15 5 25 89 53 57 64
REMARK Flexibility Score: inf
ROOT
ATOM      1  C   UNL     1       8.127  -0.152  -0.381  1.00  0.00     0.202 C 
ENDROOT
BRANCH   1   2
ATOM      2  C   UNL     1       6.661  -0.364  -0.767  1.00  0.00     0.261 C 
BRANCH   2   3
ATOM      3  O   UNL     1       5.840   0.814  -0.736  1.00  0.00    -0.460 OA
BRANCH   3   4
ATOM      4  C   UNL     1       5.011   0.871   0.331  1.00  0.00     0.340 C 
ATOM      5  O   UNL     1       5.049   0.131   1.303  1.00  0.00    -0.246 OA
BRANCH   4   6
ATOM      6  C   UNL     1       4.059   2.004   0.264  1.00  0.00     0.083 A 
ATOM      7  C   UNL     1       3.396   2.470  -0.887  1.00  0.00     0.056 A 
ATOM      8  C   UNL     1       2.534   3.576  -0.750  1.00  0.00     0.027 A 
ATOM      9  C   UNL     1       2.256   4.139   0.500  1.00  0.00     0.002 A 
ATOM     10  C   UNL     1       3.778   2.590   1.517  1.00  0.00     0.018 A 
ATOM     11  C   UNL     1       2.873   3.640   1.638  1.00  0.00     0.001 A 
BRANCH   7  12
ATOM     12  N   UNL     1       3.459   1.939  -2.192  1.00  0.00    -0.320 N 
ATOM     13  C   UNL     1       3.634   0.664  -2.704  1.00  0.00     0.265 C 
ATOM     14  O   UNL     1       3.968   0.605  -3.890  1.00  0.00    -0.268 OA
ATOM     15  H   UNL     1       3.357   2.624  -2.892  1.00  0.00     0.170 HD
BRANCH  13  16
ATOM     16  C   UNL     1       3.313  -0.516  -1.908  1.00  0.00     0.094 A 
ATOM     17  C   UNL     1       2.607  -1.948  -0.186  1.00  0.00     0.093 A 
ATOM     18  C   UNL     1       3.159  -2.850  -1.066  1.00  0.00     0.087 A 
ATOM     19  C   UNL     1       2.656  -0.630  -0.701  1.00  0.00     0.047 A 
ATOM     20  S   UNL     1       3.733  -2.081  -2.488  1.00  0.00    -0.137 S 
BRANCH  17  21
ATOM     21  S   UNL     1       1.968  -2.313   1.376  1.00  0.00     0.241 S 
ATOM     22  O   UNL     1       2.689  -1.477   2.302  1.00  0.00    -0.207 OA
ATOM     23  O   UNL     1       2.030  -3.756   1.474  1.00  0.00    -0.207 OA
BRANCH  21  24
ATOM     24  N   UNL     1       0.334  -1.927   1.474  1.00  0.00    -0.206 NA
ATOM     25  H   UNL     1      -0.099  -2.401   0.681  1.00  0.00     0.141 HD
BRANCH  24  26
ATOM     26  C   UNL     1      -0.255  -0.556   1.475  1.00  0.00     0.025 C 
ATOM     27  C   UNL     1      -0.366   0.003   0.048  1.00  0.00     0.028 C 
ATOM     28  C   UNL     1       0.471   0.419   2.406  1.00  0.00     0.028 C 
ATOM     29  C   UNL     1      -1.693  -0.729   2.007  1.00  0.00     0.028 C 
ENDBRANCH  24  26
ENDBRANCH  21  24
ENDBRANCH  17  21
ENDBRANCH  13  16
ENDBRANCH   7  12
ENDBRANCH   4   6
ENDBRANCH   3   4
ENDBRANCH   2   3
ENDBRANCH   1   2
BRANCH   1  30
ATOM     30  O   UNL     1       8.455   0.476   0.850  1.00  0.00    -0.374 OA
BRANCH  30  31
ATOM     31  C   UNL     1       7.998   1.796   1.108  1.00  0.00     0.202 C 
BRANCH  31  32
ATOM     32  C   UNL     1       8.338   2.944   0.145  1.00  0.00     0.261 C 
BRANCH  32  33
ATOM     33  O   UNL     1       8.026   2.710  -1.237  1.00  0.00    -0.460 OA
BRANCH  33  34
ATOM     34  C   UNL     1       9.113   2.547  -2.031  1.00  0.00     0.338 C 
ATOM     35  O   UNL     1      10.283   2.546  -1.684  1.00  0.00    -0.246 OA
BRANCH  34  36
ATOM     36  C   UNL     1       8.716   2.235  -3.413  1.00  0.00     0.060 A 
ATOM     37  C   UNL     1       9.081   0.990  -3.942  1.00  0.00     0.016 A 
ATOM     38  C   UNL     1       8.171   3.226  -4.231  1.00  0.00     0.016 A 
ATOM     39  C   UNL     1       8.957   0.752  -5.308  1.00  0.00     0.010 A 
ATOM     40  C   UNL     1       8.056   2.988  -5.603  1.00  0.00     0.010 A 
ATOM     41  C   UNL     1       8.494   1.769  -6.152  1.00  0.00    -0.014 A 
BRANCH  41  42
ATOM     42  C   UNL     1       8.621   1.614  -7.621  1.00  0.00     0.031 A 
ATOM     43  C   UNL     1       9.767   2.286  -8.330  1.00  0.00     0.074 A 
ATOM     44  C   UNL     1       7.732   0.879  -8.310  1.00  0.00     0.049 A 
ATOM     45  N   UNL     1      10.048   2.315  -9.607  1.00  0.00    -0.248 NA
ATOM     46  C   UNL     1      10.720   3.030  -7.489  1.00  0.00     0.031 C 
ATOM     47  C   UNL     1       6.589   0.176  -7.730  1.00  0.00     0.029 A 
ATOM     48  N   UNL     1       7.641   0.624  -9.655  1.00  0.00    -0.354 N 
ATOM     49  C   UNL     1      11.188   3.102  -9.727  1.00  0.00     0.074 A 
ATOM     50  C   UNL     1      11.543   3.540  -8.394  1.00  0.00     0.031 C 
ATOM     51  C   UNL     1       5.892  -0.409  -8.720  1.00  0.00     0.029 A 
ATOM     52  C   UNL     1       6.525  -0.100 -10.000  1.00  0.00     0.049 A 
ATOM     53  H   UNL     1       8.310   0.931 -10.309  1.00  0.00     0.167 HD
ATOM     54  C   UNL     1      11.886   3.419 -10.843  1.00  0.00     0.034 A 
ATOM     55  C   UNL     1       6.058  -0.452 -11.214  1.00  0.00     0.034 A 
ATOM     56  C   UNL     1      11.546   2.959 -12.163  1.00  0.00     0.049 A 
ATOM     57  C   UNL     1       6.845  -0.074 -12.443  1.00  0.00     0.074 A 
ATOM     58  C   UNL     1      12.216   3.184 -13.352  1.00  0.00     0.029 A 
ATOM     59  N   UNL     1      10.436   2.186 -12.469  1.00  0.00    -0.354 N 
ATOM     60  N   UNL     1       7.982   0.573 -12.530  1.00  0.00    -0.248 NA
ATOM     61  C   UNL     1       6.299  -0.501 -13.739  1.00  0.00     0.031 C 
ATOM     62  C   UNL     1      11.497   2.567 -14.381  1.00  0.00     0.029 A 
ATOM     63  C   UNL     1      10.394   1.936 -13.829  1.00  0.00     0.049 A 
ATOM     64  H   UNL     1       9.775   1.863 -11.814  1.00  0.00     0.167 HD
ATOM     65  C   UNL     1       8.305   0.601 -13.883  1.00  0.00     0.074 A 
ATOM     66  C   UNL     1       7.252  -0.113 -14.576  1.00  0.00     0.031 C 
ATOM     67  C   UNL     1       9.368   1.176 -14.498  1.00  0.00     0.034 A 
BRANCH  54  68
ATOM     68  C   UNL     1      13.107   4.286 -10.684  1.00  0.00     0.023 A 
ATOM     69  C   UNL     1      14.280   3.742 -10.122  1.00  0.00     0.012 A 
ATOM     70  C   UNL     1      13.115   5.618 -11.143  1.00  0.00     0.148 A 
ATOM     71  C   UNL     1      15.431   4.517  -9.992  1.00  0.00     0.002 A 
ATOM     72  C   UNL     1      14.278   6.373 -11.047  1.00  0.00     0.091 A 
ATOM     73  F   UNL     1      11.984   6.125 -11.653  1.00  0.00    -0.205 F 
ATOM     74  C   UNL     1      15.434   5.828 -10.463  1.00  0.00     0.022 A 
BRANCH  72  75
ATOM     75  S   UNL     1      14.403   8.045 -11.692  1.00  0.00     0.127 S 
ATOM     76  O   UNL     1      14.436   8.834 -10.462  1.00  0.00    -0.237 OA
ATOM     77  O   UNL     1      15.671   8.001 -12.421  1.00  0.00    -0.237 OA
ATOM     78  O   UNL     1      13.229   8.240 -12.530  1.00  0.00    -0.744 OA
ENDBRANCH  72  75
ENDBRANCH  54  68
BRANCH  55  79
ATOM     79  C   UNL     1       4.797  -1.239 -11.324  1.00  0.00     0.023 A 
ATOM     80  C   UNL     1       4.852  -2.581 -11.745  1.00  0.00     0.012 A 
ATOM     81  C   UNL     1       3.551  -0.672 -10.991  1.00  0.00     0.148 A 
ATOM     82  C   UNL     1       3.686  -3.338 -11.860  1.00  0.00     0.002 A 
ATOM     83  C   UNL     1       2.399  -1.447 -11.057  1.00  0.00     0.091 A 
ATOM     84  F   UNL     1       3.517   0.613 -10.612  1.00  0.00    -0.205 F 
ATOM     85  C   UNL     1       2.462  -2.776 -11.506  1.00  0.00     0.022 A 
BRANCH  83  86
ATOM     86  S   UNL     1       0.797  -0.842 -10.511  1.00  0.00     0.127 S 
ATOM     87  O   UNL     1       0.087  -0.690 -11.779  1.00  0.00    -0.237 OA
ATOM     88  O   UNL     1       0.326  -1.944  -9.671  1.00  0.00    -0.237 OA
ATOM     89  O   UNL     1       1.067   0.392  -9.787  1.00  0.00    -0.744 OA
ENDBRANCH  83  86
ENDBRANCH  55  79
BRANCH  67  90
ATOM     90  C   UNL     1       9.472   1.037 -15.995  1.00  0.00     0.023 A 
ATOM     91  C   UNL     1       8.609   1.778 -16.827  1.00  0.00     0.012 A 
ATOM     92  C   UNL     1      10.476   0.238 -16.577  1.00  0.00     0.148 A 
ATOM     93  C   UNL     1       8.724   1.701 -18.215  1.00  0.00     0.002 A 
ATOM     94  C   UNL     1      10.616   0.203 -17.959  1.00  0.00     0.091 A 
ATOM     95  F   UNL     1      11.277  -0.472 -15.769  1.00  0.00    -0.205 F 
ATOM     96  C   UNL     1       9.733   0.925 -18.780  1.00  0.00     0.022 A 
BRANCH  94  97
ATOM     97  S   UNL     1      11.945  -0.692 -18.770  1.00  0.00     0.127 S 
ATOM     98  O   UNL     1      11.233  -1.839 -19.332  1.00  0.00    -0.237 OA
ATOM     99  O   UNL     1      12.416   0.278 -19.761  1.00  0.00    -0.237 OA
ATOM    100  O   UNL     1      12.912  -1.005 -17.727  1.00  0.00    -0.744 OA
ENDBRANCH  94  97
ENDBRANCH  67  90
ENDBRANCH  41  42
ENDBRANCH  34  36
ENDBRANCH  33  34
ENDBRANCH  32  33
ENDBRANCH  31  32
ENDBRANCH  30  31
ENDBRANCH   1  30
TORSDOF 22
