REMARK SMILES COc1cc2c(CC(=O)OCCOCCOC(=O)c3ccc(-c4c5nc(c(-c6cccc(S(=O)(=O)[O-])c6F)c6ccc([nH]6)c(-c6cccc(S(=O)(=O)[O-])c6F)c6nc(c(-c7cccc(S(=O)(=O)[O-])c7F)c7ccc4[nH]7)C=C6)C=C5)cc3)c(C)n(C(=O)c3ccc(Cl)cc3)c2cc1Cl
REMARK SMILES IDX 13 1 12 2 11 3 10 4 8 5 9 6 7 7 6 8 3 9 4 10 96 11 5 12
REMARK SMILES IDX 95 13 97 14 94 15 82 16 84 17 83 18 2 19 1 20 85 21 86 22
REMARK SMILES IDX 87 23 88 24 93 25 89 26 92 27 90 28 91 29 14 30 15 31 16 32
REMARK SMILES IDX 17 33 18 34 19 35 20 36 81 37 21 38 80 39 22 40 23 41 24 42
REMARK SMILES IDX 74 43 25 44 79 45 73 46 75 47 26 48 78 49 72 50 71 51 27 53
REMARK SMILES IDX 59 54 39 55 58 56 40 57 43 58 57 59 76 60 41 61 42 62 56 64
REMARK SMILES IDX 77 65 44 66 28 67 29 68 37 69 30 70 32 71 38 72 31 73 33 74
REMARK SMILES IDX 34 75 35 76 36 77 60 78 61 79 69 80 62 81 64 82 70 83 63 84
REMARK SMILES IDX 65 85 66 86 67 87 68 88 45 89 46 90 54 91 47 92 49 93 55 94
REMARK SMILES IDX 48 95 50 96 51 97 52 98 53 99
REMARK H PARENT 75 52 43 63
REMARK Flexibility Score: inf
ROOT
ATOM      1  O   UNL     1      -2.575   2.426  -4.355  1.00  0.00    -0.374 OA
ENDROOT
BRANCH   1   2
ATOM      2  C   UNL     1      -2.556   3.411  -5.380  1.00  0.00     0.202 C 
BRANCH   2   3
ATOM      3  C   UNL     1      -2.635   4.906  -5.021  1.00  0.00     0.261 C 
BRANCH   3   4
ATOM      4  O   UNL     1      -1.873   5.307  -3.865  1.00  0.00    -0.463 OA
BRANCH   4   5
ATOM      5  C   UNL     1      -2.626   5.617  -2.778  1.00  0.00     0.310 C 
ATOM      6  O   UNL     1      -3.856   5.607  -2.766  1.00  0.00    -0.252 OA
BRANCH   5   7
ATOM      7  C   UNL     1      -1.872   5.992  -1.524  1.00  0.00     0.160 C 
BRANCH   7   8
ATOM      8  C   UNL     1      -0.377   5.803  -1.422  1.00  0.00    -0.008 A 
ATOM      9  C   UNL     1       0.784   2.272  -0.424  1.00  0.00     0.138 A 
ATOM     10  C   UNL     1      -0.124   3.320  -0.656  1.00  0.00     0.058 A 
ATOM     11  C   UNL     1       2.136   2.575  -0.359  1.00  0.00     0.085 A 
ATOM     12  C   UNL     1       0.305   4.626  -0.997  1.00  0.00     0.008 A 
ATOM     13  C   UNL     1       2.567   3.900  -0.533  1.00  0.00     0.051 A 
ATOM     14  Cl  UNL     1       3.412   1.424  -0.165  1.00  0.00    -0.080 Cl
ATOM     15  C   UNL     1       1.669   4.915  -0.931  1.00  0.00     0.058 A 
ATOM     16  C   UNL     1       0.588   6.793  -1.593  1.00  0.00     0.028 A 
ATOM     17  N   UNL     1       1.855   6.268  -1.283  1.00  0.00    -0.280 N 
ATOM     18  C   UNL     1       0.312   8.203  -2.021  1.00  0.00     0.065 C 
BRANCH   9  19
ATOM     19  O   UNL     1       0.174   1.047  -0.442  1.00  0.00    -0.495 OA
ATOM     20  C   UNL     1       0.717  -0.008   0.333  1.00  0.00     0.278 C 
ENDBRANCH   9  19
BRANCH  17  21
ATOM     21  C   UNL     1       3.101   6.972  -1.276  1.00  0.00     0.262 C 
ATOM     22  O   UNL     1       3.112   8.192  -1.426  1.00  0.00    -0.268 OA
BRANCH  21  23
ATOM     23  C   UNL     1       4.420   6.368  -1.017  1.00  0.00     0.040 A 
ATOM     24  C   UNL     1       5.009   5.499  -1.942  1.00  0.00     0.015 A 
ATOM     25  C   UNL     1       5.042   6.639   0.208  1.00  0.00     0.015 A 
ATOM     26  C   UNL     1       6.181   4.822  -1.591  1.00  0.00     0.021 A 
ATOM     27  C   UNL     1       6.218   5.970   0.546  1.00  0.00     0.021 A 
ATOM     28  C   UNL     1       6.770   5.048  -0.344  1.00  0.00     0.041 A 
ATOM     29  Cl  UNL     1       8.172   4.162   0.113  1.00  0.00    -0.084 Cl
ENDBRANCH  21  23
ENDBRANCH  17  21
ENDBRANCH   7   8
ENDBRANCH   5   7
ENDBRANCH   4   5
ENDBRANCH   3   4
ENDBRANCH   2   3
ENDBRANCH   1   2
BRANCH   1  30
ATOM     30  C   UNL     1      -1.479   2.403  -3.446  1.00  0.00     0.202 C 
BRANCH  30  31
ATOM     31  C   UNL     1      -0.054   2.140  -3.966  1.00  0.00     0.261 C 
BRANCH  31  32
ATOM     32  O   UNL     1       0.366   3.116  -4.917  1.00  0.00    -0.460 OA
BRANCH  32  33
ATOM     33  C   UNL     1       1.086   2.612  -5.954  1.00  0.00     0.338 C 
ATOM     34  O   UNL     1       1.777   1.607  -5.964  1.00  0.00    -0.246 OA
BRANCH  33  35
ATOM     35  C   UNL     1       0.537   3.292  -7.134  1.00  0.00     0.060 A 
ATOM     36  C   UNL     1       0.462   4.688  -7.149  1.00  0.00     0.016 A 
ATOM     37  C   UNL     1      -0.225   2.500  -8.007  1.00  0.00     0.016 A 
ATOM     38  C   UNL     1      -0.461   5.287  -7.988  1.00  0.00     0.010 A 
ATOM     39  C   UNL     1      -1.168   3.106  -8.826  1.00  0.00     0.010 A 
ATOM     40  C   UNL     1      -1.308   4.494  -8.786  1.00  0.00    -0.014 A 
BRANCH  40  41
ATOM     41  C   UNL     1      -2.130   5.188  -9.772  1.00  0.00     0.031 A 
ATOM     42  C   UNL     1      -1.285   5.863 -10.793  1.00  0.00     0.074 A 
ATOM     43  C   UNL     1      -3.473   5.156  -9.880  1.00  0.00     0.049 A 
ATOM     44  N   UNL     1      -1.140   7.134 -10.979  1.00  0.00    -0.248 NA
ATOM     45  C   UNL     1      -0.346   5.025 -11.556  1.00  0.00     0.031 C 
ATOM     46  C   UNL     1      -4.437   4.345  -9.137  1.00  0.00     0.029 A 
ATOM     47  N   UNL     1      -4.257   5.792 -10.801  1.00  0.00    -0.354 N 
ATOM     48  C   UNL     1      -0.241   7.246 -12.034  1.00  0.00     0.074 A 
ATOM     49  C   UNL     1       0.348   5.946 -12.222  1.00  0.00     0.031 C 
ATOM     50  C   UNL     1      -5.625   4.357  -9.790  1.00  0.00     0.029 A 
ATOM     51  C   UNL     1      -5.540   5.262 -10.924  1.00  0.00     0.049 A 
ATOM     52  H   UNL     1      -3.942   6.559 -11.332  1.00  0.00     0.167 HD
ATOM     53  C   UNL     1      -0.212   8.336 -12.844  1.00  0.00     0.034 A 
ATOM     54  C   UNL     1      -6.419   5.508 -11.931  1.00  0.00     0.034 A 
ATOM     55  C   UNL     1      -0.908   9.455 -12.282  1.00  0.00     0.049 A 
ATOM     56  C   UNL     1      -5.995   6.777 -12.569  1.00  0.00     0.074 A 
ATOM     57  C   UNL     1      -0.778  10.205 -11.132  1.00  0.00     0.029 A 
ATOM     58  N   UNL     1      -2.166   9.711 -12.770  1.00  0.00    -0.354 N 
ATOM     59  N   UNL     1      -6.081   7.940 -11.988  1.00  0.00    -0.248 NA
ATOM     60  C   UNL     1      -5.106   6.709 -13.719  1.00  0.00     0.031 C 
ATOM     61  C   UNL     1      -2.114  10.495 -10.734  1.00  0.00     0.029 A 
ATOM     62  C   UNL     1      -2.971   9.944 -11.689  1.00  0.00     0.049 A 
ATOM     63  H   UNL     1      -2.437   9.723 -13.716  1.00  0.00     0.167 HD
ATOM     64  C   UNL     1      -4.947   8.617 -12.411  1.00  0.00     0.074 A 
ATOM     65  C   UNL     1      -4.446   7.857 -13.552  1.00  0.00     0.031 C 
ATOM     66  C   UNL     1      -4.361   9.559 -11.620  1.00  0.00     0.034 A 
BRANCH  53  67
ATOM     67  C   UNL     1       0.132   8.271 -14.304  1.00  0.00     0.023 A 
ATOM     68  C   UNL     1       0.431   9.476 -14.970  1.00  0.00     0.012 A 
ATOM     69  C   UNL     1      -0.097   7.125 -15.099  1.00  0.00     0.148 A 
ATOM     70  C   UNL     1       0.484   9.538 -16.366  1.00  0.00     0.002 A 
ATOM     71  C   UNL     1       0.036   7.174 -16.478  1.00  0.00     0.091 A 
ATOM     72  F   UNL     1      -0.586   6.013 -14.538  1.00  0.00    -0.205 F 
ATOM     73  C   UNL     1       0.302   8.384 -17.120  1.00  0.00     0.022 A 
BRANCH  71  74
ATOM     74  S   UNL     1      -0.158   5.699 -17.484  1.00  0.00     0.127 S 
ATOM     75  O   UNL     1      -1.482   5.913 -18.061  1.00  0.00    -0.237 OA
ATOM     76  O   UNL     1       0.958   5.826 -18.421  1.00  0.00    -0.237 OA
ATOM     77  O   UNL     1      -0.033   4.581 -16.557  1.00  0.00    -0.744 OA
ENDBRANCH  71  74
ENDBRANCH  53  67
BRANCH  54  78
ATOM     78  C   UNL     1      -7.494   4.678 -12.539  1.00  0.00     0.023 A 
ATOM     79  C   UNL     1      -8.433   5.292 -13.400  1.00  0.00     0.012 A 
ATOM     80  C   UNL     1      -7.440   3.268 -12.529  1.00  0.00     0.148 A 
ATOM     81  C   UNL     1      -9.242   4.537 -14.258  1.00  0.00     0.002 A 
ATOM     82  C   UNL     1      -8.256   2.519 -13.378  1.00  0.00     0.091 A 
ATOM     83  F   UNL     1      -6.525   2.661 -11.762  1.00  0.00    -0.205 F 
ATOM     84  C   UNL     1      -9.146   3.151 -14.256  1.00  0.00     0.022 A 
BRANCH  82  85
ATOM     85  S   UNL     1      -8.178   0.723 -13.441  1.00  0.00     0.127 S 
ATOM     86  O   UNL     1      -9.594   0.354 -13.440  1.00  0.00    -0.237 OA
ATOM     87  O   UNL     1      -7.488   0.494 -14.708  1.00  0.00    -0.237 OA
ATOM     88  O   UNL     1      -7.454   0.317 -12.243  1.00  0.00    -0.744 OA
ENDBRANCH  82  85
ENDBRANCH  54  78
BRANCH  66  89
ATOM     89  C   UNL     1      -5.099  10.033 -10.399  1.00  0.00     0.023 A 
ATOM     90  C   UNL     1      -5.289   9.201  -9.276  1.00  0.00     0.012 A 
ATOM     91  C   UNL     1      -5.361  11.408 -10.292  1.00  0.00     0.148 A 
ATOM     92  C   UNL     1      -5.719   9.739  -8.061  1.00  0.00     0.002 A 
ATOM     93  C   UNL     1      -5.742  11.945  -9.072  1.00  0.00     0.091 A 
ATOM     94  F   UNL     1      -5.160  12.173 -11.376  1.00  0.00    -0.205 F 
ATOM     95  C   UNL     1      -5.926  11.114  -7.954  1.00  0.00     0.022 A 
BRANCH  93  96
ATOM     96  S   UNL     1      -5.890  13.715  -8.824  1.00  0.00     0.127 S 
ATOM     97  O   UNL     1      -7.309  13.862  -8.506  1.00  0.00    -0.237 OA
ATOM     98  O   UNL     1      -4.983  13.943  -7.698  1.00  0.00    -0.237 OA
ATOM     99  O   UNL     1      -5.469  14.339 -10.072  1.00  0.00    -0.744 OA
ENDBRANCH  93  96
ENDBRANCH  66  89
ENDBRANCH  40  41
ENDBRANCH  33  35
ENDBRANCH  32  33
ENDBRANCH  31  32
ENDBRANCH  30  31
ENDBRANCH   1  30
TORSDOF 21
