REMARK SMILES O=C(CC1(NC(=O)[C@]2(C(F)(F)F)CC[NH2+]C2)CCC1)OCCOCCOC(=O)c1ccc(-c2c3nc(c(-c4cccc(S(=O)(=O)[O-])c4F)c4ccc([nH]4)c(-c4cccc(S(=O)(=O)[O-])c4F)c4nc(c(-c5cccc(S(=O)(=O)[O-])c5F)c5ccc2[nH]5)C=C4)C=C3)cc1
REMARK SMILES IDX 22 1 21 2 20 3 2 4 1 5 3 6 4 7 17 8 19 9 18 10 5 11 6 12
REMARK SMILES IDX 7 14 8 15 13 16 16 17 14 18 15 19 9 22 10 23 11 24 12 25
REMARK SMILES IDX 23 26 24 27 25 28 26 29 27 30 28 31 29 32 30 33 91 34 31 35
REMARK SMILES IDX 90 36 32 37 33 38 34 39 84 40 35 41 89 42 83 43 85 44 36 45
REMARK SMILES IDX 88 46 82 47 81 48 37 50 69 51 49 52 68 53 50 54 53 55 67 56
REMARK SMILES IDX 86 57 51 58 52 59 66 61 87 62 54 63 38 64 39 65 47 66 40 67
REMARK SMILES IDX 42 68 48 69 41 70 43 71 44 72 45 73 46 74 70 75 71 76 79 77
REMARK SMILES IDX 72 78 74 79 80 80 73 81 75 82 76 83 77 84 78 85 55 86 56 87
REMARK SMILES IDX 64 88 57 89 59 90 65 91 58 92 60 93 61 94 62 95 63 96
REMARK H PARENT 5 13 15 20 15 21 85 49 53 60
REMARK Flexibility Score: inf
ROOT
ATOM      1  C   UNL     1       5.381   1.282   1.102  1.00  0.00     0.202 C 
ENDROOT
BRANCH   1   2
ATOM      2  C   UNL     1       4.465   0.408   0.265  1.00  0.00     0.261 C 
BRANCH   2   3
ATOM      3  O   UNL     1       3.336  -0.077   1.014  1.00  0.00    -0.463 OA
BRANCH   3   4
ATOM      4  C   UNL     1       3.283  -1.198   1.761  1.00  0.00     0.308 C 
ATOM      5  O   UNL     1       2.492  -1.362   2.683  1.00  0.00    -0.252 OA
BRANCH   4   6
ATOM      6  C   UNL     1       4.114  -2.296   1.292  1.00  0.00     0.151 C 
BRANCH   6   7
ATOM      7  C   UNL     1       3.912  -2.646  -0.168  1.00  0.00     0.051 C 
ATOM      8  C   UNL     1       5.348  -2.691  -0.863  1.00  0.00     0.029 C 
ATOM      9  C   UNL     1       3.910  -4.198  -0.452  1.00  0.00     0.029 C 
ATOM     10  C   UNL     1       5.449  -4.172  -0.473  1.00  0.00     0.005 C 
BRANCH   7  11
ATOM     11  N   UNL     1       2.869  -1.942  -1.020  1.00  0.00    -0.349 N 
ATOM     12  C   UNL     1       1.795  -1.127  -1.191  1.00  0.00     0.241 C 
ATOM     13  H   UNL     1       3.086  -2.232  -1.936  1.00  0.00     0.164 HD
ATOM     14  O   UNL     1       1.592  -1.162  -2.436  1.00  0.00    -0.274 OA
BRANCH  12  15
ATOM     15  C   UNL     1       0.828  -0.101  -0.438  1.00  0.00     0.197 C 
ATOM     16  C   UNL     1      -0.567  -0.240  -1.177  1.00  0.00     0.094 C 
ATOM     17  C   UNL     1       1.241   1.332  -0.853  1.00  0.00     0.287 C 
ATOM     18  C   UNL     1      -0.845   1.109  -1.831  1.00  0.00     0.262 C 
ATOM     19  N   UNL     1       0.010   2.076  -1.146  1.00  0.00    -0.345 N 
ATOM     20  H   UNL     1      -0.429   2.400  -0.284  1.00  0.00     0.346 HD
ATOM     21  H   UNL     1       0.184   2.909  -1.709  1.00  0.00     0.346 HD
BRANCH  15  22
ATOM     22  C   UNL     1       0.404  -0.044   1.031  1.00  0.00     0.408 C 
ATOM     23  F   UNL     1       0.054  -1.256   1.508  1.00  0.00    -0.170 F 
ATOM     24  F   UNL     1       1.268   0.543   1.873  1.00  0.00    -0.170 F 
ATOM     25  F   UNL     1      -0.712   0.745   1.180  1.00  0.00    -0.170 F 
ENDBRANCH  15  22
ENDBRANCH  12  15
ENDBRANCH   7  11
ENDBRANCH   6   7
ENDBRANCH   4   6
ENDBRANCH   3   4
ENDBRANCH   2   3
ENDBRANCH   1   2
BRANCH   1  26
ATOM     26  O   UNL     1       5.065   1.372   2.486  1.00  0.00    -0.374 OA
BRANCH  26  27
ATOM     27  C   UNL     1       3.779   1.923   2.800  1.00  0.00     0.202 C 
BRANCH  27  28
ATOM     28  C   UNL     1       3.763   3.406   3.135  1.00  0.00     0.261 C 
BRANCH  28  29
ATOM     29  O   UNL     1       3.848   4.168   1.920  1.00  0.00    -0.460 OA
BRANCH  29  30
ATOM     30  C   UNL     1       5.107   4.491   1.546  1.00  0.00     0.338 C 
ATOM     31  O   UNL     1       6.129   4.317   2.179  1.00  0.00    -0.246 OA
BRANCH  30  32
ATOM     32  C   UNL     1       5.097   4.917   0.132  1.00  0.00     0.060 A 
ATOM     33  C   UNL     1       6.174   4.511  -0.674  1.00  0.00     0.016 A 
ATOM     34  C   UNL     1       4.099   5.750  -0.373  1.00  0.00     0.016 A 
ATOM     35  C   UNL     1       6.317   5.028  -1.954  1.00  0.00     0.010 A 
ATOM     36  C   UNL     1       4.250   6.281  -1.650  1.00  0.00     0.010 A 
ATOM     37  C   UNL     1       5.396   5.976  -2.405  1.00  0.00    -0.014 A 
BRANCH  37  38
ATOM     38  C   UNL     1       5.763   6.866  -3.521  1.00  0.00     0.031 A 
ATOM     39  C   UNL     1       6.295   8.227  -3.173  1.00  0.00     0.074 A 
ATOM     40  C   UNL     1       5.575   6.489  -4.793  1.00  0.00     0.049 A 
ATOM     41  N   UNL     1       6.530   9.249  -3.947  1.00  0.00    -0.248 NA
ATOM     42  C   UNL     1       6.580   8.472  -1.747  1.00  0.00     0.031 C 
ATOM     43  C   UNL     1       5.079   5.182  -5.218  1.00  0.00     0.029 A 
ATOM     44  N   UNL     1       5.725   7.197  -5.955  1.00  0.00    -0.354 N 
ATOM     45  C   UNL     1       6.929  10.276  -3.099  1.00  0.00     0.074 A 
ATOM     46  C   UNL     1       6.909   9.754  -1.753  1.00  0.00     0.031 C 
ATOM     47  C   UNL     1       4.903   5.202  -6.549  1.00  0.00     0.029 A 
ATOM     48  C   UNL     1       5.235   6.533  -7.052  1.00  0.00     0.049 A 
ATOM     49  H   UNL     1       6.141   8.089  -5.999  1.00  0.00     0.167 HD
ATOM     50  C   UNL     1       7.274  11.544  -3.420  1.00  0.00     0.034 A 
ATOM     51  C   UNL     1       5.023   6.978  -8.305  1.00  0.00     0.034 A 
ATOM     52  C   UNL     1       7.287  12.035  -4.769  1.00  0.00     0.049 A 
ATOM     53  C   UNL     1       5.402   8.393  -8.646  1.00  0.00     0.074 A 
ATOM     54  C   UNL     1       7.680  13.276  -5.232  1.00  0.00     0.029 A 
ATOM     55  N   UNL     1       6.860  11.309  -5.873  1.00  0.00    -0.354 N 
ATOM     56  N   UNL     1       5.879   9.329  -7.860  1.00  0.00    -0.248 NA
ATOM     57  C   UNL     1       5.247   8.804 -10.047  1.00  0.00     0.031 C 
ATOM     58  C   UNL     1       7.444  13.317  -6.610  1.00  0.00     0.029 A 
ATOM     59  C   UNL     1       6.959  12.082  -7.014  1.00  0.00     0.049 A 
ATOM     60  H   UNL     1       6.535  10.381  -5.846  1.00  0.00     0.167 HD
ATOM     61  C   UNL     1       6.119  10.429  -8.675  1.00  0.00     0.074 A 
ATOM     62  C   UNL     1       5.736  10.038 -10.018  1.00  0.00     0.031 C 
ATOM     63  C   UNL     1       6.611  11.650  -8.346  1.00  0.00     0.034 A 
BRANCH  50  64
ATOM     64  C   UNL     1       7.634  12.476  -2.292  1.00  0.00     0.023 A 
ATOM     65  C   UNL     1       8.809  12.266  -1.540  1.00  0.00     0.012 A 
ATOM     66  C   UNL     1       6.802  13.568  -1.974  1.00  0.00     0.148 A 
ATOM     67  C   UNL     1       9.120  13.091  -0.460  1.00  0.00     0.002 A 
ATOM     68  C   UNL     1       7.146  14.418  -0.931  1.00  0.00     0.091 A 
ATOM     69  F   UNL     1       5.674  13.739  -2.679  1.00  0.00    -0.205 F 
ATOM     70  C   UNL     1       8.294  14.171  -0.161  1.00  0.00     0.022 A 
BRANCH  68  71
ATOM     71  S   UNL     1       6.191  15.884  -0.526  1.00  0.00     0.127 S 
ATOM     72  O   UNL     1       5.548  15.482   0.723  1.00  0.00    -0.237 OA
ATOM     73  O   UNL     1       7.235  16.898  -0.375  1.00  0.00    -0.237 OA
ATOM     74  O   UNL     1       5.295  16.102  -1.653  1.00  0.00    -0.744 OA
ENDBRANCH  68  71
ENDBRANCH  50  64
BRANCH  51  75
ATOM     75  C   UNL     1       4.431   6.054  -9.309  1.00  0.00     0.023 A 
ATOM     76  C   UNL     1       5.240   5.521 -10.329  1.00  0.00     0.012 A 
ATOM     77  C   UNL     1       3.091   5.633  -9.198  1.00  0.00     0.148 A 
ATOM     78  C   UNL     1       4.721   4.590 -11.230  1.00  0.00     0.002 A 
ATOM     79  C   UNL     1       2.597   4.666 -10.064  1.00  0.00     0.091 A 
ATOM     80  F   UNL     1       2.341   6.158  -8.219  1.00  0.00    -0.205 F 
ATOM     81  C   UNL     1       3.406   4.153 -11.090  1.00  0.00     0.022 A 
BRANCH  79  82
ATOM     82  S   UNL     1       0.963   3.943  -9.880  1.00  0.00     0.127 S 
ATOM     83  O   UNL     1       0.310   4.360 -11.118  1.00  0.00    -0.237 OA
ATOM     84  O   UNL     1       1.278   2.516  -9.799  1.00  0.00    -0.237 OA
ATOM     85  O   UNL     1       0.411   4.512  -8.658  1.00  0.00    -0.744 OA
ENDBRANCH  79  82
ENDBRANCH  51  75
BRANCH  63  86
ATOM     86  C   UNL     1       6.830  12.641  -9.457  1.00  0.00     0.023 A 
ATOM     87  C   UNL     1       5.734  13.288 -10.060  1.00  0.00     0.012 A 
ATOM     88  C   UNL     1       8.141  13.008  -9.821  1.00  0.00     0.148 A 
ATOM     89  C   UNL     1       5.942  14.271 -11.027  1.00  0.00     0.002 A 
ATOM     90  C   UNL     1       8.340  14.026 -10.743  1.00  0.00     0.091 A 
ATOM     91  F   UNL     1       9.167  12.366  -9.244  1.00  0.00    -0.205 F 
ATOM     92  C   UNL     1       7.243  14.650 -11.357  1.00  0.00     0.022 A 
BRANCH  90  93
ATOM     93  S   UNL     1       9.974  14.653 -11.146  1.00  0.00     0.127 S 
ATOM     94  O   UNL     1      10.126  14.217 -12.533  1.00  0.00    -0.237 OA
ATOM     95  O   UNL     1       9.801  16.096 -10.974  1.00  0.00    -0.237 OA
ATOM     96  O   UNL     1      10.891  14.035 -10.198  1.00  0.00    -0.744 OA
ENDBRANCH  90  93
ENDBRANCH  63  86
ENDBRANCH  37  38
ENDBRANCH  30  32
ENDBRANCH  29  30
ENDBRANCH  28  29
ENDBRANCH  27  28
ENDBRANCH  26  27
ENDBRANCH   1  26
TORSDOF 21
