REMARK SMILES COC(=O)c1ccc(C)c2c1[C@H]1C=CC[C@H]1[C@@H](c1ccc(C(=O)OCCOCCOC(=O)c3ccc(-c4c5nc(c(-c6cccc(S(=O)(=O)[O-])c6F)c6ccc([nH]6)c(-c6cccc(S(=O)(=O)[O-])c6F)c6nc(c(-c7cccc(S(=O)(=O)[O-])c7F)c7ccc4[nH]7)C=C6)C=C5)cc3)cc1)N2
REMARK SMILES IDX 27 1 26 2 25 3 24 4 22 5 23 6 21 7 18 8 19 9 97 10 20 11
REMARK SMILES IDX 96 12 17 13 5 14 6 15 11 16 7 17 10 18 12 19 8 20 98 21
REMARK SMILES IDX 13 22 16 23 9 24 14 26 15 27 3 28 4 29 2 30 1 31 28 32 29 33
REMARK SMILES IDX 30 34 31 35 32 36 33 37 34 38 95 39 35 40 94 41 36 42 37 43
REMARK SMILES IDX 38 44 88 45 39 46 93 47 87 48 89 49 40 50 92 51 86 52 85 53
REMARK SMILES IDX 41 55 73 56 53 57 72 58 54 59 57 60 71 61 90 62 55 63 56 64
REMARK SMILES IDX 70 66 91 67 58 68 42 69 43 70 51 71 44 72 46 73 52 74 45 75
REMARK SMILES IDX 47 76 48 77 49 78 50 79 74 80 75 81 83 82 76 83 78 84 84 85
REMARK SMILES IDX 77 86 79 87 80 88 81 89 82 90 59 91 60 92 68 93 61 94 63 95
REMARK SMILES IDX 69 96 62 97 64 98 65 99 66 100 67 101
REMARK H PARENT 98 25 89 54 57 65
REMARK Flexibility Score: inf
ROOT
ATOM      1  O   UNL     1       4.790   7.045  -2.956  1.00  0.00    -0.374 OA
ENDROOT
BRANCH   1   2
ATOM      2  C   UNL     1       5.448   8.310  -2.916  1.00  0.00     0.202 C 
BRANCH   2   3
ATOM      3  C   UNL     1       4.801   9.412  -2.071  1.00  0.00     0.261 C 
BRANCH   3   4
ATOM      4  O   UNL     1       4.644   9.008  -0.704  1.00  0.00    -0.460 OA
BRANCH   4   5
ATOM      5  C   UNL     1       3.360   8.804  -0.330  1.00  0.00     0.338 C 
ATOM      6  O   UNL     1       2.355   9.076  -0.969  1.00  0.00    -0.246 OA
BRANCH   5   7
ATOM      7  C   UNL     1       3.316   7.979   0.893  1.00  0.00     0.060 A 
ATOM      8  C   UNL     1       3.025   6.322   3.166  1.00  0.00    -0.025 A 
ATOM      9  C   UNL     1       2.257   6.124   2.006  1.00  0.00     0.007 A 
ATOM     10  C   UNL     1       3.992   7.347   3.131  1.00  0.00     0.007 A 
ATOM     11  C   UNL     1       2.384   6.946   0.893  1.00  0.00     0.016 A 
ATOM     12  C   UNL     1       4.148   8.165   1.998  1.00  0.00     0.016 A 
BRANCH   8  13
ATOM     13  C   UNL     1       2.796   5.509   4.448  1.00  0.00     0.114 C 
ATOM     14  C   UNL     1       0.257   2.510   2.807  1.00  0.00     0.065 A 
ATOM     15  C   UNL     1      -1.087   2.833   2.589  1.00  0.00     0.016 A 
ATOM     16  C   UNL     1       1.094   3.365   3.560  1.00  0.00    -0.003 A 
ATOM     17  C   UNL     1      -1.617   3.999   3.126  1.00  0.00     0.006 A 
ATOM     18  C   UNL     1       0.542   4.555   4.113  1.00  0.00     0.042 A 
ATOM     19  C   UNL     1       2.567   3.048   3.759  1.00  0.00     0.050 C 
ATOM     20  C   UNL     1      -0.821   4.866   3.891  1.00  0.00    -0.028 A 
ATOM     21  N   UNL     1       1.372   5.463   4.764  1.00  0.00    -0.377 N 
ATOM     22  C   UNL     1       3.426   2.973   2.518  1.00  0.00    -0.023 C 
ATOM     23  C   UNL     1       3.356   4.082   4.588  1.00  0.00     0.031 C 
ATOM     24  C   UNL     1      -1.487   6.134   4.363  1.00  0.00     0.046 C 
ATOM     25  H   UNL     1       0.998   6.074   5.439  1.00  0.00     0.161 HD
ATOM     26  C   UNL     1       4.661   3.444   2.737  1.00  0.00    -0.030 C 
ATOM     27  C   UNL     1       4.813   3.941   4.136  1.00  0.00     0.034 C 
BRANCH  14  28
ATOM     28  C   UNL     1       0.754   1.246   2.217  1.00  0.00     0.338 C 
ATOM     29  O   UNL     1       1.383   0.392   2.824  1.00  0.00    -0.246 OA
BRANCH  28  30
ATOM     30  O   UNL     1       0.426   1.224   0.901  1.00  0.00    -0.465 OA
ATOM     31  C   UNL     1       0.907   0.077   0.199  1.00  0.00     0.282 C 
ENDBRANCH  28  30
ENDBRANCH  14  28
ENDBRANCH   8  13
ENDBRANCH   5   7
ENDBRANCH   4   5
ENDBRANCH   3   4
ENDBRANCH   2   3
ENDBRANCH   1   2
BRANCH   1  32
ATOM     32  C   UNL     1       5.013   6.159  -1.855  1.00  0.00     0.202 C 
BRANCH  32  33
ATOM     33  C   UNL     1       6.391   5.492  -1.750  1.00  0.00     0.261 C 
BRANCH  33  34
ATOM     34  O   UNL     1       7.413   6.422  -1.344  1.00  0.00    -0.460 OA
BRANCH  34  35
ATOM     35  C   UNL     1       8.352   6.695  -2.282  1.00  0.00     0.338 C 
ATOM     36  O   UNL     1       8.456   6.199  -3.393  1.00  0.00    -0.246 OA
BRANCH  35  37
ATOM     37  C   UNL     1       9.145   7.858  -1.850  1.00  0.00     0.060 A 
ATOM     38  C   UNL     1       9.079   9.026  -2.624  1.00  0.00     0.016 A 
ATOM     39  C   UNL     1      10.002   7.777  -0.752  1.00  0.00     0.016 A 
ATOM     40  C   UNL     1       9.895  10.111  -2.319  1.00  0.00     0.010 A 
ATOM     41  C   UNL     1      10.838   8.858  -0.463  1.00  0.00     0.010 A 
ATOM     42  C   UNL     1      10.811  10.013  -1.265  1.00  0.00    -0.014 A 
BRANCH  42  43
ATOM     43  C   UNL     1      11.861  11.043  -1.117  1.00  0.00     0.031 A 
ATOM     44  C   UNL     1      13.204  10.796  -1.744  1.00  0.00     0.074 A 
ATOM     45  C   UNL     1      11.621  12.182  -0.445  1.00  0.00     0.049 A 
ATOM     46  N   UNL     1      14.277  11.540  -1.715  1.00  0.00    -0.248 NA
ATOM     47  C   UNL     1      13.358   9.545  -2.508  1.00  0.00     0.031 C 
ATOM     48  C   UNL     1      10.350  12.544   0.179  1.00  0.00     0.029 A 
ATOM     49  N   UNL     1      12.450  13.239  -0.164  1.00  0.00    -0.354 N 
ATOM     50  C   UNL     1      15.238  10.842  -2.436  1.00  0.00     0.074 A 
ATOM     51  C   UNL     1      14.627   9.612  -2.886  1.00  0.00     0.031 C 
ATOM     52  C   UNL     1      10.489  13.733   0.790  1.00  0.00     0.029 A 
ATOM     53  C   UNL     1      11.863  14.204   0.618  1.00  0.00     0.049 A 
ATOM     54  H   UNL     1      13.376  13.299  -0.491  1.00  0.00     0.167 HD
ATOM     55  C   UNL     1      16.511  11.204  -2.710  1.00  0.00     0.034 A 
ATOM     56  C   UNL     1      12.381  15.331   1.145  1.00  0.00     0.034 A 
ATOM     57  C   UNL     1      17.111  12.434  -2.279  1.00  0.00     0.049 A 
ATOM     58  C   UNL     1      13.816  15.688   0.865  1.00  0.00     0.074 A 
ATOM     59  C   UNL     1      18.387  12.901  -2.538  1.00  0.00     0.029 A 
ATOM     60  N   UNL     1      16.484  13.386  -1.494  1.00  0.00    -0.354 N 
ATOM     61  N   UNL     1      14.689  15.057   0.117  1.00  0.00    -0.248 NA
ATOM     62  C   UNL     1      14.333  16.919   1.481  1.00  0.00     0.031 C 
ATOM     63  C   UNL     1      18.538  14.131  -1.893  1.00  0.00     0.029 A 
ATOM     64  C   UNL     1      17.349  14.437  -1.249  1.00  0.00     0.049 A 
ATOM     65  H   UNL     1      15.560  13.325  -1.159  1.00  0.00     0.167 HD
ATOM     66  C   UNL     1      15.847  15.826   0.149  1.00  0.00     0.074 A 
ATOM     67  C   UNL     1      15.564  16.974   0.985  1.00  0.00     0.031 C 
ATOM     68  C   UNL     1      17.038  15.596  -0.454  1.00  0.00     0.034 A 
BRANCH  55  69
ATOM     69  C   UNL     1      17.341  10.275  -3.549  1.00  0.00     0.023 A 
ATOM     70  C   UNL     1      17.150  10.250  -4.944  1.00  0.00     0.012 A 
ATOM     71  C   UNL     1      18.366   9.502  -2.971  1.00  0.00     0.148 A 
ATOM     72  C   UNL     1      17.966   9.463  -5.755  1.00  0.00     0.002 A 
ATOM     73  C   UNL     1      19.195   8.744  -3.788  1.00  0.00     0.091 A 
ATOM     74  F   UNL     1      18.513   9.532  -1.639  1.00  0.00    -0.205 F 
ATOM     75  C   UNL     1      18.994   8.720  -5.179  1.00  0.00     0.022 A 
BRANCH  73  76
ATOM     76  S   UNL     1      20.578   7.791  -3.154  1.00  0.00     0.127 S 
ATOM     77  O   UNL     1      20.163   6.424  -3.468  1.00  0.00    -0.237 OA
ATOM     78  O   UNL     1      21.690   8.292  -3.962  1.00  0.00    -0.237 OA
ATOM     79  O   UNL     1      20.664   8.098  -1.734  1.00  0.00    -0.744 OA
ENDBRANCH  73  76
ENDBRANCH  55  69
BRANCH  56  80
ATOM     80  C   UNL     1      11.511  16.227   1.952  1.00  0.00     0.023 A 
ATOM     81  C   UNL     1      11.053  17.431   1.386  1.00  0.00     0.012 A 
ATOM     82  C   UNL     1      11.094  15.868   3.248  1.00  0.00     0.148 A 
ATOM     83  C   UNL     1      10.197  18.269   2.101  1.00  0.00     0.002 A 
ATOM     84  C   UNL     1      10.212  16.690   3.941  1.00  0.00     0.091 A 
ATOM     85  F   UNL     1      11.549  14.718   3.764  1.00  0.00    -0.205 F 
ATOM     86  C   UNL     1       9.770  17.895   3.373  1.00  0.00     0.022 A 
BRANCH  84  87
ATOM     87  S   UNL     1       9.535  16.254   5.546  1.00  0.00     0.127 S 
ATOM     88  O   UNL     1      10.043  17.334   6.389  1.00  0.00    -0.237 OA
ATOM     89  O   UNL     1       8.096  16.301   5.284  1.00  0.00    -0.237 OA
ATOM     90  O   UNL     1      10.054  14.928   5.851  1.00  0.00    -0.744 OA
ENDBRANCH  84  87
ENDBRANCH  56  80
BRANCH  68  91
ATOM     91  C   UNL     1      18.141  16.601  -0.266  1.00  0.00     0.023 A 
ATOM     92  C   UNL     1      18.887  16.594   0.927  1.00  0.00     0.012 A 
ATOM     93  C   UNL     1      18.529  17.444  -1.327  1.00  0.00     0.148 A 
ATOM     94  C   UNL     1      20.005  17.416   1.064  1.00  0.00     0.002 A 
ATOM     95  C   UNL     1      19.663  18.235  -1.196  1.00  0.00     0.091 A 
ATOM     96  F   UNL     1      17.798  17.431  -2.451  1.00  0.00    -0.205 F 
ATOM     97  C   UNL     1      20.400  18.225   0.001  1.00  0.00     0.022 A 
BRANCH  95  98
ATOM     98  S   UNL     1      20.297  19.252  -2.534  1.00  0.00     0.127 S 
ATOM     99  O   UNL     1      20.125  20.599  -1.990  1.00  0.00    -0.237 OA
ATOM    100  O   UNL     1      21.687  18.805  -2.629  1.00  0.00    -0.237 OA
ATOM    101  O   UNL     1      19.477  18.948  -3.698  1.00  0.00    -0.744 OA
ENDBRANCH  95  98
ENDBRANCH  68  91
ENDBRANCH  42  43
ENDBRANCH  35  37
ENDBRANCH  34  35
ENDBRANCH  33  34
ENDBRANCH  32  33
ENDBRANCH   1  32
TORSDOF 20
