REMARK SMILES NC(=O)c1c(NC(=O)[C@H]2[C@@H](C(=O)OCCOCCOC(=O)c3ccc(-c4c5nc(c(-c6cccc(S(=O)(=O)[O-])c6F)c6ccc([nH]6)c(-c6cccc(S(=O)(=O)[O-])c6F)c6nc(c(-c7cccc(S(=O)(=O)[O-])c7F)c7ccc4[nH]7)C=C6)C=C5)cc3)[C@@H]3C=C[C@H]2C3)sc2c1CCCCCC2
REMARK SMILES IDX 15 1 14 2 13 3 11 4 12 5 10 6 9 7 88 8 85 9 87 10 89 11
REMARK SMILES IDX 86 12 7 13 6 14 8 16 5 17 4 18 92 19 90 20 91 21 2 22 1 23
REMARK SMILES IDX 3 26 93 27 94 28 95 29 98 31 97 32 96 33 16 35 17 36 18 37
REMARK SMILES IDX 19 38 20 39 21 40 22 41 23 42 84 43 24 44 83 45 25 46 26 47
REMARK SMILES IDX 27 48 77 49 28 50 82 51 76 52 78 53 29 54 81 55 75 56 74 57
REMARK SMILES IDX 30 59 62 60 42 61 61 62 43 63 46 64 60 65 79 66 44 67 45 68
REMARK SMILES IDX 59 70 80 71 47 72 31 73 32 74 40 75 33 76 35 77 41 78 34 79
REMARK SMILES IDX 36 80 37 81 38 82 39 83 63 84 64 85 72 86 65 87 67 88 73 89
REMARK SMILES IDX 66 90 68 91 69 92 70 93 71 94 48 95 49 96 57 97 50 98 52 99
REMARK SMILES IDX 58 100 51 101 53 102 54 103 55 104 56 105
REMARK H PARENT 6 15 1 24 1 25 78 58 46 69
REMARK Flexibility Score: 90.00
ROOT
ATOM      1  C   UNL     1       0.712   1.942  -3.591  1.00  0.00     0.202 C 
ENDROOT
BRANCH   1   2
ATOM      2  C   UNL     1      -0.095   1.057  -2.633  1.00  0.00     0.261 C 
BRANCH   2   3
ATOM      3  O   UNL     1       0.058   1.389  -1.248  1.00  0.00    -0.463 OA
BRANCH   3   4
ATOM      4  C   UNL     1       0.987   0.618  -0.639  1.00  0.00     0.310 C 
ATOM      5  O   UNL     1       1.629  -0.232  -1.245  1.00  0.00    -0.252 OA
BRANCH   4   6
ATOM      6  C   UNL     1       1.262   0.982   0.813  1.00  0.00     0.119 C 
ATOM      7  C   UNL     1       1.282  -0.274   1.736  1.00  0.00     0.100 C 
ATOM      8  C   UNL     1       0.026  -0.070   2.626  1.00  0.00     0.025 C 
ATOM      9  C   UNL     1       0.200   1.858   1.508  1.00  0.00     0.027 C 
ATOM     10  C   UNL     1       0.475   0.980   3.629  1.00  0.00    -0.027 C 
ATOM     11  C   UNL     1      -0.891   0.825   1.791  1.00  0.00     0.017 C 
ATOM     12  C   UNL     1       0.637   2.124   2.940  1.00  0.00    -0.027 C 
BRANCH   7  13
ATOM     13  C   UNL     1       1.494  -1.600   1.059  1.00  0.00     0.229 C 
ATOM     14  N   UNL     1       2.720  -1.891   0.505  1.00  0.00    -0.317 N 
ATOM     15  H   UNL     1       2.766  -2.780   0.085  1.00  0.00     0.170 HD
ATOM     16  O   UNL     1       0.574  -2.413   0.945  1.00  0.00    -0.274 OA
BRANCH  14  17
ATOM     17  C   UNL     1       3.905  -1.171   0.426  1.00  0.00     0.108 A 
ATOM     18  C   UNL     1       4.585  -0.179   1.114  1.00  0.00     0.077 A 
ATOM     19  C   UNL     1       5.811   0.216   0.420  1.00  0.00    -0.019 A 
ATOM     20  S   UNL     1       4.771  -1.666  -0.966  1.00  0.00    -0.122 S 
ATOM     21  C   UNL     1       6.004  -0.491  -0.758  1.00  0.00     0.011 A 
BRANCH  18  22
ATOM     22  C   UNL     1       4.250   0.421   2.397  1.00  0.00     0.251 C 
ATOM     23  N   UNL     1       4.156  -0.441   3.447  1.00  0.00    -0.365 N 
ATOM     24  H   UNL     1       3.933  -0.101   4.343  1.00  0.00     0.159 HD
ATOM     25  H   UNL     1       4.312  -1.403   3.310  1.00  0.00     0.159 HD
ATOM     26  O   UNL     1       4.106   1.628   2.557  1.00  0.00    -0.269 OA
ENDBRANCH  18  22
BRANCH  19  27
ATOM     27  C   UNL     1       6.796   1.185   1.024  1.00  0.00     0.037 C 
BRANCH  27  28
ATOM     28  C   UNL     1       7.920   0.442   1.748  1.00  0.00     0.005 C 
BRANCH  28  29
ATOM     29  C   UNL     1       8.658  -0.613   0.919  1.00  0.00     0.000 CG0
ATOM     30  G   UNL     1       9.281  -0.109  -0.381  1.00  0.00     0.000 G0
ENDBRANCH  28  29
ENDBRANCH  27  28
ENDBRANCH  19  27
BRANCH  21  31
ATOM     31  C   UNL     1       7.107  -0.460  -1.794  1.00  0.00     0.047 C 
BRANCH  31  32
ATOM     32  C   UNL     1       8.353   0.378  -1.502  1.00  0.00     0.006 C 
BRANCH  32  33
ATOM     33  C   UNL     1       9.281  -0.109  -0.381  1.00  0.00     0.000 CG0
ATOM     34  G   UNL     1       8.658  -0.613   0.919  1.00  0.00     0.000 G0
ENDBRANCH  32  33
ENDBRANCH  31  32
ENDBRANCH  21  31
ENDBRANCH  14  17
ENDBRANCH   7  13
ENDBRANCH   4   6
ENDBRANCH   3   4
ENDBRANCH   2   3
ENDBRANCH   1   2
BRANCH   1  35
ATOM     35  O   UNL     1       2.117   2.134  -3.450  1.00  0.00    -0.374 OA
BRANCH  35  36
ATOM     36  C   UNL     1       2.731   2.686  -2.288  1.00  0.00     0.202 C 
BRANCH  36  37
ATOM     37  C   UNL     1       2.333   4.058  -1.760  1.00  0.00     0.261 C 
BRANCH  37  38
ATOM     38  O   UNL     1       0.940   4.135  -1.544  1.00  0.00    -0.460 OA
BRANCH  38  39
ATOM     39  C   UNL     1       0.287   4.773  -2.539  1.00  0.00     0.338 C 
ATOM     40  O   UNL     1       0.748   5.171  -3.592  1.00  0.00    -0.246 OA
BRANCH  39  41
ATOM     41  C   UNL     1      -1.105   4.980  -2.132  1.00  0.00     0.060 A 
ATOM     42  C   UNL     1      -1.892   5.622  -3.091  1.00  0.00     0.016 A 
ATOM     43  C   UNL     1      -1.347   5.073  -0.760  1.00  0.00     0.016 A 
ATOM     44  C   UNL     1      -2.661   6.670  -2.663  1.00  0.00     0.010 A 
ATOM     45  C   UNL     1      -2.080   6.138  -0.336  1.00  0.00     0.010 A 
ATOM     46  C   UNL     1      -2.621   6.981  -1.304  1.00  0.00    -0.014 A 
BRANCH  46  47
ATOM     47  C   UNL     1      -3.234   8.204  -0.858  1.00  0.00     0.031 A 
ATOM     48  C   UNL     1      -4.693   8.021  -0.704  1.00  0.00     0.074 A 
ATOM     49  C   UNL     1      -2.464   9.248  -0.494  1.00  0.00     0.049 A 
ATOM     50  N   UNL     1      -5.639   8.542  -1.413  1.00  0.00    -0.248 NA
ATOM     51  C   UNL     1      -5.139   6.912   0.163  1.00  0.00     0.031 C 
ATOM     52  C   UNL     1      -0.999   9.296  -0.386  1.00  0.00     0.029 A 
ATOM     53  N   UNL     1      -2.837  10.441   0.034  1.00  0.00    -0.354 N 
ATOM     54  C   UNL     1      -6.803   8.023  -0.850  1.00  0.00     0.074 A 
ATOM     55  C   UNL     1      -6.427   6.823  -0.164  1.00  0.00     0.031 C 
ATOM     56  C   UNL     1      -0.650  10.317   0.430  1.00  0.00     0.029 A 
ATOM     57  C   UNL     1      -1.850  11.041   0.812  1.00  0.00     0.049 A 
ATOM     58  H   UNL     1      -3.722  10.844  -0.119  1.00  0.00     0.167 HD
ATOM     59  C   UNL     1      -7.877   8.826  -0.625  1.00  0.00     0.034 A 
ATOM     60  C   UNL     1      -2.053  11.961   1.792  1.00  0.00     0.034 A 
ATOM     61  C   UNL     1      -7.810  10.019  -1.432  1.00  0.00     0.049 A 
ATOM     62  C   UNL     1      -3.425  12.499   1.609  1.00  0.00     0.074 A 
ATOM     63  C   UNL     1      -7.697  10.271  -2.785  1.00  0.00     0.029 A 
ATOM     64  N   UNL     1      -7.431  11.175  -0.793  1.00  0.00    -0.354 N 
ATOM     65  N   UNL     1      -3.790  13.198   0.570  1.00  0.00    -0.248 NA
ATOM     66  C   UNL     1      -4.504  11.836   2.328  1.00  0.00     0.031 C 
ATOM     67  C   UNL     1      -6.824  11.394  -2.877  1.00  0.00     0.029 A 
ATOM     68  C   UNL     1      -6.513  11.814  -1.583  1.00  0.00     0.049 A 
ATOM     69  H   UNL     1      -7.761  11.489   0.079  1.00  0.00     0.167 HD
ATOM     70  C   UNL     1      -5.040  12.690   0.234  1.00  0.00     0.074 A 
ATOM     71  C   UNL     1      -5.468  11.923   1.406  1.00  0.00     0.031 C 
ATOM     72  C   UNL     1      -5.464  12.665  -1.064  1.00  0.00     0.034 A 
BRANCH  59  73
ATOM     73  C   UNL     1      -8.725   8.757   0.629  1.00  0.00     0.023 A 
ATOM     74  C   UNL     1      -9.889   9.551   0.645  1.00  0.00     0.012 A 
ATOM     75  C   UNL     1      -8.317   8.200   1.868  1.00  0.00     0.148 A 
ATOM     76  C   UNL     1     -10.568   9.829   1.836  1.00  0.00     0.002 A 
ATOM     77  C   UNL     1      -9.039   8.414   3.034  1.00  0.00     0.091 A 
ATOM     78  F   UNL     1      -7.149   7.568   1.983  1.00  0.00    -0.205 F 
ATOM     79  C   UNL     1     -10.147   9.257   3.031  1.00  0.00     0.022 A 
BRANCH  77  80
ATOM     80  S   UNL     1      -8.543   7.667   4.595  1.00  0.00     0.127 S 
ATOM     81  O   UNL     1      -8.002   8.819   5.308  1.00  0.00    -0.237 OA
ATOM     82  O   UNL     1      -9.820   7.163   5.101  1.00  0.00    -0.237 OA
ATOM     83  O   UNL     1      -7.588   6.622   4.247  1.00  0.00    -0.744 OA
ENDBRANCH  77  80
ENDBRANCH  59  73
BRANCH  60  84
ATOM     84  C   UNL     1      -1.312  12.140   3.070  1.00  0.00     0.023 A 
ATOM     85  C   UNL     1      -1.419  13.351   3.784  1.00  0.00     0.012 A 
ATOM     86  C   UNL     1      -0.714  11.039   3.726  1.00  0.00     0.148 A 
ATOM     87  C   UNL     1      -0.962  13.456   5.106  1.00  0.00     0.002 A 
ATOM     88  C   UNL     1      -0.247  11.152   5.033  1.00  0.00     0.091 A 
ATOM     89  F   UNL     1      -0.687   9.854   3.104  1.00  0.00    -0.205 F 
ATOM     90  C   UNL     1      -0.380  12.356   5.732  1.00  0.00     0.022 A 
BRANCH  88  91
ATOM     91  S   UNL     1       0.501   9.766   5.903  1.00  0.00     0.127 S 
ATOM     92  O   UNL     1       1.732  10.365   6.420  1.00  0.00    -0.237 OA
ATOM     93  O   UNL     1      -0.505   9.465   6.917  1.00  0.00    -0.237 OA
ATOM     94  O   UNL     1       0.716   8.733   4.899  1.00  0.00    -0.744 OA
ENDBRANCH  88  91
ENDBRANCH  60  84
BRANCH  72  95
ATOM     95  C   UNL     1      -4.639  13.401  -2.092  1.00  0.00     0.023 A 
ATOM     96  C   UNL     1      -3.329  13.009  -2.444  1.00  0.00     0.012 A 
ATOM     97  C   UNL     1      -5.274  14.396  -2.849  1.00  0.00     0.148 A 
ATOM     98  C   UNL     1      -2.663  13.613  -3.516  1.00  0.00     0.002 A 
ATOM     99  C   UNL     1      -4.627  14.962  -3.940  1.00  0.00     0.091 A 
ATOM    100  F   UNL     1      -6.522  14.748  -2.507  1.00  0.00    -0.205 F 
ATOM    101  C   UNL     1      -3.317  14.581  -4.272  1.00  0.00     0.022 A 
BRANCH  99 102
ATOM    102  S   UNL     1      -5.464  16.118  -5.025  1.00  0.00     0.127 S 
ATOM    103  O   UNL     1      -4.826  17.384  -4.671  1.00  0.00    -0.237 OA
ATOM    104  O   UNL     1      -5.119  15.608  -6.353  1.00  0.00    -0.237 OA
ATOM    105  O   UNL     1      -6.882  16.019  -4.701  1.00  0.00    -0.744 OA
ENDBRANCH  99 102
ENDBRANCH  72  95
ENDBRANCH  46  47
ENDBRANCH  39  41
ENDBRANCH  38  39
ENDBRANCH  37  38
ENDBRANCH  36  37
ENDBRANCH  35  36
ENDBRANCH   1  35
TORSDOF 20
