REMARK SMILES [NH3+][C@]1(C(=O)OCCOCCOC(=O)c2ccc(-c3c4nc(c(-c5cccc(S(=O)(=O)[O-])c5F)c5ccc([nH]5)c(-c5cccc(S(=O)(=O)[O-])c5F)c5nc(c(-c6cccc(S(=O)(=O)[O-])c6F)c6ccc3[nH]6)C=C5)C=C4)cc2)CCC[C@@H](Oc2ccc3c(c2)CCC3)C1
REMARK SMILES IDX 9 1 8 2 7 3 6 4 5 5 3 6 4 7 2 8 77 9 91 10 78 11 80 12 79 13
REMARK SMILES IDX 1 14 81 18 82 19 83 20 87 21 84 22 86 23 85 24 88 25 90 26
REMARK SMILES IDX 89 27 10 28 11 29 12 30 13 31 14 32 15 33 76 34 16 35 75 36
REMARK SMILES IDX 17 37 18 38 19 39 69 40 20 41 74 42 68 43 70 44 21 45 73 46
REMARK SMILES IDX 67 47 66 48 22 50 54 51 34 52 53 53 35 54 38 55 52 56 71 57
REMARK SMILES IDX 36 58 37 59 51 61 72 62 39 63 23 64 24 65 32 66 25 67 27 68
REMARK SMILES IDX 33 69 26 70 28 71 29 72 30 73 31 74 55 75 56 76 64 77 57 78
REMARK SMILES IDX 59 79 65 80 58 81 60 82 61 83 62 84 63 85 40 86 41 87 49 88
REMARK SMILES IDX 42 89 44 90 50 91 43 92 45 93 46 94 47 95 48 96
REMARK H PARENT 1 15 1 16 1 17 70 49 38 60
REMARK Flexibility Score: inf
ROOT
ATOM      1  C   UNL     1       0.791   0.728  -4.262  1.00  0.00     0.202 C 
ENDROOT
BRANCH   1   2
ATOM      2  O   UNL     1      -0.403   1.254  -4.843  1.00  0.00    -0.374 OA
BRANCH   2   3
ATOM      3  C   UNL     1      -1.191   2.112  -3.988  1.00  0.00     0.202 C 
BRANCH   3   4
ATOM      4  C   UNL     1      -2.296   1.481  -3.100  1.00  0.00     0.261 C 
BRANCH   4   5
ATOM      5  O   UNL     1      -1.827   1.391  -1.729  1.00  0.00    -0.459 OA
BRANCH   5   6
ATOM      6  C   UNL     1      -2.396   0.540  -0.809  1.00  0.00     0.368 C 
ATOM      7  O   UNL     1      -3.427  -0.090  -0.997  1.00  0.00    -0.245 OA
BRANCH   6   8
ATOM      8  C   UNL     1      -1.426   0.399   0.491  1.00  0.00     0.196 C 
ATOM      9  C   UNL     1      -1.152  -1.086   0.947  1.00  0.00     0.081 C 
ATOM     10  C   UNL     1      -0.107   1.207   0.264  1.00  0.00     0.126 C 
ATOM     11  C   UNL     1       0.290  -1.557   1.279  1.00  0.00     0.011 C 
ATOM     12  C   UNL     1       1.212   0.414   0.078  1.00  0.00     0.180 C 
ATOM     13  C   UNL     1       1.381  -0.506   1.264  1.00  0.00     0.046 C 
BRANCH   8  14
ATOM     14  N   UNL     1      -2.225   0.973   1.610  1.00  0.00    -0.343 N 
ATOM     15  H   UNL     1      -3.077   0.426   1.734  1.00  0.00     0.345 HD
ATOM     16  H   UNL     1      -2.469   1.939   1.393  1.00  0.00     0.345 HD
ATOM     17  H   UNL     1      -1.675   0.945   2.469  1.00  0.00     0.345 HD
ENDBRANCH   8  14
BRANCH  12  18
ATOM     18  O   UNL     1       1.665  -0.203  -1.150  1.00  0.00    -0.490 OA
BRANCH  18  19
ATOM     19  C   UNL     1       1.104  -1.281  -1.778  1.00  0.00     0.120 A 
ATOM     20  C   UNL     1       1.900  -2.166  -2.506  1.00  0.00     0.047 A 
ATOM     21  C   UNL     1      -0.254  -1.361  -1.992  1.00  0.00     0.050 A 
ATOM     22  C   UNL     1       1.322  -3.061  -3.444  1.00  0.00     0.008 A 
ATOM     23  C   UNL     1      -0.848  -2.235  -2.870  1.00  0.00    -0.041 A 
ATOM     24  C   UNL     1      -0.053  -3.052  -3.645  1.00  0.00    -0.045 A 
ATOM     25  C   UNL     1      -2.298  -2.350  -3.219  1.00  0.00     0.036 C 
ATOM     26  C   UNL     1      -0.912  -3.738  -4.666  1.00  0.00     0.036 C 
ATOM     27  C   UNL     1      -2.169  -2.839  -4.658  1.00  0.00     0.010 C 
ENDBRANCH  18  19
ENDBRANCH  12  18
ENDBRANCH   6   8
ENDBRANCH   5   6
ENDBRANCH   4   5
ENDBRANCH   3   4
ENDBRANCH   2   3
ENDBRANCH   1   2
BRANCH   1  28
ATOM     28  C   UNL     1       2.080   1.568  -4.194  1.00  0.00     0.261 C 
BRANCH  28  29
ATOM     29  O   UNL     1       1.790   2.955  -4.125  1.00  0.00    -0.460 OA
BRANCH  29  30
ATOM     30  C   UNL     1       1.849   3.529  -5.350  1.00  0.00     0.338 C 
ATOM     31  O   UNL     1       2.543   3.210  -6.290  1.00  0.00    -0.246 OA
BRANCH  30  32
ATOM     32  C   UNL     1       0.677   4.402  -5.452  1.00  0.00     0.060 A 
ATOM     33  C   UNL     1      -0.167   4.154  -6.539  1.00  0.00     0.016 A 
ATOM     34  C   UNL     1       0.373   5.361  -4.481  1.00  0.00     0.016 A 
ATOM     35  C   UNL     1      -1.286   4.942  -6.715  1.00  0.00     0.010 A 
ATOM     36  C   UNL     1      -0.751   6.156  -4.661  1.00  0.00     0.010 A 
ATOM     37  C   UNL     1      -1.535   5.983  -5.814  1.00  0.00    -0.014 A 
BRANCH  37  38
ATOM     38  C   UNL     1      -2.456   7.038  -6.254  1.00  0.00     0.031 A 
ATOM     39  C   UNL     1      -1.853   8.249  -6.902  1.00  0.00     0.074 A 
ATOM     40  C   UNL     1      -3.781   6.854  -6.169  1.00  0.00     0.049 A 
ATOM     41  N   UNL     1      -2.447   9.283  -7.429  1.00  0.00    -0.248 NA
ATOM     42  C   UNL     1      -0.380   8.298  -6.977  1.00  0.00     0.031 C 
ATOM     43  C   UNL     1      -4.434   5.679  -5.591  1.00  0.00     0.029 A 
ATOM     44  N   UNL     1      -4.811   7.658  -6.568  1.00  0.00    -0.354 N 
ATOM     45  C   UNL     1      -1.426  10.114  -7.870  1.00  0.00     0.074 A 
ATOM     46  C   UNL     1      -0.173   9.474  -7.546  1.00  0.00     0.031 C 
ATOM     47  C   UNL     1      -5.765   5.852  -5.652  1.00  0.00     0.029 A 
ATOM     48  C   UNL     1      -6.046   7.158  -6.242  1.00  0.00     0.049 A 
ATOM     49  H   UNL     1      -4.679   8.511  -7.042  1.00  0.00     0.167 HD
ATOM     50  C   UNL     1      -1.532  11.305  -8.499  1.00  0.00     0.034 A 
ATOM     51  C   UNL     1      -7.260   7.721  -6.381  1.00  0.00     0.034 A 
ATOM     52  C   UNL     1      -2.793  11.912  -8.817  1.00  0.00     0.049 A 
ATOM     53  C   UNL     1      -7.347   9.070  -7.041  1.00  0.00     0.074 A 
ATOM     54  C   UNL     1      -3.032  13.100  -9.480  1.00  0.00     0.029 A 
ATOM     55  N   UNL     1      -4.028  11.384  -8.472  1.00  0.00    -0.354 N 
ATOM     56  N   UNL     1      -6.383   9.808  -7.540  1.00  0.00    -0.248 NA
ATOM     57  C   UNL     1      -8.686   9.652  -7.184  1.00  0.00     0.031 C 
ATOM     58  C   UNL     1      -4.414  13.314  -9.492  1.00  0.00     0.029 A 
ATOM     59  C   UNL     1      -5.037  12.236  -8.881  1.00  0.00     0.049 A 
ATOM     60  H   UNL     1      -4.166  10.528  -8.005  1.00  0.00     0.167 HD
ATOM     61  C   UNL     1      -6.999  10.931  -8.078  1.00  0.00     0.074 A 
ATOM     62  C   UNL     1      -8.424  10.758  -7.867  1.00  0.00     0.031 C 
ATOM     63  C   UNL     1      -6.446  12.014  -8.679  1.00  0.00     0.034 A 
BRANCH  50  64
ATOM     64  C   UNL     1      -0.262  12.024  -8.860  1.00  0.00     0.023 A 
ATOM     65  C   UNL     1       0.559  11.543  -9.900  1.00  0.00     0.012 A 
ATOM     66  C   UNL     1       0.099  13.206  -8.185  1.00  0.00     0.148 A 
ATOM     67  C   UNL     1       1.731  12.215 -10.247  1.00  0.00     0.002 A 
ATOM     68  C   UNL     1       1.242  13.896  -8.567  1.00  0.00     0.091 A 
ATOM     69  F   UNL     1      -0.677  13.627  -7.176  1.00  0.00    -0.205 F 
ATOM     70  C   UNL     1       2.066  13.396  -9.589  1.00  0.00     0.022 A 
BRANCH  68  71
ATOM     71  S   UNL     1       1.717  15.463  -7.832  1.00  0.00     0.127 S 
ATOM     72  O   UNL     1       2.951  15.102  -7.136  1.00  0.00    -0.237 OA
ATOM     73  O   UNL     1       1.906  16.307  -9.012  1.00  0.00    -0.237 OA
ATOM     74  O   UNL     1       0.611  15.858  -6.971  1.00  0.00    -0.744 OA
ENDBRANCH  68  71
ENDBRANCH  50  64
BRANCH  51  75
ATOM     75  C   UNL     1      -8.468   7.013  -5.878  1.00  0.00     0.023 A 
ATOM     76  C   UNL     1      -9.435   6.535  -6.781  1.00  0.00     0.012 A 
ATOM     77  C   UNL     1      -8.642   6.787  -4.499  1.00  0.00     0.148 A 
ATOM     78  C   UNL     1     -10.570   5.868  -6.316  1.00  0.00     0.002 A 
ATOM     79  C   UNL     1      -9.743   6.072  -4.047  1.00  0.00     0.091 A 
ATOM     80  F   UNL     1      -7.716   7.264  -3.655  1.00  0.00    -0.205 F 
ATOM     81  C   UNL     1     -10.718   5.627  -4.952  1.00  0.00     0.022 A 
BRANCH  79  82
ATOM     82  S   UNL     1      -9.942   5.605  -2.324  1.00  0.00     0.127 S 
ATOM     83  O   UNL     1     -11.067   6.442  -1.916  1.00  0.00    -0.237 OA
ATOM     84  O   UNL     1     -10.243   4.177  -2.433  1.00  0.00    -0.237 OA
ATOM     85  O   UNL     1      -8.667   5.902  -1.686  1.00  0.00    -0.744 OA
ENDBRANCH  79  82
ENDBRANCH  51  75
BRANCH  63  86
ATOM     86  C   UNL     1      -7.385  13.082  -9.169  1.00  0.00     0.023 A 
ATOM     87  C   UNL     1      -8.050  13.911  -8.244  1.00  0.00     0.012 A 
ATOM     88  C   UNL     1      -7.550  13.309 -10.549  1.00  0.00     0.148 A 
ATOM     89  C   UNL     1      -8.897  14.925  -8.686  1.00  0.00     0.002 A 
ATOM     90  C   UNL     1      -8.350  14.357 -10.982  1.00  0.00     0.091 A 
ATOM     91  F   UNL     1      -6.916  12.500 -11.411  1.00  0.00    -0.205 F 
ATOM     92  C   UNL     1      -9.037  15.155 -10.053  1.00  0.00     0.022 A 
BRANCH  90  93
ATOM     93  S   UNL     1      -8.509  14.796 -12.715  1.00  0.00     0.127 S 
ATOM     94  O   UNL     1      -9.895  14.421 -12.991  1.00  0.00    -0.237 OA
ATOM     95  O   UNL     1      -8.259  16.237 -12.693  1.00  0.00    -0.237 OA
ATOM     96  O   UNL     1      -7.502  14.017 -13.423  1.00  0.00    -0.744 OA
ENDBRANCH  90  93
ENDBRANCH  63  86
ENDBRANCH  37  38
ENDBRANCH  30  32
ENDBRANCH  29  30
ENDBRANCH  28  29
ENDBRANCH   1  28
TORSDOF 20
