REMARK SMILES CS(=O)(=O)c1ccc(/C=C(/C(=O)OCCOCCOC(=O)c2ccc(-c3c4nc(c(-c5cccc(S(=O)(=O)[O-])c5F)c5ccc([nH]5)c(-c5cccc(S(=O)(=O)[O-])c5F)c5nc(c(-c6cccc(S(=O)(=O)[O-])c6F)c6ccc3[nH]6)C=C5)C=C4)cc2)c2ccccc2)cc1
REMARK SMILES IDX 17 1 16 2 15 3 14 4 13 5 11 6 12 7 10 8 9 9 8 10 5 11 6 12
REMARK SMILES IDX 92 13 7 14 91 15 2 16 1 17 3 18 4 19 85 20 86 21 90 22 87 23
REMARK SMILES IDX 89 24 88 25 18 26 19 27 20 28 21 29 22 30 23 31 84 32 24 33
REMARK SMILES IDX 83 34 25 35 26 36 27 37 77 38 28 39 82 40 76 41 78 42 29 43
REMARK SMILES IDX 81 44 75 45 74 46 30 48 62 49 42 50 61 51 43 52 46 53 60 54
REMARK SMILES IDX 79 55 44 56 45 57 59 59 80 60 47 61 31 62 32 63 40 64 33 65
REMARK SMILES IDX 35 66 41 67 34 68 36 69 37 70 38 71 39 72 63 73 64 74 72 75
REMARK SMILES IDX 65 76 67 77 73 78 66 79 68 80 69 81 70 82 71 83 48 84 49 85
REMARK SMILES IDX 57 86 50 87 52 88 58 89 51 90 53 91 54 92 55 93 56 94
REMARK H PARENT 78 47 46 58
REMARK Flexibility Score: inf
ROOT
ATOM      1  C   UNL     1       5.442   4.816  -8.350  1.00  0.00     0.202 C 
ENDROOT
BRANCH   1   2
ATOM      2  O   UNL     1       5.079   5.472  -9.560  1.00  0.00    -0.374 OA
BRANCH   2   3
ATOM      3  C   UNL     1       3.885   6.257  -9.553  1.00  0.00     0.202 C 
BRANCH   3   4
ATOM      4  C   UNL     1       2.547   5.512  -9.517  1.00  0.00     0.261 C 
BRANCH   4   5
ATOM      5  O   UNL     1       2.401   4.741  -8.312  1.00  0.00    -0.460 OA
BRANCH   5   6
ATOM      6  C   UNL     1       2.294   3.401  -8.503  1.00  0.00     0.338 C 
ATOM      7  O   UNL     1       2.179   2.846  -9.588  1.00  0.00    -0.246 OA
BRANCH   6   8
ATOM      8  C   UNL     1       2.468   2.632  -7.227  1.00  0.00     0.067 C 
ATOM      9  C   UNL     1       2.003   3.129  -6.056  1.00  0.00     0.024 C 
BRANCH   9  10
ATOM     10  C   UNL     1       1.829   2.410  -4.766  1.00  0.00    -0.025 A 
ATOM     11  C   UNL     1       1.046   0.789  -2.610  1.00  0.00     0.067 A 
ATOM     12  C   UNL     1       2.229   0.512  -3.291  1.00  0.00     0.021 A 
ATOM     13  C   UNL     1       0.305   1.929  -2.920  1.00  0.00     0.021 A 
ATOM     14  C   UNL     1       2.636   1.350  -4.333  1.00  0.00     0.009 A 
ATOM     15  C   UNL     1       0.704   2.738  -3.991  1.00  0.00     0.009 A 
BRANCH  11  16
ATOM     16  S   UNL     1       0.404  -0.399  -1.457  1.00  0.00     0.175 S 
ATOM     17  C   UNL     1       1.057   0.125   0.100  1.00  0.00     0.163 C 
ATOM     18  O   UNL     1       0.996  -1.686  -1.777  1.00  0.00    -0.224 OA
ATOM     19  O   UNL     1      -1.038  -0.244  -1.418  1.00  0.00    -0.224 OA
ENDBRANCH  11  16
ENDBRANCH   9  10
BRANCH   8  20
ATOM     20  C   UNL     1       3.092   1.301  -7.367  1.00  0.00    -0.011 A 
ATOM     21  C   UNL     1       4.491   1.200  -7.436  1.00  0.00     0.009 A 
ATOM     22  C   UNL     1       2.319   0.137  -7.399  1.00  0.00     0.009 A 
ATOM     23  C   UNL     1       5.109  -0.047  -7.516  1.00  0.00     0.001 A 
ATOM     24  C   UNL     1       2.940  -1.111  -7.470  1.00  0.00     0.001 A 
ATOM     25  C   UNL     1       4.332  -1.202  -7.527  1.00  0.00     0.000 A 
ENDBRANCH   8  20
ENDBRANCH   6   8
ENDBRANCH   5   6
ENDBRANCH   4   5
ENDBRANCH   3   4
ENDBRANCH   2   3
ENDBRANCH   1   2
BRANCH   1  26
ATOM     26  C   UNL     1       6.082   5.650  -7.233  1.00  0.00     0.261 C 
BRANCH  26  27
ATOM     27  O   UNL     1       5.291   6.780  -6.847  1.00  0.00    -0.460 OA
BRANCH  27  28
ATOM     28  C   UNL     1       5.750   7.964  -7.316  1.00  0.00     0.338 C 
ATOM     29  O   UNL     1       6.785   8.160  -7.942  1.00  0.00    -0.246 OA
BRANCH  28  30
ATOM     30  C   UNL     1       4.727   9.006  -7.130  1.00  0.00     0.060 A 
ATOM     31  C   UNL     1       4.335   9.732  -8.262  1.00  0.00     0.016 A 
ATOM     32  C   UNL     1       4.197   9.302  -5.873  1.00  0.00     0.016 A 
ATOM     33  C   UNL     1       3.443  10.792  -8.134  1.00  0.00     0.010 A 
ATOM     34  C   UNL     1       3.307  10.373  -5.745  1.00  0.00     0.010 A 
ATOM     35  C   UNL     1       2.955  11.143  -6.869  1.00  0.00    -0.014 A 
BRANCH  35  36
ATOM     36  C   UNL     1       2.176  12.393  -6.711  1.00  0.00     0.031 A 
ATOM     37  C   UNL     1       2.858  13.617  -6.168  1.00  0.00     0.074 A 
ATOM     38  C   UNL     1       0.877  12.435  -7.057  1.00  0.00     0.049 A 
ATOM     39  N   UNL     1       2.367  14.808  -5.948  1.00  0.00    -0.248 NA
ATOM     40  C   UNL     1       4.284  13.481  -5.825  1.00  0.00     0.031 C 
ATOM     41  C   UNL     1       0.109  11.311  -7.589  1.00  0.00     0.029 A 
ATOM     42  N   UNL     1      -0.030  13.462  -6.988  1.00  0.00    -0.354 N 
ATOM     43  C   UNL     1       3.409  15.555  -5.414  1.00  0.00     0.074 A 
ATOM     44  C   UNL     1       4.559  14.680  -5.332  1.00  0.00     0.031 C 
ATOM     45  C   UNL     1      -1.163  11.702  -7.773  1.00  0.00     0.029 A 
ATOM     46  C   UNL     1      -1.303  13.094  -7.351  1.00  0.00     0.049 A 
ATOM     47  H   UNL     1       0.209  14.375  -6.705  1.00  0.00     0.167 HD
ATOM     48  C   UNL     1       3.414  16.856  -5.040  1.00  0.00     0.034 A 
ATOM     49  C   UNL     1      -2.453  13.796  -7.324  1.00  0.00     0.034 A 
ATOM     50  C   UNL     1       2.274  17.727  -5.142  1.00  0.00     0.049 A 
ATOM     51  C   UNL     1      -2.425  15.238  -6.891  1.00  0.00     0.074 A 
ATOM     52  C   UNL     1       2.194  19.076  -4.846  1.00  0.00     0.029 A 
ATOM     53  N   UNL     1       1.011  17.333  -5.556  1.00  0.00    -0.354 N 
ATOM     54  N   UNL     1      -1.402  15.967  -6.514  1.00  0.00    -0.248 NA
ATOM     55  C   UNL     1      -3.703  15.965  -6.914  1.00  0.00     0.031 C 
ATOM     56  C   UNL     1       0.874  19.490  -5.050  1.00  0.00     0.029 A 
ATOM     57  C   UNL     1       0.139  18.407  -5.506  1.00  0.00     0.049 A 
ATOM     58  H   UNL     1       0.770  16.423  -5.843  1.00  0.00     0.167 HD
ATOM     59  C   UNL     1      -1.905  17.244  -6.287  1.00  0.00     0.074 A 
ATOM     60  C   UNL     1      -3.321  17.193  -6.590  1.00  0.00     0.031 C 
ATOM     61  C   UNL     1      -1.258  18.355  -5.856  1.00  0.00     0.034 A 
BRANCH  48  62
ATOM     62  C   UNL     1       4.700  17.425  -4.502  1.00  0.00     0.023 A 
ATOM     63  C   UNL     1       5.779  17.666  -5.376  1.00  0.00     0.012 A 
ATOM     64  C   UNL     1       4.822  17.770  -3.142  1.00  0.00     0.148 A 
ATOM     65  C   UNL     1       6.970  18.213  -4.899  1.00  0.00     0.002 A 
ATOM     66  C   UNL     1       5.995  18.356  -2.683  1.00  0.00     0.091 A 
ATOM     67  F   UNL     1       3.793  17.510  -2.322  1.00  0.00    -0.205 F 
ATOM     68  C   UNL     1       7.074  18.567  -3.557  1.00  0.00     0.022 A 
BRANCH  66  69
ATOM     69  S   UNL     1       6.197  18.917  -0.989  1.00  0.00     0.127 S 
ATOM     70  O   UNL     1       7.146  17.936  -0.464  1.00  0.00    -0.237 OA
ATOM     71  O   UNL     1       6.750  20.260  -1.173  1.00  0.00    -0.237 OA
ATOM     72  O   UNL     1       4.869  18.884  -0.393  1.00  0.00    -0.744 OA
ENDBRANCH  66  69
ENDBRANCH  48  62
BRANCH  49  73
ATOM     73  C   UNL     1      -3.725  13.148  -7.750  1.00  0.00     0.023 A 
ATOM     74  C   UNL     1      -4.350  13.552  -8.945  1.00  0.00     0.012 A 
ATOM     75  C   UNL     1      -4.303  12.114  -6.987  1.00  0.00     0.148 A 
ATOM     76  C   UNL     1      -5.543  12.958  -9.358  1.00  0.00     0.002 A 
ATOM     77  C   UNL     1      -5.460  11.487  -7.434  1.00  0.00     0.091 A 
ATOM     78  F   UNL     1      -3.701  11.755  -5.845  1.00  0.00    -0.205 F 
ATOM     79  C   UNL     1      -6.091  11.919  -8.611  1.00  0.00     0.022 A 
BRANCH  77  80
ATOM     80  S   UNL     1      -6.159  10.055  -6.606  1.00  0.00     0.127 S 
ATOM     81  O   UNL     1      -7.390  10.605  -6.045  1.00  0.00    -0.237 OA
ATOM     82  O   UNL     1      -6.348   9.126  -7.721  1.00  0.00    -0.237 OA
ATOM     83  O   UNL     1      -5.156   9.632  -5.638  1.00  0.00    -0.744 OA
ENDBRANCH  77  80
ENDBRANCH  49  73
BRANCH  61  84
ATOM     84  C   UNL     1      -2.060  19.623  -5.714  1.00  0.00     0.023 A 
ATOM     85  C   UNL     1      -2.988  19.753  -4.662  1.00  0.00     0.012 A 
ATOM     86  C   UNL     1      -1.838  20.713  -6.579  1.00  0.00     0.148 A 
ATOM     87  C   UNL     1      -3.708  20.936  -4.495  1.00  0.00     0.002 A 
ATOM     88  C   UNL     1      -2.522  21.906  -6.375  1.00  0.00     0.091 A 
ATOM     89  F   UNL     1      -0.963  20.564  -7.584  1.00  0.00    -0.205 F 
ATOM     90  C   UNL     1      -3.466  22.015  -5.342  1.00  0.00     0.022 A 
BRANCH  88  91
ATOM     91  S   UNL     1      -2.204  23.377  -7.355  1.00  0.00     0.127 S 
ATOM     92  O   UNL     1      -3.412  23.455  -8.176  1.00  0.00    -0.237 OA
ATOM     93  O   UNL     1      -2.096  24.416  -6.330  1.00  0.00    -0.237 OA
ATOM     94  O   UNL     1      -0.969  23.116  -8.083  1.00  0.00    -0.744 OA
ENDBRANCH  88  91
ENDBRANCH  61  84
ENDBRANCH  35  36
ENDBRANCH  28  30
ENDBRANCH  27  28
ENDBRANCH  26  27
ENDBRANCH   1  26
TORSDOF 20
