REMARK SMILES CCOc1cc2c(cc1OCC)[C@@H](C(=O)OCCOCCOC(=O)c1ccc(-c3c4nc(c(-c5cccc(S(=O)(=O)[O-])c5F)c5ccc([nH]5)c(-c5cccc(S(=O)(=O)[O-])c5F)c5nc(c(-c6cccc(S(=O)(=O)[O-])c6F)c6ccc3[nH]6)C=C5)C=C4)cc1)[C@H](c1ccc(F)cc1Cl)N(C)C2=O
REMARK SMILES IDX 20 1 19 2 18 3 17 4 16 5 14 6 15 7 13 8 4 9 5 10 9 11 6 12
REMARK SMILES IDX 8 13 7 14 99 15 97 16 100 17 88 18 98 19 3 20 2 21 1 22
REMARK SMILES IDX 10 23 11 24 12 25 89 26 90 27 95 28 91 29 94 30 96 31 92 32
REMARK SMILES IDX 93 33 21 34 22 35 23 36 24 37 25 38 26 39 87 40 27 41 86 42
REMARK SMILES IDX 28 43 29 44 30 45 80 46 31 47 85 48 79 49 81 50 32 51 84 52
REMARK SMILES IDX 78 53 77 54 33 56 65 57 45 58 64 59 46 60 49 61 63 62 82 63
REMARK SMILES IDX 47 64 48 65 62 67 83 68 50 69 34 70 35 71 43 72 36 73 38 74
REMARK SMILES IDX 44 75 37 76 39 77 40 78 41 79 42 80 66 81 67 82 75 83 68 84
REMARK SMILES IDX 70 85 76 86 69 87 71 88 72 89 73 90 74 91 51 92 52 93 60 94
REMARK SMILES IDX 53 95 55 96 61 97 54 98 56 99 57 100 58 101 59 102
REMARK H PARENT 81 55 49 66
REMARK Flexibility Score: inf
ROOT
ATOM      1  C   UNL     1      10.006  -1.681  -2.568  1.00  0.00     0.202 C 
ENDROOT
BRANCH   1   2
ATOM      2  O   UNL     1       9.942  -0.625  -3.523  1.00  0.00    -0.374 OA
BRANCH   2   3
ATOM      3  C   UNL     1       9.082   0.475  -3.218  1.00  0.00     0.202 C 
BRANCH   3   4
ATOM      4  C   UNL     1       7.596   0.256  -3.502  1.00  0.00     0.261 C 
BRANCH   4   5
ATOM      5  O   UNL     1       7.003  -0.657  -2.561  1.00  0.00    -0.463 OA
BRANCH   5   6
ATOM      6  C   UNL     1       6.771  -1.919  -2.998  1.00  0.00     0.316 C 
ATOM      7  O   UNL     1       7.074  -2.344  -4.109  1.00  0.00    -0.251 OA
BRANCH   6   8
ATOM      8  C   UNL     1       6.040  -2.778  -1.980  1.00  0.00     0.157 C 
ATOM      9  C   UNL     1       1.931  -1.584  -1.642  1.00  0.00     0.161 A 
ATOM     10  C   UNL     1       2.893  -1.105  -0.741  1.00  0.00     0.064 A 
ATOM     11  C   UNL     1       2.314  -2.448  -2.681  1.00  0.00     0.161 A 
ATOM     12  C   UNL     1       4.230  -1.458  -0.876  1.00  0.00     0.048 A 
ATOM     13  C   UNL     1       3.657  -2.820  -2.785  1.00  0.00     0.056 A 
ATOM     14  C   UNL     1       4.607  -2.348  -1.878  1.00  0.00    -0.015 A 
ATOM     15  C   UNL     1       5.252  -0.884   0.043  1.00  0.00     0.254 C 
ATOM     16  N   UNL     1       6.456  -1.580   0.147  1.00  0.00    -0.333 N 
ATOM     17  O   UNL     1       5.014   0.153   0.651  1.00  0.00    -0.269 OA
ATOM     18  C   UNL     1       6.668  -2.845  -0.553  1.00  0.00     0.135 C 
ATOM     19  C   UNL     1       7.498  -1.027   0.995  1.00  0.00     0.147 C 
BRANCH   9  20
ATOM     20  O   UNL     1       0.614  -1.285  -1.419  1.00  0.00    -0.490 OA
BRANCH  20  21
ATOM     21  C   UNL     1       0.325   0.122  -1.395  1.00  0.00     0.226 C 
ATOM     22  C   UNL     1       0.263   0.667   0.024  1.00  0.00     0.049 C 
ENDBRANCH  20  21
ENDBRANCH   9  20
BRANCH  11  23
ATOM     23  O   UNL     1       1.572  -3.027  -3.669  1.00  0.00    -0.490 OA
BRANCH  23  24
ATOM     24  C   UNL     1       0.172  -2.811  -3.751  1.00  0.00     0.226 C 
ATOM     25  C   UNL     1      -0.564  -3.814  -2.883  1.00  0.00     0.049 C 
ENDBRANCH  23  24
ENDBRANCH  11  23
BRANCH  18  26
ATOM     26  C   UNL     1       6.185  -4.118   0.199  1.00  0.00    -0.005 A 
ATOM     27  C   UNL     1       6.502  -5.353  -0.429  1.00  0.00     0.010 A 
ATOM     28  C   UNL     1       5.431  -4.199   1.394  1.00  0.00     0.049 A 
ATOM     29  C   UNL     1       6.017  -6.576   0.043  1.00  0.00     0.040 A 
ATOM     30  C   UNL     1       4.957  -5.434   1.867  1.00  0.00     0.060 A 
ATOM     31  Cl  UNL     1       5.014  -2.882   2.425  1.00  0.00    -0.084 Cl
ATOM     32  C   UNL     1       5.236  -6.602   1.182  1.00  0.00     0.124 A 
ATOM     33  F   UNL     1       4.754  -7.767   1.632  1.00  0.00    -0.207 F 
ENDBRANCH  18  26
ENDBRANCH   6   8
ENDBRANCH   5   6
ENDBRANCH   4   5
ENDBRANCH   3   4
ENDBRANCH   2   3
ENDBRANCH   1   2
BRANCH   1  34
ATOM     34  C   UNL     1      10.937  -1.461  -1.374  1.00  0.00     0.261 C 
BRANCH  34  35
ATOM     35  O   UNL     1      10.469  -0.399  -0.525  1.00  0.00    -0.460 OA
BRANCH  35  36
ATOM     36  C   UNL     1      11.195   0.739  -0.605  1.00  0.00     0.338 C 
ATOM     37  O   UNL     1      12.236   0.897  -1.238  1.00  0.00    -0.246 OA
BRANCH  36  38
ATOM     38  C   UNL     1      10.494   1.862   0.042  1.00  0.00     0.060 A 
ATOM     39  C   UNL     1      10.460   3.074  -0.657  1.00  0.00     0.016 A 
ATOM     40  C   UNL     1       9.956   1.773   1.329  1.00  0.00     0.016 A 
ATOM     41  C   UNL     1       9.976   4.222  -0.039  1.00  0.00     0.010 A 
ATOM     42  C   UNL     1       9.454   2.926   1.944  1.00  0.00     0.010 A 
ATOM     43  C   UNL     1       9.523   4.167   1.286  1.00  0.00    -0.014 A 
BRANCH  43  44
ATOM     44  C   UNL     1       9.314   5.441   2.019  1.00  0.00     0.031 A 
ATOM     45  C   UNL     1      10.370   5.902   2.992  1.00  0.00     0.074 A 
ATOM     46  C   UNL     1       8.240   6.214   1.775  1.00  0.00     0.049 A 
ATOM     47  N   UNL     1      10.436   7.013   3.678  1.00  0.00    -0.248 NA
ATOM     48  C   UNL     1      11.503   4.989   3.223  1.00  0.00     0.031 C 
ATOM     49  C   UNL     1       7.149   5.878   0.862  1.00  0.00     0.029 A 
ATOM     50  N   UNL     1       7.891   7.441   2.281  1.00  0.00    -0.354 N 
ATOM     51  C   UNL     1      11.597   6.923   4.438  1.00  0.00     0.074 A 
ATOM     52  C   UNL     1      12.194   5.638   4.147  1.00  0.00     0.031 C 
ATOM     53  C   UNL     1       6.246   6.874   0.879  1.00  0.00     0.029 A 
ATOM     54  C   UNL     1       6.687   7.908   1.813  1.00  0.00     0.049 A 
ATOM     55  H   UNL     1       8.451   7.939   2.920  1.00  0.00     0.167 HD
ATOM     56  C   UNL     1      12.135   7.835   5.282  1.00  0.00     0.034 A 
ATOM     57  C   UNL     1       6.016   9.040   2.108  1.00  0.00     0.034 A 
ATOM     58  C   UNL     1      11.561   9.125   5.544  1.00  0.00     0.049 A 
ATOM     59  C   UNL     1       6.636  10.040   3.050  1.00  0.00     0.074 A 
ATOM     60  C   UNL     1      12.056  10.140   6.344  1.00  0.00     0.029 A 
ATOM     61  N   UNL     1      10.361   9.578   5.019  1.00  0.00    -0.354 N 
ATOM     62  N   UNL     1       7.797   9.993   3.658  1.00  0.00    -0.248 NA
ATOM     63  C   UNL     1       5.873  11.269   3.313  1.00  0.00     0.031 C 
ATOM     64  C   UNL     1      11.142  11.199   6.321  1.00  0.00     0.029 A 
ATOM     65  C   UNL     1      10.093  10.854   5.483  1.00  0.00     0.049 A 
ATOM     66  H   UNL     1       9.784   9.067   4.407  1.00  0.00     0.167 HD
ATOM     67  C   UNL     1       7.920  11.198   4.343  1.00  0.00     0.074 A 
ATOM     68  C   UNL     1       6.723  11.962   4.059  1.00  0.00     0.031 C 
ATOM     69  C   UNL     1       8.927  11.628   5.144  1.00  0.00     0.034 A 
BRANCH  56  70
ATOM     70  C   UNL     1      13.434   7.480   5.958  1.00  0.00     0.023 A 
ATOM     71  C   UNL     1      14.628   7.463   5.209  1.00  0.00     0.012 A 
ATOM     72  C   UNL     1      13.481   7.216   7.340  1.00  0.00     0.148 A 
ATOM     73  C   UNL     1      15.844   7.157   5.818  1.00  0.00     0.002 A 
ATOM     74  C   UNL     1      14.703   6.954   7.949  1.00  0.00     0.091 A 
ATOM     75  F   UNL     1      12.332   7.212   8.031  1.00  0.00    -0.205 F 
ATOM     76  C   UNL     1      15.883   6.913   7.188  1.00  0.00     0.022 A 
BRANCH  74  77
ATOM     77  S   UNL     1      14.867   6.704   9.720  1.00  0.00     0.127 S 
ATOM     78  O   UNL     1      15.139   5.269   9.792  1.00  0.00    -0.237 OA
ATOM     79  O   UNL     1      16.009   7.558  10.049  1.00  0.00    -0.237 OA
ATOM     80  O   UNL     1      13.603   7.131  10.304  1.00  0.00    -0.744 OA
ENDBRANCH  74  77
ENDBRANCH  56  70
BRANCH  57  81
ATOM     81  C   UNL     1       4.702   9.315   1.458  1.00  0.00     0.023 A 
ATOM     82  C   UNL     1       4.597  10.354   0.513  1.00  0.00     0.012 A 
ATOM     83  C   UNL     1       3.563   8.543   1.758  1.00  0.00     0.148 A 
ATOM     84  C   UNL     1       3.376  10.638  -0.100  1.00  0.00     0.002 A 
ATOM     85  C   UNL     1       2.363   8.795   1.104  1.00  0.00     0.091 A 
ATOM     86  F   UNL     1       3.679   7.571   2.675  1.00  0.00    -0.205 F 
ATOM     87  C   UNL     1       2.263   9.852   0.187  1.00  0.00     0.022 A 
BRANCH  85  88
ATOM     88  S   UNL     1       0.911   7.758   1.317  1.00  0.00     0.127 S 
ATOM     89  O   UNL     1       0.016   8.645   2.055  1.00  0.00    -0.237 OA
ATOM     90  O   UNL     1       0.518   7.500  -0.069  1.00  0.00    -0.237 OA
ATOM     91  O   UNL     1       1.371   6.580   2.039  1.00  0.00    -0.744 OA
ENDBRANCH  85  88
ENDBRANCH  57  81
BRANCH  69  92
ATOM     92  C   UNL     1       8.810  13.006   5.743  1.00  0.00     0.023 A 
ATOM     93  C   UNL     1       7.895  13.242   6.787  1.00  0.00     0.012 A 
ATOM     94  C   UNL     1       9.668  14.044   5.327  1.00  0.00     0.148 A 
ATOM     95  C   UNL     1       7.814  14.499   7.387  1.00  0.00     0.002 A 
ATOM     96  C   UNL     1       9.615  15.279   5.962  1.00  0.00     0.091 A 
ATOM     97  F   UNL     1      10.521  13.805   4.320  1.00  0.00    -0.205 F 
ATOM     98  C   UNL     1       8.681  15.512   6.983  1.00  0.00     0.022 A 
BRANCH  96  99
ATOM     99  S   UNL     1      10.759  16.609   5.574  1.00  0.00     0.127 S 
ATOM    100  O   UNL     1       9.907  17.526   4.819  1.00  0.00    -0.237 OA
ATOM    101  O   UNL     1      11.144  17.088   6.902  1.00  0.00    -0.237 OA
ATOM    102  O   UNL     1      11.844  15.996   4.818  1.00  0.00    -0.744 OA
ENDBRANCH  96  99
ENDBRANCH  69  92
ENDBRANCH  43  44
ENDBRANCH  36  38
ENDBRANCH  35  36
ENDBRANCH  34  35
ENDBRANCH   1  34
TORSDOF 22
