REMARK SMILES COc1ccc(-c2ccc(C(=O)NCc3ccc(C(=O)OCCOCCOC(=O)c4ccc(-c5c6nc(c(-c7cccc(S(=O)(=O)[O-])c7F)c7ccc([nH]7)c(-c7cccc(S(=O)(=O)[O-])c7F)c7nc(c(-c8cccc(S(=O)(=O)[O-])c8F)c8ccc5[nH]8)C=C7)C=C6)cc4)cc3)o2)c([N+](=O)[O-])c1
REMARK SMILES IDX 23 1 22 2 21 3 19 4 20 5 18 6 15 7 16 8 94 9 17 10 93 11
REMARK SMILES IDX 14 12 13 13 11 14 12 15 10 17 7 18 8 19 95 20 9 21 6 22 3 23
REMARK SMILES IDX 4 24 100 25 5 26 96 27 2 28 1 29 97 30 98 31 99 32 24 33
REMARK SMILES IDX 25 34 26 35 27 36 28 37 29 38 30 39 31 40 92 41 32 42 91 43
REMARK SMILES IDX 33 44 34 45 35 46 85 47 36 48 90 49 84 50 86 51 37 52 89 53
REMARK SMILES IDX 83 54 82 55 38 57 70 58 50 59 69 60 51 61 54 62 68 63 87 64
REMARK SMILES IDX 52 65 53 66 67 68 88 69 55 70 39 71 40 72 48 73 41 74 43 75
REMARK SMILES IDX 49 76 42 77 44 78 45 79 46 80 47 81 71 82 72 83 80 84 73 85
REMARK SMILES IDX 75 86 81 87 74 88 76 89 77 90 78 91 79 92 56 93 57 94 65 95
REMARK SMILES IDX 58 96 60 97 66 98 59 99 61 100 62 101 63 102 64 103
REMARK H PARENT 13 16 86 56 54 67
REMARK Flexibility Score: inf
ROOT
ATOM      1  C   UNL     1       2.667  -6.902  16.489  1.00  0.00     0.202 C 
ENDROOT
BRANCH   1   2
ATOM      2  C   UNL     1       1.371  -7.231  15.742  1.00  0.00     0.261 C 
BRANCH   2   3
ATOM      3  O   UNL     1       1.641  -7.681  14.404  1.00  0.00    -0.460 OA
BRANCH   3   4
ATOM      4  C   UNL     1       1.284  -6.816  13.429  1.00  0.00     0.338 C 
ATOM      5  O   UNL     1       0.666  -5.767  13.568  1.00  0.00    -0.246 OA
BRANCH   4   6
ATOM      6  C   UNL     1       1.891  -7.210  12.138  1.00  0.00     0.060 A 
ATOM      7  C   UNL     1       2.966  -7.795   9.606  1.00  0.00    -0.029 A 
ATOM      8  C   UNL     1       2.736  -6.470   9.994  1.00  0.00     0.006 A 
ATOM      9  C   UNL     1       2.690  -8.825  10.523  1.00  0.00     0.006 A 
ATOM     10  C   UNL     1       2.201  -6.180  11.246  1.00  0.00     0.016 A 
ATOM     11  C   UNL     1       2.163  -8.536  11.788  1.00  0.00     0.016 A 
BRANCH   7  12
ATOM     12  C   UNL     1       3.406  -8.117   8.199  1.00  0.00     0.152 C 
BRANCH  12  13
ATOM     13  N   UNL     1       2.260  -8.181   7.319  1.00  0.00    -0.345 N 
ATOM     14  C   UNL     1       1.714  -7.319   6.402  1.00  0.00     0.287 C 
ATOM     15  O   UNL     1       0.695  -7.734   5.841  1.00  0.00    -0.266 OA
ATOM     16  H   UNL     1       1.762  -9.027   7.395  1.00  0.00     0.164 HD
BRANCH  14  17
ATOM     17  C   UNL     1       2.282  -6.014   6.098  1.00  0.00     0.192 A 
ATOM     18  C   UNL     1       2.325  -4.136   4.907  1.00  0.00     0.142 A 
ATOM     19  C   UNL     1       3.336  -4.028   5.831  1.00  0.00     0.052 A 
ATOM     20  O   UNL     1       1.667  -5.312   5.079  1.00  0.00    -0.451 OA
ATOM     21  C   UNL     1       3.320  -5.233   6.577  1.00  0.00     0.057 A 
BRANCH  18  22
ATOM     22  C   UNL     1       1.841  -3.276   3.840  1.00  0.00     0.095 A 
ATOM     23  C   UNL     1       0.856  -1.402   1.949  1.00  0.00     0.125 A 
ATOM     24  C   UNL     1       0.019  -1.936   2.932  1.00  0.00     0.047 A 
ATOM     25  C   UNL     1       2.182  -1.821   1.887  1.00  0.00     0.132 A 
ATOM     26  C   UNL     1       0.500  -2.869   3.859  1.00  0.00     0.023 A 
ATOM     27  C   UNL     1       2.661  -2.753   2.827  1.00  0.00     0.284 A 
BRANCH  23  28
ATOM     28  O   UNL     1       0.271  -0.471   1.138  1.00  0.00    -0.497 OA
ATOM     29  C   UNL     1       0.979  -0.103  -0.040  1.00  0.00     0.278 C 
ENDBRANCH  23  28
BRANCH  27  30
ATOM     30  N   UNL     1       4.056  -3.159   2.699  1.00  0.00     0.063 N 
ATOM     31  O   UNL     1       4.323  -4.365   2.759  1.00  0.00    -0.258 OA
ATOM     32  O   UNL     1       4.883  -2.258   2.493  1.00  0.00    -0.258 OA
ENDBRANCH  27  30
ENDBRANCH  18  22
ENDBRANCH  14  17
ENDBRANCH  12  13
ENDBRANCH   7  12
ENDBRANCH   4   6
ENDBRANCH   3   4
ENDBRANCH   2   3
ENDBRANCH   1   2
BRANCH   1  33
ATOM     33  O   UNL     1       3.441  -5.819  15.969  1.00  0.00    -0.374 OA
BRANCH  33  34
ATOM     34  C   UNL     1       4.290  -6.105  14.856  1.00  0.00     0.202 C 
BRANCH  34  35
ATOM     35  C   UNL     1       5.619  -6.804  15.169  1.00  0.00     0.261 C 
BRANCH  35  36
ATOM     36  O   UNL     1       5.423  -8.142  15.659  1.00  0.00    -0.460 OA
BRANCH  36  37
ATOM     37  C   UNL     1       5.711  -8.310  16.971  1.00  0.00     0.338 C 
ATOM     38  O   UNL     1       6.201  -7.480  17.729  1.00  0.00    -0.246 OA
BRANCH  37  39
ATOM     39  C   UNL     1       5.183  -9.600  17.451  1.00  0.00     0.060 A 
ATOM     40  C   UNL     1       4.385  -9.575  18.601  1.00  0.00     0.016 A 
ATOM     41  C   UNL     1       5.517 -10.813  16.843  1.00  0.00     0.016 A 
ATOM     42  C   UNL     1       3.973 -10.768  19.189  1.00  0.00     0.010 A 
ATOM     43  C   UNL     1       5.104 -12.011  17.439  1.00  0.00     0.010 A 
ATOM     44  C   UNL     1       4.370 -11.994  18.639  1.00  0.00    -0.014 A 
BRANCH  44  45
ATOM     45  C   UNL     1       4.138 -13.237  19.414  1.00  0.00     0.031 A 
ATOM     46  C   UNL     1       5.277 -13.840  20.193  1.00  0.00     0.074 A 
ATOM     47  C   UNL     1       2.917 -13.801  19.460  1.00  0.00     0.049 A 
ATOM     48  N   UNL     1       5.281 -14.887  20.976  1.00  0.00    -0.248 NA
ATOM     49  C   UNL     1       6.585 -13.175  20.072  1.00  0.00     0.031 C 
ATOM     50  C   UNL     1       1.737 -13.316  18.748  1.00  0.00     0.029 A 
ATOM     51  N   UNL     1       2.475 -14.913  20.131  1.00  0.00    -0.354 N 
ATOM     52  C   UNL     1       6.590 -15.021  21.424  1.00  0.00     0.074 A 
ATOM     53  C   UNL     1       7.358 -13.960  20.809  1.00  0.00     0.031 C 
ATOM     54  C   UNL     1       0.705 -14.139  19.005  1.00  0.00     0.029 A 
ATOM     55  C   UNL     1       1.156 -15.214  19.888  1.00  0.00     0.049 A 
ATOM     56  H   UNL     1       3.048 -15.445  20.729  1.00  0.00     0.167 HD
ATOM     57  C   UNL     1       7.104 -15.930  22.287  1.00  0.00     0.034 A 
ATOM     58  C   UNL     1       0.402 -16.243  20.321  1.00  0.00     0.034 A 
ATOM     59  C   UNL     1       6.338 -16.971  22.917  1.00  0.00     0.049 A 
ATOM     60  C   UNL     1       1.001 -17.246  21.273  1.00  0.00     0.074 A 
ATOM     61  C   UNL     1       6.757 -17.907  23.846  1.00  0.00     0.029 A 
ATOM     62  N   UNL     1       4.996 -17.223  22.675  1.00  0.00    -0.354 N 
ATOM     63  N   UNL     1       2.205 -17.279  21.791  1.00  0.00    -0.248 NA
ATOM     64  C   UNL     1       0.122 -18.333  21.731  1.00  0.00     0.031 C 
ATOM     65  C   UNL     1       5.675 -18.742  24.145  1.00  0.00     0.029 A 
ATOM     66  C   UNL     1       4.574 -18.308  23.425  1.00  0.00     0.049 A 
ATOM     67  H   UNL     1       4.427 -16.706  22.060  1.00  0.00     0.167 HD
ATOM     68  C   UNL     1       2.219 -18.367  22.658  1.00  0.00     0.074 A 
ATOM     69  C   UNL     1       0.894 -18.950  22.616  1.00  0.00     0.031 C 
ATOM     70  C   UNL     1       3.240 -18.852  23.409  1.00  0.00     0.034 A 
BRANCH  57  71
ATOM     71  C   UNL     1       8.568 -15.819  22.624  1.00  0.00     0.023 A 
ATOM     72  C   UNL     1       9.015 -14.771  23.454  1.00  0.00     0.012 A 
ATOM     73  C   UNL     1       9.492 -16.777  22.163  1.00  0.00     0.148 A 
ATOM     74  C   UNL     1      10.363 -14.659  23.795  1.00  0.00     0.002 A 
ATOM     75  C   UNL     1      10.826 -16.684  22.542  1.00  0.00     0.091 A 
ATOM     76  F   UNL     1       9.052 -17.752  21.355  1.00  0.00    -0.205 F 
ATOM     77  C   UNL     1      11.265 -15.621  23.348  1.00  0.00     0.022 A 
BRANCH  75  78
ATOM     78  S   UNL     1      12.052 -17.914  22.080  1.00  0.00     0.127 S 
ATOM     79  O   UNL     1      12.857 -17.175  21.108  1.00  0.00    -0.237 OA
ATOM     80  O   UNL     1      12.722 -18.175  23.354  1.00  0.00    -0.237 OA
ATOM     81  O   UNL     1      11.305 -19.043  21.543  1.00  0.00    -0.744 OA
ENDBRANCH  75  78
ENDBRANCH  57  71
BRANCH  58  82
ATOM     82  C   UNL     1      -1.020 -16.356  19.892  1.00  0.00     0.023 A 
ATOM     83  C   UNL     1      -2.051 -16.159  20.831  1.00  0.00     0.012 A 
ATOM     84  C   UNL     1      -1.355 -16.647  18.555  1.00  0.00     0.148 A 
ATOM     85  C   UNL     1      -3.389 -16.281  20.453  1.00  0.00     0.002 A 
ATOM     86  C   UNL     1      -2.690 -16.710  18.173  1.00  0.00     0.091 A 
ATOM     87  F   UNL     1      -0.359 -16.849  17.680  1.00  0.00    -0.205 F 
ATOM     88  C   UNL     1      -3.708 -16.545  19.124  1.00  0.00     0.022 A 
BRANCH  86  89
ATOM     89  S   UNL     1      -3.191 -16.916  16.461  1.00  0.00     0.127 S 
ATOM     90  O   UNL     1      -3.725 -18.275  16.467  1.00  0.00    -0.237 OA
ATOM     91  O   UNL     1      -4.192 -15.859  16.311  1.00  0.00    -0.237 OA
ATOM     92  O   UNL     1      -1.983 -16.712  15.672  1.00  0.00    -0.744 OA
ENDBRANCH  86  89
ENDBRANCH  58  82
BRANCH  70  93
ATOM     93  C   UNL     1       2.962 -20.060  24.267  1.00  0.00     0.023 A 
ATOM     94  C   UNL     1       2.776 -21.320  23.663  1.00  0.00     0.012 A 
ATOM     95  C   UNL     1       2.939 -19.959  25.672  1.00  0.00     0.148 A 
ATOM     96  C   UNL     1       2.529 -22.451  24.440  1.00  0.00     0.002 A 
ATOM     97  C   UNL     1       2.742 -21.100  26.443  1.00  0.00     0.091 A 
ATOM     98  F   UNL     1       3.099 -18.751  26.231  1.00  0.00    -0.205 F 
ATOM     99  C   UNL     1       2.522 -22.343  25.829  1.00  0.00     0.022 A 
BRANCH  97 100
ATOM    100  S   UNL     1       2.814 -21.068  28.238  1.00  0.00     0.127 S 
ATOM    101  O   UNL     1       1.399 -21.149  28.595  1.00  0.00    -0.237 OA
ATOM    102  O   UNL     1       3.589 -22.272  28.541  1.00  0.00    -0.237 OA
ATOM    103  O   UNL     1       3.481 -19.821  28.587  1.00  0.00    -0.744 OA
ENDBRANCH  97 100
ENDBRANCH  70  93
ENDBRANCH  44  45
ENDBRANCH  37  39
ENDBRANCH  36  37
ENDBRANCH  35  36
ENDBRANCH  34  35
ENDBRANCH  33  34
ENDBRANCH   1  33
TORSDOF 23
