REMARK SMILES O=C(Cn1c(=O)n(Cc2cccnc2)c(=O)c2sccc21)OCCOCCOC(=O)c1ccc(-c2c3nc(c(-c4cccc(S(=O)(=O)[O-])c4F)c4ccc([nH]4)c(-c4cccc(S(=O)(=O)[O-])c4F)c4nc(c(-c5cccc(S(=O)(=O)[O-])c5F)c5ccc2[nH]5)C=C4)C=C3)cc1
REMARK SMILES IDX 25 1 24 2 23 3 22 4 2 5 1 6 3 7 4 8 5 9 21 10 6 11 7 12
REMARK SMILES IDX 17 13 20 14 15 15 18 16 19 17 16 18 8 19 9 20 10 21 14 22
REMARK SMILES IDX 11 23 13 24 12 25 26 26 27 27 28 28 29 29 30 30 31 31 32 32
REMARK SMILES IDX 93 33 33 34 92 35 34 36 35 37 36 38 86 39 37 40 91 41 85 42
REMARK SMILES IDX 87 43 38 44 90 45 84 46 83 47 39 49 71 50 51 51 70 52 52 53
REMARK SMILES IDX 55 54 69 55 88 56 53 57 54 58 68 60 89 61 56 62 40 63 41 64
REMARK SMILES IDX 49 65 42 66 44 67 50 68 43 69 45 70 46 71 47 72 48 73 72 74
REMARK SMILES IDX 73 75 81 76 74 77 76 78 82 79 75 80 77 81 78 82 79 83 80 84
REMARK SMILES IDX 57 85 58 86 66 87 59 88 61 89 67 90 60 91 62 92 63 93 64 94
REMARK SMILES IDX 65 95
REMARK H PARENT 87 48 55 59
REMARK Flexibility Score: inf
ROOT
ATOM      1  O   UNL     1       4.496  -1.818   0.018  1.00  0.00    -0.374 OA
ENDROOT
BRANCH   1   2
ATOM      2  C   UNL     1       4.964  -0.610   0.610  1.00  0.00     0.202 C 
BRANCH   2   3
ATOM      3  C   UNL     1       4.341   0.702   0.144  1.00  0.00     0.261 C 
BRANCH   3   4
ATOM      4  O   UNL     1       2.910   0.749   0.234  1.00  0.00    -0.462 OA
BRANCH   4   5
ATOM      5  C   UNL     1       2.017   0.280  -0.662  1.00  0.00     0.326 C 
ATOM      6  O   UNL     1       0.841   0.144  -0.311  1.00  0.00    -0.250 OA
BRANCH   5   7
ATOM      7  C   UNL     1       2.450  -0.278  -2.018  1.00  0.00     0.250 C 
BRANCH   7   8
ATOM      8  N   UNL     1       3.583   0.314  -2.710  1.00  0.00    -0.281 N 
ATOM      9  C   UNL     1       3.489   1.692  -2.951  1.00  0.00     0.332 A 
ATOM     10  C   UNL     1       4.638  -0.425  -3.251  1.00  0.00     0.070 A 
ATOM     11  O   UNL     1       2.504   2.330  -2.574  1.00  0.00    -0.247 OA
ATOM     12  N   UNL     1       4.554   2.302  -3.604  1.00  0.00    -0.254 N 
ATOM     13  C   UNL     1       5.525   0.201  -4.085  1.00  0.00     0.116 A 
ATOM     14  C   UNL     1       4.967  -1.804  -3.095  1.00  0.00     0.039 A 
ATOM     15  C   UNL     1       5.451   1.597  -4.407  1.00  0.00     0.274 A 
ATOM     16  S   UNL     1       6.718  -0.834  -4.704  1.00  0.00    -0.136 S 
ATOM     17  C   UNL     1       6.091  -2.156  -3.817  1.00  0.00     0.068 A 
ATOM     18  O   UNL     1       6.077   2.124  -5.324  1.00  0.00    -0.268 OA
BRANCH  12  19
ATOM     19  C   UNL     1       4.569   3.759  -3.669  1.00  0.00     0.168 C 
BRANCH  19  20
ATOM     20  C   UNL     1       5.752   4.385  -2.963  1.00  0.00    -0.010 A 
ATOM     21  C   UNL     1       5.658   4.902  -1.666  1.00  0.00     0.009 A 
ATOM     22  C   UNL     1       6.985   4.510  -3.602  1.00  0.00     0.116 A 
ATOM     23  C   UNL     1       6.763   5.526  -1.086  1.00  0.00     0.020 A 
ATOM     24  N   UNL     1       8.075   5.099  -3.059  1.00  0.00    -0.264 NA
ATOM     25  C   UNL     1       7.938   5.598  -1.815  1.00  0.00     0.111 A 
ENDBRANCH  19  20
ENDBRANCH  12  19
ENDBRANCH   7   8
ENDBRANCH   5   7
ENDBRANCH   4   5
ENDBRANCH   3   4
ENDBRANCH   2   3
ENDBRANCH   1   2
BRANCH   1  26
ATOM     26  C   UNL     1       3.301  -2.430   0.508  1.00  0.00     0.202 C 
BRANCH  26  27
ATOM     27  C   UNL     1       3.305  -3.059   1.888  1.00  0.00     0.261 C 
BRANCH  27  28
ATOM     28  O   UNL     1       3.397  -2.055   2.880  1.00  0.00    -0.460 OA
BRANCH  28  29
ATOM     29  C   UNL     1       4.609  -1.952   3.464  1.00  0.00     0.338 C 
ATOM     30  O   UNL     1       5.648  -2.472   3.104  1.00  0.00    -0.246 OA
BRANCH  29  31
ATOM     31  C   UNL     1       4.451  -1.149   4.676  1.00  0.00     0.060 A 
ATOM     32  C   UNL     1       5.602  -0.973   5.445  1.00  0.00     0.016 A 
ATOM     33  C   UNL     1       3.164  -0.864   5.159  1.00  0.00     0.016 A 
ATOM     34  C   UNL     1       5.443  -0.748   6.788  1.00  0.00     0.010 A 
ATOM     35  C   UNL     1       3.006  -0.660   6.503  1.00  0.00     0.010 A 
ATOM     36  C   UNL     1       4.144  -0.699   7.301  1.00  0.00    -0.014 A 
BRANCH  36  37
ATOM     37  C   UNL     1       3.999  -0.688   8.732  1.00  0.00     0.031 A 
ATOM     38  C   UNL     1       4.223   0.636   9.334  1.00  0.00     0.074 A 
ATOM     39  C   UNL     1       3.598  -1.779   9.405  1.00  0.00     0.049 A 
ATOM     40  N   UNL     1       5.200   1.000  10.093  1.00  0.00    -0.248 NA
ATOM     41  C   UNL     1       3.338   1.727   8.900  1.00  0.00     0.031 C 
ATOM     42  C   UNL     1       3.041  -3.020   8.855  1.00  0.00     0.029 A 
ATOM     43  N   UNL     1       3.461  -1.937  10.745  1.00  0.00    -0.354 N 
ATOM     44  C   UNL     1       4.915   2.318  10.422  1.00  0.00     0.074 A 
ATOM     45  C   UNL     1       3.901   2.771   9.505  1.00  0.00     0.031 C 
ATOM     46  C   UNL     1       2.396  -3.680   9.843  1.00  0.00     0.029 A 
ATOM     47  C   UNL     1       2.612  -2.977  11.096  1.00  0.00     0.049 A 
ATOM     48  H   UNL     1       3.920  -1.369  11.405  1.00  0.00     0.167 HD
ATOM     49  C   UNL     1       5.320   2.859  11.599  1.00  0.00     0.034 A 
ATOM     50  C   UNL     1       2.050  -3.155  12.314  1.00  0.00     0.034 A 
ATOM     51  C   UNL     1       6.348   2.084  12.234  1.00  0.00     0.049 A 
ATOM     52  C   UNL     1       2.845  -2.365  13.287  1.00  0.00     0.074 A 
ATOM     53  C   UNL     1       7.618   1.677  11.880  1.00  0.00     0.029 A 
ATOM     54  N   UNL     1       5.963   1.283  13.281  1.00  0.00    -0.354 N 
ATOM     55  N   UNL     1       4.078  -2.634  13.614  1.00  0.00    -0.248 NA
ATOM     56  C   UNL     1       2.390  -1.025  13.623  1.00  0.00     0.031 C 
ATOM     57  C   UNL     1       7.763   0.377  12.445  1.00  0.00     0.029 A 
ATOM     58  C   UNL     1       6.587   0.071  13.135  1.00  0.00     0.049 A 
ATOM     59  H   UNL     1       5.348   1.534  14.007  1.00  0.00     0.167 HD
ATOM     60  C   UNL     1       4.675  -1.392  13.788  1.00  0.00     0.074 A 
ATOM     61  C   UNL     1       3.562  -0.456  13.918  1.00  0.00     0.031 C 
ATOM     62  C   UNL     1       6.001  -1.200  13.517  1.00  0.00     0.034 A 
BRANCH  49  63
ATOM     63  C   UNL     1       4.530   3.908  12.327  1.00  0.00     0.023 A 
ATOM     64  C   UNL     1       5.176   4.646  13.336  1.00  0.00     0.012 A 
ATOM     65  C   UNL     1       3.128   4.052  12.215  1.00  0.00     0.148 A 
ATOM     66  C   UNL     1       4.458   5.498  14.182  1.00  0.00     0.002 A 
ATOM     67  C   UNL     1       2.439   4.981  12.979  1.00  0.00     0.091 A 
ATOM     68  F   UNL     1       2.424   3.196  11.464  1.00  0.00    -0.205 F 
ATOM     69  C   UNL     1       3.094   5.688  13.986  1.00  0.00     0.022 A 
BRANCH  67  70
ATOM     70  S   UNL     1       0.707   5.328  12.663  1.00  0.00     0.127 S 
ATOM     71  O   UNL     1       0.052   4.550  13.709  1.00  0.00    -0.237 OA
ATOM     72  O   UNL     1       0.651   6.780  12.841  1.00  0.00    -0.237 OA
ATOM     73  O   UNL     1       0.482   4.893  11.289  1.00  0.00    -0.744 OA
ENDBRANCH  67  70
ENDBRANCH  49  63
BRANCH  50  74
ATOM     74  C   UNL     1       0.721  -3.708  12.656  1.00  0.00     0.023 A 
ATOM     75  C   UNL     1       0.478  -4.135  13.976  1.00  0.00     0.012 A 
ATOM     76  C   UNL     1      -0.385  -3.560  11.788  1.00  0.00     0.148 A 
ATOM     77  C   UNL     1      -0.825  -4.364  14.431  1.00  0.00     0.002 A 
ATOM     78  C   UNL     1      -1.678  -3.800  12.242  1.00  0.00     0.091 A 
ATOM     79  F   UNL     1      -0.181  -3.092  10.550  1.00  0.00    -0.205 F 
ATOM     80  C   UNL     1      -1.903  -4.188  13.568  1.00  0.00     0.022 A 
BRANCH  78  81
ATOM     81  S   UNL     1      -3.119  -3.573  11.191  1.00  0.00     0.127 S 
ATOM     82  O   UNL     1      -3.883  -4.793  11.454  1.00  0.00    -0.237 OA
ATOM     83  O   UNL     1      -3.704  -2.354  11.741  1.00  0.00    -0.237 OA
ATOM     84  O   UNL     1      -2.606  -3.473   9.830  1.00  0.00    -0.744 OA
ENDBRANCH  78  81
ENDBRANCH  50  74
BRANCH  62  85
ATOM     85  C   UNL     1       6.868  -2.420  13.299  1.00  0.00     0.023 A 
ATOM     86  C   UNL     1       6.637  -3.319  12.237  1.00  0.00     0.012 A 
ATOM     87  C   UNL     1       8.047  -2.554  14.053  1.00  0.00     0.148 A 
ATOM     88  C   UNL     1       7.546  -4.340  11.947  1.00  0.00     0.002 A 
ATOM     89  C   UNL     1       8.976  -3.538  13.728  1.00  0.00     0.091 A 
ATOM     90  F   UNL     1       8.261  -1.691  15.058  1.00  0.00    -0.205 F 
ATOM     91  C   UNL     1       8.723  -4.439  12.682  1.00  0.00     0.022 A 
BRANCH  89  92
ATOM     92  S   UNL     1      10.577  -3.625  14.536  1.00  0.00     0.127 S 
ATOM     93  O   UNL     1      10.405  -4.764  15.434  1.00  0.00    -0.237 OA
ATOM     94  O   UNL     1      11.486  -3.863  13.412  1.00  0.00    -0.237 OA
ATOM     95  O   UNL     1      10.766  -2.333  15.186  1.00  0.00    -0.744 OA
ENDBRANCH  89  92
ENDBRANCH  62  85
ENDBRANCH  36  37
ENDBRANCH  29  31
ENDBRANCH  28  29
ENDBRANCH  27  28
ENDBRANCH  26  27
ENDBRANCH   1  26
TORSDOF 20
