REMARK SMILES O=C(OCCOCCOC(=O)c1ccc(N2C(=O)[C@@H]3N=NC(c4ccccc4)=C3[C@H]2c2cccc(Br)c2)cc1)c1ccc(-c2c3nc(c(-c4cccc(S(=O)(=O)[O-])c4F)c4ccc([nH]4)c(-c4cccc(S(=O)(=O)[O-])c4F)c4nc(c(-c5cccc(S(=O)(=O)[O-])c5F)c5ccc2[nH]5)C=C4)C=C3)cc1
REMARK SMILES IDX 5 1 4 2 3 3 2 4 1 5 40 6 41 7 102 8 42 9 101 10 43 11 44 12
REMARK SMILES IDX 45 13 95 14 46 15 100 16 94 17 96 18 47 19 99 20 93 21 92 22
REMARK SMILES IDX 48 24 80 25 60 26 79 27 61 28 64 29 78 30 97 31 62 32 63 33
REMARK SMILES IDX 77 35 98 36 65 37 49 38 50 39 58 40 51 41 53 42 59 43 52 44
REMARK SMILES IDX 54 45 55 46 56 47 57 48 81 49 82 50 90 51 83 52 85 53 91 54
REMARK SMILES IDX 84 55 86 56 87 57 88 58 89 59 66 60 67 61 75 62 68 63 70 64
REMARK SMILES IDX 76 65 69 66 71 67 72 68 73 69 74 70 6 71 7 72 8 73 9 74
REMARK SMILES IDX 10 75 11 76 12 77 13 78 39 79 14 80 38 81 15 82 16 83 17 84
REMARK SMILES IDX 30 85 19 86 18 87 29 88 20 89 22 90 21 91 31 92 32 93 37 94
REMARK SMILES IDX 33 95 35 96 34 97 36 98 23 99 24 100 28 101 25 102 27 103
REMARK SMILES IDX 26 104
REMARK H PARENT 96 23 64 34
REMARK Flexibility Score: inf
ROOT
ATOM      1  C   UNL     1       4.876  -0.322   0.807  1.00  0.00     0.202 C 
ENDROOT
BRANCH   1   2
ATOM      2  C   UNL     1       4.520   1.136   0.516  1.00  0.00     0.261 C 
BRANCH   2   3
ATOM      3  O   UNL     1       3.117   1.412   0.666  1.00  0.00    -0.460 OA
BRANCH   3   4
ATOM      4  C   UNL     1       2.117   1.017  -0.154  1.00  0.00     0.338 C 
ATOM      5  O   UNL     1       1.040   0.675   0.332  1.00  0.00    -0.246 OA
BRANCH   4   6
ATOM      6  C   UNL     1       2.210   1.222  -1.619  1.00  0.00     0.060 A 
ATOM      7  C   UNL     1       3.389   1.313  -2.355  1.00  0.00     0.016 A 
ATOM      8  C   UNL     1       0.981   1.429  -2.269  1.00  0.00     0.016 A 
ATOM      9  C   UNL     1       3.366   1.879  -3.615  1.00  0.00     0.010 A 
ATOM     10  C   UNL     1       0.944   1.920  -3.559  1.00  0.00     0.010 A 
ATOM     11  C   UNL     1       2.143   2.233  -4.184  1.00  0.00    -0.014 A 
BRANCH  11  12
ATOM     12  C   UNL     1       2.158   2.748  -5.541  1.00  0.00     0.031 A 
ATOM     13  C   UNL     1       2.719   1.766  -6.505  1.00  0.00     0.074 A 
ATOM     14  C   UNL     1       1.635   3.945  -5.871  1.00  0.00     0.049 A 
ATOM     15  N   UNL     1       3.821   1.861  -7.172  1.00  0.00    -0.248 NA
ATOM     16  C   UNL     1       2.100   0.430  -6.566  1.00  0.00     0.031 C 
ATOM     17  C   UNL     1       0.839   4.839  -5.024  1.00  0.00     0.029 A 
ATOM     18  N   UNL     1       1.584   4.559  -7.085  1.00  0.00    -0.354 N 
ATOM     19  C   UNL     1       3.889   0.700  -7.940  1.00  0.00     0.074 A 
ATOM     20  C   UNL     1       2.950  -0.220  -7.362  1.00  0.00     0.031 C 
ATOM     21  C   UNL     1       0.170   5.715  -5.809  1.00  0.00     0.029 A 
ATOM     22  C   UNL     1       0.590   5.531  -7.186  1.00  0.00     0.049 A 
ATOM     23  H   UNL     1       2.194   4.336  -7.825  1.00  0.00     0.167 HD
ATOM     24  C   UNL     1       4.497   0.711  -9.157  1.00  0.00     0.034 A 
ATOM     25  C   UNL     1       0.095   6.071  -8.331  1.00  0.00     0.034 A 
ATOM     26  C   UNL     1       5.378   1.847  -9.277  1.00  0.00     0.049 A 
ATOM     27  C   UNL     1       1.084   5.810  -9.402  1.00  0.00     0.074 A 
ATOM     28  C   UNL     1       6.477   2.305  -8.579  1.00  0.00     0.029 A 
ATOM     29  N   UNL     1       4.904   2.918  -9.994  1.00  0.00    -0.354 N 
ATOM     30  N   UNL     1       2.267   6.354  -9.432  1.00  0.00    -0.248 NA
ATOM     31  C   UNL     1       0.929   4.593 -10.181  1.00  0.00     0.031 C 
ATOM     32  C   UNL     1       6.322   3.721  -8.542  1.00  0.00     0.029 A 
ATOM     33  C   UNL     1       5.194   4.056  -9.294  1.00  0.00     0.049 A 
ATOM     34  H   UNL     1       4.438   2.875 -10.860  1.00  0.00     0.167 HD
ATOM     35  C   UNL     1       3.105   5.314  -9.808  1.00  0.00     0.074 A 
ATOM     36  C   UNL     1       2.218   4.287 -10.357  1.00  0.00     0.031 C 
ATOM     37  C   UNL     1       4.392   5.257  -9.359  1.00  0.00     0.034 A 
BRANCH  24  38
ATOM     38  C   UNL     1       3.979  -0.019 -10.383  1.00  0.00     0.023 A 
ATOM     39  C   UNL     1       4.737   0.116 -11.569  1.00  0.00     0.012 A 
ATOM     40  C   UNL     1       2.679  -0.561 -10.520  1.00  0.00     0.148 A 
ATOM     41  C   UNL     1       4.200  -0.180 -12.826  1.00  0.00     0.002 A 
ATOM     42  C   UNL     1       2.173  -0.920 -11.764  1.00  0.00     0.091 A 
ATOM     43  F   UNL     1       1.861  -0.633  -9.470  1.00  0.00    -0.205 F 
ATOM     44  C   UNL     1       2.915  -0.697 -12.924  1.00  0.00     0.022 A 
BRANCH  42  45
ATOM     45  S   UNL     1       0.531  -1.631 -11.950  1.00  0.00     0.127 S 
ATOM     46  O   UNL     1      -0.174  -0.558 -12.645  1.00  0.00    -0.237 OA
ATOM     47  O   UNL     1       0.814  -2.816 -12.759  1.00  0.00    -0.237 OA
ATOM     48  O   UNL     1       0.067  -1.925 -10.600  1.00  0.00    -0.744 OA
ENDBRANCH  42  45
ENDBRANCH  24  38
BRANCH  25  49
ATOM     49  C   UNL     1      -1.278   6.532  -8.655  1.00  0.00     0.023 A 
ATOM     50  C   UNL     1      -1.492   7.360  -9.778  1.00  0.00     0.012 A 
ATOM     51  C   UNL     1      -2.405   5.928  -8.057  1.00  0.00     0.148 A 
ATOM     52  C   UNL     1      -2.776   7.549 -10.308  1.00  0.00     0.002 A 
ATOM     53  C   UNL     1      -3.680   6.121  -8.583  1.00  0.00     0.091 A 
ATOM     54  F   UNL     1      -2.217   5.085  -7.033  1.00  0.00    -0.205 F 
ATOM     55  C   UNL     1      -3.868   6.922  -9.716  1.00  0.00     0.022 A 
BRANCH  53  56
ATOM     56  S   UNL     1      -5.132   5.311  -7.897  1.00  0.00     0.127 S 
ATOM     57  O   UNL     1      -6.065   6.431  -7.759  1.00  0.00    -0.237 OA
ATOM     58  O   UNL     1      -5.471   4.358  -8.950  1.00  0.00    -0.237 OA
ATOM     59  O   UNL     1      -4.703   4.730  -6.632  1.00  0.00    -0.744 OA
ENDBRANCH  53  56
ENDBRANCH  25  49
BRANCH  37  60
ATOM     60  C   UNL     1       4.965   6.474  -8.684  1.00  0.00     0.023 A 
ATOM     61  C   UNL     1       4.473   6.988  -7.466  1.00  0.00     0.012 A 
ATOM     62  C   UNL     1       6.152   7.004  -9.216  1.00  0.00     0.148 A 
ATOM     63  C   UNL     1       5.146   8.021  -6.804  1.00  0.00     0.002 A 
ATOM     64  C   UNL     1       6.844   7.990  -8.530  1.00  0.00     0.091 A 
ATOM     65  F   UNL     1       6.601   6.504 -10.377  1.00  0.00    -0.205 F 
ATOM     66  C   UNL     1       6.340   8.511  -7.329  1.00  0.00     0.022 A 
BRANCH  64  67
ATOM     67  S   UNL     1       8.449   8.554  -9.095  1.00  0.00     0.127 S 
ATOM     68  O   UNL     1       8.128   9.855  -9.677  1.00  0.00    -0.237 OA
ATOM     69  O   UNL     1       9.219   8.612  -7.851  1.00  0.00    -0.237 OA
ATOM     70  O   UNL     1       8.920   7.544 -10.036  1.00  0.00    -0.744 OA
ENDBRANCH  64  67
ENDBRANCH  37  60
ENDBRANCH  11  12
ENDBRANCH   4   6
ENDBRANCH   3   4
ENDBRANCH   2   3
ENDBRANCH   1   2
BRANCH   1  71
ATOM     71  O   UNL     1       4.365  -1.311  -0.080  1.00  0.00    -0.374 OA
BRANCH  71  72
ATOM     72  C   UNL     1       3.128  -1.930   0.291  1.00  0.00     0.202 C 
BRANCH  72  73
ATOM     73  C   UNL     1       3.133  -2.961   1.429  1.00  0.00     0.261 C 
BRANCH  73  74
ATOM     74  O   UNL     1       3.442  -2.390   2.719  1.00  0.00    -0.460 OA
BRANCH  74  75
ATOM     75  C   UNL     1       4.718  -2.587   3.134  1.00  0.00     0.338 C 
ATOM     76  O   UNL     1       5.586  -3.214   2.561  1.00  0.00    -0.246 OA
BRANCH  75  77
ATOM     77  C   UNL     1       5.009  -1.788   4.346  1.00  0.00     0.060 A 
ATOM     78  C   UNL     1       6.101  -0.919   4.290  1.00  0.00     0.018 A 
ATOM     79  C   UNL     1       4.316  -1.963   5.548  1.00  0.00     0.018 A 
ATOM     80  C   UNL     1       6.524  -0.257   5.442  1.00  0.00     0.027 A 
ATOM     81  C   UNL     1       4.775  -1.330   6.720  1.00  0.00     0.027 A 
ATOM     82  C   UNL     1       5.894  -0.492   6.675  1.00  0.00     0.045 A 
BRANCH  82  83
ATOM     83  N   UNL     1       6.422   0.115   7.856  1.00  0.00    -0.299 N 
ATOM     84  C   UNL     1       6.744   1.510   7.765  1.00  0.00     0.259 C 
ATOM     85  C   UNL     1       7.459  -0.609   8.638  1.00  0.00     0.152 C 
ATOM     86  C   UNL     1       8.005   1.739   8.546  1.00  0.00     0.248 C 
ATOM     87  O   UNL     1       6.135   2.361   7.132  1.00  0.00    -0.271 OA
ATOM     88  C   UNL     1       8.554   0.367   8.434  1.00  0.00     0.021 C 
ATOM     89  N   UNL     1       9.040   2.544   7.891  1.00  0.00    -0.170 NA
ATOM     90  C   UNL     1       9.793   0.496   7.967  1.00  0.00     0.097 C 
ATOM     91  N   UNL     1      10.069   1.828   7.716  1.00  0.00    -0.154 NA
BRANCH  85  92
ATOM     92  C   UNL     1       7.147  -0.753  10.146  1.00  0.00    -0.020 A 
ATOM     93  C   UNL     1       8.021  -0.218  11.130  1.00  0.00     0.006 A 
ATOM     94  C   UNL     1       6.027  -1.457  10.613  1.00  0.00     0.022 A 
ATOM     95  C   UNL     1       7.764  -0.313  12.497  1.00  0.00     0.002 A 
ATOM     96  C   UNL     1       5.793  -1.583  11.994  1.00  0.00     0.018 A 
ATOM     97  C   UNL     1       6.645  -1.002  12.934  1.00  0.00     0.016 A 
ATOM     98  Br  UNL     1       4.310  -2.581  12.618  1.00  0.00    -0.051 Br
ENDBRANCH  85  92
BRANCH  90  99
ATOM     99  C   UNL     1      10.778  -0.484   7.507  1.00  0.00     0.002 A 
ATOM    100  C   UNL     1      11.729  -1.015   8.389  1.00  0.00     0.010 A 
ATOM    101  C   UNL     1      10.973  -0.622   6.126  1.00  0.00     0.010 A 
ATOM    102  C   UNL     1      12.910  -1.575   7.887  1.00  0.00     0.001 A 
ATOM    103  C   UNL     1      12.153  -1.176   5.630  1.00  0.00     0.001 A 
ATOM    104  C   UNL     1      13.135  -1.623   6.511  1.00  0.00     0.000 A 
ENDBRANCH  90  99
ENDBRANCH  82  83
ENDBRANCH  75  77
ENDBRANCH  74  75
ENDBRANCH  73  74
ENDBRANCH  72  73
ENDBRANCH  71  72
ENDBRANCH   1  71
TORSDOF 20
