REMARK SMILES CCc1cc(C(=O)c2[nH]c3cc(Cl)ccc3c2CC(=O)OCCOCCOC(=O)c2ccc(-c3c4nc(c(-c5cccc(S(=O)(=O)[O-])c5F)c5ccc([nH]5)c(-c5cccc(S(=O)(=O)[O-])c5F)c5nc(c(-c6cccc(S(=O)(=O)[O-])c6F)c6ccc3[nH]6)C=C5)C=C4)cc2)ncc1Cl
REMARK SMILES IDX 23 1 22 2 21 3 19 4 20 5 18 6 17 7 8 8 9 9 10 10 16 12 11 13
REMARK SMILES IDX 15 14 12 15 14 16 13 17 6 18 7 19 5 20 3 21 4 22 95 23 94 24
REMARK SMILES IDX 96 25 93 26 2 27 1 28 24 29 25 30 26 31 27 32 28 33 29 34
REMARK SMILES IDX 30 35 31 36 92 37 32 38 91 39 33 40 34 41 35 42 85 43 36 44
REMARK SMILES IDX 90 45 84 46 86 47 37 48 89 49 83 50 82 51 38 53 70 54 50 55
REMARK SMILES IDX 69 56 51 57 54 58 68 59 87 60 52 61 53 62 67 64 88 65 55 66
REMARK SMILES IDX 39 67 40 68 48 69 41 70 43 71 49 72 42 73 44 74 45 75 46 76
REMARK SMILES IDX 47 77 71 78 72 79 80 80 73 81 75 82 81 83 74 84 76 85 77 86
REMARK SMILES IDX 78 87 79 88 56 89 57 90 65 91 58 92 60 93 66 94 59 95 61 96
REMARK SMILES IDX 62 97 63 98 64 99
REMARK H PARENT 9 11 86 52 54 63
REMARK Flexibility Score: inf
ROOT
ATOM      1  C   UNL     1       2.210   6.149   7.661  1.00  0.00     0.202 C 
ENDROOT
BRANCH   1   2
ATOM      2  C   UNL     1       3.020   6.698   6.480  1.00  0.00     0.261 C 
BRANCH   2   3
ATOM      3  O   UNL     1       2.627   6.111   5.218  1.00  0.00    -0.463 OA
BRANCH   3   4
ATOM      4  C   UNL     1       3.644   5.626   4.455  1.00  0.00     0.310 C 
ATOM      5  O   UNL     1       4.834   5.718   4.753  1.00  0.00    -0.252 OA
BRANCH   4   6
ATOM      6  C   UNL     1       3.224   5.028   3.131  1.00  0.00     0.161 C 
BRANCH   6   7
ATOM      7  C   UNL     1       1.793   4.593   2.947  1.00  0.00     0.000 A 
ATOM      8  C   UNL     1       1.226   3.370   3.315  1.00  0.00     0.093 A 
ATOM      9  N   UNL     1      -0.110   3.439   2.979  1.00  0.00    -0.351 N 
ATOM     10  C   UNL     1      -0.331   4.488   2.119  1.00  0.00     0.048 A 
ATOM     11  H   UNL     1      -0.805   2.824   3.307  1.00  0.00     0.167 HD
ATOM     12  C   UNL     1       0.829   5.259   2.118  1.00  0.00     0.004 A 
ATOM     13  C   UNL     1      -1.456   4.804   1.344  1.00  0.00     0.047 A 
ATOM     14  C   UNL     1       0.865   6.416   1.310  1.00  0.00     0.012 A 
ATOM     15  C   UNL     1      -1.369   5.926   0.514  1.00  0.00     0.043 A 
ATOM     16  C   UNL     1      -0.233   6.729   0.498  1.00  0.00     0.021 A 
ATOM     17  Cl  UNL     1      -2.684   6.297  -0.536  1.00  0.00    -0.084 Cl
BRANCH   8  18
ATOM     18  C   UNL     1       1.893   2.229   3.933  1.00  0.00     0.227 C 
ATOM     19  O   UNL     1       2.906   2.359   4.616  1.00  0.00    -0.285 OA
BRANCH  18  20
ATOM     20  C   UNL     1       1.435   0.830   3.647  1.00  0.00     0.113 A 
ATOM     21  C   UNL     1       0.787  -0.875   2.052  1.00  0.00    -0.026 A 
ATOM     22  C   UNL     1       0.959   0.480   2.385  1.00  0.00     0.037 A 
ATOM     23  C   UNL     1       1.058  -1.827   3.047  1.00  0.00     0.062 A 
ATOM     24  C   UNL     1       1.494  -1.385   4.292  1.00  0.00     0.132 A 
ATOM     25  Cl  UNL     1       0.907  -3.525   2.791  1.00  0.00    -0.082 Cl
ATOM     26  N   UNL     1       1.688  -0.086   4.615  1.00  0.00    -0.251 NA
BRANCH  21  27
ATOM     27  C   UNL     1       0.319  -1.264   0.665  1.00  0.00     0.034 C 
ATOM     28  C   UNL     1       0.832  -0.364  -0.458  1.00  0.00     0.009 C 
ENDBRANCH  21  27
ENDBRANCH  18  20
ENDBRANCH   8  18
ENDBRANCH   6   7
ENDBRANCH   4   6
ENDBRANCH   3   4
ENDBRANCH   2   3
ENDBRANCH   1   2
BRANCH   1  29
ATOM     29  O   UNL     1       2.472   4.799   8.056  1.00  0.00    -0.374 OA
BRANCH  29  30
ATOM     30  C   UNL     1       2.082   3.785   7.133  1.00  0.00     0.202 C 
BRANCH  30  31
ATOM     31  C   UNL     1       0.607   3.367   7.161  1.00  0.00     0.261 C 
BRANCH  31  32
ATOM     32  O   UNL     1      -0.286   4.480   7.007  1.00  0.00    -0.460 OA
BRANCH  32  33
ATOM     33  C   UNL     1      -0.943   4.821   8.139  1.00  0.00     0.338 C 
ATOM     34  O   UNL     1      -0.981   4.191   9.191  1.00  0.00    -0.246 OA
BRANCH  33  35
ATOM     35  C   UNL     1      -1.502   6.175   8.020  1.00  0.00     0.060 A 
ATOM     36  C   UNL     1      -1.161   7.093   9.021  1.00  0.00     0.016 A 
ATOM     37  C   UNL     1      -2.385   6.529   6.997  1.00  0.00     0.016 A 
ATOM     38  C   UNL     1      -1.754   8.350   9.041  1.00  0.00     0.010 A 
ATOM     39  C   UNL     1      -2.984   7.792   7.022  1.00  0.00     0.010 A 
ATOM     40  C   UNL     1      -2.703   8.689   8.068  1.00  0.00    -0.014 A 
BRANCH  40  41
ATOM     41  C   UNL     1      -3.493   9.929   8.242  1.00  0.00     0.031 A 
ATOM     42  C   UNL     1      -4.882   9.835   8.809  1.00  0.00     0.074 A 
ATOM     43  C   UNL     1      -2.960  11.123   7.930  1.00  0.00     0.049 A 
ATOM     44  N   UNL     1      -5.728  10.791   9.087  1.00  0.00    -0.248 NA
ATOM     45  C   UNL     1      -5.388   8.482   9.098  1.00  0.00     0.031 C 
ATOM     46  C   UNL     1      -1.627  11.327   7.366  1.00  0.00     0.029 A 
ATOM     47  N   UNL     1      -3.484  12.386   8.028  1.00  0.00    -0.354 N 
ATOM     48  C   UNL     1      -6.873  10.159   9.557  1.00  0.00     0.074 A 
ATOM     49  C   UNL     1      -6.620   8.736   9.514  1.00  0.00     0.031 C 
ATOM     50  C   UNL     1      -1.445  12.640   7.145  1.00  0.00     0.029 A 
ATOM     51  C   UNL     1      -2.653  13.364   7.535  1.00  0.00     0.049 A 
ATOM     52  H   UNL     1      -4.370  12.575   8.414  1.00  0.00     0.167 HD
ATOM     53  C   UNL     1      -8.025  10.716  10.000  1.00  0.00     0.034 A 
ATOM     54  C   UNL     1      -2.853  14.690   7.401  1.00  0.00     0.034 A 
ATOM     55  C   UNL     1      -8.259  12.133  10.057  1.00  0.00     0.049 A 
ATOM     56  C   UNL     1      -4.142  15.285   7.903  1.00  0.00     0.074 A 
ATOM     57  C   UNL     1      -9.364  12.805  10.546  1.00  0.00     0.029 A 
ATOM     58  N   UNL     1      -7.377  13.098   9.592  1.00  0.00    -0.354 N 
ATOM     59  N   UNL     1      -5.161  14.687   8.473  1.00  0.00    -0.248 NA
ATOM     60  C   UNL     1      -4.295  16.742   7.778  1.00  0.00     0.031 C 
ATOM     61  C   UNL     1      -9.165  14.175  10.346  1.00  0.00     0.029 A 
ATOM     62  C   UNL     1      -7.920  14.359   9.764  1.00  0.00     0.049 A 
ATOM     63  H   UNL     1      -6.494  12.912   9.198  1.00  0.00     0.167 HD
ATOM     64  C   UNL     1      -6.061  15.694   8.802  1.00  0.00     0.074 A 
ATOM     65  C   UNL     1      -5.456  16.944   8.387  1.00  0.00     0.031 C 
ATOM     66  C   UNL     1      -7.284  15.594   9.382  1.00  0.00     0.034 A 
BRANCH  53  67
ATOM     67  C   UNL     1      -9.115   9.788  10.470  1.00  0.00     0.023 A 
ATOM     68  C   UNL     1      -8.969   9.093  11.688  1.00  0.00     0.012 A 
ATOM     69  C   UNL     1     -10.303   9.638   9.729  1.00  0.00     0.148 A 
ATOM     70  C   UNL     1      -9.972   8.237  12.143  1.00  0.00     0.002 A 
ATOM     71  C   UNL     1     -11.317   8.817  10.210  1.00  0.00     0.091 A 
ATOM     72  F   UNL     1     -10.414  10.287   8.561  1.00  0.00    -0.205 F 
ATOM     73  C   UNL     1     -11.148   8.107  11.410  1.00  0.00     0.022 A 
BRANCH  71  74
ATOM     74  S   UNL     1     -12.897   8.641   9.375  1.00  0.00     0.127 S 
ATOM     75  O   UNL     1     -12.806   7.278   8.853  1.00  0.00    -0.237 OA
ATOM     76  O   UNL     1     -13.847   8.809  10.475  1.00  0.00    -0.237 OA
ATOM     77  O   UNL     1     -12.940   9.694   8.370  1.00  0.00    -0.744 OA
ENDBRANCH  71  74
ENDBRANCH  53  67
BRANCH  54  78
ATOM     78  C   UNL     1      -1.789  15.540   6.798  1.00  0.00     0.023 A 
ATOM     79  C   UNL     1      -1.080  16.453   7.601  1.00  0.00     0.012 A 
ATOM     80  C   UNL     1      -1.449  15.415   5.436  1.00  0.00     0.148 A 
ATOM     81  C   UNL     1      -0.068  17.243   7.054  1.00  0.00     0.002 A 
ATOM     82  C   UNL     1      -0.403  16.164   4.911  1.00  0.00     0.091 A 
ATOM     83  F   UNL     1      -2.148  14.553   4.684  1.00  0.00    -0.205 F 
ATOM     84  C   UNL     1       0.279  17.091   5.714  1.00  0.00     0.022 A 
BRANCH  82  85
ATOM     85  S   UNL     1       0.198  15.933   3.234  1.00  0.00     0.127 S 
ATOM     86  O   UNL     1      -0.225  17.174   2.590  1.00  0.00    -0.237 OA
ATOM     87  O   UNL     1       1.641  15.809   3.445  1.00  0.00    -0.237 OA
ATOM     88  O   UNL     1      -0.443  14.718   2.749  1.00  0.00    -0.744 OA
ENDBRANCH  82  85
ENDBRANCH  54  78
BRANCH  66  89
ATOM     89  C   UNL     1      -8.044  16.871   9.628  1.00  0.00     0.023 A 
ATOM     90  C   UNL     1      -8.614  17.568   8.545  1.00  0.00     0.012 A 
ATOM     91  C   UNL     1      -8.259  17.337  10.941  1.00  0.00     0.148 A 
ATOM     92  C   UNL     1      -9.357  18.728   8.761  1.00  0.00     0.002 A 
ATOM     93  C   UNL     1      -9.043  18.464  11.152  1.00  0.00     0.091 A 
ATOM     94  F   UNL     1      -7.694  16.669  11.957  1.00  0.00    -0.205 F 
ATOM     95  C   UNL     1      -9.582  19.169  10.063  1.00  0.00     0.022 A 
BRANCH  93  96
ATOM     96  S   UNL     1      -9.468  19.046  12.798  1.00  0.00     0.127 S 
ATOM     97  O   UNL     1      -8.649  20.253  12.908  1.00  0.00    -0.237 OA
ATOM     98  O   UNL     1     -10.905  19.292  12.679  1.00  0.00    -0.237 OA
ATOM     99  O   UNL     1      -9.114  17.965  13.709  1.00  0.00    -0.744 OA
ENDBRANCH  93  96
ENDBRANCH  66  89
ENDBRANCH  40  41
ENDBRANCH  33  35
ENDBRANCH  32  33
ENDBRANCH  31  32
ENDBRANCH  30  31
ENDBRANCH  29  30
ENDBRANCH   1  29
TORSDOF 21
