REMARK SMILES Cc1nc(-c2ccc3c(c2)CCN3S(=O)(=O)c2ccc(F)c(C(=O)OCCOCCOC(=O)c3ccc(-c4c5nc(c(-c6cccc(S(=O)(=O)[O-])c6F)c6ccc([nH]6)c(-c6cccc(S(=O)(=O)[O-])c6F)c6nc(c(-c7cccc(S(=O)(=O)[O-])c7F)c7ccc4[nH]7)C=C6)C=C5)cc3)c2)cs1
REMARK SMILES IDX 28 1 27 2 26 3 25 4 23 5 24 6 22 7 17 8 18 9 97 10 19 11
REMARK SMILES IDX 20 12 21 13 14 14 15 15 16 16 13 17 5 18 6 19 10 20 7 21
REMARK SMILES IDX 9 22 8 23 11 24 12 25 4 26 1 27 2 28 3 29 99 30 98 31 29 32
REMARK SMILES IDX 30 33 31 34 32 35 33 36 34 37 35 38 96 39 36 40 95 41 37 42
REMARK SMILES IDX 38 43 39 44 89 45 40 46 94 47 88 48 90 49 41 50 93 51 87 52
REMARK SMILES IDX 86 53 42 55 74 56 54 57 73 58 55 59 58 60 72 61 91 62 56 63
REMARK SMILES IDX 57 64 71 66 92 67 59 68 43 69 44 70 52 71 45 72 47 73 53 74
REMARK SMILES IDX 46 75 48 76 49 77 50 78 51 79 75 80 76 81 84 82 77 83 79 84
REMARK SMILES IDX 85 85 78 86 80 87 81 88 82 89 83 90 60 91 61 92 69 93 62 94
REMARK SMILES IDX 64 95 70 96 63 97 65 98 66 99 67 100 68 101
REMARK H PARENT 90 54 58 65
REMARK Flexibility Score: inf
ROOT
ATOM      1  O   UNL     1       0.641 -11.710  -3.958  1.00  0.00    -0.374 OA
ENDROOT
BRANCH   1   2
ATOM      2  C   UNL     1      -0.571 -11.156  -4.477  1.00  0.00     0.202 C 
BRANCH   2   3
ATOM      3  C   UNL     1      -1.116  -9.915  -3.764  1.00  0.00     0.261 C 
BRANCH   3   4
ATOM      4  O   UNL     1      -0.208  -8.816  -3.917  1.00  0.00    -0.460 OA
BRANCH   4   5
ATOM      5  C   UNL     1       0.338  -8.331  -2.784  1.00  0.00     0.341 C 
ATOM      6  O   UNL     1       0.034  -8.620  -1.633  1.00  0.00    -0.246 OA
BRANCH   5   7
ATOM      7  C   UNL     1       1.542  -7.543  -3.105  1.00  0.00     0.097 A 
ATOM      8  C   UNL     1       3.751  -6.815  -2.454  1.00  0.00     0.089 A 
ATOM      9  C   UNL     1       3.857  -6.056  -3.629  1.00  0.00     0.025 A 
ATOM     10  C   UNL     1       2.618  -7.595  -2.204  1.00  0.00     0.041 A 
ATOM     11  C   UNL     1       2.791  -6.027  -4.527  1.00  0.00     0.041 A 
ATOM     12  C   UNL     1       1.634  -6.757  -4.257  1.00  0.00     0.137 A 
ATOM     13  F   UNL     1       0.610  -6.652  -5.113  1.00  0.00    -0.206 F 
BRANCH   8  14
ATOM     14  S   UNL     1       5.011  -6.668  -1.216  1.00  0.00     0.264 S 
ATOM     15  O   UNL     1       6.068  -5.843  -1.769  1.00  0.00    -0.201 OA
ATOM     16  O   UNL     1       5.311  -8.009  -0.753  1.00  0.00    -0.201 OA
BRANCH  14  17
ATOM     17  N   UNL     1       4.315  -5.818   0.092  1.00  0.00    -0.266 N 
ATOM     18  C   UNL     1       2.069  -2.251   0.110  1.00  0.00     0.001 A 
ATOM     19  C   UNL     1       1.755  -3.217  -0.855  1.00  0.00     0.012 A 
ATOM     20  C   UNL     1       3.119  -2.487   1.006  1.00  0.00     0.016 A 
ATOM     21  C   UNL     1       2.479  -4.403  -0.943  1.00  0.00     0.028 A 
ATOM     22  C   UNL     1       3.831  -3.683   0.898  1.00  0.00    -0.021 A 
ATOM     23  C   UNL     1       3.553  -4.616  -0.101  1.00  0.00     0.055 A 
ATOM     24  C   UNL     1       4.829  -4.227   1.870  1.00  0.00     0.060 C 
ATOM     25  C   UNL     1       5.333  -5.491   1.157  1.00  0.00     0.140 C 
BRANCH  18  26
ATOM     26  C   UNL     1       1.202  -1.092   0.193  1.00  0.00     0.081 A 
ATOM     27  C   UNL     1      -2.240   0.096   0.006  1.00  0.00     0.079 C 
ATOM     28  C   UNL     1      -0.766  -0.084   0.113  1.00  0.00     0.090 A 
ATOM     29  N   UNL     1      -0.170  -1.254   0.126  1.00  0.00    -0.242 NA
ATOM     30  S   UNL     1       0.284   1.274   0.214  1.00  0.00    -0.127 S 
ATOM     31  C   UNL     1       1.637   0.214   0.251  1.00  0.00     0.095 A 
ENDBRANCH  18  26
ENDBRANCH  14  17
ENDBRANCH   8  14
ENDBRANCH   5   7
ENDBRANCH   4   5
ENDBRANCH   3   4
ENDBRANCH   2   3
ENDBRANCH   1   2
BRANCH   1  32
ATOM     32  C   UNL     1       1.862 -11.047  -4.284  1.00  0.00     0.202 C 
BRANCH  32  33
ATOM     33  C   UNL     1       2.438 -11.271  -5.687  1.00  0.00     0.261 C 
BRANCH  33  34
ATOM     34  O   UNL     1       1.578 -10.783  -6.728  1.00  0.00    -0.460 OA
BRANCH  34  35
ATOM     35  C   UNL     1       0.947 -11.750  -7.436  1.00  0.00     0.338 C 
ATOM     36  O   UNL     1       1.083 -12.959  -7.316  1.00  0.00    -0.246 OA
BRANCH  35  37
ATOM     37  C   UNL     1      -0.095 -11.154  -8.290  1.00  0.00     0.060 A 
ATOM     38  C   UNL     1      -1.398 -11.653  -8.165  1.00  0.00     0.016 A 
ATOM     39  C   UNL     1       0.206 -10.179  -9.243  1.00  0.00     0.016 A 
ATOM     40  C   UNL     1      -2.399 -11.211  -9.026  1.00  0.00     0.010 A 
ATOM     41  C   UNL     1      -0.800  -9.742 -10.111  1.00  0.00     0.010 A 
ATOM     42  C   UNL     1      -2.097 -10.281 -10.028  1.00  0.00    -0.014 A 
BRANCH  42  43
ATOM     43  C   UNL     1      -3.111  -9.950 -11.057  1.00  0.00     0.031 A 
ATOM     44  C   UNL     1      -2.998 -10.556 -12.427  1.00  0.00     0.074 A 
ATOM     45  C   UNL     1      -4.114  -9.101 -10.775  1.00  0.00     0.049 A 
ATOM     46  N   UNL     1      -3.751 -10.366 -13.478  1.00  0.00    -0.248 NA
ATOM     47  C   UNL     1      -1.886 -11.495 -12.644  1.00  0.00     0.031 C 
ATOM     48  C   UNL     1      -4.323  -8.447  -9.486  1.00  0.00     0.029 A 
ATOM     49  N   UNL     1      -5.126  -8.621 -11.569  1.00  0.00    -0.354 N 
ATOM     50  C   UNL     1      -3.184 -11.126 -14.493  1.00  0.00     0.074 A 
ATOM     51  C   UNL     1      -2.022 -11.780 -13.932  1.00  0.00     0.031 C 
ATOM     52  C   UNL     1      -5.378  -7.623  -9.584  1.00  0.00     0.029 A 
ATOM     53  C   UNL     1      -5.900  -7.670 -10.949  1.00  0.00     0.049 A 
ATOM     54  H   UNL     1      -5.281  -8.927 -12.492  1.00  0.00     0.167 HD
ATOM     55  C   UNL     1      -3.600 -11.272 -15.772  1.00  0.00     0.034 A 
ATOM     56  C   UNL     1      -6.898  -6.903 -11.432  1.00  0.00     0.034 A 
ATOM     57  C   UNL     1      -4.774 -10.642 -16.316  1.00  0.00     0.049 A 
ATOM     58  C   UNL     1      -7.348  -7.082 -12.856  1.00  0.00     0.074 A 
ATOM     59  C   UNL     1      -5.322 -10.796 -17.576  1.00  0.00     0.029 A 
ATOM     60  N   UNL     1      -5.566  -9.724 -15.644  1.00  0.00    -0.354 N 
ATOM     61  N   UNL     1      -6.884  -7.902 -13.768  1.00  0.00    -0.248 NA
ATOM     62  C   UNL     1      -8.478  -6.259 -13.311  1.00  0.00     0.031 C 
ATOM     63  C   UNL     1      -6.422  -9.940 -17.682  1.00  0.00     0.029 A 
ATOM     64  C   UNL     1      -6.585  -9.283 -16.472  1.00  0.00     0.049 A 
ATOM     65  H   UNL     1      -5.426  -9.428 -14.716  1.00  0.00     0.167 HD
ATOM     66  C   UNL     1      -7.678  -7.714 -14.895  1.00  0.00     0.074 A 
ATOM     67  C   UNL     1      -8.665  -6.713 -14.545  1.00  0.00     0.031 C 
ATOM     68  C   UNL     1      -7.589  -8.313 -16.108  1.00  0.00     0.034 A 
BRANCH  55  69
ATOM     69  C   UNL     1      -2.791 -12.161 -16.680  1.00  0.00     0.023 A 
ATOM     70  C   UNL     1      -2.821 -13.559 -16.506  1.00  0.00     0.012 A 
ATOM     71  C   UNL     1      -2.061 -11.613 -17.753  1.00  0.00     0.148 A 
ATOM     72  C   UNL     1      -2.114 -14.396 -17.368  1.00  0.00     0.002 A 
ATOM     73  C   UNL     1      -1.399 -12.457 -18.637  1.00  0.00     0.091 A 
ATOM     74  F   UNL     1      -2.023 -10.280 -17.887  1.00  0.00    -0.205 F 
ATOM     75  C   UNL     1      -1.415 -13.847 -18.439  1.00  0.00     0.022 A 
BRANCH  73  76
ATOM     76  S   UNL     1      -0.547 -11.848 -20.097  1.00  0.00     0.127 S 
ATOM     77  O   UNL     1       0.853 -12.038 -19.722  1.00  0.00    -0.237 OA
ATOM     78  O   UNL     1      -1.028 -12.759 -21.136  1.00  0.00    -0.237 OA
ATOM     79  O   UNL     1      -0.970 -10.464 -20.260  1.00  0.00    -0.744 OA
ENDBRANCH  73  76
ENDBRANCH  55  69
BRANCH  56  80
ATOM     80  C   UNL     1      -7.553  -5.923 -10.521  1.00  0.00     0.023 A 
ATOM     81  C   UNL     1      -8.847  -6.184 -10.034  1.00  0.00     0.012 A 
ATOM     82  C   UNL     1      -6.853  -4.793 -10.054  1.00  0.00     0.148 A 
ATOM     83  C   UNL     1      -9.434  -5.334  -9.096  1.00  0.00     0.002 A 
ATOM     84  C   UNL     1      -7.420  -3.984  -9.077  1.00  0.00     0.091 A 
ATOM     85  F   UNL     1      -5.625  -4.562 -10.541  1.00  0.00    -0.205 F 
ATOM     86  C   UNL     1      -8.716  -4.245  -8.606  1.00  0.00     0.022 A 
BRANCH  84  87
ATOM     87  S   UNL     1      -6.517  -2.652  -8.279  1.00  0.00     0.127 S 
ATOM     88  O   UNL     1      -7.317  -1.485  -8.645  1.00  0.00    -0.237 OA
ATOM     89  O   UNL     1      -6.602  -3.039  -6.870  1.00  0.00    -0.237 OA
ATOM     90  O   UNL     1      -5.173  -2.688  -8.838  1.00  0.00    -0.744 OA
ENDBRANCH  84  87
ENDBRANCH  56  80
BRANCH  68  91
ATOM     91  C   UNL     1      -8.591  -7.931 -17.169  1.00  0.00     0.023 A 
ATOM     92  C   UNL     1      -8.494  -6.677 -17.804  1.00  0.00     0.012 A 
ATOM     93  C   UNL     1      -9.549  -8.861 -17.621  1.00  0.00     0.148 A 
ATOM     94  C   UNL     1      -9.347  -6.349 -18.858  1.00  0.00     0.002 A 
ATOM     95  C   UNL     1     -10.360  -8.547 -18.705  1.00  0.00     0.091 A 
ATOM     96  F   UNL     1      -9.637 -10.043 -16.993  1.00  0.00    -0.205 F 
ATOM     97  C   UNL     1     -10.268  -7.287 -19.318  1.00  0.00     0.022 A 
BRANCH  95  98
ATOM     98  S   UNL     1     -11.498  -9.731 -19.434  1.00  0.00     0.127 S 
ATOM     99  O   UNL     1     -12.794  -9.180 -19.039  1.00  0.00    -0.237 OA
ATOM    100  O   UNL     1     -11.196  -9.615 -20.861  1.00  0.00    -0.237 OA
ATOM    101  O   UNL     1     -11.166 -11.023 -18.849  1.00  0.00    -0.744 OA
ENDBRANCH  95  98
ENDBRANCH  68  91
ENDBRANCH  42  43
ENDBRANCH  35  37
ENDBRANCH  34  35
ENDBRANCH  33  34
ENDBRANCH  32  33
ENDBRANCH   1  32
TORSDOF 20
