REMARK SMILES O=C(C[N@@H+]1C[C@@]2([N+](=O)[O-])CC=C(Cl)[C@@]([N+](=O)[O-])(C1)C2)OCCOCCOC(=O)c1ccc(-c2c3nc(c(-c4cccc(S(=O)(=O)[O-])c4F)c4ccc([nH]4)c(-c4cccc(S(=O)(=O)[O-])c4F)c4nc(c(-c5cccc(S(=O)(=O)[O-])c5F)c5ccc2[nH]5)C=C4)C=C3)cc1
REMARK SMILES IDX 24 1 23 2 22 3 21 4 20 5 2 6 1 7 3 8 4 9 5 10 18 11 6 13
REMARK SMILES IDX 14 14 10 15 19 16 12 17 11 18 13 19 7 20 8 21 9 22 15 23
REMARK SMILES IDX 16 24 17 25 25 26 26 27 27 28 28 29 29 30 30 31 91 32 31 33
REMARK SMILES IDX 90 34 32 35 33 36 34 37 84 38 35 39 89 40 83 41 85 42 36 43
REMARK SMILES IDX 88 44 82 45 81 46 37 48 69 49 49 50 68 51 50 52 53 53 67 54
REMARK SMILES IDX 86 55 51 56 52 57 66 59 87 60 54 61 38 62 39 63 47 64 40 65
REMARK SMILES IDX 42 66 48 67 41 68 43 69 44 70 45 71 46 72 70 73 71 74 79 75
REMARK SMILES IDX 72 76 74 77 80 78 73 79 75 80 76 81 77 82 78 83 55 84 56 85
REMARK SMILES IDX 64 86 57 87 59 88 65 89 58 90 60 91 61 92 62 93 63 94
REMARK H PARENT 4 12 85 47 53 58
REMARK Flexibility Score: inf
ROOT
ATOM      1  C   UNL     1       2.729   1.911   1.758  1.00  0.00     0.202 C 
ENDROOT
BRANCH   1   2
ATOM      2  O   UNL     1       3.924   1.194   1.457  1.00  0.00    -0.374 OA
BRANCH   2   3
ATOM      3  C   UNL     1       4.492   1.377   0.176  1.00  0.00     0.202 C 
BRANCH   3   4
ATOM      4  C   UNL     1       3.632   1.130  -1.060  1.00  0.00     0.261 C 
BRANCH   4   5
ATOM      5  O   UNL     1       2.498   0.227  -1.044  1.00  0.00    -0.459 OA
BRANCH   5   6
ATOM      6  C   UNL     1       2.000  -0.752  -0.282  1.00  0.00     0.361 C 
ATOM      7  O   UNL     1       0.813  -1.057  -0.426  1.00  0.00    -0.245 OA
BRANCH   6   8
ATOM      8  C   UNL     1       2.832  -1.520   0.723  1.00  0.00     0.386 C 
BRANCH   8   9
ATOM      9  N   UNL     1       3.873  -2.420   0.203  1.00  0.00    -0.313 N 
ATOM     10  C   UNL     1       5.105  -1.747  -0.194  1.00  0.00     0.350 C 
ATOM     11  C   UNL     1       3.404  -3.419  -0.777  1.00  0.00     0.356 C 
ATOM     12  H   UNL     1       4.128  -2.975   1.020  1.00  0.00     0.349 HD
ATOM     13  C   UNL     1       6.250  -2.687  -0.605  1.00  0.00     0.280 C 
ATOM     14  C   UNL     1       4.546  -4.429  -1.083  1.00  0.00     0.311 C 
ATOM     15  C   UNL     1       6.820  -3.493   0.586  1.00  0.00     0.121 C 
ATOM     16  C   UNL     1       5.743  -3.649  -1.688  1.00  0.00     0.191 C 
ATOM     17  C   UNL     1       4.976  -5.146   0.196  1.00  0.00     0.097 C 
ATOM     18  C   UNL     1       6.008  -4.714   0.943  1.00  0.00     0.004 C 
ATOM     19  Cl  UNL     1       4.024  -6.470   0.776  1.00  0.00    -0.081 Cl
BRANCH  13  20
ATOM     20  N   UNL     1       7.336  -1.776  -1.160  1.00  0.00     0.032 N 
ATOM     21  O   UNL     1       8.245  -1.429  -0.396  1.00  0.00    -0.264 OA
ATOM     22  O   UNL     1       7.200  -1.375  -2.322  1.00  0.00    -0.264 OA
ENDBRANCH  13  20
BRANCH  14  23
ATOM     23  N   UNL     1       4.091  -5.448  -2.118  1.00  0.00     0.038 N 
ATOM     24  O   UNL     1       2.894  -5.470  -2.431  1.00  0.00    -0.263 OA
ATOM     25  O   UNL     1       4.958  -6.198  -2.591  1.00  0.00    -0.263 OA
ENDBRANCH  14  23
ENDBRANCH   8   9
ENDBRANCH   6   8
ENDBRANCH   5   6
ENDBRANCH   4   5
ENDBRANCH   3   4
ENDBRANCH   2   3
ENDBRANCH   1   2
BRANCH   1  26
ATOM     26  C   UNL     1       2.943   3.364   2.174  1.00  0.00     0.261 C 
BRANCH  26  27
ATOM     27  O   UNL     1       3.319   4.152   1.038  1.00  0.00    -0.460 OA
BRANCH  27  28
ATOM     28  C   UNL     1       4.614   4.547   0.988  1.00  0.00     0.338 C 
ATOM     29  O   UNL     1       5.471   4.390   1.842  1.00  0.00    -0.246 OA
BRANCH  28  30
ATOM     30  C   UNL     1       4.893   4.962  -0.401  1.00  0.00     0.060 A 
ATOM     31  C   UNL     1       6.054   4.476  -1.026  1.00  0.00     0.016 A 
ATOM     32  C   UNL     1       3.995   5.775  -1.092  1.00  0.00     0.016 A 
ATOM     33  C   UNL     1       6.338   4.832  -2.341  1.00  0.00     0.010 A 
ATOM     34  C   UNL     1       4.288   6.146  -2.398  1.00  0.00     0.010 A 
ATOM     35  C   UNL     1       5.479   5.709  -3.008  1.00  0.00    -0.014 A 
BRANCH  35  36
ATOM     36  C   UNL     1       5.914   6.399  -4.237  1.00  0.00     0.031 A 
ATOM     37  C   UNL     1       6.454   7.790  -4.082  1.00  0.00     0.074 A 
ATOM     38  C   UNL     1       5.720   5.855  -5.448  1.00  0.00     0.049 A 
ATOM     39  N   UNL     1       6.686   8.696  -4.990  1.00  0.00    -0.248 NA
ATOM     40  C   UNL     1       6.736   8.226  -2.703  1.00  0.00     0.031 C 
ATOM     41  C   UNL     1       5.202   4.513  -5.699  1.00  0.00     0.029 A 
ATOM     42  N   UNL     1       5.878   6.403  -6.695  1.00  0.00    -0.354 N 
ATOM     43  C   UNL     1       7.082   9.828  -4.290  1.00  0.00     0.074 A 
ATOM     44  C   UNL     1       7.059   9.495  -2.884  1.00  0.00     0.031 C 
ATOM     45  C   UNL     1       5.021   4.362  -7.022  1.00  0.00     0.029 A 
ATOM     46  C   UNL     1       5.372   5.610  -7.697  1.00  0.00     0.049 A 
ATOM     47  H   UNL     1       6.309   7.273  -6.856  1.00  0.00     0.167 HD
ATOM     48  C   UNL     1       7.427  11.040  -4.779  1.00  0.00     0.034 A 
ATOM     49  C   UNL     1       5.164   5.888  -8.999  1.00  0.00     0.034 A 
ATOM     50  C   UNL     1       7.448  11.349  -6.181  1.00  0.00     0.049 A 
ATOM     51  C   UNL     1       5.554   7.243  -9.530  1.00  0.00     0.074 A 
ATOM     52  C   UNL     1       7.851  12.517  -6.799  1.00  0.00     0.029 A 
ATOM     53  N   UNL     1       7.022  10.488  -7.181  1.00  0.00    -0.354 N 
ATOM     54  N   UNL     1       6.041   8.273  -8.880  1.00  0.00    -0.248 NA
ATOM     55  C   UNL     1       5.395   7.465 -10.973  1.00  0.00     0.031 C 
ATOM     56  C   UNL     1       7.628  12.377  -8.172  1.00  0.00     0.029 A 
ATOM     57  C   UNL     1       7.134  11.103  -8.414  1.00  0.00     0.049 A 
ATOM     58  H   UNL     1       6.689   9.573  -7.035  1.00  0.00     0.167 HD
ATOM     59  C   UNL     1       6.285   9.252  -9.838  1.00  0.00     0.074 A 
ATOM     60  C   UNL     1       5.893   8.688 -11.114  1.00  0.00     0.031 C 
ATOM     61  C   UNL     1       6.784  10.503  -9.677  1.00  0.00     0.034 A 
BRANCH  48  62
ATOM     62  C   UNL     1       7.790  12.110  -3.785  1.00  0.00     0.023 A 
ATOM     63  C   UNL     1       8.974  12.000  -3.026  1.00  0.00     0.012 A 
ATOM     64  C   UNL     1       6.954  13.228  -3.601  1.00  0.00     0.148 A 
ATOM     65  C   UNL     1       9.292  12.958  -2.064  1.00  0.00     0.002 A 
ATOM     66  C   UNL     1       7.305  14.205  -2.679  1.00  0.00     0.091 A 
ATOM     67  F   UNL     1       5.817  13.301  -4.307  1.00  0.00    -0.205 F 
ATOM     68  C   UNL     1       8.463  14.064  -1.897  1.00  0.00     0.022 A 
BRANCH  66  69
ATOM     69  S   UNL     1       6.344  15.705  -2.455  1.00  0.00     0.127 S 
ATOM     70  O   UNL     1       5.697  15.452  -1.169  1.00  0.00    -0.237 OA
ATOM     71  O   UNL     1       7.384  16.735  -2.422  1.00  0.00    -0.237 OA
ATOM     72  O   UNL     1       5.452  15.784  -3.603  1.00  0.00    -0.744 OA
ENDBRANCH  66  69
ENDBRANCH  48  62
BRANCH  49  73
ATOM     73  C   UNL     1       4.561   4.850  -9.879  1.00  0.00     0.023 A 
ATOM     74  C   UNL     1       5.361   4.194 -10.832  1.00  0.00     0.012 A 
ATOM     75  C   UNL     1       3.215   4.461  -9.722  1.00  0.00     0.148 A 
ATOM     76  C   UNL     1       4.828   3.177 -11.626  1.00  0.00     0.002 A 
ATOM     77  C   UNL     1       2.707   3.411 -10.476  1.00  0.00     0.091 A 
ATOM     78  F   UNL     1       2.472   5.106  -8.812  1.00  0.00    -0.205 F 
ATOM     79  C   UNL     1       3.507   2.777 -11.439  1.00  0.00     0.022 A 
BRANCH  77  80
ATOM     80  S   UNL     1       1.063   2.737 -10.212  1.00  0.00     0.127 S 
ATOM     81  O   UNL     1       0.412   3.027 -11.487  1.00  0.00    -0.237 OA
ATOM     82  O   UNL     1       1.358   1.323  -9.976  1.00  0.00    -0.237 OA
ATOM     83  O   UNL     1       0.525   3.444  -9.058  1.00  0.00    -0.744 OA
ENDBRANCH  77  80
ENDBRANCH  49  73
BRANCH  61  84
ATOM     84  C   UNL     1       7.002  11.341 -10.909  1.00  0.00     0.023 A 
ATOM     85  C   UNL     1       5.906  11.919 -11.578  1.00  0.00     0.012 A 
ATOM     86  C   UNL     1       8.313  11.652 -11.325  1.00  0.00     0.148 A 
ATOM     87  C   UNL     1       6.112  12.779 -12.656  1.00  0.00     0.002 A 
ATOM     88  C   UNL     1       8.511  12.551 -12.364  1.00  0.00     0.091 A 
ATOM     89  F   UNL     1       9.339  11.078 -10.681  1.00  0.00    -0.205 F 
ATOM     90  C   UNL     1       7.412  13.106 -13.039  1.00  0.00     0.022 A 
BRANCH  88  91
ATOM     91  S   UNL     1      10.145  13.114 -12.853  1.00  0.00     0.127 S 
ATOM     92  O   UNL     1      10.285  12.508 -14.176  1.00  0.00    -0.237 OA
ATOM     93  O   UNL     1       9.981  14.567 -12.861  1.00  0.00    -0.237 OA
ATOM     94  O   UNL     1      11.065  12.613 -11.841  1.00  0.00    -0.744 OA
ENDBRANCH  88  91
ENDBRANCH  61  84
ENDBRANCH  35  36
ENDBRANCH  28  30
ENDBRANCH  27  28
ENDBRANCH  26  27
ENDBRANCH   1  26
TORSDOF 20
