REMARK SMILES CC1(C)[C@H](C(=O)N(Cc2ccccc2)Cc2ccccc2)CC[C@@]1(C)C(=O)OCCOCCOC(=O)c1ccc(-c2c3nc(c(-c4cccc(S(=O)(=O)[O-])c4F)c4ccc([nH]4)c(-c4cccc(S(=O)(=O)[O-])c4F)c4nc(c(-c5cccc(S(=O)(=O)[O-])c5F)c5ccc2[nH]5)C=C4)C=C3)cc1
REMARK SMILES IDX 31 1 30 2 29 3 28 4 26 5 27 6 24 7 1 8 2 9 3 10 4 11 22 12
REMARK SMILES IDX 23 13 25 14 5 15 6 16 7 17 8 18 9 19 10 20 14 21 11 22 13 23
REMARK SMILES IDX 12 24 15 25 16 26 17 27 21 28 18 29 20 30 19 31 32 32 33 33
REMARK SMILES IDX 34 34 35 35 36 36 37 37 38 38 99 39 39 40 98 41 40 42 41 43
REMARK SMILES IDX 42 44 92 45 43 46 97 47 91 48 93 49 44 50 96 51 90 52 89 53
REMARK SMILES IDX 45 55 77 56 57 57 76 58 58 59 61 60 75 61 94 62 59 63 60 64
REMARK SMILES IDX 74 66 95 67 62 68 46 69 47 70 55 71 48 72 50 73 56 74 49 75
REMARK SMILES IDX 51 76 52 77 53 78 54 79 78 80 79 81 87 82 80 83 82 84 88 85
REMARK SMILES IDX 81 86 83 87 84 88 85 89 86 90 63 91 64 92 72 93 65 94 67 95
REMARK SMILES IDX 73 96 66 97 68 98 69 99 70 100 71 101
REMARK H PARENT 93 54 61 65
REMARK Flexibility Score: inf
ROOT
ATOM      1  O   UNL     1       4.673   3.497   1.988  1.00  0.00    -0.374 OA
ENDROOT
BRANCH   1   2
ATOM      2  C   UNL     1       4.781   2.687   0.812  1.00  0.00     0.202 C 
BRANCH   2   3
ATOM      3  C   UNL     1       4.592   1.178   1.003  1.00  0.00     0.261 C 
BRANCH   3   4
ATOM      4  O   UNL     1       3.211   0.878   1.278  1.00  0.00    -0.463 OA
BRANCH   4   5
ATOM      5  C   UNL     1       2.957  -0.056   2.238  1.00  0.00     0.312 C 
ATOM      6  O   UNL     1       3.822  -0.675   2.842  1.00  0.00    -0.252 OA
BRANCH   5   7
ATOM      7  C   UNL     1       1.437  -0.194   2.487  1.00  0.00     0.071 C 
ATOM      8  C   UNL     1       1.413  -0.902  -0.065  1.00  0.00     0.013 C 
ATOM      9  C   UNL     1       0.680  -0.924   1.300  1.00  0.00    -0.008 C 
ATOM     10  C   UNL     1      -0.657  -0.259   0.999  1.00  0.00     0.013 C 
ATOM     11  C   UNL     1       0.587  -2.392   1.802  1.00  0.00     0.085 C 
ATOM     12  C   UNL     1       0.708  -2.432   3.313  1.00  0.00     0.015 C 
ATOM     13  C   UNL     1       1.193  -1.068   3.752  1.00  0.00     0.020 C 
ATOM     14  C   UNL     1       0.879   1.200   2.860  1.00  0.00     0.024 C 
BRANCH  11  15
ATOM     15  C   UNL     1      -0.440  -3.397   1.268  1.00  0.00     0.226 C 
ATOM     16  O   UNL     1       0.044  -4.466   0.862  1.00  0.00    -0.275 OA
ATOM     17  N   UNL     1      -1.822  -3.208   1.245  1.00  0.00    -0.334 N 
BRANCH  17  18
ATOM     18  C   UNL     1      -2.620  -2.475   2.265  1.00  0.00     0.155 C 
BRANCH  18  19
ATOM     19  C   UNL     1      -3.703  -1.500   1.802  1.00  0.00    -0.029 A 
ATOM     20  C   UNL     1      -3.671  -0.148   2.194  1.00  0.00     0.005 A 
ATOM     21  C   UNL     1      -4.798  -1.893   1.027  1.00  0.00     0.005 A 
ATOM     22  C   UNL     1      -4.561   0.795   1.668  1.00  0.00     0.000 A 
ATOM     23  C   UNL     1      -5.702  -0.960   0.504  1.00  0.00     0.000 A 
ATOM     24  C   UNL     1      -5.562   0.391   0.795  1.00  0.00     0.000 A 
ENDBRANCH  18  19
ENDBRANCH  17  18
BRANCH  17  25
ATOM     25  C   UNL     1      -2.537  -4.173   0.388  1.00  0.00     0.155 C 
BRANCH  25  26
ATOM     26  C   UNL     1      -2.631  -3.760  -1.068  1.00  0.00    -0.029 A 
ATOM     27  C   UNL     1      -1.479  -3.506  -1.830  1.00  0.00     0.005 A 
ATOM     28  C   UNL     1      -3.871  -3.720  -1.725  1.00  0.00     0.005 A 
ATOM     29  C   UNL     1      -1.564  -3.187  -3.186  1.00  0.00     0.000 A 
ATOM     30  C   UNL     1      -3.959  -3.387  -3.079  1.00  0.00     0.000 A 
ATOM     31  C   UNL     1      -2.805  -3.120  -3.808  1.00  0.00     0.000 A 
ENDBRANCH  25  26
ENDBRANCH  17  25
ENDBRANCH  11  15
ENDBRANCH   5   7
ENDBRANCH   4   5
ENDBRANCH   3   4
ENDBRANCH   2   3
ENDBRANCH   1   2
BRANCH   1  32
ATOM     32  C   UNL     1       3.371   3.629   2.550  1.00  0.00     0.202 C 
BRANCH  32  33
ATOM     33  C   UNL     1       2.427   4.645   1.893  1.00  0.00     0.261 C 
BRANCH  33  34
ATOM     34  O   UNL     1       2.150   4.344   0.515  1.00  0.00    -0.460 OA
BRANCH  34  35
ATOM     35  C   UNL     1       2.744   5.176  -0.372  1.00  0.00     0.338 C 
ATOM     36  O   UNL     1       3.412   6.173  -0.117  1.00  0.00    -0.246 OA
BRANCH  35  37
ATOM     37  C   UNL     1       2.642   4.630  -1.735  1.00  0.00     0.060 A 
ATOM     38  C   UNL     1       3.839   4.371  -2.416  1.00  0.00     0.016 A 
ATOM     39  C   UNL     1       1.410   4.457  -2.370  1.00  0.00     0.016 A 
ATOM     40  C   UNL     1       3.811   3.974  -3.750  1.00  0.00     0.010 A 
ATOM     41  C   UNL     1       1.386   4.073  -3.716  1.00  0.00     0.010 A 
ATOM     42  C   UNL     1       2.587   3.864  -4.419  1.00  0.00    -0.014 A 
BRANCH  42  43
ATOM     43  C   UNL     1       2.577   3.662  -5.887  1.00  0.00     0.031 A 
ATOM     44  C   UNL     1       2.385   4.850  -6.789  1.00  0.00     0.074 A 
ATOM     45  C   UNL     1       2.754   2.436  -6.412  1.00  0.00     0.049 A 
ATOM     46  N   UNL     1       2.326   4.897  -8.094  1.00  0.00    -0.248 NA
ATOM     47  C   UNL     1       2.241   6.160  -6.131  1.00  0.00     0.031 C 
ATOM     48  C   UNL     1       2.962   1.211  -5.641  1.00  0.00     0.029 A 
ATOM     49  N   UNL     1       2.763   2.020  -7.719  1.00  0.00    -0.354 N 
ATOM     50  C   UNL     1       2.113   6.232  -8.415  1.00  0.00     0.074 A 
ATOM     51  C   UNL     1       2.045   6.962  -7.168  1.00  0.00     0.031 C 
ATOM     52  C   UNL     1       3.045   0.173  -6.491  1.00  0.00     0.029 A 
ATOM     53  C   UNL     1       2.872   0.657  -7.859  1.00  0.00     0.049 A 
ATOM     54  H   UNL     1       2.697   2.638  -8.483  1.00  0.00     0.167 HD
ATOM     55  C   UNL     1       1.998   6.801  -9.639  1.00  0.00     0.034 A 
ATOM     56  C   UNL     1       2.811  -0.113  -8.964  1.00  0.00     0.034 A 
ATOM     57  C   UNL     1       2.084   6.077 -10.878  1.00  0.00     0.049 A 
ATOM     58  C   UNL     1       2.645   0.541 -10.311  1.00  0.00     0.074 A 
ATOM     59  C   UNL     1       2.031   6.572 -12.169  1.00  0.00     0.029 A 
ATOM     60  N   UNL     1       2.224   4.702 -10.983  1.00  0.00    -0.354 N 
ATOM     61  N   UNL     1       2.568   1.816 -10.606  1.00  0.00    -0.248 NA
ATOM     62  C   UNL     1       2.585  -0.350 -11.479  1.00  0.00     0.031 C 
ATOM     63  C   UNL     1       2.112   5.492 -13.055  1.00  0.00     0.029 A 
ATOM     64  C   UNL     1       2.240   4.327 -12.315  1.00  0.00     0.049 A 
ATOM     65  H   UNL     1       2.301   4.082 -10.221  1.00  0.00     0.167 HD
ATOM     66  C   UNL     1       2.479   1.882 -11.993  1.00  0.00     0.074 A 
ATOM     67  C   UNL     1       2.537   0.519 -12.480  1.00  0.00     0.031 C 
ATOM     68  C   UNL     1       2.346   2.971 -12.790  1.00  0.00     0.034 A 
BRANCH  55  69
ATOM     69  C   UNL     1       1.791   8.291  -9.698  1.00  0.00     0.023 A 
ATOM     70  C   UNL     1       2.868   9.156  -9.418  1.00  0.00     0.012 A 
ATOM     71  C   UNL     1       0.550   8.833 -10.085  1.00  0.00     0.148 A 
ATOM     72  C   UNL     1       2.706  10.539  -9.496  1.00  0.00     0.002 A 
ATOM     73  C   UNL     1       0.407  10.211 -10.199  1.00  0.00     0.091 A 
ATOM     74  F   UNL     1      -0.468   7.994 -10.323  1.00  0.00    -0.205 F 
ATOM     75  C   UNL     1       1.481  11.065  -9.896  1.00  0.00     0.022 A 
BRANCH  73  76
ATOM     76  S   UNL     1      -1.109  10.982 -10.775  1.00  0.00     0.127 S 
ATOM     77  O   UNL     1      -1.622  11.580  -9.544  1.00  0.00    -0.237 OA
ATOM     78  O   UNL     1      -0.612  11.944 -11.759  1.00  0.00    -0.237 OA
ATOM     79  O   UNL     1      -1.918   9.907 -11.333  1.00  0.00    -0.744 OA
ENDBRANCH  73  76
ENDBRANCH  55  69
BRANCH  56  80
ATOM     80  C   UNL     1       2.922  -1.593  -8.843  1.00  0.00     0.023 A 
ATOM     81  C   UNL     1       4.065  -2.251  -9.335  1.00  0.00     0.012 A 
ATOM     82  C   UNL     1       1.907  -2.347  -8.224  1.00  0.00     0.148 A 
ATOM     83  C   UNL     1       4.183  -3.638  -9.236  1.00  0.00     0.002 A 
ATOM     84  C   UNL     1       2.056  -3.720  -8.079  1.00  0.00     0.091 A 
ATOM     85  F   UNL     1       0.816  -1.704  -7.784  1.00  0.00    -0.205 F 
ATOM     86  C   UNL     1       3.185  -4.371  -8.598  1.00  0.00     0.022 A 
BRANCH  84  87
ATOM     87  S   UNL     1       0.881  -4.715  -7.154  1.00  0.00     0.127 S 
ATOM     88  O   UNL     1       0.208  -5.450  -8.221  1.00  0.00    -0.237 OA
ATOM     89  O   UNL     1       1.766  -5.520  -6.311  1.00  0.00    -0.237 OA
ATOM     90  O   UNL     1       0.058  -3.762  -6.421  1.00  0.00    -0.744 OA
ENDBRANCH  84  87
ENDBRANCH  56  80
BRANCH  68  91
ATOM     91  C   UNL     1       2.273   2.745 -14.278  1.00  0.00     0.023 A 
ATOM     92  C   UNL     1       1.104   2.200 -14.845  1.00  0.00     0.012 A 
ATOM     93  C   UNL     1       3.330   3.142 -15.121  1.00  0.00     0.148 A 
ATOM     94  C   UNL     1       0.999   2.025 -16.224  1.00  0.00     0.002 A 
ATOM     95  C   UNL     1       3.200   3.009 -16.499  1.00  0.00     0.091 A 
ATOM     96  F   UNL     1       4.441   3.643 -14.562  1.00  0.00    -0.205 F 
ATOM     97  C   UNL     1       2.040   2.441 -17.051  1.00  0.00     0.022 A 
BRANCH  95  98
ATOM     98  S   UNL     1       4.449   3.602 -17.647  1.00  0.00     0.127 S 
ATOM     99  O   UNL     1       5.039   2.350 -18.118  1.00  0.00    -0.237 OA
ATOM    100  O   UNL     1       3.644   4.310 -18.643  1.00  0.00    -0.237 OA
ATOM    101  O   UNL     1       5.334   4.457 -16.868  1.00  0.00    -0.744 OA
ENDBRANCH  95  98
ENDBRANCH  68  91
ENDBRANCH  42  43
ENDBRANCH  35  37
ENDBRANCH  34  35
ENDBRANCH  33  34
ENDBRANCH  32  33
ENDBRANCH   1  32
TORSDOF 22
