REMARK SMILES C[C@@H](C(=O)OCCOCCOC(=O)c1ccc(-c2c3nc(c(-c4cccc(S(=O)(=O)[O-])c4F)c4ccc([nH]4)c(-c4cccc(S(=O)(=O)[O-])c4F)c4nc(c(-c5cccc(S(=O)(=O)[O-])c5F)c5ccc2[nH]5)C=C4)C=C3)cc1)c1ccc(C[C@@H]2CCC[C@@H]2O)cc1F
REMARK SMILES IDX 7 1 6 2 5 3 3 4 4 5 2 6 1 7 77 8 78 9 89 10 79 11 88 12
REMARK SMILES IDX 90 13 80 14 81 15 82 16 83 17 86 18 84 19 85 20 87 21 8 23
REMARK SMILES IDX 9 24 10 25 11 26 12 27 13 28 14 29 15 30 76 31 16 32 75 33
REMARK SMILES IDX 17 34 18 35 19 36 69 37 20 38 74 39 68 40 70 41 21 42 73 43
REMARK SMILES IDX 67 44 66 45 22 47 54 48 34 49 53 50 35 51 38 52 52 53 71 54
REMARK SMILES IDX 36 55 37 56 51 58 72 59 39 60 23 61 24 62 32 63 25 64 27 65
REMARK SMILES IDX 33 66 26 67 28 68 29 69 30 70 31 71 55 72 56 73 64 74 57 75
REMARK SMILES IDX 59 76 65 77 58 78 60 79 61 80 62 81 63 82 40 83 41 84 49 85
REMARK SMILES IDX 42 86 44 87 50 88 43 89 45 90 46 91 47 92 48 93
REMARK H PARENT 87 22 70 46 38 57
REMARK Flexibility Score: inf
ROOT
ATOM      1  C   UNL     1     -11.825   1.339   8.823  1.00  0.00     0.202 C 
ENDROOT
BRANCH   1   2
ATOM      2  C   UNL     1     -10.607   2.178   9.223  1.00  0.00     0.261 C 
BRANCH   2   3
ATOM      3  O   UNL     1     -10.465   3.302   8.345  1.00  0.00    -0.463 OA
BRANCH   3   4
ATOM      4  C   UNL     1      -9.193   3.606   7.970  1.00  0.00     0.313 C 
ATOM      5  O   UNL     1      -8.188   3.150   8.504  1.00  0.00    -0.252 OA
BRANCH   4   6
ATOM      6  C   UNL     1      -9.158   4.468   6.703  1.00  0.00     0.129 C 
ATOM      7  C   UNL     1     -10.384   5.390   6.634  1.00  0.00     0.025 C 
BRANCH   6   8
ATOM      8  C   UNL     1      -8.865   3.671   5.423  1.00  0.00     0.002 A 
ATOM      9  C   UNL     1      -8.261   2.400   5.464  1.00  0.00     0.008 A 
ATOM     10  C   UNL     1      -9.061   4.226   4.152  1.00  0.00     0.127 A 
ATOM     11  C   UNL     1      -7.824   1.754   4.300  1.00  0.00     0.004 A 
ATOM     12  C   UNL     1      -8.615   3.594   2.988  1.00  0.00     0.043 A 
ATOM     13  F   UNL     1      -9.645   5.423   4.008  1.00  0.00    -0.207 F 
ATOM     14  C   UNL     1      -7.937   2.374   3.055  1.00  0.00    -0.045 A 
BRANCH  14  15
ATOM     15  C   UNL     1      -7.280   1.794   1.828  1.00  0.00     0.041 C 
BRANCH  15  16
ATOM     16  C   UNL     1      -5.755   2.016   1.659  1.00  0.00     0.022 C 
ATOM     17  C   UNL     1      -4.879   1.342   2.721  1.00  0.00     0.007 C 
ATOM     18  C   UNL     1      -5.240   3.460   1.681  1.00  0.00     0.117 C 
ATOM     19  C   UNL     1      -4.506   2.424   3.739  1.00  0.00     0.003 C 
ATOM     20  C   UNL     1      -4.960   3.756   3.149  1.00  0.00     0.032 C 
BRANCH  18  21
ATOM     21  O   UNL     1      -6.127   4.397   1.107  1.00  0.00    -0.393 OA
ATOM     22  H   UNL     1      -6.965   4.389   1.594  1.00  0.00     0.210 HD
ENDBRANCH  18  21
ENDBRANCH  15  16
ENDBRANCH  14  15
ENDBRANCH   6   8
ENDBRANCH   4   6
ENDBRANCH   3   4
ENDBRANCH   2   3
ENDBRANCH   1   2
BRANCH   1  23
ATOM     23  O   UNL     1     -11.841   0.837   7.485  1.00  0.00    -0.374 OA
BRANCH  23  24
ATOM     24  C   UNL     1     -12.064   1.771   6.426  1.00  0.00     0.202 C 
BRANCH  24  25
ATOM     25  C   UNL     1     -13.466   2.384   6.307  1.00  0.00     0.261 C 
BRANCH  25  26
ATOM     26  O   UNL     1     -13.818   3.211   7.432  1.00  0.00    -0.460 OA
BRANCH  26  27
ATOM     27  C   UNL     1     -14.894   2.783   8.135  1.00  0.00     0.338 C 
ATOM     28  O   UNL     1     -15.611   1.823   7.874  1.00  0.00    -0.246 OA
BRANCH  27  29
ATOM     29  C   UNL     1     -15.013   3.521   9.404  1.00  0.00     0.060 A 
ATOM     30  C   UNL     1     -15.002   2.774  10.590  1.00  0.00     0.016 A 
ATOM     31  C   UNL     1     -15.236   4.899   9.436  1.00  0.00     0.016 A 
ATOM     32  C   UNL     1     -15.262   3.395  11.809  1.00  0.00     0.010 A 
ATOM     33  C   UNL     1     -15.507   5.518  10.662  1.00  0.00     0.010 A 
ATOM     34  C   UNL     1     -15.559   4.763  11.849  1.00  0.00    -0.014 A 
BRANCH  34  35
ATOM     35  C   UNL     1     -16.056   5.365  13.110  1.00  0.00     0.031 A 
ATOM     36  C   UNL     1     -17.534   5.587  13.285  1.00  0.00     0.074 A 
ATOM     37  C   UNL     1     -15.204   5.697  14.097  1.00  0.00     0.049 A 
ATOM     38  N   UNL     1     -18.180   6.101  14.299  1.00  0.00    -0.248 NA
ATOM     39  C   UNL     1     -18.400   5.173  12.168  1.00  0.00     0.031 C 
ATOM     40  C   UNL     1     -13.752   5.529  14.049  1.00  0.00     0.029 A 
ATOM     41  N   UNL     1     -15.438   6.265  15.324  1.00  0.00    -0.354 N 
ATOM     42  C   UNL     1     -19.522   6.095  13.938  1.00  0.00     0.074 A 
ATOM     43  C   UNL     1     -19.598   5.539  12.604  1.00  0.00     0.031 C 
ATOM     44  C   UNL     1     -13.221   6.015  15.184  1.00  0.00     0.029 A 
ATOM     45  C   UNL     1     -14.291   6.543  16.028  1.00  0.00     0.049 A 
ATOM     46  H   UNL     1     -16.341   6.455  15.667  1.00  0.00     0.167 HD
ATOM     47  C   UNL     1     -20.597   6.496  14.656  1.00  0.00     0.034 A 
ATOM     48  C   UNL     1     -14.122   7.170  17.210  1.00  0.00     0.034 A 
ATOM     49  C   UNL     1     -20.524   7.031  15.989  1.00  0.00     0.049 A 
ATOM     50  C   UNL     1     -15.333   7.627  17.982  1.00  0.00     0.074 A 
ATOM     51  C   UNL     1     -21.562   7.428  16.815  1.00  0.00     0.029 A 
ATOM     52  N   UNL     1     -19.349   7.255  16.689  1.00  0.00    -0.354 N 
ATOM     53  N   UNL     1     -16.602   7.502  17.678  1.00  0.00    -0.248 NA
ATOM     54  C   UNL     1     -15.089   8.281  19.277  1.00  0.00     0.031 C 
ATOM     55  C   UNL     1     -21.012   7.911  18.007  1.00  0.00     0.029 A 
ATOM     56  C   UNL     1     -19.633   7.793  17.933  1.00  0.00     0.049 A 
ATOM     57  H   UNL     1     -18.445   7.060  16.351  1.00  0.00     0.167 HD
ATOM     58  C   UNL     1     -17.308   8.028  18.755  1.00  0.00     0.074 A 
ATOM     59  C   UNL     1     -16.324   8.455  19.729  1.00  0.00     0.031 C 
ATOM     60  C   UNL     1     -18.648   8.161  18.917  1.00  0.00     0.034 A 
BRANCH  47  61
ATOM     61  C   UNL     1     -21.956   6.340  14.026  1.00  0.00     0.023 A 
ATOM     62  C   UNL     1     -22.524   5.054  13.912  1.00  0.00     0.012 A 
ATOM     63  C   UNL     1     -22.692   7.462  13.600  1.00  0.00     0.148 A 
ATOM     64  C   UNL     1     -23.791   4.885  13.357  1.00  0.00     0.002 A 
ATOM     65  C   UNL     1     -23.972   7.289  13.084  1.00  0.00     0.091 A 
ATOM     66  F   UNL     1     -22.126   8.673  13.695  1.00  0.00    -0.205 F 
ATOM     67  C   UNL     1     -24.519   6.002  12.953  1.00  0.00     0.022 A 
BRANCH  65  68
ATOM     68  S   UNL     1     -25.016   8.670  12.605  1.00  0.00     0.127 S 
ATOM     69  O   UNL     1     -25.002   8.558  11.147  1.00  0.00    -0.237 OA
ATOM     70  O   UNL     1     -26.293   8.323  13.229  1.00  0.00    -0.237 OA
ATOM     71  O   UNL     1     -24.380   9.861  13.148  1.00  0.00    -0.744 OA
ENDBRANCH  65  68
ENDBRANCH  47  61
BRANCH  48  72
ATOM     72  C   UNL     1     -12.749   7.375  17.752  1.00  0.00     0.023 A 
ATOM     73  C   UNL     1     -12.336   6.661  18.893  1.00  0.00     0.012 A 
ATOM     74  C   UNL     1     -11.845   8.258  17.129  1.00  0.00     0.148 A 
ATOM     75  C   UNL     1     -11.057   6.844  19.421  1.00  0.00     0.002 A 
ATOM     76  C   UNL     1     -10.555   8.394  17.628  1.00  0.00     0.091 A 
ATOM     77  F   UNL     1     -12.265   8.944  16.057  1.00  0.00    -0.205 F 
ATOM     78  C   UNL     1     -10.164   7.701  18.783  1.00  0.00     0.022 A 
BRANCH  76  79
ATOM     79  S   UNL     1      -9.303   9.375  16.794  1.00  0.00     0.127 S 
ATOM     80  O   UNL     1      -9.179  10.524  17.686  1.00  0.00    -0.237 OA
ATOM     81  O   UNL     1      -8.155   8.466  16.796  1.00  0.00    -0.237 OA
ATOM     82  O   UNL     1      -9.842   9.654  15.470  1.00  0.00    -0.744 OA
ENDBRANCH  76  79
ENDBRANCH  48  72
BRANCH  60  83
ATOM     83  C   UNL     1     -19.143   8.763  20.207  1.00  0.00     0.023 A 
ATOM     84  C   UNL     1     -18.995  10.145  20.436  1.00  0.00     0.012 A 
ATOM     85  C   UNL     1     -19.826   7.975  21.154  1.00  0.00     0.148 A 
ATOM     86  C   UNL     1     -19.492  10.728  21.602  1.00  0.00     0.002 A 
ATOM     87  C   UNL     1     -20.360   8.571  22.291  1.00  0.00     0.091 A 
ATOM     88  F   UNL     1     -19.942   6.658  20.927  1.00  0.00    -0.205 F 
ATOM     89  C   UNL     1     -20.184   9.944  22.522  1.00  0.00     0.022 A 
BRANCH  87  90
ATOM     90  S   UNL     1     -21.346   7.657  23.484  1.00  0.00     0.127 S 
ATOM     91  O   UNL     1     -20.418   7.535  24.607  1.00  0.00    -0.237 OA
ATOM     92  O   UNL     1     -22.471   8.563  23.718  1.00  0.00    -0.237 OA
ATOM     93  O   UNL     1     -21.707   6.406  22.829  1.00  0.00    -0.744 OA
ENDBRANCH  87  90
ENDBRANCH  60  83
ENDBRANCH  34  35
ENDBRANCH  27  29
ENDBRANCH  26  27
ENDBRANCH  25  26
ENDBRANCH  24  25
ENDBRANCH  23  24
ENDBRANCH   1  23
TORSDOF 21
