REMARK SMILES COc1ccc(NC(=O)c2cnn3c2N=C(C(=O)OCCOCCOC(=O)c2ccc(-c4c5nc(c(-c6cccc(S(=O)(=O)[O-])c6F)c6ccc([nH]6)c(-c6cccc(S(=O)(=O)[O-])c6F)c6nc(c(-c7cccc(S(=O)(=O)[O-])c7F)c7ccc4[nH]7)C=C6)C=C5)cc2)C[C@@H]3c2ccc(OC)cc2)cc1
REMARK SMILES IDX 22 1 21 2 20 3 19 4 17 5 18 6 16 7 10 8 11 9 14 10 12 11
REMARK SMILES IDX 13 12 15 13 92 14 91 15 8 16 7 17 9 19 6 20 3 21 4 22 102 23
REMARK SMILES IDX 5 24 101 25 2 26 1 27 93 28 94 29 100 30 95 31 99 32 96 33
REMARK SMILES IDX 97 34 98 35 23 36 24 37 25 38 26 39 27 40 28 41 29 42 90 43
REMARK SMILES IDX 30 44 89 45 31 46 32 47 33 48 83 49 34 50 88 51 82 52 84 53
REMARK SMILES IDX 35 54 87 55 81 56 80 57 36 59 68 60 48 61 67 62 49 63 52 64
REMARK SMILES IDX 66 65 85 66 50 67 51 68 65 70 86 71 53 72 37 73 38 74 46 75
REMARK SMILES IDX 39 76 41 77 47 78 40 79 42 80 43 81 44 82 45 83 69 84 70 85
REMARK SMILES IDX 78 86 71 87 73 88 79 89 72 90 74 91 75 92 76 93 77 94 54 95
REMARK SMILES IDX 55 96 63 97 56 98 58 99 64 100 57 101 59 102 60 103 61 104
REMARK SMILES IDX 62 105
REMARK H PARENT 7 18 84 58 52 69
REMARK Flexibility Score: inf
ROOT
ATOM      1  O   UNL     1       1.032  -4.644  -1.065  1.00  0.00    -0.374 OA
ENDROOT
BRANCH   1   2
ATOM      2  C   UNL     1      -0.143  -4.725  -1.862  1.00  0.00     0.202 C 
BRANCH   2   3
ATOM      3  C   UNL     1      -1.437  -5.253  -1.227  1.00  0.00     0.261 C 
BRANCH   3   4
ATOM      4  O   UNL     1      -1.748  -4.663   0.046  1.00  0.00    -0.459 OA
BRANCH   4   5
ATOM      5  C   UNL     1      -1.758  -5.514   1.089  1.00  0.00     0.352 C 
ATOM      6  O   UNL     1      -1.641  -6.731   1.066  1.00  0.00    -0.245 OA
BRANCH   5   7
ATOM      7  C   UNL     1      -1.844  -4.743   2.401  1.00  0.00     0.130 C 
ATOM      8  C   UNL     1      -0.307  -4.348   5.644  1.00  0.00     0.104 A 
ATOM      9  C   UNL     1      -1.199  -4.029   6.692  1.00  0.00     0.151 A 
ATOM     10  C   UNL     1      -1.116  -4.426   4.522  1.00  0.00     0.164 A 
ATOM     11  N   UNL     1      -2.425  -3.731   6.244  1.00  0.00    -0.178 NA
ATOM     12  N   UNL     1      -2.272  -3.785   4.900  1.00  0.00    -0.239 N 
ATOM     13  N   UNL     1      -0.941  -4.985   3.302  1.00  0.00    -0.225 NA
ATOM     14  C   UNL     1      -3.280  -3.293   3.958  1.00  0.00     0.146 C 
ATOM     15  C   UNL     1      -2.925  -3.704   2.514  1.00  0.00     0.096 C 
BRANCH   8  16
ATOM     16  C   UNL     1       1.112  -4.599   5.714  1.00  0.00     0.261 C 
ATOM     17  N   UNL     1       1.964  -3.869   4.899  1.00  0.00    -0.322 N 
ATOM     18  H   UNL     1       2.862  -4.260   4.796  1.00  0.00     0.170 HD
ATOM     19  O   UNL     1       1.581  -5.449   6.470  1.00  0.00    -0.269 OA
BRANCH  17  20
ATOM     20  C   UNL     1       1.768  -2.662   4.190  1.00  0.00     0.041 A 
ATOM     21  C   UNL     1       1.446  -0.310   2.643  1.00  0.00     0.119 A 
ATOM     22  C   UNL     1       0.554  -0.625   3.663  1.00  0.00     0.048 A 
ATOM     23  C   UNL     1       2.543  -1.142   2.437  1.00  0.00     0.048 A 
ATOM     24  C   UNL     1       0.727  -1.772   4.441  1.00  0.00     0.030 A 
ATOM     25  C   UNL     1       2.703  -2.311   3.208  1.00  0.00     0.030 A 
BRANCH  21  26
ATOM     26  O   UNL     1       1.123   0.824   1.961  1.00  0.00    -0.497 OA
ATOM     27  C   UNL     1       1.735   1.074   0.706  1.00  0.00     0.278 C 
ENDBRANCH  21  26
ENDBRANCH  17  20
ENDBRANCH   8  16
BRANCH  14  28
ATOM     28  C   UNL     1      -3.517  -1.771   4.016  1.00  0.00    -0.023 A 
ATOM     29  C   UNL     1      -2.916  -0.920   4.955  1.00  0.00     0.010 A 
ATOM     30  C   UNL     1      -4.380  -1.169   3.075  1.00  0.00     0.010 A 
ATOM     31  C   UNL     1      -3.115   0.464   4.913  1.00  0.00     0.047 A 
ATOM     32  C   UNL     1      -4.574   0.220   3.030  1.00  0.00     0.047 A 
ATOM     33  C   UNL     1      -3.929   1.044   3.944  1.00  0.00     0.118 A 
BRANCH  33  34
ATOM     34  O   UNL     1      -4.009   2.401   4.014  1.00  0.00    -0.497 OA
ATOM     35  C   UNL     1      -4.757   3.082   3.013  1.00  0.00     0.278 C 
ENDBRANCH  33  34
ENDBRANCH  14  28
ENDBRANCH   5   7
ENDBRANCH   4   5
ENDBRANCH   3   4
ENDBRANCH   2   3
ENDBRANCH   1   2
BRANCH   1  36
ATOM     36  C   UNL     1       1.001  -3.898   0.140  1.00  0.00     0.202 C 
BRANCH  36  37
ATOM     37  C   UNL     1       0.506  -2.456   0.141  1.00  0.00     0.261 C 
BRANCH  37  38
ATOM     38  O   UNL     1      -0.596  -2.132  -0.695  1.00  0.00    -0.460 OA
BRANCH  38  39
ATOM     39  C   UNL     1      -0.198  -1.443  -1.791  1.00  0.00     0.338 C 
ATOM     40  O   UNL     1       0.813  -1.646  -2.446  1.00  0.00    -0.246 OA
BRANCH  39  41
ATOM     41  C   UNL     1      -1.028  -0.249  -1.960  1.00  0.00     0.060 A 
ATOM     42  C   UNL     1      -0.885   0.448  -3.161  1.00  0.00     0.016 A 
ATOM     43  C   UNL     1      -1.695   0.303  -0.855  1.00  0.00     0.016 A 
ATOM     44  C   UNL     1      -1.303   1.759  -3.213  1.00  0.00     0.010 A 
ATOM     45  C   UNL     1      -2.102   1.618  -0.906  1.00  0.00     0.010 A 
ATOM     46  C   UNL     1      -1.852   2.347  -2.066  1.00  0.00    -0.014 A 
BRANCH  46  47
ATOM     47  C   UNL     1      -2.355   3.702  -2.189  1.00  0.00     0.031 A 
ATOM     48  C   UNL     1      -3.578   3.735  -3.026  1.00  0.00     0.074 A 
ATOM     49  C   UNL     1      -1.821   4.757  -1.544  1.00  0.00     0.049 A 
ATOM     50  N   UNL     1      -3.677   4.128  -4.253  1.00  0.00    -0.248 NA
ATOM     51  C   UNL     1      -4.761   3.007  -2.536  1.00  0.00     0.031 C 
ATOM     52  C   UNL     1      -0.811   4.728  -0.481  1.00  0.00     0.029 A 
ATOM     53  N   UNL     1      -2.158   6.075  -1.611  1.00  0.00    -0.354 N 
ATOM     54  C   UNL     1      -5.025   3.967  -4.566  1.00  0.00     0.074 A 
ATOM     55  C   UNL     1      -5.550   3.034  -3.612  1.00  0.00     0.031 C 
ATOM     56  C   UNL     1      -0.810   5.918   0.163  1.00  0.00     0.029 A 
ATOM     57  C   UNL     1      -1.708   6.827  -0.528  1.00  0.00     0.049 A 
ATOM     58  H   UNL     1      -2.672   6.461  -2.356  1.00  0.00     0.167 HD
ATOM     59  C   UNL     1      -5.664   4.902  -5.322  1.00  0.00     0.034 A 
ATOM     60  C   UNL     1      -2.112   8.079  -0.196  1.00  0.00     0.034 A 
ATOM     61  C   UNL     1      -4.708   5.755  -5.980  1.00  0.00     0.049 A 
ATOM     62  C   UNL     1      -2.695   8.689  -1.409  1.00  0.00     0.074 A 
ATOM     63  C   UNL     1      -3.796   5.647  -7.004  1.00  0.00     0.029 A 
ATOM     64  N   UNL     1      -4.362   6.847  -5.227  1.00  0.00    -0.354 N 
ATOM     65  N   UNL     1      -1.993   8.978  -2.468  1.00  0.00    -0.248 NA
ATOM     66  C   UNL     1      -4.139   8.656  -1.600  1.00  0.00     0.031 C 
ATOM     67  C   UNL     1      -2.776   6.603  -6.720  1.00  0.00     0.029 A 
ATOM     68  C   UNL     1      -3.122   7.304  -5.564  1.00  0.00     0.049 A 
ATOM     69  H   UNL     1      -4.934   7.249  -4.534  1.00  0.00     0.167 HD
ATOM     70  C   UNL     1      -2.849   8.697  -3.517  1.00  0.00     0.074 A 
ATOM     71  C   UNL     1      -4.186   8.694  -2.935  1.00  0.00     0.031 C 
ATOM     72  C   UNL     1      -2.370   8.162  -4.675  1.00  0.00     0.034 A 
BRANCH  59  73
ATOM     73  C   UNL     1      -7.074   5.414  -5.057  1.00  0.00     0.023 A 
ATOM     74  C   UNL     1      -7.578   6.381  -5.958  1.00  0.00     0.012 A 
ATOM     75  C   UNL     1      -7.789   5.251  -3.847  1.00  0.00     0.148 A 
ATOM     76  C   UNL     1      -8.690   7.174  -5.647  1.00  0.00     0.002 A 
ATOM     77  C   UNL     1      -8.934   5.990  -3.571  1.00  0.00     0.091 A 
ATOM     78  F   UNL     1      -7.308   4.476  -2.876  1.00  0.00    -0.205 F 
ATOM     79  C   UNL     1      -9.372   6.976  -4.454  1.00  0.00     0.022 A 
BRANCH  77  80
ATOM     80  S   UNL     1      -9.861   5.753  -2.047  1.00  0.00     0.127 S 
ATOM     81  O   UNL     1      -9.600   7.008  -1.349  1.00  0.00    -0.237 OA
ATOM     82  O   UNL     1     -11.223   5.592  -2.555  1.00  0.00    -0.237 OA
ATOM     83  O   UNL     1      -9.309   4.554  -1.427  1.00  0.00    -0.744 OA
ENDBRANCH  77  80
ENDBRANCH  59  73
BRANCH  60  84
ATOM     84  C   UNL     1      -2.275   8.721   1.131  1.00  0.00     0.023 A 
ATOM     85  C   UNL     1      -2.320  10.128   1.230  1.00  0.00     0.012 A 
ATOM     86  C   UNL     1      -2.705   7.961   2.239  1.00  0.00     0.148 A 
ATOM     87  C   UNL     1      -2.818  10.757   2.378  1.00  0.00     0.002 A 
ATOM     88  C   UNL     1      -3.201   8.591   3.377  1.00  0.00     0.091 A 
ATOM     89  F   UNL     1      -2.722   6.626   2.134  1.00  0.00    -0.205 F 
ATOM     90  C   UNL     1      -3.271   9.989   3.446  1.00  0.00     0.022 A 
BRANCH  88  91
ATOM     91  S   UNL     1      -3.851   7.669   4.777  1.00  0.00     0.127 S 
ATOM     92  O   UNL     1      -3.132   8.277   5.897  1.00  0.00    -0.237 OA
ATOM     93  O   UNL     1      -5.274   7.991   4.713  1.00  0.00    -0.237 OA
ATOM     94  O   UNL     1      -3.507   6.277   4.523  1.00  0.00    -0.744 OA
ENDBRANCH  88  91
ENDBRANCH  60  84
BRANCH  72  95
ATOM     95  C   UNL     1      -0.914   8.357  -4.976  1.00  0.00     0.023 A 
ATOM     96  C   UNL     1       0.122   7.738  -4.251  1.00  0.00     0.012 A 
ATOM     97  C   UNL     1      -0.601   9.112  -6.116  1.00  0.00     0.148 A 
ATOM     98  C   UNL     1       1.452   7.885  -4.656  1.00  0.00     0.002 A 
ATOM     99  C   UNL     1       0.713   9.214  -6.543  1.00  0.00     0.091 A 
ATOM    100  F   UNL     1      -1.607   9.701  -6.780  1.00  0.00    -0.205 F 
ATOM    101  C   UNL     1       1.746   8.610  -5.811  1.00  0.00     0.022 A 
BRANCH  99 102
ATOM    102  S   UNL     1       1.125  10.029  -8.085  1.00  0.00     0.127 S 
ATOM    103  O   UNL     1       1.735  11.272  -7.619  1.00  0.00    -0.237 OA
ATOM    104  O   UNL     1       2.055   9.080  -8.699  1.00  0.00    -0.237 OA
ATOM    105  O   UNL     1      -0.132  10.179  -8.808  1.00  0.00    -0.744 OA
ENDBRANCH  99 102
ENDBRANCH  72  95
ENDBRANCH  46  47
ENDBRANCH  39  41
ENDBRANCH  38  39
ENDBRANCH  37  38
ENDBRANCH  36  37
ENDBRANCH   1  36
TORSDOF 22
