REMARK SMILES O=C(OCCOCCOC(=O)c1ccc(-c2c3nc(c(-c4cccc(S(=O)(=O)[O-])c4F)c4ccc([nH]4)c(-c4cccc(S(=O)(=O)[O-])c4F)c4nc(c(-c5cccc(S(=O)(=O)[O-])c5F)c5ccc2[nH]5)C=C4)C=C3)cc1)c1ccc(NS(=O)(=O)C2=Cc3ccccc3CC2)cc1
REMARK SMILES IDX 6 1 5 2 4 3 3 4 2 5 1 6 75 7 76 8 94 9 77 10 93 11 78 12
REMARK SMILES IDX 79 13 80 15 81 16 82 17 83 18 84 19 92 20 85 21 91 22 86 23
REMARK SMILES IDX 90 24 87 25 89 26 88 27 7 28 8 29 9 30 10 31 11 32 12 33
REMARK SMILES IDX 13 34 74 35 14 36 73 37 15 38 16 39 17 40 67 41 18 42 72 43
REMARK SMILES IDX 66 44 68 45 19 46 71 47 65 48 64 49 20 51 52 52 32 53 51 54
REMARK SMILES IDX 33 55 36 56 50 57 69 58 34 59 35 60 49 62 70 63 37 64 21 65
REMARK SMILES IDX 22 66 30 67 23 68 25 69 31 70 24 71 26 72 27 73 28 74 29 75
REMARK SMILES IDX 53 76 54 77 62 78 55 79 57 80 63 81 56 82 58 83 59 84 60 85
REMARK SMILES IDX 61 86 38 87 39 88 47 89 40 90 42 91 48 92 41 93 43 94 44 95
REMARK SMILES IDX 45 96 46 97
REMARK H PARENT 79 14 68 50 36 61
REMARK Flexibility Score: inf
ROOT
ATOM      1  O   UNL     1       4.082   0.884   1.032  1.00  0.00    -0.374 OA
ENDROOT
BRANCH   1   2
ATOM      2  C   UNL     1       4.388   1.297  -0.301  1.00  0.00     0.202 C 
BRANCH   2   3
ATOM      3  C   UNL     1       4.045   0.275  -1.386  1.00  0.00     0.261 C 
BRANCH   3   4
ATOM      4  O   UNL     1       2.729  -0.292  -1.257  1.00  0.00    -0.460 OA
BRANCH   4   5
ATOM      5  C   UNL     1       2.252  -1.269  -0.453  1.00  0.00     0.338 C 
ATOM      6  O   UNL     1       1.033  -1.444  -0.419  1.00  0.00    -0.246 OA
BRANCH   5   7
ATOM      7  C   UNL     1       3.080  -2.124   0.458  1.00  0.00     0.060 A 
ATOM      8  C   UNL     1       4.464  -2.158   0.520  1.00  0.00     0.018 A 
ATOM      9  C   UNL     1       2.388  -2.953   1.366  1.00  0.00     0.018 A 
ATOM     10  C   UNL     1       5.110  -2.857   1.534  1.00  0.00     0.027 A 
ATOM     11  C   UNL     1       3.046  -3.554   2.451  1.00  0.00     0.027 A 
ATOM     12  C   UNL     1       4.416  -3.388   2.597  1.00  0.00     0.049 A 
BRANCH  12  13
ATOM     13  N   UNL     1       4.988  -3.445   3.901  1.00  0.00    -0.280 N 
ATOM     14  H   UNL     1       4.385  -3.617   4.660  1.00  0.00     0.180 HD
BRANCH  13  15
ATOM     15  S   UNL     1       6.636  -3.234   4.235  1.00  0.00     0.258 S 
ATOM     16  O   UNL     1       6.687  -3.357   5.681  1.00  0.00    -0.202 OA
ATOM     17  O   UNL     1       7.320  -4.223   3.424  1.00  0.00    -0.202 OA
BRANCH  15  18
ATOM     18  C   UNL     1       7.165  -1.569   3.756  1.00  0.00     0.066 C 
ATOM     19  C   UNL     1       7.712  -0.844   4.766  1.00  0.00     0.026 C 
ATOM     20  C   UNL     1       8.020  -1.439   2.495  1.00  0.00     0.055 C 
ATOM     21  C   UNL     1       9.159  -1.164   5.013  1.00  0.00    -0.021 A 
ATOM     22  C   UNL     1       9.357  -2.159   2.681  1.00  0.00     0.041 C 
ATOM     23  C   UNL     1       9.777  -0.740   6.189  1.00  0.00     0.008 A 
ATOM     24  C   UNL     1       9.912  -1.894   4.062  1.00  0.00    -0.040 A 
ATOM     25  C   UNL     1      11.086  -1.141   6.470  1.00  0.00     0.001 A 
ATOM     26  C   UNL     1      11.190  -2.354   4.385  1.00  0.00     0.004 A 
ATOM     27  C   UNL     1      11.771  -1.985   5.594  1.00  0.00     0.000 A 
ENDBRANCH  15  18
ENDBRANCH  13  15
ENDBRANCH  12  13
ENDBRANCH   5   7
ENDBRANCH   4   5
ENDBRANCH   3   4
ENDBRANCH   2   3
ENDBRANCH   1   2
BRANCH   1  28
ATOM     28  C   UNL     1       2.811   1.360   1.504  1.00  0.00     0.202 C 
BRANCH  28  29
ATOM     29  C   UNL     1       2.898   2.666   2.306  1.00  0.00     0.261 C 
BRANCH  29  30
ATOM     30  O   UNL     1       3.303   3.749   1.462  1.00  0.00    -0.460 OA
BRANCH  30  31
ATOM     31  C   UNL     1       4.637   4.007   1.444  1.00  0.00     0.338 C 
ATOM     32  O   UNL     1       5.488   3.560   2.178  1.00  0.00    -0.246 OA
BRANCH  31  33
ATOM     33  C   UNL     1       4.920   4.759   0.201  1.00  0.00     0.060 A 
ATOM     34  C   UNL     1       6.068   4.413  -0.527  1.00  0.00     0.016 A 
ATOM     35  C   UNL     1       4.042   5.736  -0.274  1.00  0.00     0.016 A 
ATOM     36  C   UNL     1       6.353   5.058  -1.728  1.00  0.00     0.010 A 
ATOM     37  C   UNL     1       4.329   6.383  -1.470  1.00  0.00     0.010 A 
ATOM     38  C   UNL     1       5.500   6.068  -2.182  1.00  0.00    -0.014 A 
BRANCH  38  39
ATOM     39  C   UNL     1       5.901   6.963  -3.284  1.00  0.00     0.031 A 
ATOM     40  C   UNL     1       6.421   8.320  -2.914  1.00  0.00     0.074 A 
ATOM     41  C   UNL     1       5.694   6.620  -4.565  1.00  0.00     0.049 A 
ATOM     42  N   UNL     1       6.636   9.361  -3.670  1.00  0.00    -0.248 NA
ATOM     43  C   UNL     1       6.703   8.538  -1.484  1.00  0.00     0.031 C 
ATOM     44  C   UNL     1       5.183   5.329  -5.020  1.00  0.00     0.029 A 
ATOM     45  N   UNL     1       5.829   7.359  -5.712  1.00  0.00    -0.354 N 
ATOM     46  C   UNL     1       7.018  10.376  -2.802  1.00  0.00     0.074 A 
ATOM     47  C   UNL     1       7.004   9.826  -1.465  1.00  0.00     0.031 C 
ATOM     48  C   UNL     1       4.989   5.385  -6.349  1.00  0.00     0.029 A 
ATOM     49  C   UNL     1       5.324   6.727  -6.823  1.00  0.00     0.049 A 
ATOM     50  H   UNL     1       6.245   8.251  -5.737  1.00  0.00     0.167 HD
ATOM     51  C   UNL     1       7.348  11.654  -3.097  1.00  0.00     0.034 A 
ATOM     52  C   UNL     1       5.107   7.201  -8.066  1.00  0.00     0.034 A 
ATOM     53  C   UNL     1       7.357  12.178  -4.434  1.00  0.00     0.049 A 
ATOM     54  C   UNL     1       5.484   8.624  -8.380  1.00  0.00     0.074 A 
ATOM     55  C   UNL     1       7.744  13.432  -4.865  1.00  0.00     0.029 A 
ATOM     56  N   UNL     1       6.934  11.478  -5.555  1.00  0.00    -0.354 N 
ATOM     57  N   UNL     1       5.962   9.546  -7.578  1.00  0.00    -0.248 NA
ATOM     58  C   UNL     1       5.323   9.065  -9.772  1.00  0.00     0.031 C 
ATOM     59  C   UNL     1       7.513  13.505  -6.242  1.00  0.00     0.029 A 
ATOM     60  C   UNL     1       7.033  12.278  -6.677  1.00  0.00     0.049 A 
ATOM     61  H   UNL     1       6.610  10.548  -5.551  1.00  0.00     0.167 HD
ATOM     62  C   UNL     1       6.197  10.662  -8.372  1.00  0.00     0.074 A 
ATOM     63  C   UNL     1       5.811  10.299  -9.721  1.00  0.00     0.031 C 
ATOM     64  C   UNL     1       6.687  11.877  -8.018  1.00  0.00     0.034 A 
BRANCH  51  65
ATOM     65  C   UNL     1       7.705  12.560  -1.948  1.00  0.00     0.023 A 
ATOM     66  C   UNL     1       8.887  12.337  -1.211  1.00  0.00     0.012 A 
ATOM     67  C   UNL     1       6.864  13.633  -1.594  1.00  0.00     0.148 A 
ATOM     68  C   UNL     1       9.197  13.132  -0.108  1.00  0.00     0.002 A 
ATOM     69  C   UNL     1       7.208  14.454  -0.528  1.00  0.00     0.091 A 
ATOM     70  F   UNL     1       5.730  13.813  -2.286  1.00  0.00    -0.205 F 
ATOM     71  C   UNL     1       8.363  14.195   0.228  1.00  0.00     0.022 A 
BRANCH  69  72
ATOM     72  S   UNL     1       6.242  15.898  -0.074  1.00  0.00     0.127 S 
ATOM     73  O   UNL     1       5.596  15.446   1.157  1.00  0.00    -0.237 OA
ATOM     74  O   UNL     1       7.278  16.913   0.118  1.00  0.00    -0.237 OA
ATOM     75  O   UNL     1       5.349  16.150  -1.196  1.00  0.00    -0.744 OA
ENDBRANCH  69  72
ENDBRANCH  51  65
BRANCH  52  76
ATOM     76  C   UNL     1       4.518   6.302  -9.096  1.00  0.00     0.023 A 
ATOM     77  C   UNL     1       5.329   5.807 -10.134  1.00  0.00     0.012 A 
ATOM     78  C   UNL     1       3.178   5.874  -9.004  1.00  0.00     0.148 A 
ATOM     79  C   UNL     1       4.813   4.911 -11.072  1.00  0.00     0.002 A 
ATOM     80  C   UNL     1       2.687   4.940  -9.908  1.00  0.00     0.091 A 
ATOM     81  F   UNL     1       2.425   6.364  -8.009  1.00  0.00    -0.205 F 
ATOM     82  C   UNL     1       3.498   4.468 -10.951  1.00  0.00     0.022 A 
BRANCH  80  83
ATOM     83  S   UNL     1       1.054   4.208  -9.753  1.00  0.00     0.127 S 
ATOM     84  O   UNL     1       0.405   4.663 -10.980  1.00  0.00    -0.237 OA
ATOM     85  O   UNL     1       1.373   2.780  -9.716  1.00  0.00    -0.237 OA
ATOM     86  O   UNL     1       0.497   4.736  -8.515  1.00  0.00    -0.744 OA
ENDBRANCH  80  83
ENDBRANCH  52  76
BRANCH  64  87
ATOM     87  C   UNL     1       6.902  12.895  -9.107  1.00  0.00     0.023 A 
ATOM     88  C   UNL     1       5.805  13.558  -9.689  1.00  0.00     0.012 A 
ATOM     89  C   UNL     1       8.212  13.273  -9.465  1.00  0.00     0.148 A 
ATOM     90  C   UNL     1       6.009  14.569 -10.628  1.00  0.00     0.002 A 
ATOM     91  C   UNL     1       8.408  14.317 -10.359  1.00  0.00     0.091 A 
ATOM     92  F   UNL     1       9.240  12.616  -8.909  1.00  0.00    -0.205 F 
ATOM     93  C   UNL     1       7.308  14.958 -10.951  1.00  0.00     0.022 A 
BRANCH  91  94
ATOM     94  S   UNL     1      10.040  14.957 -10.749  1.00  0.00     0.127 S 
ATOM     95  O   UNL     1      10.192  14.551 -12.146  1.00  0.00    -0.237 OA
ATOM     96  O   UNL     1       9.864  16.395 -10.546  1.00  0.00    -0.237 OA
ATOM     97  O   UNL     1      10.959  14.320  -9.815  1.00  0.00    -0.744 OA
ENDBRANCH  91  94
ENDBRANCH  64  87
ENDBRANCH  38  39
ENDBRANCH  31  33
ENDBRANCH  30  31
ENDBRANCH  29  30
ENDBRANCH  28  29
ENDBRANCH   1  28
TORSDOF 20
