REMARK SMILES Cc1c(NC(=O)c2ccc(Br)cc2N)cccc1C(=O)OCCOCCOC(=O)c1ccc(-c2c3nc(c(-c4cccc(S(=O)(=O)[O-])c4F)c4ccc([nH]4)c(-c4cccc(S(=O)(=O)[O-])c4F)c4nc(c(-c5cccc(S(=O)(=O)[O-])c5F)c5ccc2[nH]5)C=C4)C=C3)cc1
REMARK SMILES IDX 24 1 23 2 22 3 21 4 19 5 20 6 18 7 1 8 2 9 3 10 15 11 17 12
REMARK SMILES IDX 16 13 4 14 5 15 6 17 7 18 8 19 13 20 9 21 12 22 10 23 11 24
REMARK SMILES IDX 14 25 25 28 26 29 27 30 28 31 29 32 30 33 31 34 92 35 32 36
REMARK SMILES IDX 91 37 33 38 34 39 35 40 85 41 36 42 90 43 84 44 86 45 37 46
REMARK SMILES IDX 89 47 83 48 82 49 38 51 70 52 50 53 69 54 51 55 54 56 68 57
REMARK SMILES IDX 87 58 52 59 53 60 67 62 88 63 55 64 39 65 40 66 48 67 41 68
REMARK SMILES IDX 43 69 49 70 42 71 44 72 45 73 46 74 47 75 71 76 72 77 80 78
REMARK SMILES IDX 73 79 75 80 81 81 74 82 76 83 77 84 78 85 79 86 56 87 57 88
REMARK SMILES IDX 65 89 58 90 60 91 66 92 59 93 61 94 62 95 63 96 64 97
REMARK H PARENT 4 16 14 26 14 27 86 50 54 61
REMARK Flexibility Score: inf
ROOT
ATOM      1  O   UNL     1      -0.392   3.052  -2.964  1.00  0.00    -0.374 OA
ENDROOT
BRANCH   1   2
ATOM      2  C   UNL     1       0.111   3.866  -1.918  1.00  0.00     0.202 C 
BRANCH   2   3
ATOM      3  C   UNL     1       1.237   3.251  -1.096  1.00  0.00     0.261 C 
BRANCH   3   4
ATOM      4  O   UNL     1       0.874   1.954  -0.666  1.00  0.00    -0.460 OA
BRANCH   4   5
ATOM      5  C   UNL     1       0.006   1.986   0.364  1.00  0.00     0.338 C 
ATOM      6  O   UNL     1      -0.521   2.970   0.863  1.00  0.00    -0.246 OA
BRANCH   5   7
ATOM      7  C   UNL     1      -0.436   0.611   0.598  1.00  0.00     0.065 A 
ATOM      8  C   UNL     1       1.886  -0.442   0.272  1.00  0.00     0.047 C 
ATOM      9  C   UNL     1       0.395  -0.527   0.505  1.00  0.00    -0.013 A 
ATOM     10  C   UNL     1      -0.244  -1.779   0.505  1.00  0.00     0.045 A 
ATOM     11  C   UNL     1      -1.635  -1.871   0.688  1.00  0.00     0.026 A 
ATOM     12  C   UNL     1      -1.823   0.508   0.776  1.00  0.00     0.016 A 
ATOM     13  C   UNL     1      -2.422  -0.733   0.826  1.00  0.00     0.003 A 
BRANCH  10  14
ATOM     14  N   UNL     1       0.535  -2.930   0.276  1.00  0.00    -0.322 N 
ATOM     15  C   UNL     1       0.207  -4.096  -0.378  1.00  0.00     0.257 C 
ATOM     16  H   UNL     1       1.450  -2.896   0.637  1.00  0.00     0.170 HD
ATOM     17  O   UNL     1       0.919  -5.092  -0.257  1.00  0.00    -0.269 OA
BRANCH  15  18
ATOM     18  C   UNL     1      -0.967  -4.156  -1.285  1.00  0.00     0.063 A 
ATOM     19  C   UNL     1      -1.821  -5.255  -1.099  1.00  0.00     0.017 A 
ATOM     20  C   UNL     1      -1.246  -3.184  -2.272  1.00  0.00     0.045 A 
ATOM     21  C   UNL     1      -2.970  -5.389  -1.874  1.00  0.00     0.016 A 
ATOM     22  C   UNL     1      -2.398  -3.351  -3.053  1.00  0.00     0.042 A 
ATOM     23  C   UNL     1      -3.256  -4.433  -2.843  1.00  0.00     0.020 A 
ATOM     24  Br  UNL     1      -4.809  -4.616  -3.906  1.00  0.00    -0.051 Br
BRANCH  20  25
ATOM     25  N   UNL     1      -0.362  -2.162  -2.625  1.00  0.00    -0.398 N 
ATOM     26  H   UNL     1       0.458  -2.017  -2.099  1.00  0.00     0.156 HD
ATOM     27  H   UNL     1      -0.558  -1.587  -3.399  1.00  0.00     0.156 HD
ENDBRANCH  20  25
ENDBRANCH  15  18
ENDBRANCH  10  14
ENDBRANCH   5   7
ENDBRANCH   4   5
ENDBRANCH   3   4
ENDBRANCH   2   3
ENDBRANCH   1   2
BRANCH   1  28
ATOM     28  C   UNL     1       0.568   2.400  -3.788  1.00  0.00     0.202 C 
BRANCH  28  29
ATOM     29  C   UNL     1       1.951   3.062  -4.119  1.00  0.00     0.261 C 
BRANCH  29  30
ATOM     30  O   UNL     1       1.963   4.505  -3.923  1.00  0.00    -0.460 OA
BRANCH  30  31
ATOM     31  C   UNL     1       3.146   5.184  -3.745  1.00  0.00     0.338 C 
ATOM     32  O   UNL     1       4.041   5.237  -4.569  1.00  0.00    -0.246 OA
BRANCH  31  33
ATOM     33  C   UNL     1       3.176   5.847  -2.388  1.00  0.00     0.060 A 
ATOM     34  C   UNL     1       4.290   5.747  -1.553  1.00  0.00     0.016 A 
ATOM     35  C   UNL     1       2.020   6.394  -1.849  1.00  0.00     0.016 A 
ATOM     36  C   UNL     1       4.150   5.838  -0.151  1.00  0.00     0.010 A 
ATOM     37  C   UNL     1       1.851   6.404  -0.461  1.00  0.00     0.010 A 
ATOM     38  C   UNL     1       2.884   5.996   0.403  1.00  0.00    -0.014 A 
BRANCH  38  39
ATOM     39  C   UNL     1       2.491   5.485   1.743  1.00  0.00     0.031 A 
ATOM     40  C   UNL     1       1.676   6.297   2.698  1.00  0.00     0.074 A 
ATOM     41  C   UNL     1       2.558   4.146   1.998  1.00  0.00     0.049 A 
ATOM     42  N   UNL     1       1.389   5.912   3.901  1.00  0.00    -0.248 NA
ATOM     43  C   UNL     1       1.156   7.632   2.410  1.00  0.00     0.031 C 
ATOM     44  C   UNL     1       1.645   3.399   2.870  1.00  0.00     0.029 A 
ATOM     45  N   UNL     1       3.440   3.152   1.544  1.00  0.00    -0.354 N 
ATOM     46  C   UNL     1       0.387   6.727   4.372  1.00  0.00     0.074 A 
ATOM     47  C   UNL     1       0.392   7.862   3.485  1.00  0.00     0.031 C 
ATOM     48  C   UNL     1       2.101   2.157   3.051  1.00  0.00     0.029 A 
ATOM     49  C   UNL     1       3.413   2.083   2.455  1.00  0.00     0.049 A 
ATOM     50  H   UNL     1       3.986   3.197   0.725  1.00  0.00     0.167 HD
ATOM     51  C   UNL     1      -0.419   6.298   5.384  1.00  0.00     0.034 A 
ATOM     52  C   UNL     1       4.477   1.464   3.035  1.00  0.00     0.034 A 
ATOM     53  C   UNL     1       0.071   5.045   5.983  1.00  0.00     0.049 A 
ATOM     54  C   UNL     1       4.479   1.668   4.541  1.00  0.00     0.074 A 
ATOM     55  C   UNL     1      -0.391   3.742   6.013  1.00  0.00     0.029 A 
ATOM     56  N   UNL     1       1.358   5.009   6.517  1.00  0.00    -0.354 N 
ATOM     57  N   UNL     1       3.451   2.094   5.228  1.00  0.00    -0.248 NA
ATOM     58  C   UNL     1       5.653   1.482   5.392  1.00  0.00     0.031 C 
ATOM     59  C   UNL     1       0.683   2.909   6.448  1.00  0.00     0.029 A 
ATOM     60  C   UNL     1       1.780   3.705   6.740  1.00  0.00     0.049 A 
ATOM     61  H   UNL     1       1.900   5.808   6.712  1.00  0.00     0.167 HD
ATOM     62  C   UNL     1       3.877   2.543   6.450  1.00  0.00     0.074 A 
ATOM     63  C   UNL     1       5.217   1.990   6.560  1.00  0.00     0.031 C 
ATOM     64  C   UNL     1       3.150   3.435   7.200  1.00  0.00     0.034 A 
BRANCH  51  65
ATOM     65  C   UNL     1      -1.732   6.951   5.795  1.00  0.00     0.023 A 
ATOM     66  C   UNL     1      -2.291   6.575   7.037  1.00  0.00     0.012 A 
ATOM     67  C   UNL     1      -2.497   7.861   5.020  1.00  0.00     0.148 A 
ATOM     68  C   UNL     1      -3.513   7.090   7.497  1.00  0.00     0.002 A 
ATOM     69  C   UNL     1      -3.672   8.439   5.516  1.00  0.00     0.091 A 
ATOM     70  F   UNL     1      -2.157   8.105   3.750  1.00  0.00    -0.205 F 
ATOM     71  C   UNL     1      -4.191   8.044   6.750  1.00  0.00     0.022 A 
BRANCH  69  72
ATOM     72  S   UNL     1      -4.555   9.745   4.637  1.00  0.00     0.127 S 
ATOM     73  O   UNL     1      -5.771   9.059   4.200  1.00  0.00    -0.237 OA
ATOM     74  O   UNL     1      -4.766  10.745   5.684  1.00  0.00    -0.237 OA
ATOM     75  O   UNL     1      -3.666  10.181   3.566  1.00  0.00    -0.744 OA
ENDBRANCH  69  72
ENDBRANCH  51  65
BRANCH  52  76
ATOM     76  C   UNL     1       5.637   1.274   2.129  1.00  0.00     0.023 A 
ATOM     77  C   UNL     1       5.550   0.173   1.242  1.00  0.00     0.012 A 
ATOM     78  C   UNL     1       6.475   2.349   1.801  1.00  0.00     0.148 A 
ATOM     79  C   UNL     1       6.170   0.206  -0.008  1.00  0.00     0.002 A 
ATOM     80  C   UNL     1       7.032   2.404   0.526  1.00  0.00     0.091 A 
ATOM     81  F   UNL     1       6.562   3.368   2.665  1.00  0.00    -0.205 F 
ATOM     82  C   UNL     1       6.872   1.343  -0.382  1.00  0.00     0.022 A 
BRANCH  80  83
ATOM     83  S   UNL     1       7.671   3.933  -0.166  1.00  0.00     0.127 S 
ATOM     84  O   UNL     1       9.081   3.621  -0.367  1.00  0.00    -0.237 OA
ATOM     85  O   UNL     1       6.881   4.030  -1.391  1.00  0.00    -0.237 OA
ATOM     86  O   UNL     1       7.376   4.956   0.827  1.00  0.00    -0.744 OA
ENDBRANCH  80  83
ENDBRANCH  52  76
BRANCH  64  87
ATOM     87  C   UNL     1       3.705   4.182   8.410  1.00  0.00     0.023 A 
ATOM     88  C   UNL     1       5.087   4.386   8.602  1.00  0.00     0.012 A 
ATOM     89  C   UNL     1       2.843   4.827   9.334  1.00  0.00     0.148 A 
ATOM     90  C   UNL     1       5.595   5.103   9.693  1.00  0.00     0.002 A 
ATOM     91  C   UNL     1       3.350   5.643  10.347  1.00  0.00     0.091 A 
ATOM     92  F   UNL     1       1.518   4.641   9.251  1.00  0.00    -0.205 F 
ATOM     93  C   UNL     1       4.726   5.749  10.557  1.00  0.00     0.022 A 
BRANCH  91  94
ATOM     94  S   UNL     1       2.266   6.716  11.301  1.00  0.00     0.127 S 
ATOM     95  O   UNL     1       1.952   5.884  12.459  1.00  0.00    -0.237 OA
ATOM     96  O   UNL     1       3.130   7.863  11.592  1.00  0.00    -0.237 OA
ATOM     97  O   UNL     1       1.161   7.020  10.401  1.00  0.00    -0.744 OA
ENDBRANCH  91  94
ENDBRANCH  64  87
ENDBRANCH  38  39
ENDBRANCH  31  33
ENDBRANCH  30  31
ENDBRANCH  29  30
ENDBRANCH  28  29
ENDBRANCH   1  28
TORSDOF 20
