REMARK SMILES C[NH2+][C@]1(C(=O)OCCOCCOC(=O)c2ccc(-c3c4nc(c(-c5cccc(S(=O)(=O)[O-])c5F)c5ccc([nH]5)c(-c5cccc(S(=O)(=O)[O-])c5F)c5nc(c(-c6cccc(S(=O)(=O)[O-])c6F)c6ccc3[nH]6)C=C5)C=C4)cc2)CCC[C@@H]1CCn1cc(C)cn1
REMARK SMILES IDX 9 1 8 2 7 3 6 4 4 5 5 6 3 7 78 8 81 9 79 10 80 11 2 12 1 13
REMARK SMILES IDX 82 16 83 17 84 18 85 19 89 20 86 21 88 22 87 23 10 24 11 25
REMARK SMILES IDX 12 26 13 27 14 28 15 29 16 30 77 31 17 32 76 33 18 34 19 35
REMARK SMILES IDX 20 36 70 37 21 38 75 39 69 40 71 41 22 42 74 43 68 44 67 45
REMARK SMILES IDX 23 47 55 48 35 49 54 50 36 51 39 52 53 53 72 54 37 55 38 56
REMARK SMILES IDX 52 58 73 59 40 60 24 61 25 62 33 63 26 64 28 65 34 66 27 67
REMARK SMILES IDX 29 68 30 69 31 70 32 71 56 72 57 73 65 74 58 75 60 76 66 77
REMARK SMILES IDX 59 78 61 79 62 80 63 81 64 82 41 83 42 84 50 85 43 86 45 87
REMARK SMILES IDX 51 88 44 89 46 90 47 91 48 92 49 93
REMARK H PARENT 2 14 2 15 71 46 39 57
REMARK Flexibility Score: inf
ROOT
ATOM      1  O   UNL     1       2.982   1.510  -0.667  1.00  0.00    -0.374 OA
ENDROOT
BRANCH   1   2
ATOM      2  C   UNL     1       3.457   0.674  -1.719  1.00  0.00     0.202 C 
BRANCH   2   3
ATOM      3  C   UNL     1       2.656  -0.590  -2.059  1.00  0.00     0.261 C 
BRANCH   3   4
ATOM      4  O   UNL     1       1.244  -0.357  -2.132  1.00  0.00    -0.459 OA
BRANCH   4   5
ATOM      5  C   UNL     1       0.505  -0.903  -1.126  1.00  0.00     0.368 C 
ATOM      6  O   UNL     1       0.965  -1.646  -0.262  1.00  0.00    -0.245 OA
BRANCH   5   7
ATOM      7  C   UNL     1      -1.001  -0.512  -1.216  1.00  0.00     0.197 C 
ATOM      8  C   UNL     1      -1.340   0.696  -2.117  1.00  0.00     0.081 C 
ATOM      9  C   UNL     1      -1.707  -1.636  -2.021  1.00  0.00     0.064 C 
ATOM     10  C   UNL     1      -2.792   0.481  -2.554  1.00  0.00     0.008 C 
ATOM     11  C   UNL     1      -3.043  -1.025  -2.463  1.00  0.00     0.011 C 
BRANCH   7  12
ATOM     12  N   UNL     1      -1.665  -0.280   0.106  1.00  0.00    -0.334 N 
ATOM     13  C   UNL     1      -0.786   0.100   1.204  1.00  0.00     0.331 C 
ATOM     14  H   UNL     1      -2.352   0.465  -0.016  1.00  0.00     0.347 HD
ATOM     15  H   UNL     1      -2.067  -1.178   0.374  1.00  0.00     0.347 HD
ENDBRANCH   7  12
BRANCH   9  16
ATOM     16  C   UNL     1      -1.847  -2.979  -1.280  1.00  0.00     0.034 C 
BRANCH  16  17
ATOM     17  C   UNL     1      -1.921  -4.190  -2.210  1.00  0.00     0.144 C 
BRANCH  17  18
ATOM     18  N   UNL     1      -0.753  -4.334  -3.057  1.00  0.00    -0.272 N 
ATOM     19  C   UNL     1       0.500  -4.726  -2.684  1.00  0.00     0.112 A 
ATOM     20  N   UNL     1      -0.846  -4.012  -4.356  1.00  0.00    -0.181 NA
ATOM     21  C   UNL     1       1.269  -4.700  -3.830  1.00  0.00    -0.013 A 
ATOM     22  C   UNL     1       0.376  -4.261  -4.835  1.00  0.00     0.138 A 
ATOM     23  C   UNL     1       2.695  -5.057  -3.997  1.00  0.00     0.048 C 
ENDBRANCH  17  18
ENDBRANCH  16  17
ENDBRANCH   9  16
ENDBRANCH   5   7
ENDBRANCH   4   5
ENDBRANCH   3   4
ENDBRANCH   2   3
ENDBRANCH   1   2
BRANCH   1  24
ATOM     24  C   UNL     1       1.808   2.287  -0.908  1.00  0.00     0.202 C 
BRANCH  24  25
ATOM     25  C   UNL     1       1.857   3.380  -1.981  1.00  0.00     0.261 C 
BRANCH  25  26
ATOM     26  O   UNL     1       2.044   2.852  -3.305  1.00  0.00    -0.460 OA
BRANCH  26  27
ATOM     27  C   UNL     1       3.153   3.304  -3.939  1.00  0.00     0.338 C 
ATOM     28  O   UNL     1       3.948   4.140  -3.527  1.00  0.00    -0.246 OA
BRANCH  27  29
ATOM     29  C   UNL     1       3.412   2.513  -5.152  1.00  0.00     0.060 A 
ATOM     30  C   UNL     1       4.649   1.862  -5.246  1.00  0.00     0.016 A 
ATOM     31  C   UNL     1       2.515   2.498  -6.222  1.00  0.00     0.016 A 
ATOM     32  C   UNL     1       5.021   1.240  -6.434  1.00  0.00     0.010 A 
ATOM     33  C   UNL     1       2.896   1.881  -7.419  1.00  0.00     0.010 A 
ATOM     34  C   UNL     1       4.165   1.288  -7.542  1.00  0.00    -0.014 A 
BRANCH  34  35
ATOM     35  C   UNL     1       4.671   0.854  -8.865  1.00  0.00     0.031 A 
ATOM     36  C   UNL     1       5.189   1.893  -9.823  1.00  0.00     0.074 A 
ATOM     37  C   UNL     1       4.685  -0.448  -9.201  1.00  0.00     0.049 A 
ATOM     38  N   UNL     1       5.683   1.738 -11.023  1.00  0.00    -0.248 NA
ATOM     39  C   UNL     1       5.144   3.292  -9.367  1.00  0.00     0.031 C 
ATOM     40  C   UNL     1       4.212  -1.542  -8.355  1.00  0.00     0.029 A 
ATOM     41  N   UNL     1       5.097  -1.065 -10.354  1.00  0.00    -0.354 N 
ATOM     42  C   UNL     1       5.987   3.017 -11.475  1.00  0.00     0.074 A 
ATOM     43  C   UNL     1       5.611   3.938 -10.425  1.00  0.00     0.031 C 
ATOM     44  C   UNL     1       4.335  -2.697  -9.030  1.00  0.00     0.029 A 
ATOM     45  C   UNL     1       4.878  -2.422 -10.359  1.00  0.00     0.049 A 
ATOM     46  H   UNL     1       5.510  -0.582 -11.107  1.00  0.00     0.167 HD
ATOM     47  C   UNL     1       6.547   3.389 -12.650  1.00  0.00     0.034 A 
ATOM     48  C   UNL     1       5.080  -3.332 -11.332  1.00  0.00     0.034 A 
ATOM     49  C   UNL     1       6.939   2.470 -13.683  1.00  0.00     0.049 A 
ATOM     50  C   UNL     1       5.685  -2.889 -12.639  1.00  0.00     0.074 A 
ATOM     51  C   UNL     1       7.556   2.743 -14.890  1.00  0.00     0.029 A 
ATOM     52  N   UNL     1       6.741   1.098 -13.636  1.00  0.00    -0.354 N 
ATOM     53  N   UNL     1       6.087  -1.694 -13.000  1.00  0.00    -0.248 NA
ATOM     54  C   UNL     1       5.896  -3.926 -13.660  1.00  0.00     0.031 C 
ATOM     55  C   UNL     1       7.715   1.538 -15.582  1.00  0.00     0.029 A 
ATOM     56  C   UNL     1       7.213   0.512 -14.797  1.00  0.00     0.049 A 
ATOM     57  H   UNL     1       6.325   0.613 -12.887  1.00  0.00     0.167 HD
ATOM     58  C   UNL     1       6.628  -1.840 -14.273  1.00  0.00     0.074 A 
ATOM     59  C   UNL     1       6.521  -3.244 -14.612  1.00  0.00     0.031 C 
ATOM     60  C   UNL     1       7.151  -0.896 -15.095  1.00  0.00     0.034 A 
BRANCH  47  61
ATOM     61  C   UNL     1       6.801   4.857 -12.867  1.00  0.00     0.023 A 
ATOM     62  C   UNL     1       7.865   5.484 -12.188  1.00  0.00     0.012 A 
ATOM     63  C   UNL     1       6.026   5.602 -13.776  1.00  0.00     0.148 A 
ATOM     64  C   UNL     1       8.137   6.837 -12.389  1.00  0.00     0.002 A 
ATOM     65  C   UNL     1       6.327   6.941 -14.001  1.00  0.00     0.091 A 
ATOM     66  F   UNL     1       5.002   4.994 -14.392  1.00  0.00    -0.205 F 
ATOM     67  C   UNL     1       7.375   7.561 -13.302  1.00  0.00     0.022 A 
BRANCH  65  68
ATOM     68  S   UNL     1       5.447   7.939 -15.207  1.00  0.00     0.127 S 
ATOM     69  O   UNL     1       4.639   8.801 -14.345  1.00  0.00    -0.237 OA
ATOM     70  O   UNL     1       6.540   8.622 -15.900  1.00  0.00    -0.237 OA
ATOM     71  O   UNL     1       4.699   7.001 -16.033  1.00  0.00    -0.744 OA
ENDBRANCH  65  68
ENDBRANCH  47  61
BRANCH  48  72
ATOM     72  C   UNL     1       4.744  -4.763 -11.091  1.00  0.00     0.023 A 
ATOM     73  C   UNL     1       5.779  -5.711 -10.978  1.00  0.00     0.012 A 
ATOM     74  C   UNL     1       3.408  -5.184 -10.946  1.00  0.00     0.148 A 
ATOM     75  C   UNL     1       5.488  -7.057 -10.751  1.00  0.00     0.002 A 
ATOM     76  C   UNL     1       3.128  -6.516 -10.665  1.00  0.00     0.091 A 
ATOM     77  F   UNL     1       2.436  -4.271 -11.078  1.00  0.00    -0.205 F 
ATOM     78  C   UNL     1       4.166  -7.458 -10.583  1.00  0.00     0.022 A 
BRANCH  76  79
ATOM     79  S   UNL     1       1.467  -7.090 -10.298  1.00  0.00     0.127 S 
ATOM     80  O   UNL     1       1.132  -7.833 -11.509  1.00  0.00    -0.237 OA
ATOM     81  O   UNL     1       1.689  -7.914  -9.109  1.00  0.00    -0.237 OA
ATOM     82  O   UNL     1       0.686  -5.885 -10.052  1.00  0.00    -0.744 OA
ENDBRANCH  76  79
ENDBRANCH  48  72
BRANCH  60  83
ATOM     83  C   UNL     1       7.679  -1.346 -16.432  1.00  0.00     0.023 A 
ATOM     84  C   UNL     1       6.777  -1.695 -17.456  1.00  0.00     0.012 A 
ATOM     85  C   UNL     1       9.062  -1.343 -16.699  1.00  0.00     0.148 A 
ATOM     86  C   UNL     1       7.244  -2.061 -18.717  1.00  0.00     0.002 A 
ATOM     87  C   UNL     1       9.518  -1.664 -17.972  1.00  0.00     0.091 A 
ATOM     88  F   UNL     1       9.906  -1.026 -15.706  1.00  0.00    -0.205 F 
ATOM     89  C   UNL     1       8.612  -2.033 -18.979  1.00  0.00     0.022 A 
BRANCH  87  90
ATOM     90  S   UNL     1      11.255  -1.564 -18.422  1.00  0.00     0.127 S 
ATOM     91  O   UNL     1      11.638  -2.974 -18.449  1.00  0.00    -0.237 OA
ATOM     92  O   UNL     1      11.202  -0.921 -19.736  1.00  0.00    -0.237 OA
ATOM     93  O   UNL     1      11.889  -0.760 -17.386  1.00  0.00    -0.744 OA
ENDBRANCH  87  90
ENDBRANCH  60  83
ENDBRANCH  34  35
ENDBRANCH  27  29
ENDBRANCH  26  27
ENDBRANCH  25  26
ENDBRANCH  24  25
ENDBRANCH   1  24
TORSDOF 21
