REMARK SMILES CCc1n[nH]c(C(=O)N[C@@]2(C(=O)OCCOCCOC(=O)c3ccc(-c4c5nc(c(-c6cccc(S(=O)(=O)[O-])c6F)c6ccc([nH]6)c(-c6cccc(S(=O)(=O)[O-])c6F)c6nc(c(-c7cccc(S(=O)(=O)[O-])c7F)c7ccc4[nH]7)C=C6)C=C5)cc3)CCCC[C@H]2C)n1
REMARK SMILES IDX 16 1 15 2 14 3 13 4 11 5 12 6 10 7 85 8 89 9 86 10 88 11
REMARK SMILES IDX 90 12 87 13 9 14 7 15 8 16 6 18 3 19 4 20 91 21 5 22 2 24
REMARK SMILES IDX 1 25 17 26 18 27 19 28 20 29 21 30 22 31 23 32 84 33 24 34
REMARK SMILES IDX 83 35 25 36 26 37 27 38 77 39 28 40 82 41 76 42 78 43 29 44
REMARK SMILES IDX 81 45 75 46 74 47 30 49 62 50 42 51 61 52 43 53 46 54 60 55
REMARK SMILES IDX 79 56 44 57 45 58 59 60 80 61 47 62 31 63 32 64 40 65 33 66
REMARK SMILES IDX 35 67 41 68 34 69 36 70 37 71 38 72 39 73 63 74 64 75 72 76
REMARK SMILES IDX 65 77 67 78 73 79 66 80 68 81 69 82 70 83 71 84 48 85 49 86
REMARK SMILES IDX 57 87 50 88 52 89 58 90 51 91 53 92 54 93 55 94 56 95
REMARK H PARENT 9 17 5 23 78 48 46 59
REMARK Flexibility Score: inf
ROOT
ATOM      1  O   UNL     1      -1.338   0.224  -4.858  1.00  0.00    -0.374 OA
ENDROOT
BRANCH   1   2
ATOM      2  C   UNL     1      -0.769   1.119  -3.917  1.00  0.00     0.202 C 
BRANCH   2   3
ATOM      3  C   UNL     1       0.682   1.662  -3.864  1.00  0.00     0.261 C 
BRANCH   3   4
ATOM      4  O   UNL     1       1.684   1.330  -4.822  1.00  0.00    -0.461 OA
BRANCH   4   5
ATOM      5  C   UNL     1       1.970   0.011  -4.926  1.00  0.00     0.332 C 
ATOM      6  O   UNL     1       1.173  -0.867  -4.613  1.00  0.00    -0.249 OA
BRANCH   5   7
ATOM      7  C   UNL     1       3.341  -0.266  -5.604  1.00  0.00     0.141 C 
ATOM      8  C   UNL     1       4.518   0.348  -4.814  1.00  0.00     0.041 C 
ATOM      9  C   UNL     1       3.261   0.385  -7.050  1.00  0.00     0.023 C 
ATOM     10  C   UNL     1       5.827   0.339  -5.609  1.00  0.00     0.003 C 
ATOM     11  C   UNL     1       4.610   0.572  -7.770  1.00  0.00     0.006 C 
ATOM     12  C   UNL     1       2.319  -0.340  -8.025  1.00  0.00     0.011 C 
ATOM     13  C   UNL     1       5.691   1.157  -6.882  1.00  0.00     0.000 C 
BRANCH   7  14
ATOM     14  N   UNL     1       3.523  -1.741  -5.690  1.00  0.00    -0.333 N 
ATOM     15  C   UNL     1       3.349  -2.742  -4.742  1.00  0.00     0.289 C 
ATOM     16  O   UNL     1       3.576  -3.891  -5.137  1.00  0.00    -0.266 OA
ATOM     17  H   UNL     1       3.819  -2.064  -6.572  1.00  0.00     0.165 HD
BRANCH  15  18
ATOM     18  C   UNL     1       2.792  -2.509  -3.415  1.00  0.00     0.214 A 
ATOM     19  C   UNL     1       1.892  -1.664  -1.682  1.00  0.00     0.151 A 
ATOM     20  N   UNL     1       1.312  -2.869  -1.754  1.00  0.00    -0.158 NA
ATOM     21  N   UNL     1       2.875  -1.442  -2.632  1.00  0.00    -0.207 NA
ATOM     22  N   UNL     1       1.882  -3.370  -2.863  1.00  0.00    -0.255 N 
ATOM     23  H   UNL     1       1.669  -4.256  -3.236  1.00  0.00     0.192 HD
BRANCH  19  24
ATOM     24  C   UNL     1       1.337  -0.574  -0.829  1.00  0.00     0.076 C 
ATOM     25  C   UNL     1       1.446  -0.802   0.666  1.00  0.00     0.012 C 
ENDBRANCH  19  24
ENDBRANCH  15  18
ENDBRANCH   7  14
ENDBRANCH   5   7
ENDBRANCH   4   5
ENDBRANCH   3   4
ENDBRANCH   2   3
ENDBRANCH   1   2
BRANCH   1  26
ATOM     26  C   UNL     1      -0.953   0.176  -6.214  1.00  0.00     0.202 C 
BRANCH  26  27
ATOM     27  C   UNL     1      -1.352   1.292  -7.163  1.00  0.00     0.261 C 
BRANCH  27  28
ATOM     28  O   UNL     1      -1.071   2.577  -6.624  1.00  0.00    -0.460 OA
BRANCH  28  29
ATOM     29  C   UNL     1      -2.139   3.130  -6.014  1.00  0.00     0.338 C 
ATOM     30  O   UNL     1      -3.271   2.669  -5.926  1.00  0.00    -0.246 OA
BRANCH  29  31
ATOM     31  C   UNL     1      -1.709   4.338  -5.310  1.00  0.00     0.060 A 
ATOM     32  C   UNL     1      -2.197   4.535  -4.013  1.00  0.00     0.016 A 
ATOM     33  C   UNL     1      -0.890   5.282  -5.935  1.00  0.00     0.016 A 
ATOM     34  C   UNL     1      -1.930   5.722  -3.358  1.00  0.00     0.010 A 
ATOM     35  C   UNL     1      -0.636   6.482  -5.283  1.00  0.00     0.010 A 
ATOM     36  C   UNL     1      -1.208   6.719  -4.022  1.00  0.00    -0.014 A 
BRANCH  36  37
ATOM     37  C   UNL     1      -1.261   8.088  -3.487  1.00  0.00     0.031 A 
ATOM     38  C   UNL     1      -2.251   9.041  -4.090  1.00  0.00     0.074 A 
ATOM     39  C   UNL     1      -0.471   8.437  -2.461  1.00  0.00     0.049 A 
ATOM     40  N   UNL     1      -2.486  10.287  -3.787  1.00  0.00    -0.248 NA
ATOM     41  C   UNL     1      -3.088   8.521  -5.188  1.00  0.00     0.031 C 
ATOM     42  C   UNL     1       0.503   7.561  -1.810  1.00  0.00     0.029 A 
ATOM     43  N   UNL     1      -0.357   9.627  -1.799  1.00  0.00    -0.354 N 
ATOM     44  C   UNL     1      -3.471  10.709  -4.671  1.00  0.00     0.074 A 
ATOM     45  C   UNL     1      -3.780   9.594  -5.536  1.00  0.00     0.031 C 
ATOM     46  C   UNL     1       1.138   8.257  -0.853  1.00  0.00     0.029 A 
ATOM     47  C   UNL     1       0.630   9.626  -0.846  1.00  0.00     0.049 A 
ATOM     48  H   UNL     1      -0.927  10.408  -1.987  1.00  0.00     0.167 HD
ATOM     49  C   UNL     1      -4.070  11.919  -4.742  1.00  0.00     0.034 A 
ATOM     50  C   UNL     1       1.080  10.633  -0.075  1.00  0.00     0.034 A 
ATOM     51  C   UNL     1      -3.753  13.007  -3.860  1.00  0.00     0.049 A 
ATOM     52  C   UNL     1       0.406  11.974  -0.187  1.00  0.00     0.074 A 
ATOM     53  C   UNL     1      -4.316  14.268  -3.811  1.00  0.00     0.029 A 
ATOM     54  N   UNL     1      -2.773  12.964  -2.879  1.00  0.00    -0.354 N 
ATOM     55  N   UNL     1      -0.588  12.337  -0.962  1.00  0.00    -0.248 NA
ATOM     56  C   UNL     1       0.888  13.033   0.709  1.00  0.00     0.031 C 
ATOM     57  C   UNL     1      -3.650  15.000  -2.823  1.00  0.00     0.029 A 
ATOM     58  C   UNL     1      -2.706  14.179  -2.224  1.00  0.00     0.049 A 
ATOM     59  H   UNL     1      -2.209  12.182  -2.679  1.00  0.00     0.167 HD
ATOM     60  C   UNL     1      -0.881  13.651  -0.618  1.00  0.00     0.074 A 
ATOM     61  C   UNL     1       0.034  14.012   0.447  1.00  0.00     0.031 C 
ATOM     62  C   UNL     1      -1.815  14.489  -1.135  1.00  0.00     0.034 A 
BRANCH  49  63
ATOM     63  C   UNL     1      -5.123  12.121  -5.799  1.00  0.00     0.023 A 
ATOM     64  C   UNL     1      -6.371  11.474  -5.686  1.00  0.00     0.012 A 
ATOM     65  C   UNL     1      -4.890  12.986  -6.885  1.00  0.00     0.148 A 
ATOM     66  C   UNL     1      -7.359  11.662  -6.653  1.00  0.00     0.002 A 
ATOM     67  C   UNL     1      -5.896  13.207  -7.818  1.00  0.00     0.091 A 
ATOM     68  F   UNL     1      -3.688  13.569  -6.991  1.00  0.00    -0.205 F 
ATOM     69  C   UNL     1      -7.126  12.537  -7.711  1.00  0.00     0.022 A 
BRANCH  67  70
ATOM     70  S   UNL     1      -5.723  14.373  -9.172  1.00  0.00     0.127 S 
ATOM     71  O   UNL     1      -5.716  13.482 -10.331  1.00  0.00    -0.237 OA
ATOM     72  O   UNL     1      -6.933  15.184  -9.033  1.00  0.00    -0.237 OA
ATOM     73  O   UNL     1      -4.478  15.089  -8.931  1.00  0.00    -0.744 OA
ENDBRANCH  67  70
ENDBRANCH  49  63
BRANCH  50  74
ATOM     74  C   UNL     1       2.196  10.398   0.880  1.00  0.00     0.023 A 
ATOM     75  C   UNL     1       1.950  10.433   2.266  1.00  0.00     0.012 A 
ATOM     76  C   UNL     1       3.495  10.112   0.419  1.00  0.00     0.148 A 
ATOM     77  C   UNL     1       2.987  10.225   3.176  1.00  0.00     0.002 A 
ATOM     78  C   UNL     1       4.511   9.849   1.329  1.00  0.00     0.091 A 
ATOM     79  F   UNL     1       3.709  10.092  -0.904  1.00  0.00    -0.205 F 
ATOM     80  C   UNL     1       4.264   9.923   2.708  1.00  0.00     0.022 A 
BRANCH  78  81
ATOM     81  S   UNL     1       6.149   9.323   0.815  1.00  0.00     0.127 S 
ATOM     82  O   UNL     1       6.959  10.490   1.159  1.00  0.00    -0.237 OA
ATOM     83  O   UNL     1       6.367   8.149   1.660  1.00  0.00    -0.237 OA
ATOM     84  O   UNL     1       6.040   9.027  -0.607  1.00  0.00    -0.744 OA
ENDBRANCH  78  81
ENDBRANCH  50  74
BRANCH  62  85
ATOM     85  C   UNL     1      -1.936  15.855  -0.516  1.00  0.00     0.023 A 
ATOM     86  C   UNL     1      -0.934  16.822  -0.728  1.00  0.00     0.012 A 
ATOM     87  C   UNL     1      -3.086  16.198   0.222  1.00  0.00     0.148 A 
ATOM     88  C   UNL     1      -1.055  18.096  -0.178  1.00  0.00     0.002 A 
ATOM     89  C   UNL     1      -3.227  17.487   0.717  1.00  0.00     0.091 A 
ATOM     90  F   UNL     1      -4.021  15.257   0.424  1.00  0.00    -0.205 F 
ATOM     91  C   UNL     1      -2.205  18.432   0.533  1.00  0.00     0.022 A 
BRANCH  89  92
ATOM     92  S   UNL     1      -4.719  18.037   1.551  1.00  0.00     0.127 S 
ATOM     93  O   UNL     1      -4.261  18.152   2.934  1.00  0.00    -0.237 OA
ATOM     94  O   UNL     1      -4.989  19.314   0.889  1.00  0.00    -0.237 OA
ATOM     95  O   UNL     1      -5.719  17.007   1.307  1.00  0.00    -0.744 OA
ENDBRANCH  89  92
ENDBRANCH  62  85
ENDBRANCH  36  37
ENDBRANCH  29  31
ENDBRANCH  28  29
ENDBRANCH  27  28
ENDBRANCH  26  27
ENDBRANCH   1  26
TORSDOF 20
