REMARK SMILES CC(C)[NH2+][C@]1(C(=O)OCCOCCOC(=O)c2ccc(-c3c4nc(c(-c5cccc(S(=O)(=O)[O-])c5F)c5ccc([nH]5)c(-c5cccc(S(=O)(=O)[O-])c5F)c5nc(c(-c6cccc(S(=O)(=O)[O-])c6F)c6ccc3[nH]6)C=C5)C=C4)cc2)CC[C@H]([N@H+](C)C2CCCC2)C1
REMARK SMILES IDX 12 1 11 2 10 3 9 4 8 5 6 6 7 7 5 8 80 9 90 10 81 11 82 12
REMARK SMILES IDX 4 13 2 16 1 17 3 18 83 19 84 20 85 22 86 23 89 24 87 25
REMARK SMILES IDX 88 26 13 27 14 28 15 29 16 30 17 31 18 32 79 33 19 34 78 35
REMARK SMILES IDX 20 36 21 37 22 38 72 39 23 40 77 41 71 42 73 43 24 44 76 45
REMARK SMILES IDX 70 46 69 47 25 49 57 50 37 51 56 52 38 53 41 54 55 55 74 56
REMARK SMILES IDX 39 57 40 58 54 60 75 61 42 62 26 63 27 64 35 65 28 66 30 67
REMARK SMILES IDX 36 68 29 69 31 70 32 71 33 72 34 73 58 74 59 75 67 76 60 77
REMARK SMILES IDX 62 78 68 79 61 80 63 81 64 82 65 83 66 84 43 85 44 86 52 87
REMARK SMILES IDX 45 88 47 89 53 90 46 91 48 92 49 93 50 94 51 95
REMARK H PARENT 4 14 4 15 83 21 73 48 41 59
REMARK Flexibility Score: inf
ROOT
ATOM      1  C   UNL     1       0.427   2.059   0.679  1.00  0.00     0.202 C 
ENDROOT
BRANCH   1   2
ATOM      2  O   UNL     1       0.140   0.962   1.545  1.00  0.00    -0.374 OA
BRANCH   2   3
ATOM      3  C   UNL     1       0.546  -0.329   1.093  1.00  0.00     0.202 C 
BRANCH   3   4
ATOM      4  C   UNL     1      -0.301  -1.035   0.026  1.00  0.00     0.261 C 
BRANCH   4   5
ATOM      5  O   UNL     1      -0.371  -0.325  -1.222  1.00  0.00    -0.459 OA
BRANCH   5   6
ATOM      6  C   UNL     1      -1.458   0.478  -1.320  1.00  0.00     0.368 C 
ATOM      7  O   UNL     1      -2.266   0.663  -0.407  1.00  0.00    -0.245 OA
BRANCH   6   8
ATOM      8  C   UNL     1      -1.649   1.147  -2.694  1.00  0.00     0.200 C 
ATOM      9  C   UNL     1      -1.530   2.684  -2.433  1.00  0.00     0.087 C 
ATOM     10  C   UNL     1      -0.596   0.990  -3.805  1.00  0.00     0.146 C 
ATOM     11  C   UNL     1      -0.948   3.349  -3.679  1.00  0.00     0.072 C 
ATOM     12  C   UNL     1      -0.744   2.244  -4.714  1.00  0.00     0.191 C 
BRANCH   8  13
ATOM     13  N   UNL     1      -3.040   0.835  -3.103  1.00  0.00    -0.330 N 
ATOM     14  H   UNL     1      -3.664   1.286  -2.433  1.00  0.00     0.347 HD
ATOM     15  H   UNL     1      -3.114   1.175  -4.062  1.00  0.00     0.347 HD
BRANCH  13  16
ATOM     16  C   UNL     1      -3.422  -0.586  -3.175  1.00  0.00     0.176 C 
ATOM     17  C   UNL     1      -4.955  -0.626  -3.165  1.00  0.00     0.075 C 
ATOM     18  C   UNL     1      -2.902  -1.315  -4.410  1.00  0.00     0.075 C 
ENDBRANCH  13  16
ENDBRANCH   8  13
BRANCH  12  19
ATOM     19  N   UNL     1      -1.751   2.040  -5.789  1.00  0.00    -0.332 N 
ATOM     20  C   UNL     1      -1.039   1.767  -7.049  1.00  0.00     0.333 C 
ATOM     21  H   UNL     1      -2.301   1.245  -5.464  1.00  0.00     0.348 HD
BRANCH  19  22
ATOM     22  C   UNL     1      -2.824   3.039  -5.972  1.00  0.00     0.184 C 
ATOM     23  C   UNL     1      -3.746   2.771  -7.184  1.00  0.00     0.065 C 
ATOM     24  C   UNL     1      -3.903   3.074  -4.879  1.00  0.00     0.065 C 
ATOM     25  C   UNL     1      -5.006   3.606  -6.944  1.00  0.00     0.006 C 
ATOM     26  C   UNL     1      -5.036   3.902  -5.454  1.00  0.00     0.006 C 
ENDBRANCH  19  22
ENDBRANCH  12  19
ENDBRANCH   6   8
ENDBRANCH   5   6
ENDBRANCH   4   5
ENDBRANCH   3   4
ENDBRANCH   2   3
ENDBRANCH   1   2
BRANCH   1  27
ATOM     27  C   UNL     1       1.831   2.661   0.738  1.00  0.00     0.261 C 
BRANCH  27  28
ATOM     28  O   UNL     1       2.797   1.754   0.178  1.00  0.00    -0.460 OA
BRANCH  28  29
ATOM     29  C   UNL     1       3.564   1.112   1.088  1.00  0.00     0.338 C 
ATOM     30  O   UNL     1       3.605   1.319   2.294  1.00  0.00    -0.246 OA
BRANCH  29  31
ATOM     31  C   UNL     1       4.199  -0.059   0.455  1.00  0.00     0.060 A 
ATOM     32  C   UNL     1       4.034  -1.300   1.087  1.00  0.00     0.016 A 
ATOM     33  C   UNL     1       4.949   0.049  -0.716  1.00  0.00     0.016 A 
ATOM     34  C   UNL     1       4.653  -2.434   0.574  1.00  0.00     0.010 A 
ATOM     35  C   UNL     1       5.588  -1.087  -1.218  1.00  0.00     0.010 A 
ATOM     36  C   UNL     1       5.467  -2.325  -0.558  1.00  0.00    -0.014 A 
BRANCH  36  37
ATOM     37  C   UNL     1       6.301  -3.472  -0.980  1.00  0.00     0.031 A 
ATOM     38  C   UNL     1       7.757  -3.481  -0.609  1.00  0.00     0.074 A 
ATOM     39  C   UNL     1       5.770  -4.472  -1.705  1.00  0.00     0.049 A 
ATOM     40  N   UNL     1       8.690  -4.329  -0.950  1.00  0.00    -0.248 NA
ATOM     41  C   UNL     1       8.226  -2.387   0.260  1.00  0.00     0.031 C 
ATOM     42  C   UNL     1       4.366  -4.575  -2.102  1.00  0.00     0.029 A 
ATOM     43  N   UNL     1       6.362  -5.574  -2.269  1.00  0.00    -0.354 N 
ATOM     44  C   UNL     1       9.863  -3.847  -0.383  1.00  0.00     0.074 A 
ATOM     45  C   UNL     1       9.525  -2.641   0.339  1.00  0.00     0.031 C 
ATOM     46  C   UNL     1       4.213  -5.658  -2.884  1.00  0.00     0.029 A 
ATOM     47  C   UNL     1       5.513  -6.299  -3.073  1.00  0.00     0.049 A 
ATOM     48  H   UNL     1       7.302  -5.821  -2.114  1.00  0.00     0.167 HD
ATOM     49  C   UNL     1      11.109  -4.367  -0.461  1.00  0.00     0.034 A 
ATOM     50  C   UNL     1       5.769  -7.331  -3.900  1.00  0.00     0.034 A 
ATOM     51  C   UNL     1      11.430  -5.583  -1.156  1.00  0.00     0.049 A 
ATOM     52  C   UNL     1       7.178  -7.859  -3.997  1.00  0.00     0.074 A 
ATOM     53  C   UNL     1      12.647  -6.238  -1.221  1.00  0.00     0.029 A 
ATOM     54  N   UNL     1      10.540  -6.310  -1.929  1.00  0.00    -0.354 N 
ATOM     55  N   UNL     1       8.249  -7.484  -3.340  1.00  0.00    -0.248 NA
ATOM     56  C   UNL     1       7.412  -8.967  -4.936  1.00  0.00     0.031 C 
ATOM     57  C   UNL     1      12.505  -7.334  -2.075  1.00  0.00     0.029 A 
ATOM     58  C   UNL     1      11.189  -7.386  -2.508  1.00  0.00     0.049 A 
ATOM     59  H   UNL     1       9.587  -6.094  -2.049  1.00  0.00     0.167 HD
ATOM     60  C   UNL     1       9.271  -8.327  -3.761  1.00  0.00     0.074 A 
ATOM     61  C   UNL     1       8.687  -9.251  -4.710  1.00  0.00     0.031 C 
ATOM     62  C   UNL     1      10.581  -8.328  -3.409  1.00  0.00     0.034 A 
BRANCH  49  63
ATOM     63  C   UNL     1      12.234  -3.633   0.216  1.00  0.00     0.023 A 
ATOM     64  C   UNL     1      12.365  -3.680   1.618  1.00  0.00     0.012 A 
ATOM     65  C   UNL     1      13.222  -2.987  -0.553  1.00  0.00     0.148 A 
ATOM     66  C   UNL     1      13.458  -3.083   2.245  1.00  0.00     0.002 A 
ATOM     67  C   UNL     1      14.329  -2.433   0.075  1.00  0.00     0.091 A 
ATOM     68  F   UNL     1      13.062  -2.937  -1.883  1.00  0.00    -0.205 F 
ATOM     69  C   UNL     1      14.446  -2.473   1.474  1.00  0.00     0.022 A 
BRANCH  67  70
ATOM     70  S   UNL     1      15.694  -1.699  -0.834  1.00  0.00     0.127 S 
ATOM     71  O   UNL     1      15.597  -0.297  -0.427  1.00  0.00    -0.237 OA
ATOM     72  O   UNL     1      16.845  -2.415  -0.286  1.00  0.00    -0.237 OA
ATOM     73  O   UNL     1      15.427  -1.955  -2.242  1.00  0.00    -0.744 OA
ENDBRANCH  67  70
ENDBRANCH  49  63
BRANCH  50  74
ATOM     74  C   UNL     1       4.678  -7.936  -4.717  1.00  0.00     0.023 A 
ATOM     75  C   UNL     1       4.282  -9.265  -4.475  1.00  0.00     0.012 A 
ATOM     76  C   UNL     1       4.049  -7.211  -5.748  1.00  0.00     0.148 A 
ATOM     77  C   UNL     1       3.312  -9.876  -5.271  1.00  0.00     0.002 A 
ATOM     78  C   UNL     1       3.042  -7.805  -6.499  1.00  0.00     0.091 A 
ATOM     79  F   UNL     1       4.452  -5.953  -5.980  1.00  0.00    -0.205 F 
ATOM     80  C   UNL     1       2.686  -9.144  -6.277  1.00  0.00     0.022 A 
BRANCH  78  81
ATOM     81  S   UNL     1       2.097  -6.896  -7.726  1.00  0.00     0.127 S 
ATOM     82  O   UNL     1       2.615  -7.450  -8.974  1.00  0.00    -0.237 OA
ATOM     83  O   UNL     1       0.724  -7.285  -7.401  1.00  0.00    -0.237 OA
ATOM     84  O   UNL     1       2.393  -5.490  -7.484  1.00  0.00    -0.744 OA
ENDBRANCH  78  81
ENDBRANCH  50  74
BRANCH  62  85
ATOM     85  C   UNL     1      11.474  -9.375  -4.022  1.00  0.00     0.023 A 
ATOM     86  C   UNL     1      11.848  -9.270  -5.376  1.00  0.00     0.012 A 
ATOM     87  C   UNL     1      12.018 -10.406  -3.230  1.00  0.00     0.148 A 
ATOM     88  C   UNL     1      12.728 -10.192  -5.940  1.00  0.00     0.002 A 
ATOM     89  C   UNL     1      12.936 -11.289  -3.786  1.00  0.00     0.091 A 
ATOM     90  F   UNL     1      11.640 -10.492  -1.947  1.00  0.00    -0.205 F 
ATOM     91  C   UNL     1      13.282 -11.192  -5.143  1.00  0.00     0.022 A 
BRANCH  89  92
ATOM     92  S   UNL     1      13.777 -12.546  -2.817  1.00  0.00     0.127 S 
ATOM     93  O   UNL     1      13.232 -13.777  -3.390  1.00  0.00    -0.237 OA
ATOM     94  O   UNL     1      15.181 -12.293  -3.139  1.00  0.00    -0.237 OA
ATOM     95  O   UNL     1      13.416 -12.297  -1.428  1.00  0.00    -0.744 OA
ENDBRANCH  89  92
ENDBRANCH  62  85
ENDBRANCH  36  37
ENDBRANCH  29  31
ENDBRANCH  28  29
ENDBRANCH  27  28
ENDBRANCH   1  27
TORSDOF 21
