REMARK SMILES CC[NH2+]C[C@@H](C)C(=O)N1CCO[C@@H](CC(=O)OCCOCCOC(=O)c2ccc(-c3c4nc(c(-c5cccc(S(=O)(=O)[O-])c5F)c5ccc([nH]5)c(-c5cccc(S(=O)(=O)[O-])c5F)c5nc(c(-c6cccc(S(=O)(=O)[O-])c6F)c6ccc3[nH]6)C=C5)C=C4)cc2)C1
REMARK SMILES IDX 18 1 17 2 15 3 16 4 14 5 13 6 9 7 10 8 89 9 11 10 12 11 7 12
REMARK SMILES IDX 8 13 5 14 6 15 4 16 3 17 2 20 1 21 19 22 20 23 21 24 22 25
REMARK SMILES IDX 23 26 24 27 25 28 26 29 27 30 88 31 28 32 87 33 29 34 30 35
REMARK SMILES IDX 31 36 81 37 32 38 86 39 80 40 82 41 33 42 85 43 79 44 78 45
REMARK SMILES IDX 34 47 66 48 46 49 65 50 47 51 50 52 64 53 83 54 48 55 49 56
REMARK SMILES IDX 63 58 84 59 51 60 35 61 36 62 44 63 37 64 39 65 45 66 38 67
REMARK SMILES IDX 40 68 41 69 42 70 43 71 67 72 68 73 76 74 69 75 71 76 77 77
REMARK SMILES IDX 70 78 72 79 73 80 74 81 75 82 52 83 53 84 61 85 54 86 56 87
REMARK SMILES IDX 62 88 55 89 57 90 58 91 59 92 60 93
REMARK H PARENT 3 18 3 19 82 46 50 57
REMARK Flexibility Score: inf
ROOT
ATOM      1  C   UNL     1       2.741   2.553 -10.973  1.00  0.00     0.261 C 
ENDROOT
BRANCH   1   2
ATOM      2  O   UNL     1       2.362   1.284 -10.403  1.00  0.00    -0.463 OA
BRANCH   2   3
ATOM      3  C   UNL     1       3.097   0.211 -10.785  1.00  0.00     0.308 C 
ATOM      4  O   UNL     1       4.059   0.247 -11.543  1.00  0.00    -0.252 OA
BRANCH   3   5
ATOM      5  C   UNL     1       2.560  -1.071 -10.212  1.00  0.00     0.156 C 
BRANCH   5   6
ATOM      6  C   UNL     1       2.435  -1.141  -8.690  1.00  0.00     0.148 C 
ATOM      7  N   UNL     1       0.938  -0.819  -6.734  1.00  0.00    -0.337 N 
ATOM      8  C   UNL     1       0.900  -2.260  -6.554  1.00  0.00     0.148 C 
ATOM      9  C   UNL     1       1.166  -0.434  -8.136  1.00  0.00     0.152 C 
ATOM     10  C   UNL     1       2.230  -2.844  -7.000  1.00  0.00     0.182 C 
ATOM     11  O   UNL     1       2.438  -2.564  -8.388  1.00  0.00    -0.374 OA
BRANCH   7  12
ATOM     12  C   UNL     1       0.421   0.098  -5.841  1.00  0.00     0.231 C 
ATOM     13  O   UNL     1      -0.296   1.018  -6.239  1.00  0.00    -0.274 OA
BRANCH  12  14
ATOM     14  C   UNL     1       0.942   0.127  -4.387  1.00  0.00     0.130 C 
ATOM     15  C   UNL     1       2.458   0.329  -4.401  1.00  0.00     0.024 C 
BRANCH  14  16
ATOM     16  C   UNL     1       0.500  -1.018  -3.468  1.00  0.00     0.273 C 
BRANCH  16  17
ATOM     17  N   UNL     1       0.941  -0.949  -2.067  1.00  0.00    -0.346 N 
ATOM     18  H   UNL     1       0.660  -1.811  -1.600  1.00  0.00     0.346 HD
ATOM     19  H   UNL     1       1.952  -0.821  -2.082  1.00  0.00     0.346 HD
BRANCH  17  20
ATOM     20  C   UNL     1       0.384   0.178  -1.323  1.00  0.00     0.257 C 
ATOM     21  C   UNL     1       0.869   0.100   0.118  1.00  0.00     0.071 C 
ENDBRANCH  17  20
ENDBRANCH  16  17
ENDBRANCH  14  16
ENDBRANCH  12  14
ENDBRANCH   7  12
ENDBRANCH   5   6
ENDBRANCH   3   5
ENDBRANCH   2   3
ENDBRANCH   1   2
BRANCH   1  22
ATOM     22  C   UNL     1       3.324   3.494  -9.918  1.00  0.00     0.202 C 
BRANCH  22  23
ATOM     23  O   UNL     1       4.636   3.162  -9.460  1.00  0.00    -0.374 OA
BRANCH  23  24
ATOM     24  C   UNL     1       4.724   2.139  -8.470  1.00  0.00     0.202 C 
BRANCH  24  25
ATOM     25  C   UNL     1       4.443   2.586  -7.032  1.00  0.00     0.261 C 
BRANCH  25  26
ATOM     26  O   UNL     1       3.070   2.979  -6.857  1.00  0.00    -0.460 OA
BRANCH  26  27
ATOM     27  C   UNL     1       2.872   4.299  -6.626  1.00  0.00     0.338 C 
ATOM     28  O   UNL     1       3.735   5.152  -6.460  1.00  0.00    -0.246 OA
BRANCH  27  29
ATOM     29  C   UNL     1       1.443   4.633  -6.763  1.00  0.00     0.060 A 
ATOM     30  C   UNL     1       1.090   5.673  -7.630  1.00  0.00     0.016 A 
ATOM     31  C   UNL     1       0.464   3.980  -6.016  1.00  0.00     0.016 A 
ATOM     32  C   UNL     1      -0.238   6.092  -7.716  1.00  0.00     0.010 A 
ATOM     33  C   UNL     1      -0.871   4.386  -6.119  1.00  0.00     0.010 A 
ATOM     34  C   UNL     1      -1.224   5.475  -6.933  1.00  0.00    -0.014 A 
BRANCH  34  35
ATOM     35  C   UNL     1      -2.588   6.058  -6.861  1.00  0.00     0.031 A 
ATOM     36  C   UNL     1      -2.997   6.819  -5.628  1.00  0.00     0.074 A 
ATOM     37  C   UNL     1      -3.459   5.913  -7.876  1.00  0.00     0.049 A 
ATOM     38  N   UNL     1      -4.127   7.421  -5.362  1.00  0.00    -0.248 NA
ATOM     39  C   UNL     1      -2.003   6.904  -4.546  1.00  0.00     0.031 C 
ATOM     40  C   UNL     1      -3.203   5.169  -9.108  1.00  0.00     0.029 A 
ATOM     41  N   UNL     1      -4.747   6.369  -8.018  1.00  0.00    -0.354 N 
ATOM     42  C   UNL     1      -3.994   7.927  -4.074  1.00  0.00     0.074 A 
ATOM     43  C   UNL     1      -2.681   7.540  -3.603  1.00  0.00     0.031 C 
ATOM     44  C   UNL     1      -4.307   5.202  -9.874  1.00  0.00     0.029 A 
ATOM     45  C   UNL     1      -5.352   5.955  -9.181  1.00  0.00     0.049 A 
ATOM     46  H   UNL     1      -5.194   6.938  -7.350  1.00  0.00     0.167 HD
ATOM     47  C   UNL     1      -4.870   8.667  -3.354  1.00  0.00     0.034 A 
ATOM     48  C   UNL     1      -6.609   6.151  -9.631  1.00  0.00     0.034 A 
ATOM     49  C   UNL     1      -6.161   9.081  -3.832  1.00  0.00     0.049 A 
ATOM     50  C   UNL     1      -7.563   6.991  -8.822  1.00  0.00     0.074 A 
ATOM     51  C   UNL     1      -7.087   9.900  -3.210  1.00  0.00     0.029 A 
ATOM     52  N   UNL     1      -6.716   8.697  -5.043  1.00  0.00    -0.354 N 
ATOM     53  N   UNL     1      -7.364   7.595  -7.675  1.00  0.00    -0.248 NA
ATOM     54  C   UNL     1      -8.902   7.211  -9.389  1.00  0.00     0.031 C 
ATOM     55  C   UNL     1      -8.213   9.992  -4.036  1.00  0.00     0.029 A 
ATOM     56  C   UNL     1      -7.978   9.249  -5.182  1.00  0.00     0.049 A 
ATOM     57  H   UNL     1      -6.277   8.117  -5.706  1.00  0.00     0.167 HD
ATOM     58  C   UNL     1      -8.538   8.287  -7.396  1.00  0.00     0.074 A 
ATOM     59  C   UNL     1      -9.437   8.045  -8.506  1.00  0.00     0.031 C 
ATOM     60  C   UNL     1      -8.848   9.042  -6.313  1.00  0.00     0.034 A 
BRANCH  47  61
ATOM     61  C   UNL     1      -4.437   9.107  -1.980  1.00  0.00     0.023 A 
ATOM     62  C   UNL     1      -3.443  10.099  -1.847  1.00  0.00     0.012 A 
ATOM     63  C   UNL     1      -5.024   8.561  -0.823  1.00  0.00     0.148 A 
ATOM     64  C   UNL     1      -3.010  10.509  -0.587  1.00  0.00     0.002 A 
ATOM     65  C   UNL     1      -4.619   9.006   0.431  1.00  0.00     0.091 A 
ATOM     66  F   UNL     1      -5.949   7.600  -0.965  1.00  0.00    -0.205 F 
ATOM     67  C   UNL     1      -3.604   9.969   0.551  1.00  0.00     0.022 A 
BRANCH  65  68
ATOM     68  S   UNL     1      -5.380   8.422   1.949  1.00  0.00     0.127 S 
ATOM     69  O   UNL     1      -4.374   7.482   2.442  1.00  0.00    -0.237 OA
ATOM     70  O   UNL     1      -5.499   9.652   2.732  1.00  0.00    -0.237 OA
ATOM     71  O   UNL     1      -6.653   7.835   1.554  1.00  0.00    -0.744 OA
ENDBRANCH  65  68
ENDBRANCH  47  61
BRANCH  48  72
ATOM     72  C   UNL     1      -7.013   5.578 -10.946  1.00  0.00     0.023 A 
ATOM     73  C   UNL     1      -7.206   6.435 -12.046  1.00  0.00     0.012 A 
ATOM     74  C   UNL     1      -7.158   4.188 -11.122  1.00  0.00     0.148 A 
ATOM     75  C   UNL     1      -7.553   5.919 -13.295  1.00  0.00     0.002 A 
ATOM     76  C   UNL     1      -7.452   3.677 -12.380  1.00  0.00     0.091 A 
ATOM     77  F   UNL     1      -6.984   3.393 -10.057  1.00  0.00    -0.205 F 
ATOM     78  C   UNL     1      -7.664   4.542 -13.465  1.00  0.00     0.022 A 
BRANCH  76  79
ATOM     79  S   UNL     1      -7.487   1.915 -12.726  1.00  0.00     0.127 S 
ATOM     80  O   UNL     1      -8.897   1.700 -13.043  1.00  0.00    -0.237 OA
ATOM     81  O   UNL     1      -6.577   1.816 -13.868  1.00  0.00    -0.237 OA
ATOM     82  O   UNL     1      -7.008   1.262 -11.515  1.00  0.00    -0.744 OA
ENDBRANCH  76  79
ENDBRANCH  48  72
BRANCH  60  83
ATOM     83  C   UNL     1     -10.209   9.689  -6.271  1.00  0.00     0.023 A 
ATOM     84  C   UNL     1     -11.350   8.900  -6.026  1.00  0.00     0.012 A 
ATOM     85  C   UNL     1     -10.349  11.087  -6.386  1.00  0.00     0.148 A 
ATOM     86  C   UNL     1     -12.611   9.487  -5.924  1.00  0.00     0.002 A 
ATOM     87  C   UNL     1     -11.602  11.670  -6.238  1.00  0.00     0.091 A 
ATOM     88  F   UNL     1      -9.255  11.821  -6.637  1.00  0.00    -0.205 F 
ATOM     89  C   UNL     1     -12.736  10.871  -6.018  1.00  0.00     0.022 A 
BRANCH  87  90
ATOM     90  S   UNL     1     -11.842  13.451  -6.248  1.00  0.00     0.127 S 
ATOM     91  O   UNL     1     -12.458  13.662  -7.556  1.00  0.00    -0.237 OA
ATOM     92  O   UNL     1     -12.741  13.652  -5.111  1.00  0.00    -0.237 OA
ATOM     93  O   UNL     1     -10.517  14.034  -6.078  1.00  0.00    -0.744 OA
ENDBRANCH  87  90
ENDBRANCH  60  83
ENDBRANCH  34  35
ENDBRANCH  27  29
ENDBRANCH  26  27
ENDBRANCH  25  26
ENDBRANCH  24  25
ENDBRANCH  23  24
ENDBRANCH  22  23
ENDBRANCH   1  22
TORSDOF 23
