REMARK SMILES O=C(CCC(=O)OCCOCCOC(=O)c1ccc(-c2c3nc(c(-c4cccc(S(=O)(=O)[O-])c4F)c4ccc([nH]4)c(-c4cccc(S(=O)(=O)[O-])c4F)c4nc(c(-c5cccc(S(=O)(=O)[O-])c5F)c5ccc2[nH]5)C=C4)C=C3)cc1)NCCCO
REMARK SMILES IDX 8 1 7 2 5 3 6 4 4 5 3 6 2 7 1 8 79 9 80 11 81 12 82 13 83 14
REMARK SMILES IDX 9 16 10 17 11 18 12 19 13 20 14 21 15 22 16 23 17 24 78 25
REMARK SMILES IDX 18 26 77 27 19 28 20 29 21 30 71 31 22 32 76 33 70 34 72 35
REMARK SMILES IDX 23 36 75 37 69 38 68 39 24 41 56 42 36 43 55 44 37 45 40 46
REMARK SMILES IDX 54 47 73 48 38 49 39 50 53 52 74 53 41 54 25 55 26 56 34 57
REMARK SMILES IDX 27 58 29 59 35 60 28 61 30 62 31 63 32 64 33 65 57 66 58 67
REMARK SMILES IDX 66 68 59 69 61 70 67 71 60 72 62 73 63 74 64 75 65 76 42 77
REMARK SMILES IDX 43 78 51 79 44 80 46 81 52 82 45 83 47 84 48 85 49 86 50 87
REMARK H PARENT 79 10 83 15 72 40 40 51
REMARK Flexibility Score: inf
ROOT
ATOM      1  C   UNL     1       5.916   2.330  -0.227  1.00  0.00     0.261 C 
ENDROOT
BRANCH   1   2
ATOM      2  O   UNL     1       4.757   1.643  -0.751  1.00  0.00    -0.463 OA
BRANCH   2   3
ATOM      3  C   UNL     1       4.844   1.186  -2.029  1.00  0.00     0.306 C 
ATOM      4  O   UNL     1       5.836   1.257  -2.742  1.00  0.00    -0.252 OA
BRANCH   3   5
ATOM      5  C   UNL     1       3.528   0.617  -2.507  1.00  0.00     0.132 C 
BRANCH   5   6
ATOM      6  C   UNL     1       2.975  -0.498  -1.629  1.00  0.00     0.111 C 
BRANCH   6   7
ATOM      7  C   UNL     1       1.793  -0.038  -0.805  1.00  0.00     0.220 C 
ATOM      8  O   UNL     1       0.674  -0.511  -0.971  1.00  0.00    -0.275 OA
ATOM      9  N   UNL     1       2.099   0.915   0.131  1.00  0.00    -0.356 N 
ATOM     10  H   UNL     1       3.044   1.159   0.260  1.00  0.00     0.163 HD
BRANCH   9  11
ATOM     11  C   UNL     1       1.097   1.579   0.941  1.00  0.00     0.118 C 
BRANCH  11  12
ATOM     12  C   UNL     1       1.558   1.808   2.374  1.00  0.00     0.049 C 
BRANCH  12  13
ATOM     13  C   UNL     1       2.924   2.466   2.498  1.00  0.00     0.158 C 
BRANCH  13  14
ATOM     14  O   UNL     1       3.127   3.519   1.572  1.00  0.00    -0.396 OA
ATOM     15  H   UNL     1       3.082   3.169   0.669  1.00  0.00     0.210 HD
ENDBRANCH  13  14
ENDBRANCH  12  13
ENDBRANCH  11  12
ENDBRANCH   9  11
ENDBRANCH   6   7
ENDBRANCH   5   6
ENDBRANCH   3   5
ENDBRANCH   2   3
ENDBRANCH   1   2
BRANCH   1  16
ATOM     16  C   UNL     1       6.499   1.608   0.994  1.00  0.00     0.202 C 
BRANCH  16  17
ATOM     17  O   UNL     1       7.205   0.406   0.669  1.00  0.00    -0.374 OA
BRANCH  17  18
ATOM     18  C   UNL     1       6.381  -0.749   0.518  1.00  0.00     0.202 C 
BRANCH  18  19
ATOM     19  C   UNL     1       6.216  -1.575   1.797  1.00  0.00     0.261 C 
BRANCH  19  20
ATOM     20  O   UNL     1       5.467  -0.851   2.790  1.00  0.00    -0.460 OA
BRANCH  20  21
ATOM     21  C   UNL     1       6.203  -0.354   3.820  1.00  0.00     0.338 C 
ATOM     22  O   UNL     1       7.390  -0.512   4.012  1.00  0.00    -0.246 OA
BRANCH  21  23
ATOM     23  C   UNL     1       5.362   0.551   4.639  1.00  0.00     0.060 A 
ATOM     24  C   UNL     1       5.956   1.717   5.137  1.00  0.00     0.016 A 
ATOM     25  C   UNL     1       4.020   0.277   4.921  1.00  0.00     0.016 A 
ATOM     26  C   UNL     1       5.218   2.599   5.931  1.00  0.00     0.010 A 
ATOM     27  C   UNL     1       3.277   1.175   5.700  1.00  0.00     0.010 A 
ATOM     28  C   UNL     1       3.874   2.333   6.232  1.00  0.00    -0.014 A 
BRANCH  28  29
ATOM     29  C   UNL     1       3.131   3.227   7.162  1.00  0.00     0.031 A 
ATOM     30  C   UNL     1       2.792   2.739   8.546  1.00  0.00     0.074 A 
ATOM     31  C   UNL     1       2.750   4.467   6.793  1.00  0.00     0.049 A 
ATOM     32  N   UNL     1       2.305   3.410   9.557  1.00  0.00    -0.248 NA
ATOM     33  C   UNL     1       3.028   1.314   8.829  1.00  0.00     0.031 C 
ATOM     34  C   UNL     1       2.955   5.068   5.476  1.00  0.00     0.029 A 
ATOM     35  N   UNL     1       2.091   5.445   7.499  1.00  0.00    -0.354 N 
ATOM     36  C   UNL     1       2.178   2.494  10.594  1.00  0.00     0.074 A 
ATOM     37  C   UNL     1       2.579   1.207  10.070  1.00  0.00     0.031 C 
ATOM     38  C   UNL     1       2.407   6.295   5.457  1.00  0.00     0.029 A 
ATOM     39  C   UNL     1       1.851   6.590   6.774  1.00  0.00     0.049 A 
ATOM     40  H   UNL     1       1.816   5.337   8.438  1.00  0.00     0.167 HD
ATOM     41  C   UNL     1       1.814   2.705  11.880  1.00  0.00     0.034 A 
ATOM     42  C   UNL     1       1.291   7.761   7.139  1.00  0.00     0.034 A 
ATOM     43  C   UNL     1       1.442   3.984  12.417  1.00  0.00     0.049 A 
ATOM     44  C   UNL     1       0.903   7.979   8.579  1.00  0.00     0.074 A 
ATOM     45  C   UNL     1       1.161   4.321  13.729  1.00  0.00     0.029 A 
ATOM     46  N   UNL     1       1.276   5.135  11.665  1.00  0.00    -0.354 N 
ATOM     47  N   UNL     1       1.033   7.170   9.601  1.00  0.00    -0.248 NA
ATOM     48  C   UNL     1       0.360   9.301   8.925  1.00  0.00     0.031 C 
ATOM     49  C   UNL     1       0.806   5.675  13.766  1.00  0.00     0.029 A 
ATOM     50  C   UNL     1       0.880   6.182  12.479  1.00  0.00     0.049 A 
ATOM     51  H   UNL     1       1.419   5.199  10.693  1.00  0.00     0.167 HD
ATOM     52  C   UNL     1       0.646   7.904  10.719  1.00  0.00     0.074 A 
ATOM     53  C   UNL     1       0.287   9.225  10.247  1.00  0.00     0.031 C 
ATOM     54  C   UNL     1       0.590   7.515  12.017  1.00  0.00     0.034 A 
BRANCH  41  55
ATOM     55  C   UNL     1       1.875   1.522  12.808  1.00  0.00     0.023 A 
ATOM     56  C   UNL     1       3.134   1.026  13.206  1.00  0.00     0.012 A 
ATOM     57  C   UNL     1       0.705   0.906  13.286  1.00  0.00     0.148 A 
ATOM     58  C   UNL     1       3.229  -0.094  14.030  1.00  0.00     0.002 A 
ATOM     59  C   UNL     1       0.807  -0.187  14.139  1.00  0.00     0.091 A 
ATOM     60  F   UNL     1      -0.482   1.375  12.874  1.00  0.00    -0.205 F 
ATOM     61  C   UNL     1       2.066  -0.696  14.501  1.00  0.00     0.022 A 
BRANCH  59  62
ATOM     62  S   UNL     1      -0.635  -0.990  14.847  1.00  0.00     0.127 S 
ATOM     63  O   UNL     1      -0.724  -2.203  14.035  1.00  0.00    -0.237 OA
ATOM     64  O   UNL     1      -0.217  -1.214  16.232  1.00  0.00    -0.237 OA
ATOM     65  O   UNL     1      -1.731  -0.044  14.692  1.00  0.00    -0.744 OA
ENDBRANCH  59  62
ENDBRANCH  41  55
BRANCH  42  66
ATOM     66  C   UNL     1       1.188   8.882   6.163  1.00  0.00     0.023 A 
ATOM     67  C   UNL     1       2.052   9.987   6.299  1.00  0.00     0.012 A 
ATOM     68  C   UNL     1       0.240   8.874   5.123  1.00  0.00     0.148 A 
ATOM     69  C   UNL     1       1.946  11.085   5.445  1.00  0.00     0.002 A 
ATOM     70  C   UNL     1       0.164   9.955   4.251  1.00  0.00     0.091 A 
ATOM     71  F   UNL     1      -0.572   7.814   5.014  1.00  0.00    -0.205 F 
ATOM     72  C   UNL     1       1.005  11.067   4.420  1.00  0.00     0.022 A 
BRANCH  70  73
ATOM     73  S   UNL     1      -0.951   9.990   2.843  1.00  0.00     0.127 S 
ATOM     74  O   UNL     1      -1.892  11.037   3.234  1.00  0.00    -0.237 OA
ATOM     75  O   UNL     1      -0.044  10.351   1.753  1.00  0.00    -0.237 OA
ATOM     76  O   UNL     1      -1.504   8.646   2.748  1.00  0.00    -0.744 OA
ENDBRANCH  70  73
ENDBRANCH  42  66
BRANCH  54  77
ATOM     77  C   UNL     1       0.166   8.537  13.040  1.00  0.00     0.023 A 
ATOM     78  C   UNL     1      -1.177   8.961  13.094  1.00  0.00     0.012 A 
ATOM     79  C   UNL     1       1.081   9.027  13.992  1.00  0.00     0.148 A 
ATOM     80  C   UNL     1      -1.593   9.881  14.057  1.00  0.00     0.002 A 
ATOM     81  C   UNL     1       0.648   9.905  14.980  1.00  0.00     0.091 A 
ATOM     82  F   UNL     1       2.362   8.636  13.913  1.00  0.00    -0.205 F 
ATOM     83  C   UNL     1      -0.685  10.343  15.007  1.00  0.00     0.022 A 
BRANCH  81  84
ATOM     84  S   UNL     1       1.738  10.456  16.299  1.00  0.00     0.127 S 
ATOM     85  O   UNL     1       2.170  11.762  15.806  1.00  0.00    -0.237 OA
ATOM     86  O   UNL     1       0.838  10.508  17.453  1.00  0.00    -0.237 OA
ATOM     87  O   UNL     1       2.775   9.438  16.398  1.00  0.00    -0.744 OA
ENDBRANCH  81  84
ENDBRANCH  54  77
ENDBRANCH  28  29
ENDBRANCH  21  23
ENDBRANCH  20  21
ENDBRANCH  19  20
ENDBRANCH  18  19
ENDBRANCH  17  18
ENDBRANCH  16  17
ENDBRANCH   1  16
TORSDOF 23
