REMARK SMILES Cc1cccc(Cl)c1Nc1ccccc1CC(=O)OCCOCCOC(=O)c1ccc(-c2c3nc(c(-c4cccc(S(=O)(=O)[O-])c4F)c4ccc([nH]4)c(-c4cccc(S(=O)(=O)[O-])c4F)c4nc(c(-c5cccc(S(=O)(=O)[O-])c5F)c5ccc2[nH]5)C=C4)C=C3)cc1
REMARK SMILES IDX 22 1 21 2 20 3 19 4 17 5 18 6 16 7 15 8 10 9 11 10 12 11
REMARK SMILES IDX 14 12 13 13 9 14 8 16 1 17 2 18 3 19 4 20 6 21 5 22 7 23
REMARK SMILES IDX 23 24 24 25 25 26 26 27 27 28 28 29 29 30 90 31 30 32 89 33
REMARK SMILES IDX 31 34 32 35 33 36 83 37 34 38 88 39 82 40 84 41 35 42 87 43
REMARK SMILES IDX 81 44 80 45 36 47 68 48 48 49 67 50 49 51 52 52 66 53 85 54
REMARK SMILES IDX 50 55 51 56 65 58 86 59 53 60 37 61 38 62 46 63 39 64 41 65
REMARK SMILES IDX 47 66 40 67 42 68 43 69 44 70 45 71 69 72 70 73 78 74 71 75
REMARK SMILES IDX 73 76 79 77 72 78 74 79 75 80 76 81 77 82 54 83 55 84 63 85
REMARK SMILES IDX 56 86 58 87 64 88 57 89 59 90 60 91 61 92 62 93
REMARK H PARENT 9 15 84 46 52 57
REMARK Flexibility Score: inf
ROOT
ATOM      1  O   UNL     1       3.360   3.118  -5.565  1.00  0.00    -0.374 OA
ENDROOT
BRANCH   1   2
ATOM      2  C   UNL     1       2.112   3.808  -5.493  1.00  0.00     0.202 C 
BRANCH   2   3
ATOM      3  C   UNL     1       0.927   3.063  -4.868  1.00  0.00     0.261 C 
BRANCH   3   4
ATOM      4  O   UNL     1       1.155   2.674  -3.500  1.00  0.00    -0.463 OA
BRANCH   4   5
ATOM      5  C   UNL     1       1.320   1.342  -3.297  1.00  0.00     0.310 C 
ATOM      6  O   UNL     1       1.262   0.494  -4.186  1.00  0.00    -0.252 OA
BRANCH   5   7
ATOM      7  C   UNL     1       1.553   0.936  -1.863  1.00  0.00     0.160 C 
BRANCH   7   8
ATOM      8  C   UNL     1       2.036   1.960  -0.853  1.00  0.00    -0.013 A 
ATOM      9  C   UNL     1       1.217   2.497   0.164  1.00  0.00     0.042 A 
ATOM     10  C   UNL     1       1.741   3.501   1.004  1.00  0.00     0.026 A 
ATOM     11  C   UNL     1       3.068   3.916   0.903  1.00  0.00     0.002 A 
ATOM     12  C   UNL     1       3.389   2.355  -0.898  1.00  0.00     0.006 A 
ATOM     13  C   UNL     1       3.901   3.323  -0.033  1.00  0.00     0.000 A 
BRANCH   9  14
ATOM     14  N   UNL     1      -0.054   1.992   0.509  1.00  0.00    -0.354 N 
ATOM     15  H   UNL     1      -0.719   2.682   0.736  1.00  0.00     0.167 HD
BRANCH  14  16
ATOM     16  C   UNL     1      -0.538   0.663   0.583  1.00  0.00     0.060 A 
ATOM     17  C   UNL     1      -2.838   1.548  -0.085  1.00  0.00     0.046 C 
ATOM     18  C   UNL     1      -1.878   0.419   0.190  1.00  0.00    -0.026 A 
ATOM     19  C   UNL     1      -2.322  -0.900  -0.008  1.00  0.00     0.005 A 
ATOM     20  C   UNL     1      -1.472  -1.982   0.204  1.00  0.00     0.002 A 
ATOM     21  C   UNL     1       0.279  -0.457   0.877  1.00  0.00     0.064 A 
ATOM     22  C   UNL     1      -0.181  -1.762   0.668  1.00  0.00     0.023 A 
ATOM     23  Cl  UNL     1       1.866  -0.322   1.565  1.00  0.00    -0.082 Cl
ENDBRANCH  14  16
ENDBRANCH   9  14
ENDBRANCH   7   8
ENDBRANCH   5   7
ENDBRANCH   4   5
ENDBRANCH   3   4
ENDBRANCH   2   3
ENDBRANCH   1   2
BRANCH   1  24
ATOM     24  C   UNL     1       4.093   2.986  -4.349  1.00  0.00     0.202 C 
BRANCH  24  25
ATOM     25  C   UNL     1       4.811   4.235  -3.825  1.00  0.00     0.261 C 
BRANCH  25  26
ATOM     26  O   UNL     1       3.890   5.271  -3.445  1.00  0.00    -0.460 OA
BRANCH  26  27
ATOM     27  C   UNL     1       3.982   6.403  -4.180  1.00  0.00     0.338 C 
ATOM     28  O   UNL     1       4.829   6.662  -5.028  1.00  0.00    -0.246 OA
BRANCH  27  29
ATOM     29  C   UNL     1       2.795   7.254  -3.978  1.00  0.00     0.060 A 
ATOM     30  C   UNL     1       2.115   7.678  -5.128  1.00  0.00     0.016 A 
ATOM     31  C   UNL     1       2.402   7.702  -2.715  1.00  0.00     0.016 A 
ATOM     32  C   UNL     1       1.089   8.611  -5.027  1.00  0.00     0.010 A 
ATOM     33  C   UNL     1       1.373   8.647  -2.617  1.00  0.00     0.010 A 
ATOM     34  C   UNL     1       0.746   9.140  -3.776  1.00  0.00    -0.014 A 
BRANCH  34  35
ATOM     35  C   UNL     1      -0.151  10.319  -3.718  1.00  0.00     0.031 A 
ATOM     36  C   UNL     1       0.455  11.689  -3.565  1.00  0.00     0.074 A 
ATOM     37  C   UNL     1      -1.482  10.178  -3.842  1.00  0.00     0.049 A 
ATOM     38  N   UNL     1      -0.134  12.855  -3.527  1.00  0.00    -0.248 NA
ATOM     39  C   UNL     1       1.921  11.753  -3.439  1.00  0.00     0.031 C 
ATOM     40  C   UNL     1      -2.184   8.905  -4.002  1.00  0.00     0.029 A 
ATOM     41  N   UNL     1      -2.483  11.117  -3.838  1.00  0.00    -0.354 N 
ATOM     42  C   UNL     1       0.881  13.788  -3.350  1.00  0.00     0.074 A 
ATOM     43  C   UNL     1       2.124  13.052  -3.272  1.00  0.00     0.031 C 
ATOM     44  C   UNL     1      -3.506   9.141  -4.058  1.00  0.00     0.029 A 
ATOM     45  C   UNL     1      -3.744  10.577  -3.922  1.00  0.00     0.049 A 
ATOM     46  H   UNL     1      -2.313  12.085  -3.781  1.00  0.00     0.167 HD
ATOM     47  C   UNL     1       0.791  15.137  -3.279  1.00  0.00     0.034 A 
ATOM     48  C   UNL     1      -4.952  11.174  -3.880  1.00  0.00     0.034 A 
ATOM     49  C   UNL     1      -0.443  15.868  -3.380  1.00  0.00     0.049 A 
ATOM     50  C   UNL     1      -5.027  12.676  -3.785  1.00  0.00     0.074 A 
ATOM     51  C   UNL     1      -0.635  17.238  -3.367  1.00  0.00     0.029 A 
ATOM     52  N   UNL     1      -1.697  15.290  -3.503  1.00  0.00    -0.354 N 
ATOM     53  N   UNL     1      -4.050  13.551  -3.745  1.00  0.00    -0.248 NA
ATOM     54  C   UNL     1      -6.369  13.277  -3.768  1.00  0.00     0.031 C 
ATOM     55  C   UNL     1      -2.008  17.488  -3.458  1.00  0.00     0.029 A 
ATOM     56  C   UNL     1      -2.669  16.273  -3.554  1.00  0.00     0.049 A 
ATOM     57  H   UNL     1      -1.870  14.322  -3.547  1.00  0.00     0.167 HD
ATOM     58  C   UNL     1      -4.657  14.802  -3.733  1.00  0.00     0.074 A 
ATOM     59  C   UNL     1      -6.086  14.573  -3.790  1.00  0.00     0.031 C 
ATOM     60  C   UNL     1      -4.085  16.030  -3.667  1.00  0.00     0.034 A 
BRANCH  47  61
ATOM     61  C   UNL     1       2.069  15.915  -3.112  1.00  0.00     0.023 A 
ATOM     62  C   UNL     1       2.954  16.043  -4.201  1.00  0.00     0.012 A 
ATOM     63  C   UNL     1       2.368  16.564  -1.898  1.00  0.00     0.148 A 
ATOM     64  C   UNL     1       4.132  16.779  -4.077  1.00  0.00     0.002 A 
ATOM     65  C   UNL     1       3.524  17.330  -1.794  1.00  0.00     0.091 A 
ATOM     66  F   UNL     1       1.526  16.411  -0.866  1.00  0.00    -0.205 F 
ATOM     67  C   UNL     1       4.411  17.431  -2.878  1.00  0.00     0.022 A 
BRANCH  65  68
ATOM     68  S   UNL     1       3.934  18.266  -0.317  1.00  0.00     0.127 S 
ATOM     69  O   UNL     1       5.050  17.491   0.224  1.00  0.00    -0.237 OA
ATOM     70  O   UNL     1       4.308  19.568  -0.869  1.00  0.00    -0.237 OA
ATOM     71  O   UNL     1       2.727  18.277   0.498  1.00  0.00    -0.744 OA
ENDBRANCH  65  68
ENDBRANCH  47  61
BRANCH  48  72
ATOM     72  C   UNL     1      -6.190  10.349  -3.971  1.00  0.00     0.023 A 
ATOM     73  C   UNL     1      -6.996  10.425  -5.123  1.00  0.00     0.012 A 
ATOM     74  C   UNL     1      -6.558   9.471  -2.933  1.00  0.00     0.148 A 
ATOM     75  C   UNL     1      -8.160   9.662  -5.228  1.00  0.00     0.002 A 
ATOM     76  C   UNL     1      -7.688   8.673  -3.068  1.00  0.00     0.091 A 
ATOM     77  F   UNL     1      -5.790   9.428  -1.835  1.00  0.00    -0.205 F 
ATOM     78  C   UNL     1      -8.500   8.779  -4.207  1.00  0.00     0.022 A 
BRANCH  76  79
ATOM     79  S   UNL     1      -8.121   7.413  -1.862  1.00  0.00     0.127 S 
ATOM     80  O   UNL     1      -9.287   8.008  -1.213  1.00  0.00    -0.237 OA
ATOM     81  O   UNL     1      -8.411   6.261  -2.717  1.00  0.00    -0.237 OA
ATOM     82  O   UNL     1      -6.941   7.251  -1.023  1.00  0.00    -0.744 OA
ENDBRANCH  76  79
ENDBRANCH  48  72
BRANCH  60  83
ATOM     83  C   UNL     1      -4.995  17.231  -3.684  1.00  0.00     0.023 A 
ATOM     84  C   UNL     1      -5.759  17.546  -2.543  1.00  0.00     0.012 A 
ATOM     85  C   UNL     1      -5.029  18.092  -4.799  1.00  0.00     0.148 A 
ATOM     86  C   UNL     1      -6.566  18.683  -2.523  1.00  0.00     0.002 A 
ATOM     87  C   UNL     1      -5.798  19.249  -4.753  1.00  0.00     0.091 A 
ATOM     88  F   UNL     1      -4.308  17.766  -5.882  1.00  0.00    -0.205 F 
ATOM     89  C   UNL     1      -6.576  19.540  -3.621  1.00  0.00     0.022 A 
BRANCH  87  90
ATOM     90  S   UNL     1      -5.797  20.457  -6.083  1.00  0.00     0.127 S 
ATOM     91  O   UNL     1      -7.103  20.225  -6.698  1.00  0.00    -0.237 OA
ATOM     92  O   UNL     1      -5.682  21.721  -5.355  1.00  0.00    -0.237 OA
ATOM     93  O   UNL     1      -4.646  20.135  -6.915  1.00  0.00    -0.744 OA
ENDBRANCH  87  90
ENDBRANCH  60  83
ENDBRANCH  34  35
ENDBRANCH  27  29
ENDBRANCH  26  27
ENDBRANCH  25  26
ENDBRANCH  24  25
ENDBRANCH   1  24
TORSDOF 20
