REMARK SMILES CN(C(=O)N1CCC(C(=O)OCCOCCOC(=O)c2ccc(-c3c4nc(c(-c5cccc(S(=O)(=O)[O-])c5F)c5ccc([nH]5)c(-c5cccc(S(=O)(=O)[O-])c5F)c5nc(c(-c6cccc(S(=O)(=O)[O-])c6F)c6ccc3[nH]6)C=C5)C=C4)cc2)CC1)[C@H]1CCSC1
REMARK SMILES IDX 15 1 14 2 13 3 12 4 11 5 9 6 10 7 8 8 3 9 4 10 5 11 6 12
REMARK SMILES IDX 84 13 7 14 83 15 2 16 1 17 85 18 86 19 89 20 87 21 88 22
REMARK SMILES IDX 16 23 17 24 18 25 19 26 20 27 21 28 82 29 22 30 81 31 23 32
REMARK SMILES IDX 24 33 25 34 75 35 26 36 80 37 74 38 76 39 27 40 79 41 73 42
REMARK SMILES IDX 72 43 28 45 60 46 40 47 59 48 41 49 44 50 58 51 77 52 42 53
REMARK SMILES IDX 43 54 57 56 78 57 45 58 29 59 30 60 38 61 31 62 33 63 39 64
REMARK SMILES IDX 32 65 34 66 35 67 36 68 37 69 61 70 62 71 70 72 63 73 65 74
REMARK SMILES IDX 71 75 64 76 66 77 67 78 68 79 69 80 46 81 47 82 55 83 48 84
REMARK SMILES IDX 50 85 56 86 49 87 51 88 52 89 53 90 54 91
REMARK H PARENT 76 44 44 55
REMARK Flexibility Score: inf
ROOT
ATOM      1  C   UNL     1      -0.989   1.301 -11.943  1.00  0.00     0.202 C 
ENDROOT
BRANCH   1   2
ATOM      2  O   UNL     1      -1.432   2.542 -12.489  1.00  0.00    -0.374 OA
BRANCH   2   3
ATOM      3  C   UNL     1      -0.943   3.733 -11.871  1.00  0.00     0.202 C 
BRANCH   3   4
ATOM      4  C   UNL     1      -1.595   4.141 -10.547  1.00  0.00     0.261 C 
BRANCH   4   5
ATOM      5  O   UNL     1      -1.350   3.178  -9.508  1.00  0.00    -0.463 OA
BRANCH   5   6
ATOM      6  C   UNL     1      -2.440   2.513  -9.052  1.00  0.00     0.309 C 
ATOM      7  O   UNL     1      -3.594   2.706  -9.422  1.00  0.00    -0.252 OA
BRANCH   6   8
ATOM      8  C   UNL     1      -2.108   1.489  -7.991  1.00  0.00     0.103 C 
ATOM      9  C   UNL     1       0.222   0.356  -4.825  1.00  0.00     0.320 C 
ATOM     10  O   UNL     1       1.363   0.398  -5.282  1.00  0.00    -0.248 OA
ATOM     11  N   UNL     1      -0.853   0.297  -5.694  1.00  0.00    -0.325 N 
ATOM     12  C   UNL     1      -0.624  -0.258  -7.024  1.00  0.00     0.122 C 
ATOM     13  C   UNL     1      -2.089   1.061  -5.519  1.00  0.00     0.122 C 
ATOM     14  C   UNL     1      -0.741   0.809  -8.106  1.00  0.00     0.037 C 
ATOM     15  C   UNL     1      -2.257   2.118  -6.607  1.00  0.00     0.037 C 
BRANCH   9  16
ATOM     16  N   UNL     1      -0.036   0.282  -3.465  1.00  0.00    -0.324 N 
ATOM     17  C   UNL     1      -1.299  -0.185  -2.903  1.00  0.00     0.149 C 
BRANCH  16  18
ATOM     18  C   UNL     1       0.994   0.633  -2.466  1.00  0.00     0.097 C 
ATOM     19  C   UNL     1       2.444   0.220  -2.744  1.00  0.00     0.037 C 
ATOM     20  C   UNL     1       1.062   2.126  -2.145  1.00  0.00     0.094 C 
ATOM     21  C   UNL     1       3.245   0.674  -1.534  1.00  0.00     0.072 C 
ATOM     22  S   UNL     1       2.498   2.251  -1.029  1.00  0.00    -0.160 SA
ENDBRANCH  16  18
ENDBRANCH   9  16
ENDBRANCH   6   8
ENDBRANCH   5   6
ENDBRANCH   4   5
ENDBRANCH   3   4
ENDBRANCH   2   3
ENDBRANCH   1   2
BRANCH   1  23
ATOM     23  C   UNL     1       0.446   0.868 -12.273  1.00  0.00     0.261 C 
BRANCH  23  24
ATOM     24  O   UNL     1       1.435   1.735 -11.690  1.00  0.00    -0.460 OA
BRANCH  24  25
ATOM     25  C   UNL     1       2.160   2.456 -12.580  1.00  0.00     0.338 C 
ATOM     26  O   UNL     1       2.106   2.388 -13.801  1.00  0.00    -0.246 OA
BRANCH  25  27
ATOM     27  C   UNL     1       2.922   3.508 -11.882  1.00  0.00     0.060 A 
ATOM     28  C   UNL     1       2.710   4.836 -12.279  1.00  0.00     0.016 A 
ATOM     29  C   UNL     1       3.871   3.204 -10.905  1.00  0.00     0.016 A 
ATOM     30  C   UNL     1       3.468   5.864 -11.719  1.00  0.00     0.010 A 
ATOM     31  C   UNL     1       4.639   4.237 -10.355  1.00  0.00     0.010 A 
ATOM     32  C   UNL     1       4.460   5.567 -10.776  1.00  0.00    -0.014 A 
BRANCH  32  33
ATOM     33  C   UNL     1       5.372   6.634 -10.295  1.00  0.00     0.031 A 
ATOM     34  C   UNL     1       6.749   6.749 -10.887  1.00  0.00     0.074 A 
ATOM     35  C   UNL     1       4.982   7.473  -9.318  1.00  0.00     0.049 A 
ATOM     36  N   UNL     1       7.717   7.570 -10.573  1.00  0.00    -0.248 NA
ATOM     37  C   UNL     1       7.082   5.817 -11.978  1.00  0.00     0.031 C 
ATOM     38  C   UNL     1       3.671   7.464  -8.670  1.00  0.00     0.029 A 
ATOM     39  N   UNL     1       5.667   8.476  -8.676  1.00  0.00    -0.354 N 
ATOM     40  C   UNL     1       8.785   7.230 -11.394  1.00  0.00     0.074 A 
ATOM     41  C   UNL     1       8.345   6.133 -12.230  1.00  0.00     0.031 C 
ATOM     42  C   UNL     1       3.658   8.393  -7.698  1.00  0.00     0.029 A 
ATOM     43  C   UNL     1       4.967   9.039  -7.634  1.00  0.00     0.049 A 
ATOM     44  H   UNL     1       6.572   8.764  -8.937  1.00  0.00     0.167 HD
ATOM     45  C   UNL     1      10.017   7.787 -11.451  1.00  0.00     0.034 A 
ATOM     46  C   UNL     1       5.352   9.947  -6.715  1.00  0.00     0.034 A 
ATOM     47  C   UNL     1      10.440   8.900 -10.645  1.00  0.00     0.049 A 
ATOM     48  C   UNL     1       6.747  10.516  -6.779  1.00  0.00     0.074 A 
ATOM     49  C   UNL     1      11.634   9.597 -10.703  1.00  0.00     0.029 A 
ATOM     50  N   UNL     1       9.697   9.462  -9.620  1.00  0.00    -0.354 N 
ATOM     51  N   UNL     1       7.686  10.304  -7.669  1.00  0.00    -0.248 NA
ATOM     52  C   UNL     1       7.128  11.467  -5.723  1.00  0.00     0.031 C 
ATOM     53  C   UNL     1      11.629  10.556  -9.686  1.00  0.00     0.029 A 
ATOM     54  C   UNL     1      10.421  10.472  -9.012  1.00  0.00     0.049 A 
ATOM     55  H   UNL     1       8.788   9.184  -9.362  1.00  0.00     0.167 HD
ATOM     56  C   UNL     1       8.754  11.113  -7.298  1.00  0.00     0.074 A 
ATOM     57  C   UNL     1       8.339  11.840  -6.117  1.00  0.00     0.031 C 
ATOM     58  C   UNL     1       9.977  11.230  -7.871  1.00  0.00     0.034 A 
BRANCH  45  59
ATOM     59  C   UNL     1      11.008   7.225 -12.434  1.00  0.00     0.023 A 
ATOM     60  C   UNL     1      10.887   7.535 -13.802  1.00  0.00     0.012 A 
ATOM     61  C   UNL     1      12.115   6.477 -11.986  1.00  0.00     0.148 A 
ATOM     62  C   UNL     1      11.847   7.098 -14.714  1.00  0.00     0.002 A 
ATOM     63  C   UNL     1      13.086   6.076 -12.895  1.00  0.00     0.091 A 
ATOM     64  F   UNL     1      12.197   6.177 -10.682  1.00  0.00    -0.205 F 
ATOM     65  C   UNL     1      12.951   6.380 -14.259  1.00  0.00     0.022 A 
BRANCH  63  66
ATOM     66  S   UNL     1      14.582   5.213 -12.399  1.00  0.00     0.127 S 
ATOM     67  O   UNL     1      14.367   3.891 -12.989  1.00  0.00    -0.237 OA
ATOM     68  O   UNL     1      15.624   6.007 -13.049  1.00  0.00    -0.237 OA
ATOM     69  O   UNL     1      14.605   5.248 -10.944  1.00  0.00    -0.744 OA
ENDBRANCH  63  66
ENDBRANCH  45  59
BRANCH  46  70
ATOM     70  C   UNL     1       4.404  10.394  -5.653  1.00  0.00     0.023 A 
ATOM     71  C   UNL     1       3.944  11.725  -5.652  1.00  0.00     0.012 A 
ATOM     72  C   UNL     1       3.964   9.517  -4.643  1.00  0.00     0.148 A 
ATOM     73  C   UNL     1       3.093  12.184  -4.645  1.00  0.00     0.002 A 
ATOM     74  C   UNL     1       3.071   9.965  -3.676  1.00  0.00     0.091 A 
ATOM     75  F   UNL     1       4.433   8.261  -4.640  1.00  0.00    -0.205 F 
ATOM     76  C   UNL     1       2.649  11.302  -3.664  1.00  0.00     0.022 A 
BRANCH  74  77
ATOM     77  S   UNL     1       2.347   8.857  -2.461  1.00  0.00     0.127 S 
ATOM     78  O   UNL     1       3.114   9.186  -1.262  1.00  0.00    -0.237 OA
ATOM     79  O   UNL     1       0.951   9.297  -2.438  1.00  0.00    -0.237 OA
ATOM     80  O   UNL     1       2.539   7.518  -3.001  1.00  0.00    -0.744 OA
ENDBRANCH  74  77
ENDBRANCH  46  70
BRANCH  58  81
ATOM     81  C   UNL     1      10.958  12.191  -7.251  1.00  0.00     0.023 A 
ATOM     82  C   UNL     1      11.587  11.853  -6.037  1.00  0.00     0.012 A 
ATOM     83  C   UNL     1      11.327  13.378  -7.915  1.00  0.00     0.148 A 
ATOM     84  C   UNL     1      12.550  12.693  -5.480  1.00  0.00     0.002 A 
ATOM     85  C   UNL     1      12.322  14.187  -7.378  1.00  0.00     0.091 A 
ATOM     86  F   UNL     1      10.707  13.687  -9.063  1.00  0.00    -0.205 F 
ATOM     87  C   UNL     1      12.926  13.852  -6.155  1.00  0.00     0.022 A 
BRANCH  85  88
ATOM     88  S   UNL     1      12.940  15.649  -8.220  1.00  0.00     0.127 S 
ATOM     89  O   UNL     1      12.444  16.721  -7.360  1.00  0.00    -0.237 OA
ATOM     90  O   UNL     1      14.388  15.446  -8.169  1.00  0.00    -0.237 OA
ATOM     91  O   UNL     1      12.371  15.613  -9.561  1.00  0.00    -0.744 OA
ENDBRANCH  85  88
ENDBRANCH  58  81
ENDBRANCH  32  33
ENDBRANCH  25  27
ENDBRANCH  24  25
ENDBRANCH  23  24
ENDBRANCH   1  23
TORSDOF 19
