REMARK SMILES O=C(OCCOCCOC(=O)[C@@]12CCC[C@@H](C[NH2+]1)C2)c1ccc(-c2c3nc(c(-c4cccc(S(=O)(=O)[O-])c4F)c4ccc([nH]4)c(-c4cccc(S(=O)(=O)[O-])c4F)c4nc(c(-c5cccc(S(=O)(=O)[O-])c5F)c5ccc2[nH]5)C=C4)C=C3)cc1
REMARK SMILES IDX 4 1 3 2 2 3 1 4 20 5 21 6 82 7 22 8 81 9 23 10 24 11 25 12
REMARK SMILES IDX 75 13 26 14 80 15 74 16 76 17 27 18 79 19 73 20 72 21 28 23
REMARK SMILES IDX 60 24 40 25 59 26 41 27 44 28 58 29 77 30 42 31 43 32 57 34
REMARK SMILES IDX 78 35 45 36 29 37 30 38 38 39 31 40 33 41 39 42 32 43 34 44
REMARK SMILES IDX 35 45 36 46 37 47 61 48 62 49 70 50 63 51 65 52 71 53 64 54
REMARK SMILES IDX 66 55 67 56 68 57 69 58 46 59 47 60 55 61 48 62 50 63 56 64
REMARK SMILES IDX 49 65 51 66 52 67 53 68 54 69 5 70 6 71 7 72 8 73 9 74 10 75
REMARK SMILES IDX 11 76 12 77 13 78 18 79 19 80 14 81 17 82 16 85 15 86
REMARK H PARENT 76 22 44 33 18 83 18 84
REMARK Flexibility Score: inf
ROOT
ATOM      1  C   UNL     1       3.975   0.340  -0.929  1.00  0.00     0.261 C 
ENDROOT
BRANCH   1   2
ATOM      2  O   UNL     1       2.546   0.142  -1.018  1.00  0.00    -0.460 OA
BRANCH   2   3
ATOM      3  C   UNL     1       1.866  -1.020  -0.843  1.00  0.00     0.338 C 
ATOM      4  O   UNL     1       0.653  -1.060  -1.018  1.00  0.00    -0.246 OA
BRANCH   3   5
ATOM      5  C   UNL     1       2.597  -2.254  -0.477  1.00  0.00     0.060 A 
ATOM      6  C   UNL     1       3.666  -2.210   0.402  1.00  0.00     0.016 A 
ATOM      7  C   UNL     1       2.211  -3.495  -0.979  1.00  0.00     0.016 A 
ATOM      8  C   UNL     1       4.479  -3.274   0.641  1.00  0.00     0.010 A 
ATOM      9  C   UNL     1       2.933  -4.637  -0.611  1.00  0.00     0.010 A 
ATOM     10  C   UNL     1       4.077  -4.513   0.193  1.00  0.00    -0.014 A 
BRANCH  10  11
ATOM     11  C   UNL     1       4.963  -5.610   0.579  1.00  0.00     0.031 A 
ATOM     12  C   UNL     1       5.786  -6.243  -0.485  1.00  0.00     0.074 A 
ATOM     13  C   UNL     1       5.147  -5.854   1.892  1.00  0.00     0.049 A 
ATOM     14  N   UNL     1       6.587  -7.262  -0.395  1.00  0.00    -0.248 NA
ATOM     15  C   UNL     1       5.708  -5.643  -1.831  1.00  0.00     0.031 C 
ATOM     16  C   UNL     1       4.497  -5.123   2.993  1.00  0.00     0.029 A 
ATOM     17  N   UNL     1       5.958  -6.746   2.531  1.00  0.00    -0.354 N 
ATOM     18  C   UNL     1       7.039  -7.485  -1.685  1.00  0.00     0.074 A 
ATOM     19  C   UNL     1       6.460  -6.472  -2.536  1.00  0.00     0.031 C 
ATOM     20  C   UNL     1       4.949  -5.590   4.165  1.00  0.00     0.029 A 
ATOM     21  C   UNL     1       5.821  -6.720   3.899  1.00  0.00     0.049 A 
ATOM     22  H   UNL     1       6.579  -7.348   2.059  1.00  0.00     0.167 HD
ATOM     23  C   UNL     1       7.850  -8.478  -2.104  1.00  0.00     0.034 A 
ATOM     24  C   UNL     1       6.296  -7.574   4.822  1.00  0.00     0.034 A 
ATOM     25  C   UNL     1       8.404  -9.449  -1.205  1.00  0.00     0.049 A 
ATOM     26  C   UNL     1       7.125  -8.718   4.314  1.00  0.00     0.074 A 
ATOM     27  C   UNL     1       9.190 -10.546  -1.494  1.00  0.00     0.029 A 
ATOM     28  N   UNL     1       8.214  -9.434   0.172  1.00  0.00    -0.354 N 
ATOM     29  N   UNL     1       7.519  -8.965   3.085  1.00  0.00    -0.248 NA
ATOM     30  C   UNL     1       7.578  -9.697   5.304  1.00  0.00     0.031 C 
ATOM     31  C   UNL     1       9.445 -11.214  -0.292  1.00  0.00     0.029 A 
ATOM     32  C   UNL     1       8.859 -10.508   0.751  1.00  0.00     0.049 A 
ATOM     33  H   UNL     1       7.696  -8.756   0.663  1.00  0.00     0.167 HD
ATOM     34  C   UNL     1       8.288 -10.115   3.155  1.00  0.00     0.074 A 
ATOM     35  C   UNL     1       8.326 -10.497   4.556  1.00  0.00     0.031 C 
ATOM     36  C   UNL     1       8.896 -10.809   2.161  1.00  0.00     0.034 A 
BRANCH  23  37
ATOM     37  C   UNL     1       8.091  -8.586  -3.581  1.00  0.00     0.023 A 
ATOM     38  C   UNL     1       8.902  -7.648  -4.249  1.00  0.00     0.012 A 
ATOM     39  C   UNL     1       7.467  -9.612  -4.317  1.00  0.00     0.148 A 
ATOM     40  C   UNL     1       9.060  -7.708  -5.634  1.00  0.00     0.002 A 
ATOM     41  C   UNL     1       7.667  -9.694  -5.688  1.00  0.00     0.091 A 
ATOM     42  F   UNL     1       6.666 -10.468  -3.667  1.00  0.00    -0.205 F 
ATOM     43  C   UNL     1       8.450  -8.735  -6.351  1.00  0.00     0.022 A 
BRANCH  41  44
ATOM     44  S   UNL     1       6.973 -11.012  -6.689  1.00  0.00     0.127 S 
ATOM     45  O   UNL     1       6.059 -10.273  -7.560  1.00  0.00    -0.237 OA
ATOM     46  O   UNL     1       8.162 -11.539  -7.359  1.00  0.00    -0.237 OA
ATOM     47  O   UNL     1       6.334 -11.934  -5.761  1.00  0.00    -0.744 OA
ENDBRANCH  41  44
ENDBRANCH  23  37
BRANCH  24  48
ATOM     48  C   UNL     1       5.952  -7.416   6.264  1.00  0.00     0.023 A 
ATOM     49  C   UNL     1       6.970  -7.173   7.204  1.00  0.00     0.012 A 
ATOM     50  C   UNL     1       4.617  -7.503   6.712  1.00  0.00     0.148 A 
ATOM     51  C   UNL     1       6.672  -7.060   8.564  1.00  0.00     0.002 A 
ATOM     52  C   UNL     1       4.319  -7.332   8.059  1.00  0.00     0.091 A 
ATOM     53  F   UNL     1       3.656  -7.750   5.810  1.00  0.00    -0.205 F 
ATOM     54  C   UNL     1       5.348  -7.131   8.990  1.00  0.00     0.022 A 
BRANCH  52  55
ATOM     55  S   UNL     1       2.632  -7.287   8.677  1.00  0.00     0.127 S 
ATOM     56  O   UNL     1       2.547  -8.551   9.402  1.00  0.00    -0.237 OA
ATOM     57  O   UNL     1       2.651  -6.092   9.521  1.00  0.00    -0.237 OA
ATOM     58  O   UNL     1       1.784  -7.174   7.498  1.00  0.00    -0.744 OA
ENDBRANCH  52  55
ENDBRANCH  24  48
BRANCH  36  59
ATOM     59  C   UNL     1       9.689 -12.014   2.571  1.00  0.00     0.023 A 
ATOM     60  C   UNL     1       9.028 -13.187   2.982  1.00  0.00     0.012 A 
ATOM     61  C   UNL     1      11.092 -12.000   2.463  1.00  0.00     0.148 A 
ATOM     62  C   UNL     1       9.760 -14.324   3.314  1.00  0.00     0.002 A 
ATOM     63  C   UNL     1      11.809 -13.154   2.736  1.00  0.00     0.091 A 
ATOM     64  F   UNL     1      11.694 -10.861   2.089  1.00  0.00    -0.205 F 
ATOM     65  C   UNL     1      11.147 -14.312   3.176  1.00  0.00     0.022 A 
BRANCH  63  66
ATOM     66  S   UNL     1      13.580 -13.261   2.471  1.00  0.00     0.127 S 
ATOM     67  O   UNL     1      14.083 -13.306   3.842  1.00  0.00    -0.237 OA
ATOM     68  O   UNL     1      13.704 -14.518   1.732  1.00  0.00    -0.237 OA
ATOM     69  O   UNL     1      13.946 -12.075   1.709  1.00  0.00    -0.744 OA
ENDBRANCH  63  66
ENDBRANCH  36  59
ENDBRANCH  10  11
ENDBRANCH   3   5
ENDBRANCH   2   3
ENDBRANCH   1   2
BRANCH   1  70
ATOM     70  C   UNL     1       4.312   1.087   0.361  1.00  0.00     0.202 C 
BRANCH  70  71
ATOM     71  O   UNL     1       4.044   0.462   1.609  1.00  0.00    -0.374 OA
BRANCH  71  72
ATOM     72  C   UNL     1       2.735   0.656   2.151  1.00  0.00     0.202 C 
BRANCH  72  73
ATOM     73  C   UNL     1       2.862   1.454   3.444  1.00  0.00     0.261 C 
BRANCH  73  74
ATOM     74  O   UNL     1       3.276   2.790   3.111  1.00  0.00    -0.459 OA
BRANCH  74  75
ATOM     75  C   UNL     1       4.623   2.996   2.933  1.00  0.00     0.368 C 
ATOM     76  O   UNL     1       5.513   2.243   3.281  1.00  0.00    -0.245 OA
BRANCH  75  77
ATOM     77  C   UNL     1       4.835   4.332   2.192  1.00  0.00     0.194 C 
ATOM     78  C   UNL     1       4.673   4.235   0.666  1.00  0.00     0.081 C 
ATOM     79  N   UNL     1       3.853   5.353   2.689  1.00  0.00    -0.332 N 
ATOM     80  C   UNL     1       6.213   4.945   2.431  1.00  0.00     0.090 C 
ATOM     81  C   UNL     1       5.251   5.415  -0.117  1.00  0.00     0.008 C 
ATOM     82  C   UNL     1       4.645   6.505   3.107  1.00  0.00     0.265 C 
ATOM     83  H   UNL     1       3.325   4.981   3.478  1.00  0.00     0.347 HD
ATOM     84  H   UNL     1       3.180   5.605   1.965  1.00  0.00     0.347 HD
ATOM     85  C   UNL     1       5.861   6.410   2.189  1.00  0.00     0.051 C 
ATOM     86  C   UNL     1       5.430   6.679   0.719  1.00  0.00     0.010 C 
ENDBRANCH  75  77
ENDBRANCH  74  75
ENDBRANCH  73  74
ENDBRANCH  72  73
ENDBRANCH  71  72
ENDBRANCH  70  71
ENDBRANCH   1  70
TORSDOF 17
