REMARK SMILES CCOc1cccc(OCC)c1-c1ccc([C@@H](C)C(=O)OCCOCCOC(=O)c2ccc(-c3c4nc(c(-c5cccc(S(=O)(=O)[O-])c5F)c5ccc([nH]5)c(-c5cccc(S(=O)(=O)[O-])c5F)c5nc(c(-c6cccc(S(=O)(=O)[O-])c6F)c6ccc3[nH]6)C=C5)C=C4)cc2)cc1F
REMARK SMILES IDX 23 1 22 2 21 3 19 4 20 5 17 6 18 7 16 8 13 9 14 10 94 11
REMARK SMILES IDX 15 12 93 13 95 14 12 15 4 16 5 17 6 18 8 19 7 20 3 21 2 22
REMARK SMILES IDX 1 23 9 24 10 25 11 26 24 27 25 28 26 29 27 30 28 31 29 32
REMARK SMILES IDX 30 33 31 34 92 35 32 36 91 37 33 38 34 39 35 40 85 41 36 42
REMARK SMILES IDX 90 43 84 44 86 45 37 46 89 47 83 48 82 49 38 51 70 52 50 53
REMARK SMILES IDX 69 54 51 55 54 56 68 57 87 58 52 59 53 60 67 62 88 63 55 64
REMARK SMILES IDX 39 65 40 66 48 67 41 68 43 69 49 70 42 71 44 72 45 73 46 74
REMARK SMILES IDX 47 75 71 76 72 77 80 78 73 79 75 80 81 81 74 82 76 83 77 84
REMARK SMILES IDX 78 85 79 86 56 87 57 88 65 89 58 90 60 91 66 92 59 93 61 94
REMARK SMILES IDX 62 95 63 96 64 97
REMARK H PARENT 86 50 54 61
REMARK Flexibility Score: inf
ROOT
ATOM      1  C   UNL     1      -0.141  -4.633   3.683  1.00  0.00     0.202 C 
ENDROOT
BRANCH   1   2
ATOM      2  C   UNL     1       0.719  -5.439   2.705  1.00  0.00     0.261 C 
BRANCH   2   3
ATOM      3  O   UNL     1       1.187  -4.650   1.591  1.00  0.00    -0.463 OA
BRANCH   3   4
ATOM      4  C   UNL     1       0.844  -5.094   0.355  1.00  0.00     0.313 C 
ATOM      5  O   UNL     1       0.172  -6.104   0.153  1.00  0.00    -0.252 OA
BRANCH   4   6
ATOM      6  C   UNL     1       1.393  -4.283  -0.807  1.00  0.00     0.126 C 
ATOM      7  C   UNL     1       2.623  -5.004  -1.360  1.00  0.00     0.025 C 
BRANCH   6   8
ATOM      8  C   UNL     1       1.677  -2.789  -0.677  1.00  0.00    -0.031 A 
ATOM      9  C   UNL     1       2.564  -0.069  -0.789  1.00  0.00     0.025 A 
ATOM     10  C   UNL     1       2.775  -0.869   0.347  1.00  0.00     0.012 A 
ATOM     11  C   UNL     1       1.817  -0.629  -1.828  1.00  0.00     0.131 A 
ATOM     12  C   UNL     1       2.373  -2.214   0.390  1.00  0.00     0.005 A 
ATOM     13  C   UNL     1       1.376  -1.956  -1.774  1.00  0.00     0.044 A 
ATOM     14  F   UNL     1       1.554   0.079  -2.937  1.00  0.00    -0.206 F 
BRANCH   9  15
ATOM     15  C   UNL     1       3.124   1.296  -0.862  1.00  0.00     0.069 A 
ATOM     16  C   UNL     1       2.239   2.393  -0.671  1.00  0.00     0.130 A 
ATOM     17  C   UNL     1       2.681   3.720  -0.617  1.00  0.00     0.047 A 
ATOM     18  C   UNL     1       4.032   3.995  -0.741  1.00  0.00     0.008 A 
ATOM     19  C   UNL     1       4.490   1.603  -1.056  1.00  0.00     0.130 A 
ATOM     20  C   UNL     1       4.916   2.947  -0.975  1.00  0.00     0.047 A 
BRANCH  16  21
ATOM     21  O   UNL     1       0.886   2.152  -0.642  1.00  0.00    -0.493 OA
BRANCH  21  22
ATOM     22  C   UNL     1       0.266   2.538   0.586  1.00  0.00     0.226 C 
ATOM     23  C   UNL     1      -0.425   1.308   1.130  1.00  0.00     0.049 C 
ENDBRANCH  21  22
ENDBRANCH  16  21
BRANCH  19  24
ATOM     24  O   UNL     1       5.562   0.813  -1.365  1.00  0.00    -0.493 OA
BRANCH  24  25
ATOM     25  C   UNL     1       5.543  -0.603  -1.406  1.00  0.00     0.226 C 
ATOM     26  C   UNL     1       6.038  -1.158  -0.083  1.00  0.00     0.049 C 
ENDBRANCH  24  25
ENDBRANCH  19  24
ENDBRANCH   9  15
ENDBRANCH   6   8
ENDBRANCH   4   6
ENDBRANCH   3   4
ENDBRANCH   2   3
ENDBRANCH   1   2
BRANCH   1  27
ATOM     27  O   UNL     1      -1.420  -4.208   3.208  1.00  0.00    -0.374 OA
BRANCH  27  28
ATOM     28  C   UNL     1      -1.440  -3.261   2.146  1.00  0.00     0.202 C 
BRANCH  28  29
ATOM     29  C   UNL     1      -0.995  -1.838   2.490  1.00  0.00     0.261 C 
BRANCH  29  30
ATOM     30  O   UNL     1       0.318  -1.775   3.074  1.00  0.00    -0.460 OA
BRANCH  30  31
ATOM     31  C   UNL     1       0.409  -1.004   4.184  1.00  0.00     0.338 C 
ATOM     32  O   UNL     1      -0.457  -0.282   4.657  1.00  0.00    -0.246 OA
BRANCH  31  33
ATOM     33  C   UNL     1       1.700  -1.223   4.857  1.00  0.00     0.060 A 
ATOM     34  C   UNL     1       1.724  -2.007   6.016  1.00  0.00     0.016 A 
ATOM     35  C   UNL     1       2.846  -0.544   4.438  1.00  0.00     0.016 A 
ATOM     36  C   UNL     1       2.891  -2.087   6.780  1.00  0.00     0.010 A 
ATOM     37  C   UNL     1       4.017  -0.633   5.203  1.00  0.00     0.010 A 
ATOM     38  C   UNL     1       4.038  -1.375   6.397  1.00  0.00    -0.014 A 
BRANCH  38  39
ATOM     39  C   UNL     1       5.214  -1.322   7.306  1.00  0.00     0.031 A 
ATOM     40  C   UNL     1       5.441  -0.106   8.166  1.00  0.00     0.074 A 
ATOM     41  C   UNL     1       6.072  -2.357   7.380  1.00  0.00     0.049 A 
ATOM     42  N   UNL     1       6.378   0.117   9.052  1.00  0.00    -0.248 NA
ATOM     43  C   UNL     1       4.487   1.003   8.009  1.00  0.00     0.031 C 
ATOM     44  C   UNL     1       5.974  -3.590   6.603  1.00  0.00     0.029 A 
ATOM     45  N   UNL     1       7.202  -2.527   8.142  1.00  0.00    -0.354 N 
ATOM     46  C   UNL     1       6.137   1.392   9.549  1.00  0.00     0.074 A 
ATOM     47  C   UNL     1       4.978   1.904   8.849  1.00  0.00     0.031 C 
ATOM     48  C   UNL     1       7.008  -4.388   6.920  1.00  0.00     0.029 A 
ATOM     49  C   UNL     1       7.849  -3.718   7.912  1.00  0.00     0.049 A 
ATOM     50  H   UNL     1       7.519  -1.859   8.792  1.00  0.00     0.167 HD
ATOM     51  C   UNL     1       6.800   2.069  10.518  1.00  0.00     0.034 A 
ATOM     52  C   UNL     1       8.989  -4.212   8.437  1.00  0.00     0.034 A 
ATOM     53  C   UNL     1       7.940   1.562  11.234  1.00  0.00     0.049 A 
ATOM     54  C   UNL     1       9.728  -3.423   9.486  1.00  0.00     0.074 A 
ATOM     55  C   UNL     1       8.643   2.158  12.267  1.00  0.00     0.029 A 
ATOM     56  N   UNL     1       8.553   0.345  10.985  1.00  0.00    -0.354 N 
ATOM     57  N   UNL     1       9.404  -2.282  10.043  1.00  0.00    -0.248 NA
ATOM     58  C   UNL     1      10.976  -4.008  10.002  1.00  0.00     0.031 C 
ATOM     59  C   UNL     1       9.694   1.307  12.631  1.00  0.00     0.029 A 
ATOM     60  C   UNL     1       9.635   0.176  11.834  1.00  0.00     0.049 A 
ATOM     61  H   UNL     1       8.263  -0.305  10.305  1.00  0.00     0.167 HD
ATOM     62  C   UNL     1      10.384  -2.031  11.000  1.00  0.00     0.074 A 
ATOM     63  C   UNL     1      11.305  -3.148  10.957  1.00  0.00     0.031 C 
ATOM     64  C   UNL     1      10.515  -0.965  11.827  1.00  0.00     0.034 A 
BRANCH  51  65
ATOM     65  C   UNL     1       6.271   3.427  10.899  1.00  0.00     0.023 A 
ATOM     66  C   UNL     1       5.095   3.517  11.670  1.00  0.00     0.012 A 
ATOM     67  C   UNL     1       6.954   4.605  10.540  1.00  0.00     0.148 A 
ATOM     68  C   UNL     1       4.588   4.758  12.053  1.00  0.00     0.002 A 
ATOM     69  C   UNL     1       6.463   5.838  10.955  1.00  0.00     0.091 A 
ATOM     70  F   UNL     1       8.056   4.502   9.784  1.00  0.00    -0.205 F 
ATOM     71  C   UNL     1       5.277   5.917  11.703  1.00  0.00     0.022 A 
BRANCH  69  72
ATOM     72  S   UNL     1       7.323   7.376  10.607  1.00  0.00     0.127 S 
ATOM     73  O   UNL     1       6.554   7.895   9.477  1.00  0.00    -0.237 OA
ATOM     74  O   UNL     1       7.150   8.123  11.854  1.00  0.00    -0.237 OA
ATOM     75  O   UNL     1       8.700   7.000  10.318  1.00  0.00    -0.744 OA
ENDBRANCH  69  72
ENDBRANCH  51  65
BRANCH  52  76
ATOM     76  C   UNL     1       9.472  -5.560   8.025  1.00  0.00     0.023 A 
ATOM     77  C   UNL     1       9.415  -6.624   8.946  1.00  0.00     0.012 A 
ATOM     78  C   UNL     1       9.966  -5.800   6.728  1.00  0.00     0.148 A 
ATOM     79  C   UNL     1       9.862  -7.897   8.591  1.00  0.00     0.002 A 
ATOM     80  C   UNL     1      10.361  -7.082   6.364  1.00  0.00     0.091 A 
ATOM     81  F   UNL     1      10.034  -4.769   5.874  1.00  0.00    -0.205 F 
ATOM     82  C   UNL     1      10.325  -8.129   7.298  1.00  0.00     0.022 A 
BRANCH  80  83
ATOM     83  S   UNL     1      10.849  -7.495   4.686  1.00  0.00     0.127 S 
ATOM     84  O   UNL     1      12.291  -7.677   4.829  1.00  0.00    -0.237 OA
ATOM     85  O   UNL     1      10.092  -8.725   4.444  1.00  0.00    -0.237 OA
ATOM     86  O   UNL     1      10.429  -6.365   3.868  1.00  0.00    -0.744 OA
ENDBRANCH  80  83
ENDBRANCH  52  76
BRANCH  64  87
ATOM     87  C   UNL     1      11.682  -0.955  12.781  1.00  0.00     0.023 A 
ATOM     88  C   UNL     1      12.979  -0.699  12.293  1.00  0.00     0.012 A 
ATOM     89  C   UNL     1      11.488  -1.123  14.167  1.00  0.00     0.148 A 
ATOM     90  C   UNL     1      14.066  -0.637  13.164  1.00  0.00     0.002 A 
ATOM     91  C   UNL     1      12.570  -1.017  15.034  1.00  0.00     0.091 A 
ATOM     92  F   UNL     1      10.251  -1.387  14.613  1.00  0.00    -0.205 F 
ATOM     93  C   UNL     1      13.861  -0.784  14.533  1.00  0.00     0.022 A 
BRANCH  91  94
ATOM     94  S   UNL     1      12.382  -1.105  16.819  1.00  0.00     0.127 S 
ATOM     95  O   UNL     1      12.868  -2.454  17.105  1.00  0.00    -0.237 OA
ATOM     96  O   UNL     1      13.261  -0.030  17.282  1.00  0.00    -0.237 OA
ATOM     97  O   UNL     1      10.967  -0.877  17.080  1.00  0.00    -0.744 OA
ENDBRANCH  91  94
ENDBRANCH  64  87
ENDBRANCH  38  39
ENDBRANCH  31  33
ENDBRANCH  30  31
ENDBRANCH  29  30
ENDBRANCH  28  29
ENDBRANCH  27  28
ENDBRANCH   1  27
TORSDOF 23
