REMARK SMILES N#Cc1cc(-c2cncc(C(=O)OCCOCCOC(=O)c3ccc(-c4c5nc(c(-c6cccc(S(=O)(=O)[O-])c6F)c6ccc([nH]6)c(-c6cccc(S(=O)(=O)[O-])c6F)c6nc(c(-c7cccc(S(=O)(=O)[O-])c7F)c7ccc4[nH]7)C=C6)C=C5)cc3)c2)ccc1Cl
REMARK SMILES IDX 17 1 16 2 15 3 14 4 13 5 11 6 12 7 10 8 6 9 7 10 85 11 8 12
REMARK SMILES IDX 9 13 5 14 3 15 4 16 88 17 87 18 89 19 86 20 2 21 1 22 18 23
REMARK SMILES IDX 19 24 20 25 21 26 22 27 23 28 84 29 24 30 83 31 25 32 26 33
REMARK SMILES IDX 27 34 77 35 28 36 82 37 76 38 78 39 29 40 81 41 75 42 74 43
REMARK SMILES IDX 30 45 62 46 42 47 61 48 43 49 46 50 60 51 79 52 44 53 45 54
REMARK SMILES IDX 59 56 80 57 47 58 31 59 32 60 40 61 33 62 35 63 41 64 34 65
REMARK SMILES IDX 36 66 37 67 38 68 39 69 63 70 64 71 72 72 65 73 67 74 73 75
REMARK SMILES IDX 66 76 68 77 69 78 70 79 71 80 48 81 49 82 57 83 50 84 52 85
REMARK SMILES IDX 58 86 51 87 53 88 54 89 55 90 56 91
REMARK H PARENT 78 44 46 55
REMARK Flexibility Score: inf
ROOT
ATOM      1  C   UNL     1       7.546   3.445   3.187  1.00  0.00     0.202 C 
ENDROOT
BRANCH   1   2
ATOM      2  O   UNL     1       7.610   4.766   3.719  1.00  0.00    -0.374 OA
BRANCH   2   3
ATOM      3  C   UNL     1       6.438   5.319   4.312  1.00  0.00     0.202 C 
BRANCH   3   4
ATOM      4  C   UNL     1       5.297   5.789   3.403  1.00  0.00     0.261 C 
BRANCH   4   5
ATOM      5  O   UNL     1       4.822   4.753   2.531  1.00  0.00    -0.460 OA
BRANCH   5   6
ATOM      6  C   UNL     1       5.236   4.868   1.246  1.00  0.00     0.339 C 
ATOM      7  O   UNL     1       5.883   5.780   0.759  1.00  0.00    -0.246 OA
BRANCH   6   8
ATOM      8  C   UNL     1       4.968   3.616   0.519  1.00  0.00     0.079 A 
ATOM      9  C   UNL     1       3.663   1.654  -0.042  1.00  0.00     0.001 A 
ATOM     10  C   UNL     1       4.680   1.347  -0.955  1.00  0.00     0.119 A 
ATOM     11  C   UNL     1       3.846   2.812   0.731  1.00  0.00     0.027 A 
ATOM     12  N   UNL     1       5.802   2.081  -1.150  1.00  0.00    -0.263 NA
ATOM     13  C   UNL     1       5.909   3.212  -0.418  1.00  0.00     0.126 A 
BRANCH   9  14
ATOM     14  C   UNL     1       2.438   0.842   0.038  1.00  0.00    -0.015 A 
ATOM     15  C   UNL     1      -0.014   0.706   0.012  1.00  0.00     0.071 A 
ATOM     16  C   UNL     1       1.172   1.459   0.028  1.00  0.00     0.029 A 
ATOM     17  C   UNL     1       0.059  -0.688   0.026  1.00  0.00     0.058 A 
ATOM     18  C   UNL     1       1.304  -1.319   0.054  1.00  0.00     0.022 A 
ATOM     19  Cl  UNL     1      -1.349  -1.686  -0.022  1.00  0.00    -0.083 Cl
ATOM     20  C   UNL     1       2.481  -0.561   0.058  1.00  0.00     0.010 A 
BRANCH  15  21
ATOM     21  C   UNL     1      -1.265   1.401  -0.083  1.00  0.00     0.101 C 
ATOM     22  N   UNL     1      -2.254   1.986  -0.219  1.00  0.00    -0.192 NA
ENDBRANCH  15  21
ENDBRANCH   9  14
ENDBRANCH   6   8
ENDBRANCH   5   6
ENDBRANCH   4   5
ENDBRANCH   3   4
ENDBRANCH   2   3
ENDBRANCH   1   2
BRANCH   1  23
ATOM     23  C   UNL     1       7.426   2.248   4.141  1.00  0.00     0.261 C 
BRANCH  23  24
ATOM     24  O   UNL     1       6.267   2.291   4.985  1.00  0.00    -0.460 OA
BRANCH  24  25
ATOM     25  C   UNL     1       6.530   2.639   6.270  1.00  0.00     0.338 C 
ATOM     26  O   UNL     1       7.620   2.884   6.759  1.00  0.00    -0.246 OA
BRANCH  25  27
ATOM     27  C   UNL     1       5.266   2.878   6.988  1.00  0.00     0.060 A 
ATOM     28  C   UNL     1       5.072   4.138   7.569  1.00  0.00     0.016 A 
ATOM     29  C   UNL     1       4.326   1.861   7.155  1.00  0.00     0.016 A 
ATOM     30  C   UNL     1       3.953   4.373   8.362  1.00  0.00     0.010 A 
ATOM     31  C   UNL     1       3.207   2.099   7.956  1.00  0.00     0.010 A 
ATOM     32  C   UNL     1       3.035   3.341   8.594  1.00  0.00    -0.014 A 
BRANCH  32  33
ATOM     33  C   UNL     1       1.959   3.522   9.598  1.00  0.00     0.031 A 
ATOM     34  C   UNL     1       2.065   2.822  10.924  1.00  0.00     0.074 A 
ATOM     35  C   UNL     1       0.897   4.300   9.326  1.00  0.00     0.049 A 
ATOM     36  N   UNL     1       1.222   2.807  11.923  1.00  0.00    -0.248 NA
ATOM     37  C   UNL     1       3.281   2.024  11.150  1.00  0.00     0.031 C 
ATOM     38  C   UNL     1       0.691   5.044   8.085  1.00  0.00     0.029 A 
ATOM     39  N   UNL     1      -0.218   4.575  10.076  1.00  0.00    -0.354 N 
ATOM     40  C   UNL     1       1.785   1.974  12.882  1.00  0.00     0.074 A 
ATOM     41  C   UNL     1       3.031   1.484  12.333  1.00  0.00     0.031 C 
ATOM     42  C   UNL     1      -0.487   5.685   8.153  1.00  0.00     0.029 A 
ATOM     43  C   UNL     1      -1.134   5.364   9.423  1.00  0.00     0.049 A 
ATOM     44  H   UNL     1      -0.349   4.240  10.992  1.00  0.00     0.167 HD
ATOM     45  C   UNL     1       1.316   1.656  14.113  1.00  0.00     0.034 A 
ATOM     46  C   UNL     1      -2.364   5.763   9.799  1.00  0.00     0.034 A 
ATOM     47  C   UNL     1       0.073   2.144  14.649  1.00  0.00     0.049 A 
ATOM     48  C   UNL     1      -2.895   5.345  11.144  1.00  0.00     0.074 A 
ATOM     49  C   UNL     1      -0.477   1.912  15.898  1.00  0.00     0.029 A 
ATOM     50  N   UNL     1      -0.830   2.940  13.960  1.00  0.00    -0.354 N 
ATOM     51  N   UNL     1      -2.313   4.633  12.078  1.00  0.00    -0.248 NA
ATOM     52  C   UNL     1      -4.244   5.810  11.496  1.00  0.00     0.031 C 
ATOM     53  C   UNL     1      -1.736   2.521  15.941  1.00  0.00     0.029 A 
ATOM     54  C   UNL     1      -1.943   3.189  14.745  1.00  0.00     0.049 A 
ATOM     55  H   UNL     1      -0.698   3.280  13.045  1.00  0.00     0.167 HD
ATOM     56  C   UNL     1      -3.203   4.604  13.147  1.00  0.00     0.074 A 
ATOM     57  C   UNL     1      -4.359   5.380  12.745  1.00  0.00     0.031 C 
ATOM     58  C   UNL     1      -3.075   3.990  14.350  1.00  0.00     0.034 A 
BRANCH  45  59
ATOM     59  C   UNL     1       2.153   0.724  14.954  1.00  0.00     0.023 A 
ATOM     60  C   UNL     1       3.411   1.143  15.437  1.00  0.00     0.012 A 
ATOM     61  C   UNL     1       1.690  -0.567  15.277  1.00  0.00     0.148 A 
ATOM     62  C   UNL     1       4.219   0.274  16.171  1.00  0.00     0.002 A 
ATOM     63  C   UNL     1       2.476  -1.408  16.056  1.00  0.00     0.091 A 
ATOM     64  F   UNL     1       0.500  -0.958  14.800  1.00  0.00    -0.205 F 
ATOM     65  C   UNL     1       3.748  -0.997  16.486  1.00  0.00     0.022 A 
BRANCH  63  66
ATOM     66  S   UNL     1       1.926  -3.033  16.586  1.00  0.00     0.127 S 
ATOM     67  O   UNL     1       2.794  -3.909  15.800  1.00  0.00    -0.237 OA
ATOM     68  O   UNL     1       2.223  -3.005  18.018  1.00  0.00    -0.237 OA
ATOM     69  O   UNL     1       0.508  -3.104  16.260  1.00  0.00    -0.744 OA
ENDBRANCH  63  66
ENDBRANCH  45  59
BRANCH  46  70
ATOM     70  C   UNL     1      -3.165   6.641   8.902  1.00  0.00     0.023 A 
ATOM     71  C   UNL     1      -3.406   7.976   9.277  1.00  0.00     0.012 A 
ATOM     72  C   UNL     1      -3.664   6.169   7.673  1.00  0.00     0.148 A 
ATOM     73  C   UNL     1      -4.155   8.820   8.456  1.00  0.00     0.002 A 
ATOM     74  C   UNL     1      -4.361   7.030   6.835  1.00  0.00     0.091 A 
ATOM     75  F   UNL     1      -3.425   4.893   7.340  1.00  0.00    -0.205 F 
ATOM     76  C   UNL     1      -4.623   8.350   7.232  1.00  0.00     0.022 A 
BRANCH  74  77
ATOM     77  S   UNL     1      -4.898   6.553   5.190  1.00  0.00     0.127 S 
ATOM     78  O   UNL     1      -6.350   6.665   5.306  1.00  0.00    -0.237 OA
ATOM     79  O   UNL     1      -4.262   7.580   4.364  1.00  0.00    -0.237 OA
ATOM     80  O   UNL     1      -4.387   5.205   4.983  1.00  0.00    -0.744 OA
ENDBRANCH  74  77
ENDBRANCH  46  70
BRANCH  58  81
ATOM     81  C   UNL     1      -4.187   4.175  15.353  1.00  0.00     0.023 A 
ATOM     82  C   UNL     1      -5.446   3.578  15.143  1.00  0.00     0.012 A 
ATOM     83  C   UNL     1      -3.957   4.897  16.542  1.00  0.00     0.148 A 
ATOM     84  C   UNL     1      -6.469   3.732  16.080  1.00  0.00     0.002 A 
ATOM     85  C   UNL     1      -4.961   4.997  17.496  1.00  0.00     0.091 A 
ATOM     86  F   UNL     1      -2.758   5.471  16.718  1.00  0.00    -0.205 F 
ATOM     87  C   UNL     1      -6.223   4.429  17.260  1.00  0.00     0.022 A 
BRANCH  85  88
ATOM     88  S   UNL     1      -4.706   5.790  19.088  1.00  0.00     0.127 S 
ATOM     89  O   UNL     1      -5.570   6.965  18.976  1.00  0.00    -0.237 OA
ATOM     90  O   UNL     1      -5.183   4.768  20.020  1.00  0.00    -0.237 OA
ATOM     91  O   UNL     1      -3.280   6.074  19.175  1.00  0.00    -0.744 OA
ENDBRANCH  85  88
ENDBRANCH  58  81
ENDBRANCH  32  33
ENDBRANCH  25  27
ENDBRANCH  24  25
ENDBRANCH  23  24
ENDBRANCH   1  23
TORSDOF 19
