REMARK SMILES CC[NH2+][C@]1(C(=O)OCCOCCOC(=O)c2ccc(-c3c4nc(c(-c5cccc(S(=O)(=O)[O-])c5F)c5ccc([nH]5)c(-c5cccc(S(=O)(=O)[O-])c5F)c5nc(c(-c6cccc(S(=O)(=O)[O-])c6F)c6ccc3[nH]6)C=C5)C=C4)cc2)CC[C@@H](Sc2ccccc2C)C1
REMARK SMILES IDX 11 1 10 2 9 3 8 4 7 5 5 6 6 7 4 8 79 9 90 10 80 11 81 12
REMARK SMILES IDX 3 13 2 16 1 17 82 18 83 19 84 20 88 21 85 22 87 23 89 24
REMARK SMILES IDX 86 25 12 26 13 27 14 28 15 29 16 30 17 31 78 32 18 33 77 34
REMARK SMILES IDX 19 35 20 36 21 37 71 38 22 39 76 40 70 41 72 42 23 43 75 44
REMARK SMILES IDX 69 45 68 46 24 48 56 49 36 50 55 51 37 52 40 53 54 54 73 55
REMARK SMILES IDX 38 56 39 57 53 59 74 60 41 61 25 62 26 63 34 64 27 65 29 66
REMARK SMILES IDX 35 67 28 68 30 69 31 70 32 71 33 72 57 73 58 74 66 75 59 76
REMARK SMILES IDX 61 77 67 78 60 79 62 80 63 81 64 82 65 83 42 84 43 85 51 86
REMARK SMILES IDX 44 87 46 88 52 89 45 90 47 91 48 92 49 93 50 94
REMARK H PARENT 3 14 3 15 72 47 40 58
REMARK Flexibility Score: inf
ROOT
ATOM      1  C   UNL     1       0.642   0.268  -0.810  1.00  0.00     0.202 C 
ENDROOT
BRANCH   1   2
ATOM      2  O   UNL     1       1.897   0.038  -1.456  1.00  0.00    -0.374 OA
BRANCH   2   3
ATOM      3  C   UNL     1       3.080   0.299  -0.707  1.00  0.00     0.202 C 
BRANCH   3   4
ATOM      4  C   UNL     1       3.525   1.758  -0.590  1.00  0.00     0.261 C 
BRANCH   4   5
ATOM      5  O   UNL     1       2.503   2.636  -0.097  1.00  0.00    -0.459 OA
BRANCH   5   6
ATOM      6  C   UNL     1       1.904   3.388  -1.063  1.00  0.00     0.368 C 
ATOM      7  O   UNL     1       2.139   3.263  -2.261  1.00  0.00    -0.245 OA
BRANCH   6   8
ATOM      8  C   UNL     1       0.905   4.429  -0.509  1.00  0.00     0.195 C 
ATOM      9  C   UNL     1       1.459   5.822  -0.861  1.00  0.00     0.082 C 
ATOM     10  C   UNL     1      -0.411   4.346  -1.323  1.00  0.00     0.096 C 
ATOM     11  C   UNL     1       0.246   6.706  -1.075  1.00  0.00     0.022 C 
ATOM     12  C   UNL     1      -0.823   5.784  -1.657  1.00  0.00     0.059 C 
BRANCH   8  13
ATOM     13  N   UNL     1       0.483   4.190   0.895  1.00  0.00    -0.332 N 
ATOM     14  H   UNL     1      -0.454   4.577   1.004  1.00  0.00     0.347 HD
ATOM     15  H   UNL     1       0.552   3.180   1.022  1.00  0.00     0.347 HD
BRANCH  13  16
ATOM     16  C   UNL     1       1.317   4.759   1.949  1.00  0.00     0.257 C 
ATOM     17  C   UNL     1       0.735   4.359   3.301  1.00  0.00     0.071 C 
ENDBRANCH  13  16
ENDBRANCH   8  13
BRANCH  12  18
ATOM     18  S   UNL     1      -1.264   6.056  -3.429  1.00  0.00    -0.122 SA
BRANCH  18  19
ATOM     19  C   UNL     1       0.250   5.695  -4.319  1.00  0.00     0.010 A 
ATOM     20  C   UNL     1       1.112   6.775  -4.572  1.00  0.00     0.015 A 
ATOM     21  C   UNL     1       0.551   4.438  -4.880  1.00  0.00    -0.038 A 
ATOM     22  C   UNL     1       2.284   6.608  -5.314  1.00  0.00     0.001 A 
ATOM     23  C   UNL     1       1.754   4.279  -5.596  1.00  0.00     0.004 A 
ATOM     24  C   UNL     1      -0.317   3.215  -4.751  1.00  0.00     0.045 C 
ATOM     25  C   UNL     1       2.612   5.354  -5.814  1.00  0.00     0.000 A 
ENDBRANCH  18  19
ENDBRANCH  12  18
ENDBRANCH   6   8
ENDBRANCH   5   6
ENDBRANCH   4   5
ENDBRANCH   3   4
ENDBRANCH   2   3
ENDBRANCH   1   2
BRANCH   1  26
ATOM     26  C   UNL     1       0.297  -0.660   0.360  1.00  0.00     0.261 C 
BRANCH  26  27
ATOM     27  O   UNL     1       1.030  -0.301   1.550  1.00  0.00    -0.460 OA
BRANCH  27  28
ATOM     28  C   UNL     1       1.782  -1.291   2.086  1.00  0.00     0.338 C 
ATOM     29  O   UNL     1       1.844  -2.457   1.710  1.00  0.00    -0.246 OA
BRANCH  28  30
ATOM     30  C   UNL     1       2.701  -0.737   3.092  1.00  0.00     0.060 A 
ATOM     31  C   UNL     1       4.077  -0.884   2.872  1.00  0.00     0.016 A 
ATOM     32  C   UNL     1       2.228  -0.160   4.271  1.00  0.00     0.016 A 
ATOM     33  C   UNL     1       4.985  -0.486   3.852  1.00  0.00     0.010 A 
ATOM     34  C   UNL     1       3.142   0.229   5.257  1.00  0.00     0.010 A 
ATOM     35  C   UNL     1       4.522   0.040   5.065  1.00  0.00    -0.014 A 
BRANCH  35  36
ATOM     36  C   UNL     1       5.486   0.296   6.163  1.00  0.00     0.031 A 
ATOM     37  C   UNL     1       5.633  -0.710   7.272  1.00  0.00     0.074 A 
ATOM     38  C   UNL     1       6.236   1.412   6.160  1.00  0.00     0.049 A 
ATOM     39  N   UNL     1       6.443  -0.693   8.299  1.00  0.00    -0.248 NA
ATOM     40  C   UNL     1       4.754  -1.888   7.217  1.00  0.00     0.031 C 
ATOM     41  C   UNL     1       6.174   2.466   5.148  1.00  0.00     0.029 A 
ATOM     42  N   UNL     1       7.185   1.851   7.048  1.00  0.00    -0.354 N 
ATOM     43  C   UNL     1       6.161  -1.845   9.024  1.00  0.00     0.074 A 
ATOM     44  C   UNL     1       5.093  -2.530   8.326  1.00  0.00     0.031 C 
ATOM     45  C   UNL     1       7.034   3.443   5.485  1.00  0.00     0.029 A 
ATOM     46  C   UNL     1       7.696   3.089   6.739  1.00  0.00     0.049 A 
ATOM     47  H   UNL     1       7.473   1.329   7.832  1.00  0.00     0.167 HD
ATOM     48  C   UNL     1       6.750  -2.302  10.154  1.00  0.00     0.034 A 
ATOM     49  C   UNL     1       8.589   3.853   7.398  1.00  0.00     0.034 A 
ATOM     50  C   UNL     1       7.823  -1.629  10.838  1.00  0.00     0.049 A 
ATOM     51  C   UNL     1       9.226   3.324   8.656  1.00  0.00     0.074 A 
ATOM     52  C   UNL     1       8.519  -2.039  11.962  1.00  0.00     0.029 A 
ATOM     53  N   UNL     1       8.347  -0.399  10.472  1.00  0.00    -0.354 N 
ATOM     54  N   UNL     1       9.048   2.168   9.249  1.00  0.00    -0.248 NA
ATOM     55  C   UNL     1      10.216   4.189   9.313  1.00  0.00     0.031 C 
ATOM     56  C   UNL     1       9.451  -1.046  12.287  1.00  0.00     0.029 A 
ATOM     57  C   UNL     1       9.349  -0.028  11.353  1.00  0.00     0.049 A 
ATOM     58  H   UNL     1       8.050   0.133   9.698  1.00  0.00     0.167 HD
ATOM     59  C   UNL     1       9.924   2.154  10.329  1.00  0.00     0.074 A 
ATOM     60  C   UNL     1      10.651   3.406  10.291  1.00  0.00     0.031 C 
ATOM     61  C   UNL     1      10.098   1.200  11.278  1.00  0.00     0.034 A 
BRANCH  48  62
ATOM     62  C   UNL     1       6.271  -3.619  10.706  1.00  0.00     0.023 A 
ATOM     63  C   UNL     1       6.629  -4.816  10.052  1.00  0.00     0.012 A 
ATOM     64  C   UNL     1       5.521  -3.679  11.896  1.00  0.00     0.148 A 
ATOM     65  C   UNL     1       6.223  -6.050  10.557  1.00  0.00     0.002 A 
ATOM     66  C   UNL     1       5.153  -4.916  12.415  1.00  0.00     0.091 A 
ATOM     67  F   UNL     1       5.170  -2.530  12.490  1.00  0.00    -0.205 F 
ATOM     68  C   UNL     1       5.495  -6.101  11.743  1.00  0.00     0.022 A 
BRANCH  66  69
ATOM     69  S   UNL     1       4.276  -5.087  13.974  1.00  0.00     0.127 S 
ATOM     70  O   UNL     1       2.940  -5.470  13.519  1.00  0.00    -0.237 OA
ATOM     71  O   UNL     1       5.025  -6.157  14.635  1.00  0.00    -0.237 OA
ATOM     72  O   UNL     1       4.367  -3.790  14.629  1.00  0.00    -0.744 OA
ENDBRANCH  66  69
ENDBRANCH  48  62
BRANCH  49  73
ATOM     73  C   UNL     1       8.973   5.184   6.849  1.00  0.00     0.023 A 
ATOM     74  C   UNL     1      10.267   5.375   6.328  1.00  0.00     0.012 A 
ATOM     75  C   UNL     1       8.055   6.252   6.818  1.00  0.00     0.148 A 
ATOM     76  C   UNL     1      10.650   6.614   5.812  1.00  0.00     0.002 A 
ATOM     77  C   UNL     1       8.424   7.466   6.250  1.00  0.00     0.091 A 
ATOM     78  F   UNL     1       6.835   6.057   7.338  1.00  0.00    -0.205 F 
ATOM     79  C   UNL     1       9.726   7.655   5.762  1.00  0.00     0.022 A 
BRANCH  77  80
ATOM     80  S   UNL     1       7.255   8.810   6.021  1.00  0.00     0.127 S 
ATOM     81  O   UNL     1       7.685   9.759   7.044  1.00  0.00    -0.237 OA
ATOM     82  O   UNL     1       7.529   9.219   4.643  1.00  0.00    -0.237 OA
ATOM     83  O   UNL     1       5.938   8.217   6.215  1.00  0.00    -0.744 OA
ENDBRANCH  77  80
ENDBRANCH  49  73
BRANCH  61  84
ATOM     84  C   UNL     1      11.129   1.463  12.346  1.00  0.00     0.023 A 
ATOM     85  C   UNL     1      10.872   2.426  13.343  1.00  0.00     0.012 A 
ATOM     86  C   UNL     1      12.329   0.726  12.394  1.00  0.00     0.148 A 
ATOM     87  C   UNL     1      11.808   2.679  14.345  1.00  0.00     0.002 A 
ATOM     88  C   UNL     1      13.237   0.951  13.423  1.00  0.00     0.091 A 
ATOM     89  F   UNL     1      12.570  -0.172  11.427  1.00  0.00    -0.205 F 
ATOM     90  C   UNL     1      12.984   1.935  14.392  1.00  0.00     0.022 A 
BRANCH  88  91
ATOM     91  S   UNL     1      14.732  -0.029  13.606  1.00  0.00     0.127 S 
ATOM     92  O   UNL     1      15.746   0.867  13.052  1.00  0.00    -0.237 OA
ATOM     93  O   UNL     1      14.811  -0.216  15.056  1.00  0.00    -0.237 OA
ATOM     94  O   UNL     1      14.494  -1.255  12.856  1.00  0.00    -0.744 OA
ENDBRANCH  88  91
ENDBRANCH  61  84
ENDBRANCH  35  36
ENDBRANCH  28  30
ENDBRANCH  27  28
ENDBRANCH  26  27
ENDBRANCH   1  26
TORSDOF 21
