REMARK SMILES CC1(C)[C@H](O)CC[C@]2(C)[C@@H]1CC[C@@]1(C)Oc3oc(C(=O)OCCOCCOC(=O)c4ccc(-c5c6nc(c(-c7cccc(S(=O)(=O)[O-])c7F)c7ccc([nH]7)c(-c7cccc(S(=O)(=O)[O-])c7F)c7nc(c(-c8cccc(S(=O)(=O)[O-])c8F)c8ccc5[nH]8)C=C7)C=C6)cc4)cc(=O)c3C[C@H]21
REMARK SMILES IDX 25 1 24 2 23 3 22 4 21 5 19 6 20 7 18 8 1 9 2 10 3 11 4 12
REMARK SMILES IDX 10 13 6 14 8 15 11 16 7 17 9 18 98 19 12 20 13 21 97 22
REMARK SMILES IDX 14 23 15 24 96 25 16 26 94 27 17 28 93 29 95 30 5 31 26 33
REMARK SMILES IDX 27 34 28 35 29 36 30 37 31 38 92 39 32 40 91 41 33 42 34 43
REMARK SMILES IDX 35 44 85 45 36 46 90 47 84 48 86 49 37 50 89 51 83 52 82 53
REMARK SMILES IDX 38 55 70 56 50 57 69 58 51 59 54 60 68 61 87 62 52 63 53 64
REMARK SMILES IDX 67 66 88 67 55 68 39 69 40 70 48 71 41 72 43 73 49 74 42 75
REMARK SMILES IDX 44 76 45 77 46 78 47 79 71 80 72 81 80 82 73 83 75 84 81 85
REMARK SMILES IDX 74 86 76 87 77 88 78 89 79 90 56 91 57 92 65 93 58 94 60 95
REMARK SMILES IDX 66 96 59 97 61 98 62 99 63 100 64 101
REMARK H PARENT 5 32 86 54 54 65
REMARK Flexibility Score: inf
ROOT
ATOM      1  C   UNL     1       4.819   9.504  -5.127  1.00  0.00     0.202 C 
ENDROOT
BRANCH   1   2
ATOM      2  O   UNL     1       4.186  10.765  -5.338  1.00  0.00    -0.374 OA
BRANCH   2   3
ATOM      3  C   UNL     1       3.446  11.348  -4.269  1.00  0.00     0.202 C 
BRANCH   3   4
ATOM      4  C   UNL     1       2.057  10.778  -3.955  1.00  0.00     0.261 C 
BRANCH   4   5
ATOM      5  O   UNL     1       2.106   9.371  -3.740  1.00  0.00    -0.457 OA
BRANCH   5   6
ATOM      6  C   UNL     1       1.709   8.518  -4.727  1.00  0.00     0.374 C 
ATOM      7  O   UNL     1       1.140   8.821  -5.769  1.00  0.00    -0.242 OA
BRANCH   6   8
ATOM      8  C   UNL     1       2.228   7.159  -4.385  1.00  0.00     0.219 A 
ATOM      9  C   UNL     1       1.744  -1.962  -1.717  1.00  0.00     0.014 C 
ATOM     10  C   UNL     1       1.092  -0.808  -2.539  1.00  0.00    -0.006 C 
ATOM     11  C   UNL     1      -0.316  -1.329  -2.930  1.00  0.00     0.014 C 
ATOM     12  C   UNL     1       0.782   0.340  -1.312  1.00  0.00     0.120 C 
ATOM     13  C   UNL     1       2.269  -0.216  -3.796  1.00  0.00     0.004 C 
ATOM     14  C   UNL     1       2.016   1.093  -0.869  1.00  0.00     0.033 C 
ATOM     15  C   UNL     1       2.186   1.238  -3.438  1.00  0.00    -0.022 C 
ATOM     16  C   UNL     1       2.525  -0.219  -5.359  1.00  0.00     0.009 C 
ATOM     17  C   UNL     1       2.915   1.069  -2.038  1.00  0.00     0.010 C 
ATOM     18  C   UNL     1       0.674   1.414  -4.070  1.00  0.00     0.012 C 
ATOM     19  C   UNL     1       2.740   2.503  -4.025  1.00  0.00     0.044 C 
ATOM     20  C   UNL     1       2.948   1.202  -6.130  1.00  0.00     0.049 C 
ATOM     21  C   UNL     1       3.504   2.463  -5.303  1.00  0.00     0.113 C 
ATOM     22  C   UNL     1       3.291   3.475  -3.018  1.00  0.00     0.055 C 
ATOM     23  C   UNL     1       5.022   2.320  -5.130  1.00  0.00     0.057 C 
ATOM     24  O   UNL     1       3.239   3.844  -5.899  1.00  0.00    -0.458 OA
ATOM     25  C   UNL     1       3.281   4.784  -3.645  1.00  0.00     0.081 A 
ATOM     26  C   UNL     1       3.119   4.965  -4.964  1.00  0.00     0.292 A 
ATOM     27  C   UNL     1       3.106   5.817  -2.627  1.00  0.00     0.192 A 
ATOM     28  O   UNL     1       2.645   6.239  -5.387  1.00  0.00    -0.418 OA
ATOM     29  C   UNL     1       2.398   6.982  -3.065  1.00  0.00     0.107 A 
ATOM     30  O   UNL     1       3.450   5.676  -1.462  1.00  0.00    -0.289 OA
BRANCH  12  31
ATOM     31  O   UNL     1      -0.235   1.287  -1.637  1.00  0.00    -0.393 OA
ATOM     32  H   UNL     1       0.066   1.848  -2.369  1.00  0.00     0.210 HD
ENDBRANCH  12  31
ENDBRANCH   6   8
ENDBRANCH   5   6
ENDBRANCH   4   5
ENDBRANCH   3   4
ENDBRANCH   2   3
ENDBRANCH   1   2
BRANCH   1  33
ATOM     33  C   UNL     1       6.012   9.399  -4.170  1.00  0.00     0.261 C 
BRANCH  33  34
ATOM     34  O   UNL     1       5.711   9.789  -2.823  1.00  0.00    -0.460 OA
BRANCH  34  35
ATOM     35  C   UNL     1       6.326  10.931  -2.428  1.00  0.00     0.338 C 
ATOM     36  O   UNL     1       7.058  11.645  -3.091  1.00  0.00    -0.246 OA
BRANCH  35  37
ATOM     37  C   UNL     1       5.896  11.291  -1.071  1.00  0.00     0.060 A 
ATOM     38  C   UNL     1       5.025  12.375  -0.915  1.00  0.00     0.016 A 
ATOM     39  C   UNL     1       6.475  10.667   0.034  1.00  0.00     0.016 A 
ATOM     40  C   UNL     1       4.755  12.866   0.359  1.00  0.00     0.010 A 
ATOM     41  C   UNL     1       6.212  11.170   1.310  1.00  0.00     0.010 A 
ATOM     42  C   UNL     1       5.382  12.293   1.472  1.00  0.00    -0.014 A 
BRANCH  42  43
ATOM     43  C   UNL     1       5.284  12.960   2.787  1.00  0.00     0.031 A 
ATOM     44  C   UNL     1       6.409  13.848   3.240  1.00  0.00     0.074 A 
ATOM     45  C   UNL     1       4.200  12.783   3.561  1.00  0.00     0.049 A 
ATOM     46  N   UNL     1       6.540  14.501   4.363  1.00  0.00    -0.248 NA
ATOM     47  C   UNL     1       7.533  14.029   2.304  1.00  0.00     0.031 C 
ATOM     48  C   UNL     1       3.042  11.961   3.214  1.00  0.00     0.029 A 
ATOM     49  N   UNL     1       3.909  13.271   4.809  1.00  0.00    -0.354 N 
ATOM     50  C   UNL     1       7.765  15.150   4.282  1.00  0.00     0.074 A 
ATOM     51  C   UNL     1       8.345  14.810   3.002  1.00  0.00     0.031 C 
ATOM     52  C   UNL     1       2.172  11.983   4.237  1.00  0.00     0.029 A 
ATOM     53  C   UNL     1       2.723  12.800   5.317  1.00  0.00     0.049 A 
ATOM     54  H   UNL     1       4.493  13.897   5.294  1.00  0.00     0.167 HD
ATOM     55  C   UNL     1       8.346  15.967   5.189  1.00  0.00     0.034 A 
ATOM     56  C   UNL     1       2.155  12.993   6.524  1.00  0.00     0.034 A 
ATOM     57  C   UNL     1       7.757  16.319   6.451  1.00  0.00     0.049 A 
ATOM     58  C   UNL     1       2.839  13.875   7.531  1.00  0.00     0.074 A 
ATOM     59  C   UNL     1       8.256  17.172   7.419  1.00  0.00     0.029 A 
ATOM     60  N   UNL     1       6.551  15.832   6.925  1.00  0.00    -0.354 N 
ATOM     61  N   UNL     1       3.959  14.544   7.409  1.00  0.00    -0.248 NA
ATOM     62  C   UNL     1       2.174  14.050   8.831  1.00  0.00     0.031 C 
ATOM     63  C   UNL     1       7.360  17.184   8.490  1.00  0.00     0.029 A 
ATOM     64  C   UNL     1       6.291  16.359   8.177  1.00  0.00     0.049 A 
ATOM     65  H   UNL     1       5.965  15.205   6.442  1.00  0.00     0.167 HD
ATOM     66  C   UNL     1       4.121  15.239   8.602  1.00  0.00     0.074 A 
ATOM     67  C   UNL     1       2.980  14.916   9.433  1.00  0.00     0.031 C 
ATOM     68  C   UNL     1       5.130  16.064   8.974  1.00  0.00     0.034 A 
BRANCH  55  69
ATOM     69  C   UNL     1       9.675  16.577   4.846  1.00  0.00     0.023 A 
ATOM     70  C   UNL     1       9.722  17.680   3.972  1.00  0.00     0.012 A 
ATOM     71  C   UNL     1      10.854  16.132   5.474  1.00  0.00     0.148 A 
ATOM     72  C   UNL     1      10.928  18.333   3.725  1.00  0.00     0.002 A 
ATOM     73  C   UNL     1      12.047  16.806   5.245  1.00  0.00     0.091 A 
ATOM     74  F   UNL     1      10.781  15.072   6.290  1.00  0.00    -0.205 F 
ATOM     75  C   UNL     1      12.086  17.905   4.370  1.00  0.00     0.022 A 
BRANCH  73  76
ATOM     76  S   UNL     1      13.585  16.368   6.062  1.00  0.00     0.127 S 
ATOM     77  O   UNL     1      14.417  15.966   4.928  1.00  0.00    -0.237 OA
ATOM     78  O   UNL     1      13.972  17.633   6.684  1.00  0.00    -0.237 OA
ATOM     79  O   UNL     1      13.258  15.299   6.995  1.00  0.00    -0.744 OA
ENDBRANCH  73  76
ENDBRANCH  55  69
BRANCH  56  80
ATOM     80  C   UNL     1       0.840  12.363   6.816  1.00  0.00     0.023 A 
ATOM     81  C   UNL     1      -0.321  13.158   6.808  1.00  0.00     0.012 A 
ATOM     82  C   UNL     1       0.729  10.975   7.028  1.00  0.00     0.148 A 
ATOM     83  C   UNL     1      -1.574  12.581   7.012  1.00  0.00     0.002 A 
ATOM     84  C   UNL     1      -0.525  10.402   7.195  1.00  0.00     0.091 A 
ATOM     85  F   UNL     1       1.852  10.243   7.029  1.00  0.00    -0.205 F 
ATOM     86  C   UNL     1      -1.678  11.204   7.196  1.00  0.00     0.022 A 
BRANCH  84  87
ATOM     87  S   UNL     1      -0.771   8.629   7.351  1.00  0.00     0.127 S 
ATOM     88  O   UNL     1      -1.379   8.527   8.676  1.00  0.00    -0.237 OA
ATOM     89  O   UNL     1      -1.677   8.357   6.235  1.00  0.00    -0.237 OA
ATOM     90  O   UNL     1       0.550   8.030   7.223  1.00  0.00    -0.744 OA
ENDBRANCH  84  87
ENDBRANCH  56  80
BRANCH  68  91
ATOM     91  C   UNL     1       5.061  16.710  10.331  1.00  0.00     0.023 A 
ATOM     92  C   UNL     1       5.414  15.964  11.472  1.00  0.00     0.012 A 
ATOM     93  C   UNL     1       4.797  18.089  10.452  1.00  0.00     0.148 A 
ATOM     94  C   UNL     1       5.501  16.583  12.718  1.00  0.00     0.002 A 
ATOM     95  C   UNL     1       4.919  18.705  11.691  1.00  0.00     0.091 A 
ATOM     96  F   UNL     1       4.463  18.773   9.348  1.00  0.00    -0.205 F 
ATOM     97  C   UNL     1       5.268  17.953  12.825  1.00  0.00     0.022 A 
BRANCH  95  98
ATOM     98  S   UNL     1       4.709  20.474  11.920  1.00  0.00     0.127 S 
ATOM     99  O   UNL     1       3.526  20.524  12.779  1.00  0.00    -0.237 OA
ATOM    100  O   UNL     1       5.959  20.851  12.579  1.00  0.00    -0.237 OA
ATOM    101  O   UNL     1       4.527  21.037  10.588  1.00  0.00    -0.744 OA
ENDBRANCH  95  98
ENDBRANCH  68  91
ENDBRANCH  42  43
ENDBRANCH  35  37
ENDBRANCH  34  35
ENDBRANCH  33  34
ENDBRANCH   1  33
TORSDOF 18
