REMARK SMILES Cc1ccccc1/C=C1\SC(=O)N(CC(=O)Nc2ccccc2C(=O)OCCOCCOC(=O)c2ccc(-c3c4nc(c(-c5cccc(S(=O)(=O)[O-])c5F)c5ccc([nH]5)c(-c5cccc(S(=O)(=O)[O-])c5F)c5nc(c(-c6cccc(S(=O)(=O)[O-])c6F)c6ccc3[nH]6)C=C5)C=C4)cc2)C1=O
REMARK SMILES IDX 28 1 27 2 26 3 24 4 25 5 23 6 18 7 19 8 20 9 22 10 21 11
REMARK SMILES IDX 17 12 15 13 16 14 14 16 13 17 8 18 9 19 10 20 98 21 11 22
REMARK SMILES IDX 99 23 12 24 7 25 1 26 2 27 3 28 4 29 6 30 5 31 29 32 30 33
REMARK SMILES IDX 31 34 32 35 33 36 34 37 35 38 36 39 97 40 37 41 96 42 38 43
REMARK SMILES IDX 39 44 40 45 90 46 41 47 95 48 89 49 91 50 42 51 94 52 88 53
REMARK SMILES IDX 87 54 43 56 75 57 55 58 74 59 56 60 59 61 73 62 92 63 57 64
REMARK SMILES IDX 58 65 72 67 93 68 60 69 44 70 45 71 53 72 46 73 48 74 54 75
REMARK SMILES IDX 47 76 49 77 50 78 51 79 52 80 76 81 77 82 85 83 78 84 80 85
REMARK SMILES IDX 86 86 79 87 81 88 82 89 83 90 84 91 61 92 62 93 70 94 63 95
REMARK SMILES IDX 65 96 71 97 64 98 66 99 67 100 68 101 69 102
REMARK H PARENT 17 15 91 55 59 66
REMARK Flexibility Score: inf
ROOT
ATOM      1  C   UNL     1       5.587   2.947  -2.197  1.00  0.00     0.202 C 
ENDROOT
BRANCH   1   2
ATOM      2  C   UNL     1       4.141   2.199  -2.415  1.00  0.00     0.261 C 
BRANCH   2   3
ATOM      3  O   UNL     1       2.404   2.900  -3.179  1.00  0.00    -0.460 OA
BRANCH   3   4
ATOM      4  C   UNL     1       1.580   3.849  -3.978  1.00  0.00     0.340 C 
ATOM      5  O   UNL     1       0.631   4.440  -3.488  1.00  0.00    -0.246 OA
BRANCH   4   6
ATOM      6  C   UNL     1       1.856   4.311  -5.343  1.00  0.00     0.083 A 
ATOM      7  C   UNL     1       2.140   5.665  -5.601  1.00  0.00     0.055 A 
ATOM      8  C   UNL     1       2.170   6.123  -6.919  1.00  0.00     0.027 A 
ATOM      9  C   UNL     1       1.964   5.229  -7.968  1.00  0.00     0.002 A 
ATOM     10  C   UNL     1       1.527   3.450  -6.390  1.00  0.00     0.018 A 
ATOM     11  C   UNL     1       1.627   3.901  -7.703  1.00  0.00     0.001 A 
BRANCH   7  12
ATOM     12  N   UNL     1       2.384   6.623  -4.610  1.00  0.00    -0.324 N 
ATOM     13  C   UNL     1       3.264   6.540  -3.568  1.00  0.00     0.244 C 
ATOM     14  O   UNL     1       3.445   7.559  -2.891  1.00  0.00    -0.273 OA
ATOM     15  H   UNL     1       1.861   7.454  -4.670  1.00  0.00     0.170 HD
BRANCH  13  16
ATOM     16  C   UNL     1       4.248   5.370  -3.488  1.00  0.00     0.230 C 
BRANCH  16  17
ATOM     17  N   UNL     1       3.791   4.013  -3.193  1.00  0.00    -0.259 N 
ATOM     18  C   UNL     1       1.440   1.113  -0.501  1.00  0.00     0.029 C 
ATOM     19  C   UNL     1       2.199   1.792  -1.592  1.00  0.00     0.083 C 
ATOM     20  S   UNL     1       2.569   0.946  -3.670  1.00  0.00    -0.022 SA
ATOM     21  C   UNL     1       2.897   3.687  -1.656  1.00  0.00     0.268 C 
ATOM     22  C   UNL     1       3.822   2.735  -4.394  1.00  0.00     0.294 C 
ATOM     23  O   UNL     1       2.369   4.743  -1.253  1.00  0.00    -0.268 OA
ATOM     24  O   UNL     1       4.392   2.688  -5.487  1.00  0.00    -0.261 OA
BRANCH  18  25
ATOM     25  C   UNL     1       0.427  -0.033   0.460  1.00  0.00    -0.021 A 
ATOM     26  C   UNL     1       1.171  -2.712   0.682  1.00  0.00     0.045 C 
ATOM     27  C   UNL     1       0.255  -1.497   0.746  1.00  0.00    -0.044 A 
ATOM     28  C   UNL     1      -1.058  -2.054   1.064  1.00  0.00     0.004 A 
ATOM     29  C   UNL     1      -2.184  -1.292   1.254  1.00  0.00     0.000 A 
ATOM     30  C   UNL     1      -0.758   0.666   0.895  1.00  0.00     0.008 A 
ATOM     31  C   UNL     1      -2.008   0.070   1.257  1.00  0.00     0.001 A 
ENDBRANCH  18  25
ENDBRANCH  16  17
ENDBRANCH  13  16
ENDBRANCH   7  12
ENDBRANCH   4   6
ENDBRANCH   3   4
ENDBRANCH   2   3
ENDBRANCH   1   2
BRANCH   1  32
ATOM     32  O   UNL     1       5.497   3.998  -1.243  1.00  0.00    -0.374 OA
BRANCH  32  33
ATOM     33  C   UNL     1       6.738   4.624  -0.952  1.00  0.00     0.202 C 
BRANCH  33  34
ATOM     34  C   UNL     1       7.562   3.728  -0.034  1.00  0.00     0.261 C 
BRANCH  34  35
ATOM     35  O   UNL     1       6.966   3.753   1.291  1.00  0.00    -0.460 OA
BRANCH  35  36
ATOM     36  C   UNL     1       6.131   2.735   1.664  1.00  0.00     0.338 C 
ATOM     37  O   UNL     1       6.537   1.639   2.015  1.00  0.00    -0.246 OA
BRANCH  36  38
ATOM     38  C   UNL     1       4.690   3.174   1.732  1.00  0.00     0.060 A 
ATOM     39  C   UNL     1       3.647   2.304   2.067  1.00  0.00     0.016 A 
ATOM     40  C   UNL     1       4.329   4.469   1.408  1.00  0.00     0.016 A 
ATOM     41  C   UNL     1       2.278   2.694   1.925  1.00  0.00     0.010 A 
ATOM     42  C   UNL     1       2.990   4.776   1.127  1.00  0.00     0.010 A 
ATOM     43  C   UNL     1       1.920   3.849   1.216  1.00  0.00    -0.014 A 
BRANCH  43  44
ATOM     44  C   UNL     1       0.519   4.188   0.512  1.00  0.00     0.031 A 
ATOM     45  C   UNL     1      -0.194   5.224   1.273  1.00  0.00     0.074 A 
ATOM     46  C   UNL     1      -0.199   3.782  -0.632  1.00  0.00     0.049 A 
ATOM     47  N   UNL     1      -1.423   5.115   1.671  1.00  0.00    -0.248 NA
ATOM     48  C   UNL     1       0.521   6.376   1.827  1.00  0.00     0.031 C 
ATOM     49  C   UNL     1      -1.287   4.480  -1.338  1.00  0.00     0.029 A 
ATOM     50  N   UNL     1      -0.033   2.732  -1.573  1.00  0.00    -0.354 N 
ATOM     51  C   UNL     1      -1.695   6.366   2.178  1.00  0.00     0.074 A 
ATOM     52  C   UNL     1      -0.424   6.851   2.627  1.00  0.00     0.031 C 
ATOM     53  C   UNL     1      -1.763   3.748  -2.382  1.00  0.00     0.029 A 
ATOM     54  C   UNL     1      -1.089   2.438  -2.427  1.00  0.00     0.049 A 
ATOM     55  H   UNL     1       0.809   2.225  -1.619  1.00  0.00     0.167 HD
ATOM     56  C   UNL     1      -2.743   7.097   1.696  1.00  0.00     0.034 A 
ATOM     57  C   UNL     1      -1.541   1.201  -2.855  1.00  0.00     0.034 A 
ATOM     58  C   UNL     1      -3.514   6.346   0.665  1.00  0.00     0.049 A 
ATOM     59  C   UNL     1      -2.965   1.198  -2.179  1.00  0.00     0.074 A 
ATOM     60  C   UNL     1      -3.804   6.591  -0.672  1.00  0.00     0.029 A 
ATOM     61  N   UNL     1      -3.908   5.020   0.885  1.00  0.00    -0.354 N 
ATOM     62  N   UNL     1      -3.325   2.183  -1.385  1.00  0.00    -0.248 NA
ATOM     63  C   UNL     1      -4.086   0.263  -2.294  1.00  0.00     0.031 C 
ATOM     64  C   UNL     1      -4.397   5.425  -1.235  1.00  0.00     0.029 A 
ATOM     65  C   UNL     1      -4.457   4.445  -0.256  1.00  0.00     0.049 A 
ATOM     66  H   UNL     1      -3.809   4.551   1.745  1.00  0.00     0.167 HD
ATOM     67  C   UNL     1      -4.608   2.123  -0.966  1.00  0.00     0.074 A 
ATOM     68  C   UNL     1      -5.039   0.847  -1.518  1.00  0.00     0.031 C 
ATOM     69  C   UNL     1      -5.138   3.142  -0.209  1.00  0.00     0.034 A 
BRANCH  56  70
ATOM     70  C   UNL     1      -2.822   8.630   1.868  1.00  0.00     0.023 A 
ATOM     71  C   UNL     1      -3.772   9.317   1.087  1.00  0.00     0.012 A 
ATOM     72  C   UNL     1      -2.047   9.463   2.725  1.00  0.00     0.148 A 
ATOM     73  C   UNL     1      -3.865  10.716   1.056  1.00  0.00     0.002 A 
ATOM     74  C   UNL     1      -2.091  10.861   2.652  1.00  0.00     0.091 A 
ATOM     75  F   UNL     1      -1.349   8.941   3.735  1.00  0.00    -0.205 F 
ATOM     76  C   UNL     1      -2.999  11.492   1.810  1.00  0.00     0.022 A 
BRANCH  74  77
ATOM     77  S   UNL     1      -0.977  11.911   3.612  1.00  0.00     0.127 S 
ATOM     78  O   UNL     1      -0.594  12.939   2.640  1.00  0.00    -0.237 OA
ATOM     79  O   UNL     1      -1.844  12.390   4.686  1.00  0.00    -0.237 OA
ATOM     80  O   UNL     1       0.129  11.055   4.026  1.00  0.00    -0.744 OA
ENDBRANCH  74  77
ENDBRANCH  56  70
BRANCH  57  81
ATOM     81  C   UNL     1      -0.551  -0.043  -3.166  1.00  0.00     0.023 A 
ATOM     82  C   UNL     1      -0.268  -0.720  -4.377  1.00  0.00     0.012 A 
ATOM     83  C   UNL     1       0.216  -0.616  -2.130  1.00  0.00     0.148 A 
ATOM     84  C   UNL     1       0.779  -1.742  -4.491  1.00  0.00     0.002 A 
ATOM     85  C   UNL     1       1.431  -1.459  -2.243  1.00  0.00     0.091 A 
ATOM     86  F   UNL     1      -0.738  -1.063  -1.300  1.00  0.00    -0.205 F 
ATOM     87  C   UNL     1       1.659  -2.069  -3.450  1.00  0.00     0.022 A 
BRANCH  85  88
ATOM     88  S   UNL     1       3.225  -1.417  -1.162  1.00  0.00     0.127 S 
ATOM     89  O   UNL     1       3.605  -2.830  -1.218  1.00  0.00    -0.237 OA
ATOM     90  O   UNL     1       4.138  -0.582  -1.930  1.00  0.00    -0.237 OA
ATOM     91  O   UNL     1       3.002  -0.913   0.185  1.00  0.00    -0.744 OA
ENDBRANCH  85  88
ENDBRANCH  57  81
BRANCH  69  92
ATOM     92  C   UNL     1      -6.399   3.089   0.631  1.00  0.00     0.023 A 
ATOM     93  C   UNL     1      -6.944   1.872   1.062  1.00  0.00     0.012 A 
ATOM     94  C   UNL     1      -6.948   4.280   1.198  1.00  0.00     0.148 A 
ATOM     95  C   UNL     1      -7.992   1.836   1.991  1.00  0.00     0.002 A 
ATOM     96  C   UNL     1      -7.897   4.230   2.208  1.00  0.00     0.091 A 
ATOM     97  F   UNL     1      -6.576   5.485   0.744  1.00  0.00    -0.205 F 
ATOM     98  C   UNL     1      -8.445   3.009   2.588  1.00  0.00     0.022 A 
BRANCH  96  99
ATOM     99  S   UNL     1      -8.321   5.702   3.156  1.00  0.00     0.127 S 
ATOM    100  O   UNL     1      -9.524   6.166   2.470  1.00  0.00    -0.237 OA
ATOM    101  O   UNL     1      -8.556   5.152   4.493  1.00  0.00    -0.237 OA
ATOM    102  O   UNL     1      -7.154   6.568   3.067  1.00  0.00    -0.744 OA
ENDBRANCH  96  99
ENDBRANCH  69  92
ENDBRANCH  43  44
ENDBRANCH  36  38
ENDBRANCH  35  36
ENDBRANCH  34  35
ENDBRANCH  33  34
ENDBRANCH  32  33
ENDBRANCH   1  32
TORSDOF 21
