REMARK SMILES C[C@H]1C[C@H](C)CN(S(=O)(=O)N[C@@H](CCC(N)=O)C(=O)OCCOCCOC(=O)c2ccc(-c3c4nc(c(-c5cccc(S(=O)(=O)[O-])c5F)c5ccc([nH]5)c(-c5cccc(S(=O)(=O)[O-])c5F)c5nc(c(-c6cccc(S(=O)(=O)[O-])c6F)c6ccc3[nH]6)C=C5)C=C4)cc2)C1
REMARK SMILES IDX 23 1 22 2 21 3 20 4 18 5 19 6 12 7 11 8 8 10 9 11 10 12 7 13
REMARK SMILES IDX 1 14 2 15 3 16 92 17 4 18 5 19 6 20 13 21 14 22 15 23 16 24
REMARK SMILES IDX 17 25 24 28 25 29 26 30 27 31 28 32 29 33 30 34 91 35 31 36
REMARK SMILES IDX 90 37 32 38 33 39 34 40 84 41 35 42 89 43 83 44 85 45 36 46
REMARK SMILES IDX 88 47 82 48 81 49 37 51 69 52 49 53 68 54 50 55 53 56 67 57
REMARK SMILES IDX 86 58 51 59 52 60 66 62 87 63 54 64 38 65 39 66 47 67 40 68
REMARK SMILES IDX 42 69 48 70 41 71 43 72 44 73 45 74 46 75 70 76 71 77 79 78
REMARK SMILES IDX 72 79 74 80 80 81 73 82 75 83 76 84 77 85 78 86 55 87 56 88
REMARK SMILES IDX 64 89 57 90 59 91 65 92 58 93 60 94 61 95 62 96 63 97
REMARK H PARENT 11 9 16 26 16 27 85 50 53 61
REMARK Flexibility Score: inf
ROOT
ATOM      1  O   UNL     1       8.150   4.152  -1.514  1.00  0.00    -0.374 OA
ENDROOT
BRANCH   1   2
ATOM      2  C   UNL     1       8.374   5.233  -2.410  1.00  0.00     0.202 C 
BRANCH   2   3
ATOM      3  C   UNL     1       7.600   5.259  -3.732  1.00  0.00     0.261 C 
BRANCH   3   4
ATOM      4  O   UNL     1       6.204   4.961  -3.598  1.00  0.00    -0.462 OA
BRANCH   4   5
ATOM      5  C   UNL     1       5.782   3.836  -4.231  1.00  0.00     0.324 C 
ATOM      6  O   UNL     1       6.508   3.054  -4.839  1.00  0.00    -0.250 OA
BRANCH   5   7
ATOM      7  C   UNL     1       4.273   3.638  -4.159  1.00  0.00     0.181 C 
BRANCH   7   8
ATOM      8  N   UNL     1       3.639   4.085  -2.884  1.00  0.00    -0.188 NA
ATOM      9  H   UNL     1       4.193   3.680  -2.130  1.00  0.00     0.143 HD
BRANCH   8  10
ATOM     10  S   UNL     1       2.042   3.741  -2.532  1.00  0.00     0.280 S 
ATOM     11  O   UNL     1       1.285   3.786  -3.756  1.00  0.00    -0.195 OA
ATOM     12  O   UNL     1       1.677   4.576  -1.409  1.00  0.00    -0.195 OA
BRANCH  10  13
ATOM     13  N   UNL     1       1.998   2.123  -1.968  1.00  0.00    -0.188 NA
ATOM     14  C   UNL     1      -1.038  -0.217  -1.341  1.00  0.00     0.009 C 
ATOM     15  C   UNL     1       0.419   0.257  -1.293  1.00  0.00     0.001 C 
ATOM     16  C   UNL     1       1.306  -0.737  -2.046  1.00  0.00     0.009 C 
ATOM     17  C   UNL     1       0.560   1.666  -1.883  1.00  0.00     0.106 C 
ATOM     18  C   UNL     1       2.756  -0.268  -2.092  1.00  0.00     0.001 C 
ATOM     19  C   UNL     1       3.441  -0.367  -0.726  1.00  0.00     0.009 C 
ATOM     20  C   UNL     1       2.848   1.144  -2.675  1.00  0.00     0.106 C 
ENDBRANCH  10  13
ENDBRANCH   8  10
ENDBRANCH   7   8
BRANCH   7  21
ATOM     21  C   UNL     1       3.621   4.111  -5.463  1.00  0.00     0.042 C 
BRANCH  21  22
ATOM     22  C   UNL     1       3.286   5.594  -5.585  1.00  0.00     0.102 C 
BRANCH  22  23
ATOM     23  C   UNL     1       4.508   6.473  -5.593  1.00  0.00     0.217 C 
ATOM     24  N   UNL     1       5.309   6.352  -6.687  1.00  0.00    -0.370 N 
ATOM     25  O   UNL     1       4.804   7.204  -4.656  1.00  0.00    -0.275 OA
ATOM     26  H   UNL     1       5.046   5.756  -7.426  1.00  0.00     0.159 HD
ATOM     27  H   UNL     1       6.151   6.859  -6.740  1.00  0.00     0.159 HD
ENDBRANCH  22  23
ENDBRANCH  21  22
ENDBRANCH   7  21
ENDBRANCH   5   7
ENDBRANCH   4   5
ENDBRANCH   3   4
ENDBRANCH   2   3
ENDBRANCH   1   2
BRANCH   1  28
ATOM     28  C   UNL     1       6.848   3.994  -0.955  1.00  0.00     0.202 C 
BRANCH  28  29
ATOM     29  C   UNL     1       6.220   5.141  -0.144  1.00  0.00     0.261 C 
BRANCH  29  30
ATOM     30  O   UNL     1       6.113   6.396  -0.839  1.00  0.00    -0.460 OA
BRANCH  30  31
ATOM     31  C   UNL     1       6.881   7.392  -0.327  1.00  0.00     0.338 C 
ATOM     32  O   UNL     1       7.665   7.310   0.606  1.00  0.00    -0.246 OA
BRANCH  31  33
ATOM     33  C   UNL     1       6.775   8.614  -1.140  1.00  0.00     0.060 A 
ATOM     34  C   UNL     1       7.899   9.035  -1.861  1.00  0.00     0.016 A 
ATOM     35  C   UNL     1       5.646   9.427  -1.046  1.00  0.00     0.016 A 
ATOM     36  C   UNL     1       7.910  10.291  -2.466  1.00  0.00     0.010 A 
ATOM     37  C   UNL     1       5.660  10.687  -1.653  1.00  0.00     0.010 A 
ATOM     38  C   UNL     1       6.803  11.140  -2.336  1.00  0.00    -0.014 A 
BRANCH  38  39
ATOM     39  C   UNL     1       6.878  12.536  -2.834  1.00  0.00     0.031 A 
ATOM     40  C   UNL     1       7.019  13.671  -1.856  1.00  0.00     0.074 A 
ATOM     41  C   UNL     1       6.805  12.789  -4.152  1.00  0.00     0.049 A 
ATOM     42  N   UNL     1       7.047  14.959  -2.081  1.00  0.00    -0.248 NA
ATOM     43  C   UNL     1       7.137  13.305  -0.436  1.00  0.00     0.031 C 
ATOM     44  C   UNL     1       6.665  11.775  -5.196  1.00  0.00     0.029 A 
ATOM     45  N   UNL     1       6.807  13.980  -4.835  1.00  0.00    -0.354 N 
ATOM     46  C   UNL     1       7.147  15.561  -0.832  1.00  0.00     0.074 A 
ATOM     47  C   UNL     1       7.165  14.495   0.147  1.00  0.00     0.031 C 
ATOM     48  C   UNL     1       6.563  12.388  -6.386  1.00  0.00     0.029 A 
ATOM     49  C   UNL     1       6.593  13.835  -6.184  1.00  0.00     0.049 A 
ATOM     50  H   UNL     1       6.949  14.852  -4.400  1.00  0.00     0.167 HD
ATOM     51  C   UNL     1       7.226  16.879  -0.528  1.00  0.00     0.034 A 
ATOM     52  C   UNL     1       6.404  14.762  -7.143  1.00  0.00     0.034 A 
ATOM     53  C   UNL     1       7.213  17.935  -1.507  1.00  0.00     0.049 A 
ATOM     54  C   UNL     1       6.468  16.222  -6.781  1.00  0.00     0.074 A 
ATOM     55  C   UNL     1       7.344  19.298  -1.305  1.00  0.00     0.029 A 
ATOM     56  N   UNL     1       7.036  17.750  -2.870  1.00  0.00    -0.354 N 
ATOM     57  N   UNL     1       6.681  16.775  -5.612  1.00  0.00    -0.248 NA
ATOM     58  C   UNL     1       6.296  17.186  -7.877  1.00  0.00     0.031 C 
ATOM     59  C   UNL     1       7.200  19.939  -2.541  1.00  0.00     0.029 A 
ATOM     60  C   UNL     1       7.030  18.974  -3.520  1.00  0.00     0.049 A 
ATOM     61  H   UNL     1       6.929  16.877  -3.312  1.00  0.00     0.167 HD
ATOM     62  C   UNL     1       6.701  18.147  -5.834  1.00  0.00     0.074 A 
ATOM     63  C   UNL     1       6.498  18.340  -7.255  1.00  0.00     0.031 C 
ATOM     64  C   UNL     1       6.864  19.156  -4.941  1.00  0.00     0.034 A 
BRANCH  51  65
ATOM     65  C   UNL     1       7.336  17.253   0.930  1.00  0.00     0.023 A 
ATOM     66  C   UNL     1       8.514  16.958   1.646  1.00  0.00     0.012 A 
ATOM     67  C   UNL     1       6.284  17.926   1.583  1.00  0.00     0.148 A 
ATOM     68  C   UNL     1       8.625  17.281   2.999  1.00  0.00     0.002 A 
ATOM     69  C   UNL     1       6.422  18.291   2.918  1.00  0.00     0.091 A 
ATOM     70  F   UNL     1       5.164  18.185   0.894  1.00  0.00    -0.205 F 
ATOM     71  C   UNL     1       7.584  17.955   3.631  1.00  0.00     0.022 A 
BRANCH  69  72
ATOM     72  S   UNL     1       5.173  19.235   3.798  1.00  0.00     0.127 S 
ATOM     73  O   UNL     1       4.629  18.229   4.709  1.00  0.00    -0.237 OA
ATOM     74  O   UNL     1       5.973  20.275   4.446  1.00  0.00    -0.237 OA
ATOM     75  O   UNL     1       4.250  19.725   2.783  1.00  0.00    -0.744 OA
ENDBRANCH  69  72
ENDBRANCH  51  65
BRANCH  52  76
ATOM     76  C   UNL     1       6.156  14.326  -8.546  1.00  0.00     0.023 A 
ATOM     77  C   UNL     1       7.142  14.541  -9.527  1.00  0.00     0.012 A 
ATOM     78  C   UNL     1       4.967  13.657  -8.899  1.00  0.00     0.148 A 
ATOM     79  C   UNL     1       6.939  14.119 -10.842  1.00  0.00     0.002 A 
ATOM     80  C   UNL     1       4.797  13.185 -10.194  1.00  0.00     0.091 A 
ATOM     81  F   UNL     1       4.039  13.472  -7.950  1.00  0.00    -0.205 F 
ATOM     82  C   UNL     1       5.773  13.431 -11.172  1.00  0.00     0.022 A 
BRANCH  80  83
ATOM     83  S   UNL     1       3.399  12.168 -10.678  1.00  0.00     0.127 S 
ATOM     84  O   UNL     1       2.738  13.017 -11.666  1.00  0.00    -0.237 OA
ATOM     85  O   UNL     1       4.067  10.987 -11.227  1.00  0.00    -0.237 OA
ATOM     86  O   UNL     1       2.643  11.920  -9.458  1.00  0.00    -0.744 OA
ENDBRANCH  80  83
ENDBRANCH  52  76
BRANCH  64  87
ATOM     87  C   UNL     1       6.870  20.568  -5.472  1.00  0.00     0.023 A 
ATOM     88  C   UNL     1       5.678  21.152  -5.945  1.00  0.00     0.012 A 
ATOM     89  C   UNL     1       8.049  21.340  -5.439  1.00  0.00     0.148 A 
ATOM     90  C   UNL     1       5.668  22.467  -6.412  1.00  0.00     0.002 A 
ATOM     91  C   UNL     1       8.020  22.666  -5.855  1.00  0.00     0.091 A 
ATOM     92  F   UNL     1       9.178  20.764  -5.001  1.00  0.00    -0.205 F 
ATOM     93  C   UNL     1       6.834  23.226  -6.356  1.00  0.00     0.022 A 
BRANCH  91  94
ATOM     94  S   UNL     1       9.447  23.750  -5.731  1.00  0.00     0.127 S 
ATOM     95  O   UNL     1       9.801  23.938  -7.137  1.00  0.00    -0.237 OA
ATOM     96  O   UNL     1       8.881  24.932  -5.081  1.00  0.00    -0.237 OA
ATOM     97  O   UNL     1      10.431  23.032  -4.932  1.00  0.00    -0.744 OA
ENDBRANCH  91  94
ENDBRANCH  64  87
ENDBRANCH  38  39
ENDBRANCH  31  33
ENDBRANCH  30  31
ENDBRANCH  29  30
ENDBRANCH  28  29
ENDBRANCH   1  28
TORSDOF 23
