REMARK SMILES NC(=O)[C@@H]1CCC[N@@H+]1[C@@H](C(=O)OCCOCCOC(=O)c1ccc(-c2c3nc(c(-c4cccc(S(=O)(=O)[O-])c4F)c4ccc([nH]4)c(-c4cccc(S(=O)(=O)[O-])c4F)c4nc(c(-c5cccc(S(=O)(=O)[O-])c5F)c5ccc2[nH]5)C=C4)C=C3)cc1)c1c[nH]c2cc(OCc3ccccc3)ccc12
REMARK SMILES IDX 14 1 13 2 12 3 10 4 11 5 9 6 8 7 4 8 5 9 6 10 7 11 2 13 1 14
REMARK SMILES IDX 3 17 84 18 85 19 100 20 86 21 87 22 99 23 88 25 98 26 89 27
REMARK SMILES IDX 90 28 91 29 92 30 93 31 97 32 94 33 96 34 95 35 15 36 16 37
REMARK SMILES IDX 17 38 18 39 19 40 20 41 21 42 22 43 83 44 23 45 82 46 24 47
REMARK SMILES IDX 25 48 26 49 76 50 27 51 81 52 75 53 77 54 28 55 80 56 74 57
REMARK SMILES IDX 73 58 29 60 61 61 41 62 60 63 42 64 45 65 59 66 78 67 43 68
REMARK SMILES IDX 44 69 58 71 79 72 46 73 30 74 31 75 39 76 32 77 34 78 40 79
REMARK SMILES IDX 33 80 35 81 36 82 37 83 38 84 62 85 63 86 71 87 64 88 66 89
REMARK SMILES IDX 72 90 65 91 67 92 68 93 69 94 70 95 47 96 48 97 56 98 49 99
REMARK SMILES IDX 51 100 57 101 50 102 52 103 53 104 54 105 55 106
REMARK H PARENT 8 12 1 15 1 16 86 24 77 59 45 70
REMARK Flexibility Score: inf
ROOT
ATOM      1  C   UNL     1       4.378   1.832   1.994  1.00  0.00     0.202 C 
ENDROOT
BRANCH   1   2
ATOM      2  C   UNL     1       2.897   2.072   2.311  1.00  0.00     0.261 C 
BRANCH   2   3
ATOM      3  O   UNL     1       2.233   2.690   1.186  1.00  0.00    -0.459 OA
BRANCH   3   4
ATOM      4  C   UNL     1       1.478   3.805   1.425  1.00  0.00     0.370 C 
ATOM      5  O   UNL     1       1.433   4.368   2.517  1.00  0.00    -0.245 OA
BRANCH   4   6
ATOM      6  C   UNL     1       0.668   4.261   0.201  1.00  0.00     0.329 C 
BRANCH   6   7
ATOM      7  N   UNL     1       0.895   3.520  -1.075  1.00  0.00    -0.309 N 
ATOM      8  C   UNL     1       0.600   2.094  -1.287  1.00  0.00     0.275 C 
ATOM      9  C   UNL     1       1.898   1.568  -1.902  1.00  0.00     0.081 C 
ATOM     10  C   UNL     1       2.359   2.714  -2.776  1.00  0.00     0.068 C 
ATOM     11  C   UNL     1       1.937   3.947  -2.000  1.00  0.00     0.264 C 
ATOM     12  H   UNL     1      -0.003   3.966  -1.260  1.00  0.00     0.349 HD
BRANCH   8  13
ATOM     13  C   UNL     1       0.060   1.302  -0.091  1.00  0.00     0.275 C 
ATOM     14  N   UNL     1       0.488   0.013   0.043  1.00  0.00    -0.365 N 
ATOM     15  H   UNL     1       0.169  -0.536   0.795  1.00  0.00     0.159 HD
ATOM     16  H   UNL     1       1.116  -0.368  -0.613  1.00  0.00     0.159 HD
ATOM     17  O   UNL     1      -0.772   1.745   0.698  1.00  0.00    -0.268 OA
ENDBRANCH   8  13
ENDBRANCH   6   7
BRANCH   6  18
ATOM     18  C   UNL     1       0.776   5.763  -0.125  1.00  0.00     0.046 A 
ATOM     19  C   UNL     1      -0.241   6.443  -0.783  1.00  0.00     0.094 A 
ATOM     20  C   UNL     1       1.929   6.626  -0.234  1.00  0.00     0.009 A 
ATOM     21  N   UNL     1       0.375   7.281  -1.674  1.00  0.00    -0.361 N 
ATOM     22  C   UNL     1       1.728   7.281  -1.448  1.00  0.00     0.050 A 
ATOM     23  C   UNL     1       3.199   6.767   0.363  1.00  0.00     0.015 A 
ATOM     24  H   UNL     1      -0.083   7.804  -2.371  1.00  0.00     0.166 HD
ATOM     25  C   UNL     1       2.787   7.733  -2.236  1.00  0.00     0.073 A 
ATOM     26  C   UNL     1       4.262   7.350  -0.363  1.00  0.00     0.047 A 
ATOM     27  C   UNL     1       4.072   7.730  -1.686  1.00  0.00     0.121 A 
BRANCH  27  28
ATOM     28  O   UNL     1       5.061   8.038  -2.579  1.00  0.00    -0.489 OA
BRANCH  28  29
ATOM     29  C   UNL     1       6.119   8.899  -2.156  1.00  0.00     0.265 C 
BRANCH  29  30
ATOM     30  C   UNL     1       5.844  10.357  -2.472  1.00  0.00    -0.011 A 
ATOM     31  C   UNL     1       6.912  11.263  -2.540  1.00  0.00     0.007 A 
ATOM     32  C   UNL     1       4.546  10.854  -2.657  1.00  0.00     0.007 A 
ATOM     33  C   UNL     1       6.681  12.620  -2.786  1.00  0.00     0.000 A 
ATOM     34  C   UNL     1       4.312  12.205  -2.902  1.00  0.00     0.000 A 
ATOM     35  C   UNL     1       5.381  13.090  -2.963  1.00  0.00     0.000 A 
ENDBRANCH  29  30
ENDBRANCH  28  29
ENDBRANCH  27  28
ENDBRANCH   6  18
ENDBRANCH   4   6
ENDBRANCH   3   4
ENDBRANCH   2   3
ENDBRANCH   1   2
BRANCH   1  36
ATOM     36  O   UNL     1       5.252   2.959   2.135  1.00  0.00    -0.374 OA
BRANCH  36  37
ATOM     37  C   UNL     1       4.939   4.105   1.356  1.00  0.00     0.202 C 
BRANCH  37  38
ATOM     38  C   UNL     1       5.396   4.111  -0.106  1.00  0.00     0.261 C 
BRANCH  38  39
ATOM     39  O   UNL     1       5.348   2.828  -0.718  1.00  0.00    -0.460 OA
BRANCH  39  40
ATOM     40  C   UNL     1       6.552   2.227  -0.772  1.00  0.00     0.338 C 
ATOM     41  O   UNL     1       7.646   2.711  -0.495  1.00  0.00    -0.246 OA
BRANCH  40  42
ATOM     42  C   UNL     1       6.354   0.808  -1.053  1.00  0.00     0.060 A 
ATOM     43  C   UNL     1       6.882  -0.095  -0.128  1.00  0.00     0.016 A 
ATOM     44  C   UNL     1       5.704   0.370  -2.211  1.00  0.00     0.016 A 
ATOM     45  C   UNL     1       6.821  -1.454  -0.392  1.00  0.00     0.010 A 
ATOM     46  C   UNL     1       5.639  -0.998  -2.472  1.00  0.00     0.010 A 
ATOM     47  C   UNL     1       6.239  -1.908  -1.585  1.00  0.00    -0.014 A 
BRANCH  47  48
ATOM     48  C   UNL     1       6.401  -3.330  -1.945  1.00  0.00     0.031 A 
ATOM     49  C   UNL     1       7.496  -3.720  -2.895  1.00  0.00     0.074 A 
ATOM     50  C   UNL     1       5.617  -4.263  -1.378  1.00  0.00     0.049 A 
ATOM     51  N   UNL     1       7.889  -4.914  -3.251  1.00  0.00    -0.248 NA
ATOM     52  C   UNL     1       8.253  -2.624  -3.524  1.00  0.00     0.031 C 
ATOM     53  C   UNL     1       4.518  -3.992  -0.452  1.00  0.00     0.029 A 
ATOM     54  N   UNL     1       5.628  -5.627  -1.502  1.00  0.00    -0.354 N 
ATOM     55  C   UNL     1       8.931  -4.716  -4.147  1.00  0.00     0.074 A 
ATOM     56  C   UNL     1       9.094  -3.288  -4.304  1.00  0.00     0.031 C 
ATOM     57  C   UNL     1       3.949  -5.158  -0.102  1.00  0.00     0.029 A 
ATOM     58  C   UNL     1       4.640  -6.252  -0.782  1.00  0.00     0.049 A 
ATOM     59  H   UNL     1       6.282  -6.113  -2.056  1.00  0.00     0.167 HD
ATOM     60  C   UNL     1       9.701  -5.642  -4.762  1.00  0.00     0.034 A 
ATOM     61  C   UNL     1       4.333  -7.559  -0.685  1.00  0.00     0.034 A 
ATOM     62  C   UNL     1       9.550  -7.060  -4.585  1.00  0.00     0.049 A 
ATOM     63  C   UNL     1       5.196  -8.568  -1.394  1.00  0.00     0.074 A 
ATOM     64  C   UNL     1      10.319  -8.080  -5.114  1.00  0.00     0.029 A 
ATOM     65  N   UNL     1       8.552  -7.659  -3.832  1.00  0.00    -0.354 N 
ATOM     66  N   UNL     1       6.276  -8.370  -2.112  1.00  0.00    -0.248 NA
ATOM     67  C   UNL     1       4.822  -9.982  -1.250  1.00  0.00     0.031 C 
ATOM     68  C   UNL     1       9.771  -9.298  -4.700  1.00  0.00     0.029 A 
ATOM     69  C   UNL     1       8.671  -9.036  -3.899  1.00  0.00     0.049 A 
ATOM     70  H   UNL     1       7.860  -7.176  -3.325  1.00  0.00     0.167 HD
ATOM     71  C   UNL     1       6.724  -9.633  -2.484  1.00  0.00     0.074 A 
ATOM     72  C   UNL     1       5.814 -10.590  -1.888  1.00  0.00     0.031 C 
ATOM     73  C   UNL     1       7.781  -9.972  -3.263  1.00  0.00     0.034 A 
BRANCH  60  74
ATOM     74  C   UNL     1      10.807  -5.148  -5.653  1.00  0.00     0.023 A 
ATOM     75  C   UNL     1      11.975  -4.611  -5.074  1.00  0.00     0.012 A 
ATOM     76  C   UNL     1      10.717  -5.266  -7.053  1.00  0.00     0.148 A 
ATOM     77  C   UNL     1      13.029  -4.178  -5.877  1.00  0.00     0.002 A 
ATOM     78  C   UNL     1      11.787  -4.866  -7.845  1.00  0.00     0.091 A 
ATOM     79  F   UNL     1       9.585  -5.751  -7.582  1.00  0.00    -0.205 F 
ATOM     80  C   UNL     1      12.939  -4.316  -7.260  1.00  0.00     0.022 A 
BRANCH  78  81
ATOM     81  S   UNL     1      11.792  -5.063  -9.630  1.00  0.00     0.127 S 
ATOM     82  O   UNL     1      11.642  -3.680 -10.079  1.00  0.00    -0.237 OA
ATOM     83  O   UNL     1      13.114  -5.643  -9.872  1.00  0.00    -0.237 OA
ATOM     84  O   UNL     1      10.677  -5.947  -9.938  1.00  0.00    -0.744 OA
ENDBRANCH  78  81
ENDBRANCH  60  74
BRANCH  61  85
ATOM     85  C   UNL     1       3.179  -7.987   0.152  1.00  0.00     0.023 A 
ATOM     86  C   UNL     1       3.405  -8.694   1.348  1.00  0.00     0.012 A 
ATOM     87  C   UNL     1       1.859  -7.669  -0.219  1.00  0.00     0.148 A 
ATOM     88  C   UNL     1       2.334  -9.101   2.145  1.00  0.00     0.002 A 
ATOM     89  C   UNL     1       0.801  -8.027   0.608  1.00  0.00     0.091 A 
ATOM     90  F   UNL     1       1.662  -7.014  -1.372  1.00  0.00    -0.205 F 
ATOM     91  C   UNL     1       1.034  -8.758   1.782  1.00  0.00     0.022 A 
BRANCH  89  92
ATOM     92  S   UNL     1      -0.882  -7.493   0.278  1.00  0.00     0.127 S 
ATOM     93  O   UNL     1      -1.485  -8.711  -0.254  1.00  0.00    -0.237 OA
ATOM     94  O   UNL     1      -1.346  -7.104   1.611  1.00  0.00    -0.237 OA
ATOM     95  O   UNL     1      -0.756  -6.380  -0.654  1.00  0.00    -0.744 OA
ENDBRANCH  89  92
ENDBRANCH  61  85
BRANCH  73  96
ATOM     96  C   UNL     1       8.018 -11.437  -3.516  1.00  0.00     0.023 A 
ATOM     97  C   UNL     1       7.166 -12.134  -4.395  1.00  0.00     0.012 A 
ATOM     98  C   UNL     1       9.125 -12.102  -2.952  1.00  0.00     0.148 A 
ATOM     99  C   UNL     1       7.394 -13.478  -4.687  1.00  0.00     0.002 A 
ATOM    100  C   UNL     1       9.372 -13.429  -3.282  1.00  0.00     0.091 A 
ATOM    101  F   UNL     1       9.913 -11.426  -2.103  1.00  0.00    -0.205 F 
ATOM    102  C   UNL     1       8.503 -14.121  -4.141  1.00  0.00     0.022 A 
BRANCH 100 103
ATOM    103  S   UNL     1      10.826 -14.308  -2.699  1.00  0.00     0.127 S 
ATOM    104  O   UNL     1      10.257 -15.176  -1.671  1.00  0.00    -0.237 OA
ATOM    105  O   UNL     1      11.276 -15.005  -3.905  1.00  0.00    -0.237 OA
ATOM    106  O   UNL     1      11.745 -13.284  -2.219  1.00  0.00    -0.744 OA
ENDBRANCH 100 103
ENDBRANCH  73  96
ENDBRANCH  47  48
ENDBRANCH  40  42
ENDBRANCH  39  40
ENDBRANCH  38  39
ENDBRANCH  37  38
ENDBRANCH  36  37
ENDBRANCH   1  36
TORSDOF 23
