REMARK SMILES C[C@H](C(=O)OCCOCCOC(=O)c1ccc(-c2c3nc(c(-c4cccc(S(=O)(=O)[O-])c4F)c4ccc([nH]4)c(-c4cccc(S(=O)(=O)[O-])c4F)c4nc(c(-c5cccc(S(=O)(=O)[O-])c5F)c5ccc2[nH]5)C=C4)C=C3)cc1)[C@@H](C)[N@H+]1CCCSCC1
REMARK SMILES IDX 6 1 5 2 3 3 4 4 2 5 1 6 77 7 78 8 79 9 80 11 85 13 84 14
REMARK SMILES IDX 83 15 82 16 81 17 7 19 8 20 9 21 10 22 11 23 12 24 13 25
REMARK SMILES IDX 14 26 15 27 76 28 16 29 75 30 17 31 18 32 19 33 69 34 20 35
REMARK SMILES IDX 74 36 68 37 70 38 21 39 73 40 67 41 66 42 22 44 54 45 34 46
REMARK SMILES IDX 53 47 35 48 38 49 52 50 71 51 36 52 37 53 51 55 72 56 39 57
REMARK SMILES IDX 23 58 24 59 32 60 25 61 27 62 33 63 26 64 28 65 29 66 30 67
REMARK SMILES IDX 31 68 55 69 56 70 64 71 57 72 59 73 65 74 58 75 60 76 61 77
REMARK SMILES IDX 62 78 63 79 40 80 41 81 49 82 42 83 44 84 50 85 43 86 45 87
REMARK SMILES IDX 46 88 47 89 48 90
REMARK H PARENT 79 10 70 43 38 54
REMARK Flexibility Score: 80.00
ROOT
ATOM      1  C   UNL     1       1.551  -1.786  -0.739  1.00  0.00     0.261 C 
ENDROOT
BRANCH   1   2
ATOM      2  O   UNL     1       0.769  -0.844   0.011  1.00  0.00    -0.463 OA
BRANCH   2   3
ATOM      3  C   UNL     1       1.378  -0.280   1.081  1.00  0.00     0.314 C 
ATOM      4  O   UNL     1       2.441  -0.662   1.556  1.00  0.00    -0.252 OA
BRANCH   3   5
ATOM      5  C   UNL     1       0.713   1.036   1.480  1.00  0.00     0.154 C 
ATOM      6  C   UNL     1       1.445   2.115   0.654  1.00  0.00     0.026 C 
BRANCH   5   7
ATOM      7  C   UNL     1      -0.863   1.087   1.384  1.00  0.00     0.195 C 
ATOM      8  C   UNL     1      -1.434  -0.261   1.900  1.00  0.00     0.076 C 
BRANCH   7   9
ATOM      9  N   UNL     1      -1.525   2.213   2.144  1.00  0.00    -0.331 N 
ATOM     10  H   UNL     1      -1.440   1.927   3.120  1.00  0.00     0.348 HD
BRANCH   9  11
ATOM     11  C   UNL     1      -0.841   3.509   2.051  1.00  0.00     0.263 CG0
ATOM     12  G   UNL     1      -1.376   4.691   2.875  1.00  0.00     0.000 G0
ENDBRANCH   9  11
BRANCH   9  13
ATOM     13  C   UNL     1      -2.967   2.348   1.823  1.00  0.00     0.273 C 
BRANCH  13  14
ATOM     14  C   UNL     1      -3.767   2.862   3.031  1.00  0.00     0.131 C 
BRANCH  14  15
ATOM     15  S   UNL     1      -4.186   4.634   2.970  1.00  0.00    -0.156 SA
BRANCH  15  16
ATOM     16  C   UNL     1      -2.641   5.331   2.326  1.00  0.00     0.075 C 
BRANCH  16  17
ATOM     17  C   UNL     1      -1.376   4.691   2.875  1.00  0.00     0.072 CG0
ATOM     18  G   UNL     1      -0.841   3.509   2.051  1.00  0.00     0.000 G0
ENDBRANCH  16  17
ENDBRANCH  15  16
ENDBRANCH  14  15
ENDBRANCH  13  14
ENDBRANCH   9  13
ENDBRANCH   7   9
ENDBRANCH   5   7
ENDBRANCH   3   5
ENDBRANCH   2   3
ENDBRANCH   1   2
BRANCH   1  19
ATOM     19  C   UNL     1       1.067  -1.772  -2.191  1.00  0.00     0.202 C 
BRANCH  19  20
ATOM     20  O   UNL     1       1.363  -0.577  -2.925  1.00  0.00    -0.374 OA
BRANCH  20  21
ATOM     21  C   UNL     1       0.658   0.609  -2.561  1.00  0.00     0.202 C 
BRANCH  21  22
ATOM     22  C   UNL     1      -0.762   0.770  -3.113  1.00  0.00     0.261 C 
BRANCH  22  23
ATOM     23  O   UNL     1      -1.652  -0.258  -2.651  1.00  0.00    -0.460 OA
BRANCH  23  24
ATOM     24  C   UNL     1      -1.984  -1.171  -3.595  1.00  0.00     0.338 C 
ATOM     25  O   UNL     1      -1.661  -1.158  -4.777  1.00  0.00    -0.246 OA
BRANCH  24  26
ATOM     26  C   UNL     1      -2.668  -2.321  -2.981  1.00  0.00     0.060 A 
ATOM     27  C   UNL     1      -2.163  -3.595  -3.270  1.00  0.00     0.016 A 
ATOM     28  C   UNL     1      -3.823  -2.172  -2.209  1.00  0.00     0.016 A 
ATOM     29  C   UNL     1      -2.843  -4.729  -2.837  1.00  0.00     0.010 A 
ATOM     30  C   UNL     1      -4.509  -3.314  -1.781  1.00  0.00     0.010 A 
ATOM     31  C   UNL     1      -4.044  -4.596  -2.128  1.00  0.00    -0.014 A 
BRANCH  31  32
ATOM     32  C   UNL     1      -4.877  -5.798  -1.883  1.00  0.00     0.031 A 
ATOM     33  C   UNL     1      -6.051  -6.068  -2.784  1.00  0.00     0.074 A 
ATOM     34  C   UNL     1      -4.577  -6.650  -0.887  1.00  0.00     0.049 A 
ATOM     35  N   UNL     1      -6.905  -7.057  -2.755  1.00  0.00    -0.248 NA
ATOM     36  C   UNL     1      -6.295  -5.095  -3.862  1.00  0.00     0.031 C 
ATOM     37  C   UNL     1      -3.462  -6.498   0.046  1.00  0.00     0.029 A 
ATOM     38  N   UNL     1      -5.199  -7.805  -0.486  1.00  0.00    -0.354 N 
ATOM     39  C   UNL     1      -7.801  -6.816  -3.789  1.00  0.00     0.074 A 
ATOM     40  C   UNL     1      -7.395  -5.579  -4.421  1.00  0.00     0.031 C 
ATOM     41  C   UNL     1      -3.496  -7.508   0.932  1.00  0.00     0.029 A 
ATOM     42  C   UNL     1      -4.643  -8.366   0.639  1.00  0.00     0.049 A 
ATOM     43  H   UNL     1      -5.970  -8.195  -0.958  1.00  0.00     0.167 HD
ATOM     44  C   UNL     1      -8.854  -7.565  -4.191  1.00  0.00     0.034 A 
ATOM     45  C   UNL     1      -5.028  -9.438   1.359  1.00  0.00     0.034 A 
ATOM     46  C   UNL     1      -9.243  -8.806  -3.578  1.00  0.00     0.049 A 
ATOM     47  C   UNL     1      -6.217 -10.243   0.903  1.00  0.00     0.074 A 
ATOM     48  C   UNL     1     -10.268  -9.662  -3.942  1.00  0.00     0.029 A 
ATOM     49  N   UNL     1      -8.632  -9.365  -2.466  1.00  0.00    -0.354 N 
ATOM     50  N   UNL     1      -6.978 -10.070  -0.151  1.00  0.00    -0.248 NA
ATOM     51  C   UNL     1      -6.580 -11.414   1.717  1.00  0.00     0.031 C 
ATOM     52  C   UNL     1     -10.290 -10.727  -3.036  1.00  0.00     0.029 A 
ATOM     53  C   UNL     1      -9.263 -10.547  -2.123  1.00  0.00     0.049 A 
ATOM     54  H   UNL     1      -7.861  -8.977  -1.992  1.00  0.00     0.167 HD
ATOM     55  C   UNL     1      -7.884 -11.125  -0.147  1.00  0.00     0.074 A 
ATOM     56  C   UNL     1      -7.565 -11.944   1.004  1.00  0.00     0.031 C 
ATOM     57  C   UNL     1      -8.899 -11.384  -1.008  1.00  0.00     0.034 A 
BRANCH  44  58
ATOM     58  C   UNL     1      -9.648  -7.078  -5.374  1.00  0.00     0.023 A 
ATOM     59  C   UNL     1      -9.101  -7.183  -6.669  1.00  0.00     0.012 A 
ATOM     60  C   UNL     1     -10.953  -6.575  -5.213  1.00  0.00     0.148 A 
ATOM     61  C   UNL     1      -9.830  -6.769  -7.783  1.00  0.00     0.002 A 
ATOM     62  C   UNL     1     -11.689  -6.202  -6.331  1.00  0.00     0.091 A 
ATOM     63  F   UNL     1     -11.445  -6.460  -3.971  1.00  0.00    -0.205 F 
ATOM     64  C   UNL     1     -11.126  -6.289  -7.615  1.00  0.00     0.022 A 
BRANCH  62  65
ATOM     65  S   UNL     1     -13.392  -5.641  -6.226  1.00  0.00     0.127 S 
ATOM     66  O   UNL     1     -13.253  -4.217  -6.527  1.00  0.00    -0.237 OA
ATOM     67  O   UNL     1     -14.041  -6.425  -7.276  1.00  0.00    -0.237 OA
ATOM     68  O   UNL     1     -13.834  -5.954  -4.874  1.00  0.00    -0.744 OA
ENDBRANCH  62  65
ENDBRANCH  44  58
BRANCH  45  69
ATOM     69  C   UNL     1      -4.259  -9.834   2.573  1.00  0.00     0.023 A 
ATOM     70  C   UNL     1      -3.505 -11.023   2.563  1.00  0.00     0.012 A 
ATOM     71  C   UNL     1      -4.258  -9.029   3.729  1.00  0.00     0.148 A 
ATOM     72  C   UNL     1      -2.789 -11.419   3.694  1.00  0.00     0.002 A 
ATOM     73  C   UNL     1      -3.499  -9.401   4.831  1.00  0.00     0.091 A 
ATOM     74  F   UNL     1      -4.999  -7.911   3.725  1.00  0.00    -0.205 F 
ATOM     75  C   UNL     1      -2.776 -10.604   4.823  1.00  0.00     0.022 A 
BRANCH  73  76
ATOM     76  S   UNL     1      -3.324  -8.346   6.275  1.00  0.00     0.127 S 
ATOM     77  O   UNL     1      -4.125  -9.059   7.265  1.00  0.00    -0.237 OA
ATOM     78  O   UNL     1      -1.879  -8.386   6.505  1.00  0.00    -0.237 OA
ATOM     79  O   UNL     1      -3.828  -7.041   5.868  1.00  0.00    -0.744 OA
ENDBRANCH  73  76
ENDBRANCH  45  69
BRANCH  57  80
ATOM     80  C   UNL     1      -9.724 -12.622  -0.769  1.00  0.00     0.023 A 
ATOM     81  C   UNL     1     -10.643 -12.655   0.299  1.00  0.00     0.012 A 
ATOM     82  C   UNL     1      -9.648 -13.719  -1.650  1.00  0.00     0.148 A 
ATOM     83  C   UNL     1     -11.450 -13.773   0.505  1.00  0.00     0.002 A 
ATOM     84  C   UNL     1     -10.489 -14.810  -1.466  1.00  0.00     0.091 A 
ATOM     85  F   UNL     1      -8.755 -13.677  -2.650  1.00  0.00    -0.205 F 
ATOM     86  C   UNL     1     -11.382 -14.844  -0.384  1.00  0.00     0.022 A 
BRANCH  84  87
ATOM     87  S   UNL     1     -10.537 -16.191  -2.615  1.00  0.00     0.127 S 
ATOM     88  O   UNL     1      -9.858 -17.237  -1.853  1.00  0.00    -0.237 OA
ATOM     89  O   UNL     1     -11.975 -16.401  -2.791  1.00  0.00    -0.237 OA
ATOM     90  O   UNL     1      -9.844 -15.738  -3.814  1.00  0.00    -0.744 OA
ENDBRANCH  84  87
ENDBRANCH  57  80
ENDBRANCH  31  32
ENDBRANCH  24  26
ENDBRANCH  23  24
ENDBRANCH  22  23
ENDBRANCH  21  22
ENDBRANCH  20  21
ENDBRANCH  19  20
ENDBRANCH   1  19
TORSDOF 19
