REMARK SMILES C[NH2+]C[C@H](C)C(=O)N1CCc2cc(C(=O)OCCOCCOC(=O)c3ccc(-c4c5nc(c(-c6cccc(S(=O)(=O)[O-])c6F)c6ccc([nH]6)c(-c6cccc(S(=O)(=O)[O-])c6F)c6nc(c(-c7cccc(S(=O)(=O)[O-])c7F)c7ccc4[nH]7)C=C6)C=C5)cc3)ccc21
REMARK SMILES IDX 18 1 17 2 16 3 14 4 15 5 13 6 8 7 9 8 90 9 10 10 11 11 89 12
REMARK SMILES IDX 12 13 88 14 6 15 7 16 4 17 5 18 3 19 2 20 1 21 19 24 20 25
REMARK SMILES IDX 21 26 22 27 23 28 24 29 25 30 26 31 87 32 27 33 86 34 28 35
REMARK SMILES IDX 29 36 30 37 80 38 31 39 85 40 79 41 81 42 32 43 84 44 78 45
REMARK SMILES IDX 77 46 33 48 65 49 45 50 64 51 46 52 49 53 63 54 82 55 47 56
REMARK SMILES IDX 48 57 62 59 83 60 50 61 34 62 35 63 43 64 36 65 38 66 44 67
REMARK SMILES IDX 37 68 39 69 40 70 41 71 42 72 66 73 67 74 75 75 68 76 70 77
REMARK SMILES IDX 76 78 69 79 71 80 72 81 73 82 74 83 51 84 52 85 60 86 53 87
REMARK SMILES IDX 55 88 61 89 54 90 56 91 57 92 58 93 59 94
REMARK H PARENT 2 22 2 23 81 47 49 58
REMARK Flexibility Score: inf
ROOT
ATOM      1  C   UNL     1      -2.372   6.057  -7.204  1.00  0.00     0.202 C 
ENDROOT
BRANCH   1   2
ATOM      2  C   UNL     1      -1.575   6.603  -6.015  1.00  0.00     0.261 C 
BRANCH   2   3
ATOM      3  O   UNL     1      -1.648   5.700  -4.905  1.00  0.00    -0.460 OA
BRANCH   3   4
ATOM      4  C   UNL     1      -2.424   6.107  -3.873  1.00  0.00     0.338 C 
ATOM      5  O   UNL     1      -2.912   7.208  -3.710  1.00  0.00    -0.246 OA
BRANCH   4   6
ATOM      6  C   UNL     1      -2.758   4.938  -3.018  1.00  0.00     0.060 A 
ATOM      7  N   UNL     1      -3.767   2.070  -0.199  1.00  0.00    -0.311 N 
ATOM      8  C   UNL     1      -5.123   2.496   0.199  1.00  0.00     0.130 C 
ATOM      9  C   UNL     1      -3.374   2.855  -1.288  1.00  0.00     0.047 A 
ATOM     10  C   UNL     1      -5.453   3.779  -0.573  1.00  0.00     0.059 C 
ATOM     11  C   UNL     1      -4.232   3.945  -1.415  1.00  0.00    -0.022 A 
ATOM     12  C   UNL     1      -2.345   2.693  -2.189  1.00  0.00     0.027 A 
ATOM     13  C   UNL     1      -3.924   5.010  -2.247  1.00  0.00     0.021 A 
ATOM     14  C   UNL     1      -2.011   3.750  -3.041  1.00  0.00     0.018 A 
BRANCH   7  15
ATOM     15  C   UNL     1      -3.093   1.184   0.619  1.00  0.00     0.235 C 
ATOM     16  O   UNL     1      -3.760   0.449   1.368  1.00  0.00    -0.274 OA
BRANCH  15  17
ATOM     17  C   UNL     1      -1.566   1.213   0.851  1.00  0.00     0.131 C 
ATOM     18  C   UNL     1      -0.608   1.008  -0.307  1.00  0.00     0.024 C 
BRANCH  17  19
ATOM     19  C   UNL     1      -1.117   2.360   1.784  1.00  0.00     0.273 C 
BRANCH  19  20
ATOM     20  N   UNL     1      -1.389   3.730   1.346  1.00  0.00    -0.348 N 
ATOM     21  C   UNL     1      -2.459   4.343   2.118  1.00  0.00     0.330 C 
ATOM     22  H   UNL     1      -0.541   4.287   1.457  1.00  0.00     0.346 HD
ATOM     23  H   UNL     1      -1.681   3.699   0.369  1.00  0.00     0.346 HD
ENDBRANCH  19  20
ENDBRANCH  17  19
ENDBRANCH  15  17
ENDBRANCH   7  15
ENDBRANCH   4   6
ENDBRANCH   3   4
ENDBRANCH   2   3
ENDBRANCH   1   2
BRANCH   1  24
ATOM     24  O   UNL     1      -3.784   5.919  -7.031  1.00  0.00    -0.374 OA
BRANCH  24  25
ATOM     25  C   UNL     1      -4.251   4.765  -6.332  1.00  0.00     0.202 C 
BRANCH  25  26
ATOM     26  C   UNL     1      -4.295   3.434  -7.093  1.00  0.00     0.261 C 
BRANCH  26  27
ATOM     27  O   UNL     1      -2.993   2.983  -7.498  1.00  0.00    -0.460 OA
BRANCH  27  28
ATOM     28  C   UNL     1      -2.729   3.154  -8.818  1.00  0.00     0.338 C 
ATOM     29  O   UNL     1      -3.489   3.584  -9.669  1.00  0.00    -0.246 OA
BRANCH  28  30
ATOM     30  C   UNL     1      -1.298   2.917  -9.078  1.00  0.00     0.060 A 
ATOM     31  C   UNL     1      -0.580   3.937  -9.715  1.00  0.00     0.016 A 
ATOM     32  C   UNL     1      -0.685   1.700  -8.772  1.00  0.00     0.016 A 
ATOM     33  C   UNL     1       0.743   3.727 -10.095  1.00  0.00     0.010 A 
ATOM     34  C   UNL     1       0.642   1.490  -9.161  1.00  0.00     0.010 A 
ATOM     35  C   UNL     1       1.350   2.489  -9.855  1.00  0.00    -0.014 A 
BRANCH  35  36
ATOM     36  C   UNL     1       2.686   2.200 -10.434  1.00  0.00     0.031 A 
ATOM     37  C   UNL     1       2.787   1.303 -11.638  1.00  0.00     0.074 A 
ATOM     38  C   UNL     1       3.796   2.729  -9.887  1.00  0.00     0.049 A 
ATOM     39  N   UNL     1       3.853   0.884 -12.267  1.00  0.00    -0.248 NA
ATOM     40  C   UNL     1       1.522   0.808 -12.207  1.00  0.00     0.031 C 
ATOM     41  C   UNL     1       3.826   3.610  -8.721  1.00  0.00     0.029 A 
ATOM     42  N   UNL     1       5.118   2.571 -10.224  1.00  0.00    -0.354 N 
ATOM     43  C   UNL     1       3.395   0.044 -13.275  1.00  0.00     0.074 A 
ATOM     44  C   UNL     1       1.952   0.015 -13.178  1.00  0.00     0.031 C 
ATOM     45  C   UNL     1       5.105   3.884  -8.414  1.00  0.00     0.029 A 
ATOM     46  C   UNL     1       5.983   3.174  -9.341  1.00  0.00     0.049 A 
ATOM     47  H   UNL     1       5.417   2.075 -11.020  1.00  0.00     0.167 HD
ATOM     48  C   UNL     1       4.111  -0.635 -14.200  1.00  0.00     0.034 A 
ATOM     49  C   UNL     1       7.328   3.125  -9.266  1.00  0.00     0.034 A 
ATOM     50  C   UNL     1       5.544  -0.580 -14.314  1.00  0.00     0.049 A 
ATOM     51  C   UNL     1       8.097   2.351 -10.305  1.00  0.00     0.074 A 
ATOM     52  C   UNL     1       6.351  -1.173 -15.268  1.00  0.00     0.029 A 
ATOM     53  N   UNL     1       6.384   0.087 -13.437  1.00  0.00    -0.354 N 
ATOM     54  N   UNL     1       7.646   1.674 -11.334  1.00  0.00    -0.248 NA
ATOM     55  C   UNL     1       9.564   2.360 -10.194  1.00  0.00     0.031 C 
ATOM     56  C   UNL     1       7.683  -0.905 -14.941  1.00  0.00     0.029 A 
ATOM     57  C   UNL     1       7.702  -0.102 -13.813  1.00  0.00     0.049 A 
ATOM     58  H   UNL     1       6.087   0.616 -12.662  1.00  0.00     0.167 HD
ATOM     59  C   UNL     1       8.770   1.213 -12.011  1.00  0.00     0.074 A 
ATOM     60  C   UNL     1       9.924   1.707 -11.290  1.00  0.00     0.031 C 
ATOM     61  C   UNL     1       8.842   0.440 -13.122  1.00  0.00     0.034 A 
BRANCH  48  62
ATOM     62  C   UNL     1       3.370  -1.501 -15.183  1.00  0.00     0.023 A 
ATOM     63  C   UNL     1       2.643  -0.912 -16.235  1.00  0.00     0.012 A 
ATOM     64  C   UNL     1       3.490  -2.904 -15.123  1.00  0.00     0.148 A 
ATOM     65  C   UNL     1       2.034  -1.706 -17.206  1.00  0.00     0.002 A 
ATOM     66  C   UNL     1       2.920  -3.687 -16.118  1.00  0.00     0.091 A 
ATOM     67  F   UNL     1       4.170  -3.443 -14.100  1.00  0.00    -0.205 F 
ATOM     68  C   UNL     1       2.184  -3.090 -17.156  1.00  0.00     0.022 A 
BRANCH  66  69
ATOM     69  S   UNL     1       3.129  -5.469 -16.191  1.00  0.00     0.127 S 
ATOM     70  O   UNL     1       1.759  -5.935 -15.978  1.00  0.00    -0.237 OA
ATOM     71  O   UNL     1       3.635  -5.662 -17.549  1.00  0.00    -0.237 OA
ATOM     72  O   UNL     1       4.069  -5.810 -15.133  1.00  0.00    -0.744 OA
ENDBRANCH  66  69
ENDBRANCH  48  62
BRANCH  49  73
ATOM     73  C   UNL     1       8.046   3.823  -8.161  1.00  0.00     0.023 A 
ATOM     74  C   UNL     1       8.890   4.913  -8.447  1.00  0.00     0.012 A 
ATOM     75  C   UNL     1       7.911   3.393  -6.827  1.00  0.00     0.148 A 
ATOM     76  C   UNL     1       9.623   5.530  -7.433  1.00  0.00     0.002 A 
ATOM     77  C   UNL     1       8.595   4.051  -5.813  1.00  0.00     0.091 A 
ATOM     78  F   UNL     1       7.117   2.342  -6.574  1.00  0.00    -0.205 F 
ATOM     79  C   UNL     1       9.470   5.105  -6.116  1.00  0.00     0.022 A 
BRANCH  77  80
ATOM     80  S   UNL     1       8.351   3.654  -4.079  1.00  0.00     0.127 S 
ATOM     81  O   UNL     1       9.605   2.985  -3.745  1.00  0.00    -0.237 OA
ATOM     82  O   UNL     1       8.183   4.982  -3.486  1.00  0.00    -0.237 OA
ATOM     83  O   UNL     1       7.155   2.824  -4.032  1.00  0.00    -0.744 OA
ENDBRANCH  77  80
ENDBRANCH  49  73
BRANCH  61  84
ATOM     84  C   UNL     1      10.209   0.119 -13.670  1.00  0.00     0.023 A 
ATOM     85  C   UNL     1      11.057  -0.771 -12.982  1.00  0.00     0.012 A 
ATOM     86  C   UNL     1      10.620   0.645 -14.911  1.00  0.00     0.148 A 
ATOM     87  C   UNL     1      12.308  -1.102 -13.502  1.00  0.00     0.002 A 
ATOM     88  C   UNL     1      11.844   0.268 -15.450  1.00  0.00     0.091 A 
ATOM     89  F   UNL     1       9.805   1.502 -15.544  1.00  0.00    -0.205 F 
ATOM     90  C   UNL     1      12.696  -0.593 -14.740  1.00  0.00     0.022 A 
BRANCH  88  91
ATOM     91  S   UNL     1      12.382   0.792 -17.081  1.00  0.00     0.127 S 
ATOM     92  O   UNL     1      13.477   1.704 -16.754  1.00  0.00    -0.237 OA
ATOM     93  O   UNL     1      12.801  -0.471 -17.689  1.00  0.00    -0.237 OA
ATOM     94  O   UNL     1      11.223   1.412 -17.709  1.00  0.00    -0.744 OA
ENDBRANCH  88  91
ENDBRANCH  61  84
ENDBRANCH  35  36
ENDBRANCH  28  30
ENDBRANCH  27  28
ENDBRANCH  26  27
ENDBRANCH  25  26
ENDBRANCH  24  25
ENDBRANCH   1  24
TORSDOF 21
