REMARK SMILES Cc1ccc(-c2cc(Cl)cc3c2O[C@H](C(F)(F)F)C(C(=O)OCCOCCOC(=O)c2ccc(-c4c5nc(c(-c6cccc(S(=O)(=O)[O-])c6F)c6ccc([nH]6)c(-c6cccc(S(=O)(=O)[O-])c6F)c6nc(c(-c7cccc(S(=O)(=O)[O-])c7F)c7ccc4[nH]7)C=C6)C=C5)cc2)=C3)cc1F
REMARK SMILES IDX 26 1 25 2 24 3 23 4 22 5 20 6 21 7 19 8 6 9 7 10 12 11 8 12
REMARK SMILES IDX 11 13 13 14 9 15 10 16 94 17 14 18 5 19 1 20 2 21 3 22 96 23
REMARK SMILES IDX 4 24 95 25 97 26 15 27 16 28 17 29 18 30 27 31 28 32 29 33
REMARK SMILES IDX 30 34 31 35 32 36 93 37 33 38 92 39 34 40 35 41 36 42 86 43
REMARK SMILES IDX 37 44 91 45 85 46 87 47 38 48 90 49 84 50 83 51 39 53 71 54
REMARK SMILES IDX 51 55 70 56 52 57 55 58 69 59 88 60 53 61 54 62 68 64 89 65
REMARK SMILES IDX 56 66 40 67 41 68 49 69 42 70 44 71 50 72 43 73 45 74 46 75
REMARK SMILES IDX 47 76 48 77 72 78 73 79 81 80 74 81 76 82 82 83 75 84 77 85
REMARK SMILES IDX 78 86 79 87 80 88 57 89 58 90 66 91 59 92 61 93 67 94 60 95
REMARK SMILES IDX 62 96 63 97 64 98 65 99
REMARK H PARENT 87 52 55 63
REMARK Flexibility Score: inf
ROOT
ATOM      1  C   UNL     1      -6.449  -4.746   7.350  1.00  0.00     0.202 C 
ENDROOT
BRANCH   1   2
ATOM      2  O   UNL     1      -5.522  -5.461   6.542  1.00  0.00    -0.374 OA
BRANCH   2   3
ATOM      3  C   UNL     1      -4.154  -5.430   6.892  1.00  0.00     0.202 C 
BRANCH   3   4
ATOM      4  C   UNL     1      -3.115  -6.090   5.850  1.00  0.00     0.261 C 
BRANCH   4   5
ATOM      5  O   UNL     1      -2.666  -5.488   3.977  1.00  0.00    -0.460 OA
BRANCH   5   6
ATOM      6  C   UNL     1      -2.245  -5.352   2.658  1.00  0.00     0.338 C 
ATOM      7  O   UNL     1      -1.576  -6.138   1.993  1.00  0.00    -0.246 OA
BRANCH   6   8
ATOM      8  C   UNL     1      -2.710  -4.089   2.055  1.00  0.00     0.087 C 
ATOM      9  C   UNL     1      -3.033  -1.008  -0.623  1.00  0.00     0.026 A 
ATOM     10  C   UNL     1      -4.012  -1.061  -1.618  1.00  0.00     0.033 A 
ATOM     11  C   UNL     1      -3.111  -1.925   0.442  1.00  0.00     0.135 A 
ATOM     12  C   UNL     1      -5.034  -2.015  -1.541  1.00  0.00     0.042 A 
ATOM     13  C   UNL     1      -4.061  -2.947   0.458  1.00  0.00     0.019 A 
ATOM     14  O   UNL     1      -2.205  -1.756   1.457  1.00  0.00    -0.475 OA
ATOM     15  Cl  UNL     1      -6.225  -2.074  -2.786  1.00  0.00    -0.084 Cl
ATOM     16  C   UNL     1      -5.060  -2.963  -0.516  1.00  0.00     0.032 A 
ATOM     17  C   UNL     1      -3.852  -4.080   1.351  1.00  0.00     0.027 C 
ATOM     18  C   UNL     1      -1.764  -2.938   2.156  1.00  0.00     0.316 C 
BRANCH   9  19
ATOM     19  C   UNL     1      -1.848  -0.143  -0.711  1.00  0.00    -0.012 A 
ATOM     20  C   UNL     1       1.796   2.061  -0.028  1.00  0.00     0.047 C 
ATOM     21  C   UNL     1       0.525   1.341  -0.355  1.00  0.00    -0.015 A 
ATOM     22  C   UNL     1      -0.726   1.962  -0.246  1.00  0.00     0.007 A 
ATOM     23  C   UNL     1       0.575  -0.009  -0.696  1.00  0.00     0.126 A 
ATOM     24  C   UNL     1      -1.905   1.226  -0.425  1.00  0.00     0.009 A 
ATOM     25  C   UNL     1      -0.587  -0.740  -0.894  1.00  0.00     0.048 A 
ATOM     26  F   UNL     1       1.757  -0.634  -0.783  1.00  0.00    -0.207 F 
ENDBRANCH   9  19
BRANCH  18  27
ATOM     27  C   UNL     1      -0.319  -3.257   1.759  1.00  0.00     0.430 C 
ATOM     28  F   UNL     1       0.444  -2.135   1.837  1.00  0.00    -0.167 F 
ATOM     29  F   UNL     1       0.254  -4.151   2.594  1.00  0.00    -0.167 F 
ATOM     30  F   UNL     1      -0.223  -3.722   0.496  1.00  0.00    -0.167 F 
ENDBRANCH  18  27
ENDBRANCH   6   8
ENDBRANCH   5   6
ENDBRANCH   4   5
ENDBRANCH   3   4
ENDBRANCH   2   3
ENDBRANCH   1   2
BRANCH   1  31
ATOM     31  C   UNL     1      -6.110  -3.298   7.772  1.00  0.00     0.261 C 
BRANCH  31  32
ATOM     32  O   UNL     1      -4.872  -3.155   8.498  1.00  0.00    -0.460 OA
BRANCH  32  33
ATOM     33  C   UNL     1      -4.837  -3.580   9.782  1.00  0.00     0.338 C 
ATOM     34  O   UNL     1      -5.768  -3.620  10.565  1.00  0.00    -0.246 OA
BRANCH  33  35
ATOM     35  C   UNL     1      -3.559  -4.324   9.932  1.00  0.00     0.060 A 
ATOM     36  C   UNL     1      -2.373  -3.917   9.294  1.00  0.00     0.016 A 
ATOM     37  C   UNL     1      -3.679  -5.619  10.447  1.00  0.00     0.016 A 
ATOM     38  C   UNL     1      -1.361  -4.854   9.058  1.00  0.00     0.010 A 
ATOM     39  C   UNL     1      -2.681  -6.550  10.192  1.00  0.00     0.010 A 
ATOM     40  C   UNL     1      -1.547  -6.184   9.457  1.00  0.00    -0.014 A 
BRANCH  40  41
ATOM     41  C   UNL     1      -0.546  -7.221   9.215  1.00  0.00     0.031 A 
ATOM     42  C   UNL     1       0.638  -7.244  10.090  1.00  0.00     0.074 A 
ATOM     43  C   UNL     1      -0.656  -8.162   8.248  1.00  0.00     0.049 A 
ATOM     44  N   UNL     1       1.836  -7.537   9.713  1.00  0.00    -0.248 NA
ATOM     45  C   UNL     1       0.537  -6.899  11.504  1.00  0.00     0.031 C 
ATOM     46  C   UNL     1       0.233  -9.294   8.007  1.00  0.00     0.029 A 
ATOM     47  N   UNL     1      -1.483  -8.149   7.120  1.00  0.00    -0.354 N 
ATOM     48  C   UNL     1       2.528  -7.842  10.863  1.00  0.00     0.074 A 
ATOM     49  C   UNL     1       1.747  -7.262  11.936  1.00  0.00     0.031 C 
ATOM     50  C   UNL     1       0.158  -9.627   6.707  1.00  0.00     0.029 A 
ATOM     51  C   UNL     1      -0.699  -8.648   6.052  1.00  0.00     0.049 A 
ATOM     52  H   UNL     1      -2.421  -7.853   7.077  1.00  0.00     0.167 HD
ATOM     53  C   UNL     1       3.550  -8.749  10.826  1.00  0.00     0.034 A 
ATOM     54  C   UNL     1      -0.353  -7.871   4.984  1.00  0.00     0.034 A 
ATOM     55  C   UNL     1       3.809  -9.239   9.470  1.00  0.00     0.049 A 
ATOM     56  C   UNL     1       1.162  -7.684   4.834  1.00  0.00     0.074 A 
ATOM     57  C   UNL     1       3.603 -10.452   8.829  1.00  0.00     0.029 A 
ATOM     58  N   UNL     1       4.095  -8.333   8.458  1.00  0.00    -0.354 N 
ATOM     59  N   UNL     1       2.038  -8.106   5.709  1.00  0.00    -0.248 NA
ATOM     60  C   UNL     1       1.812  -6.941   3.752  1.00  0.00     0.031 C 
ATOM     61  C   UNL     1       3.816 -10.278   7.437  1.00  0.00     0.029 A 
ATOM     62  C   UNL     1       4.114  -8.949   7.222  1.00  0.00     0.049 A 
ATOM     63  H   UNL     1       4.264  -7.374   8.602  1.00  0.00     0.167 HD
ATOM     64  C   UNL     1       3.313  -7.772   5.314  1.00  0.00     0.074 A 
ATOM     65  C   UNL     1       3.112  -7.000   4.104  1.00  0.00     0.031 C 
ATOM     66  C   UNL     1       4.411  -8.165   6.031  1.00  0.00     0.034 A 
BRANCH  53  67
ATOM     67  C   UNL     1       4.051  -9.415  12.098  1.00  0.00     0.023 A 
ATOM     68  C   UNL     1       4.078  -8.735  13.335  1.00  0.00     0.012 A 
ATOM     69  C   UNL     1       4.460 -10.765  12.134  1.00  0.00     0.148 A 
ATOM     70  C   UNL     1       4.294  -9.397  14.553  1.00  0.00     0.002 A 
ATOM     71  C   UNL     1       4.714 -11.417  13.341  1.00  0.00     0.091 A 
ATOM     72  F   UNL     1       4.622 -11.457  11.003  1.00  0.00    -0.205 F 
ATOM     73  C   UNL     1       4.592 -10.751  14.558  1.00  0.00     0.022 A 
BRANCH  71  74
ATOM     74  S   UNL     1       5.192 -13.148  13.306  1.00  0.00     0.127 S 
ATOM     75  O   UNL     1       4.025 -13.794  12.713  1.00  0.00    -0.237 OA
ATOM     76  O   UNL     1       6.415 -13.136  12.511  1.00  0.00    -0.237 OA
ATOM     77  O   UNL     1       5.399 -13.465  14.720  1.00  0.00    -0.744 OA
ENDBRANCH  71  74
ENDBRANCH  53  67
BRANCH  54  78
ATOM     78  C   UNL     1      -1.391  -6.860   4.603  1.00  0.00     0.023 A 
ATOM     79  C   UNL     1      -1.141  -5.148   5.137  1.00  0.00     0.012 A 
ATOM     80  C   UNL     1      -3.038  -7.387   4.016  1.00  0.00     0.148 A 
ATOM     81  C   UNL     1      -2.524  -3.990   5.170  1.00  0.00     0.002 A 
ATOM     82  C   UNL     1      -4.422  -6.216   4.038  1.00  0.00     0.091 A 
ATOM     83  F   UNL     1      -3.242  -8.677   3.720  1.00  0.00    -0.205 F 
ATOM     84  C   UNL     1      -4.163  -4.501   4.587  1.00  0.00     0.022 A 
BRANCH  82  85
ATOM     85  S   UNL     1      -6.031  -6.681   3.460  1.00  0.00     0.127 S 
ATOM     86  O   UNL     1      -5.755  -7.148   2.106  1.00  0.00    -0.237 OA
ATOM     87  O   UNL     1      -6.460  -7.691   4.420  1.00  0.00    -0.237 OA
ATOM     88  O   UNL     1      -6.768  -5.416   3.510  1.00  0.00    -0.744 OA
ENDBRANCH  82  85
ENDBRANCH  54  78
BRANCH  66  89
ATOM     89  C   UNL     1       5.878  -7.906   5.731  1.00  0.00     0.023 A 
ATOM     90  C   UNL     1       6.795  -7.928   6.821  1.00  0.00     0.012 A 
ATOM     91  C   UNL     1       6.441  -7.765   4.455  1.00  0.00     0.148 A 
ATOM     92  C   UNL     1       8.176  -7.790   6.663  1.00  0.00     0.002 A 
ATOM     93  C   UNL     1       7.822  -7.580   4.301  1.00  0.00     0.091 A 
ATOM     94  F   UNL     1       5.665  -7.871   3.368  1.00  0.00    -0.205 F 
ATOM     95  C   UNL     1       8.693  -7.599   5.397  1.00  0.00     0.022 A 
BRANCH  93  96
ATOM     96  S   UNL     1       8.490  -7.254   2.668  1.00  0.00     0.127 S 
ATOM     97  O   UNL     1       8.218  -8.491   1.943  1.00  0.00    -0.237 OA
ATOM     98  O   UNL     1       7.744  -6.071   2.248  1.00  0.00    -0.237 OA
ATOM     99  O   UNL     1       9.910  -7.004   2.922  1.00  0.00    -0.744 OA
ENDBRANCH  93  96
ENDBRANCH  66  89
ENDBRANCH  40  41
ENDBRANCH  33  35
ENDBRANCH  32  33
ENDBRANCH  31  32
ENDBRANCH   1  31
TORSDOF 19
