REMARK SMILES CCOC(=O)C1=NN(c2ccc([N+](=O)[O-])cc2C(F)(F)F)[C@@](C)(C(=O)OCCOCCOC(=O)c2ccc(-c3c4nc(c(-c5cccc(S(=O)(=O)[O-])c5F)c5ccc([nH]5)c(-c5cccc(S(=O)(=O)[O-])c5F)c5nc(c(-c6cccc(S(=O)(=O)[O-])c6F)c6ccc3[nH]6)C=C5)C=C4)cc2)C1
REMARK SMILES IDX 29 1 28 2 27 3 26 4 24 5 25 6 22 7 6 8 7 9 98 10 8 11 23 12
REMARK SMILES IDX 4 13 5 14 3 15 2 16 1 17 9 18 10 19 17 20 11 21 16 22 12 23
REMARK SMILES IDX 18 24 19 25 20 26 21 27 13 28 14 29 15 30 30 31 31 32 32 33
REMARK SMILES IDX 33 34 34 35 35 36 36 37 97 38 37 39 96 40 38 41 39 42 40 43
REMARK SMILES IDX 90 44 41 45 95 46 89 47 91 48 42 49 94 50 88 51 87 52 43 54
REMARK SMILES IDX 75 55 55 56 74 57 56 58 59 59 73 60 92 61 57 62 58 63 72 65
REMARK SMILES IDX 93 66 60 67 44 68 45 69 53 70 46 71 48 72 54 73 47 74 49 75
REMARK SMILES IDX 50 76 51 77 52 78 76 79 77 80 85 81 78 82 80 83 86 84 79 85
REMARK SMILES IDX 81 86 82 87 83 88 84 89 61 90 62 91 70 92 63 93 65 94 71 95
REMARK SMILES IDX 64 96 66 97 67 98 68 99 69 100
REMARK H PARENT 91 53 59 64
REMARK Flexibility Score: inf
ROOT
ATOM      1  O   UNL     1       6.229   5.560  -0.733  1.00  0.00    -0.374 OA
ENDROOT
BRANCH   1   2
ATOM      2  C   UNL     1       6.967   6.318  -1.686  1.00  0.00     0.202 C 
BRANCH   2   3
ATOM      3  C   UNL     1       7.278   5.651  -3.029  1.00  0.00     0.261 C 
BRANCH   3   4
ATOM      4  O   UNL     1       6.110   5.177  -3.723  1.00  0.00    -0.461 OA
BRANCH   4   5
ATOM      5  C   UNL     1       5.918   3.833  -3.639  1.00  0.00     0.334 C 
ATOM      6  O   UNL     1       6.673   3.076  -3.029  1.00  0.00    -0.249 OA
BRANCH   5   7
ATOM      7  C   UNL     1       4.725   3.302  -4.454  1.00  0.00     0.163 C 
ATOM      8  C   UNL     1       3.116   2.811  -2.895  1.00  0.00     0.149 C 
ATOM      9  N   UNL     1       2.717   3.947  -3.379  1.00  0.00    -0.169 NA
ATOM     10  C   UNL     1       4.162   2.089  -3.678  1.00  0.00     0.108 C 
ATOM     11  N   UNL     1       3.517   4.179  -4.473  1.00  0.00    -0.247 N 
ATOM     12  C   UNL     1       5.302   2.903  -5.802  1.00  0.00     0.050 C 
BRANCH   8  13
ATOM     13  C   UNL     1       2.607   2.238  -1.606  1.00  0.00     0.354 C 
ATOM     14  O   UNL     1       3.348   2.104  -0.644  1.00  0.00    -0.245 OA
BRANCH  13  15
ATOM     15  O   UNL     1       1.303   1.931  -1.698  1.00  0.00    -0.461 OA
BRANCH  15  16
ATOM     16  C   UNL     1       0.699   1.495  -0.472  1.00  0.00     0.230 C 
ATOM     17  C   UNL     1       0.940   0.013  -0.250  1.00  0.00     0.049 C 
ENDBRANCH  15  16
ENDBRANCH  13  15
ENDBRANCH   8  13
BRANCH  11  18
ATOM     18  C   UNL     1       3.167   5.238  -5.300  1.00  0.00     0.073 A 
ATOM     19  C   UNL     1       2.970   6.506  -4.711  1.00  0.00     0.036 A 
ATOM     20  C   UNL     1       2.841   5.117  -6.668  1.00  0.00     0.088 A 
ATOM     21  C   UNL     1       2.562   7.628  -5.443  1.00  0.00     0.088 A 
ATOM     22  C   UNL     1       2.511   6.270  -7.429  1.00  0.00     0.101 A 
ATOM     23  C   UNL     1       2.367   7.514  -6.814  1.00  0.00     0.270 A 
BRANCH  20  24
ATOM     24  C   UNL     1       2.679   3.796  -7.380  1.00  0.00     0.418 C 
ATOM     25  F   UNL     1       1.617   3.795  -8.240  1.00  0.00    -0.166 F 
ATOM     26  F   UNL     1       3.759   3.477  -8.145  1.00  0.00    -0.166 F 
ATOM     27  F   UNL     1       2.460   2.726  -6.564  1.00  0.00    -0.166 F 
ENDBRANCH  20  24
BRANCH  23  28
ATOM     28  N   UNL     1       1.921   8.679  -7.591  1.00  0.00     0.062 N 
ATOM     29  O   UNL     1       1.824   9.761  -6.995  1.00  0.00    -0.258 OA
ATOM     30  O   UNL     1       1.629   8.495  -8.780  1.00  0.00    -0.258 OA
ENDBRANCH  23  28
ENDBRANCH  11  18
ENDBRANCH   5   7
ENDBRANCH   4   5
ENDBRANCH   3   4
ENDBRANCH   2   3
ENDBRANCH   1   2
BRANCH   1  31
ATOM     31  C   UNL     1       4.816   5.470  -0.922  1.00  0.00     0.202 C 
BRANCH  31  32
ATOM     32  C   UNL     1       3.985   6.719  -0.604  1.00  0.00     0.261 C 
BRANCH  32  33
ATOM     33  O   UNL     1       4.184   7.757  -1.581  1.00  0.00    -0.460 OA
BRANCH  33  34
ATOM     34  C   UNL     1       4.823   8.863  -1.135  1.00  0.00     0.338 C 
ATOM     35  O   UNL     1       5.174   9.100   0.013  1.00  0.00    -0.246 OA
BRANCH  34  36
ATOM     36  C   UNL     1       5.237   9.688  -2.286  1.00  0.00     0.060 A 
ATOM     37  C   UNL     1       6.572  10.109  -2.349  1.00  0.00     0.016 A 
ATOM     38  C   UNL     1       4.323  10.087  -3.261  1.00  0.00     0.016 A 
ATOM     39  C   UNL     1       6.983  10.982  -3.354  1.00  0.00     0.010 A 
ATOM     40  C   UNL     1       4.736  10.953  -4.275  1.00  0.00     0.010 A 
ATOM     41  C   UNL     1       6.055  11.443  -4.295  1.00  0.00    -0.014 A 
BRANCH  41  42
ATOM     42  C   UNL     1       6.387  12.594  -5.167  1.00  0.00     0.031 A 
ATOM     43  C   UNL     1       5.857  13.950  -4.787  1.00  0.00     0.074 A 
ATOM     44  C   UNL     1       7.122  12.439  -6.282  1.00  0.00     0.049 A 
ATOM     45  N   UNL     1       5.921  15.081  -5.438  1.00  0.00    -0.248 NA
ATOM     46  C   UNL     1       5.151  14.038  -3.496  1.00  0.00     0.031 C 
ATOM     47  C   UNL     1       7.716  11.184  -6.735  1.00  0.00     0.029 A 
ATOM     48  N   UNL     1       7.466  13.348  -7.251  1.00  0.00    -0.354 N 
ATOM     49  C   UNL     1       5.230  16.003  -4.660  1.00  0.00     0.074 A 
ATOM     50  C   UNL     1       4.747  15.298  -3.493  1.00  0.00     0.031 C 
ATOM     51  C   UNL     1       8.332  11.395  -7.912  1.00  0.00     0.029 A 
ATOM     52  C   UNL     1       8.142  12.790  -8.309  1.00  0.00     0.049 A 
ATOM     53  H   UNL     1       7.250  14.306  -7.193  1.00  0.00     0.167 HD
ATOM     54  C   UNL     1       5.027  17.322  -4.888  1.00  0.00     0.034 A 
ATOM     55  C   UNL     1       8.538  13.339  -9.475  1.00  0.00     0.034 A 
ATOM     56  C   UNL     1       5.525  18.021  -6.040  1.00  0.00     0.049 A 
ATOM     57  C   UNL     1       8.258  14.798  -9.731  1.00  0.00     0.074 A 
ATOM     58  C   UNL     1       5.404  19.362  -6.353  1.00  0.00     0.029 A 
ATOM     59  N   UNL     1       6.232  17.429  -7.075  1.00  0.00    -0.354 N 
ATOM     60  N   UNL     1       7.684  15.680  -8.949  1.00  0.00    -0.248 NA
ATOM     61  C   UNL     1       8.705  15.345 -11.021  1.00  0.00     0.031 C 
ATOM     62  C   UNL     1       6.021  19.577  -7.590  1.00  0.00     0.029 A 
ATOM     63  C   UNL     1       6.550  18.374  -8.033  1.00  0.00     0.049 A 
ATOM     64  H   UNL     1       6.473  16.475  -7.121  1.00  0.00     0.167 HD
ATOM     65  C   UNL     1       7.741  16.892  -9.629  1.00  0.00     0.074 A 
ATOM     66  C   UNL     1       8.411  16.632 -10.886  1.00  0.00     0.031 C 
ATOM     67  C   UNL     1       7.276  18.109  -9.250  1.00  0.00     0.034 A 
BRANCH  54  68
ATOM     68  C   UNL     1       4.246  18.090  -3.853  1.00  0.00     0.023 A 
ATOM     69  C   UNL     1       4.829  18.363  -2.599  1.00  0.00     0.012 A 
ATOM     70  C   UNL     1       2.943  18.552  -4.123  1.00  0.00     0.148 A 
ATOM     71  C   UNL     1       4.113  19.044  -1.615  1.00  0.00     0.002 A 
ATOM     72  C   UNL     1       2.252  19.269  -3.153  1.00  0.00     0.091 A 
ATOM     73  F   UNL     1       2.392  18.260  -5.310  1.00  0.00    -0.205 F 
ATOM     74  C   UNL     1       2.829  19.504  -1.895  1.00  0.00     0.022 A 
BRANCH  72  75
ATOM     75  S   UNL     1       0.624  19.967  -3.453  1.00  0.00     0.127 S 
ATOM     76  O   UNL     1      -0.237  19.027  -2.738  1.00  0.00    -0.237 OA
ATOM     77  O   UNL     1       0.732  21.288  -2.831  1.00  0.00    -0.237 OA
ATOM     78  O   UNL     1       0.466  19.995  -4.900  1.00  0.00    -0.744 OA
ENDBRANCH  72  75
ENDBRANCH  54  68
BRANCH  55  79
ATOM     79  C   UNL     1       9.286  12.516 -10.466  1.00  0.00     0.023 A 
ATOM     80  C   UNL     1      10.652  12.780 -10.686  1.00  0.00     0.012 A 
ATOM     81  C   UNL     1       8.671  11.456 -11.161  1.00  0.00     0.148 A 
ATOM     82  C   UNL     1      11.387  12.017 -11.594  1.00  0.00     0.002 A 
ATOM     83  C   UNL     1       9.422  10.666 -12.024  1.00  0.00     0.091 A 
ATOM     84  F   UNL     1       7.367  11.229 -10.948  1.00  0.00    -0.205 F 
ATOM     85  C   UNL     1      10.776  10.955 -12.254  1.00  0.00     0.022 A 
BRANCH  83  86
ATOM     86  S   UNL     1       8.758   9.199 -12.821  1.00  0.00     0.127 S 
ATOM     87  O   UNL     1       8.768   9.591 -14.228  1.00  0.00    -0.237 OA
ATOM     88  O   UNL     1       9.749   8.186 -12.456  1.00  0.00    -0.237 OA
ATOM     89  O   UNL     1       7.442   8.991 -12.233  1.00  0.00    -0.744 OA
ENDBRANCH  83  86
ENDBRANCH  55  79
BRANCH  67  90
ATOM     90  C   UNL     1       7.522  19.276 -10.170  1.00  0.00     0.023 A 
ATOM     91  C   UNL     1       6.770  19.412 -11.353  1.00  0.00     0.012 A 
ATOM     92  C   UNL     1       8.428  20.293  -9.805  1.00  0.00     0.148 A 
ATOM     93  C   UNL     1       6.932  20.530 -12.170  1.00  0.00     0.002 A 
ATOM     94  C   UNL     1       8.550  21.426 -10.599  1.00  0.00     0.091 A 
ATOM     95  F   UNL     1       9.147  20.135  -8.684  1.00  0.00    -0.205 F 
ATOM     96  C   UNL     1       7.811  21.542 -11.787  1.00  0.00     0.022 A 
BRANCH  94  97
ATOM     97  S   UNL     1       9.581  22.822 -10.135  1.00  0.00     0.127 S 
ATOM     98  O   UNL     1      10.677  22.717 -11.097  1.00  0.00    -0.237 OA
ATOM     99  O   UNL     1       8.684  23.957 -10.354  1.00  0.00    -0.237 OA
ATOM    100  O   UNL     1       9.951  22.604  -8.742  1.00  0.00    -0.744 OA
ENDBRANCH  94  97
ENDBRANCH  67  90
ENDBRANCH  41  42
ENDBRANCH  34  36
ENDBRANCH  33  34
ENDBRANCH  32  33
ENDBRANCH  31  32
ENDBRANCH   1  31
TORSDOF 23
