REMARK SMILES O=C(OCCOCCOC(=O)c1ccc(-c2c3nc(c(-c4cccc(S(=O)(=O)[O-])c4F)c4ccc([nH]4)c(-c4cccc(S(=O)(=O)[O-])c4F)c4nc(c(-c5cccc(S(=O)(=O)[O-])c5F)c5ccc2[nH]5)C=C4)C=C3)cc1)C1=Cc2cc(Cl)cc(-c3ccccc3)c2O[C@@H]1C(F)(F)F
REMARK SMILES IDX 7 1 6 2 5 3 4 4 3 5 2 6 1 7 75 8 76 9 91 10 77 11 90 12
REMARK SMILES IDX 78 13 89 14 79 15 82 16 80 17 81 18 92 19 93 20 94 21 95 22
REMARK SMILES IDX 83 23 84 24 88 25 85 26 87 27 86 28 8 29 9 30 10 31 11 32
REMARK SMILES IDX 12 33 13 34 74 35 14 36 73 37 15 38 16 39 17 40 67 41 18 42
REMARK SMILES IDX 72 43 66 44 68 45 19 46 71 47 65 48 64 49 20 51 52 52 32 53
REMARK SMILES IDX 51 54 33 55 36 56 50 57 69 58 34 59 35 60 49 62 70 63 37 64
REMARK SMILES IDX 21 65 22 66 30 67 23 68 25 69 31 70 24 71 26 72 27 73 28 74
REMARK SMILES IDX 29 75 53 76 54 77 62 78 55 79 57 80 63 81 56 82 58 83 59 84
REMARK SMILES IDX 60 85 61 86 38 87 39 88 47 89 40 90 42 91 48 92 41 93 43 94
REMARK SMILES IDX 44 95 45 96 46 97
REMARK H PARENT 68 50 36 61
REMARK Flexibility Score: inf
ROOT
ATOM      1  C   UNL     1       2.596  -1.470   2.781  1.00  0.00     0.202 C 
ENDROOT
BRANCH   1   2
ATOM      2  O   UNL     1       3.685  -1.710   1.855  1.00  0.00    -0.374 OA
BRANCH   2   3
ATOM      3  C   UNL     1       4.291  -0.903   0.570  1.00  0.00     0.202 C 
BRANCH   3   4
ATOM      4  C   UNL     1       3.385   0.617  -0.697  1.00  0.00     0.261 C 
BRANCH   4   5
ATOM      5  O   UNL     1       2.463   0.338  -1.946  1.00  0.00    -0.460 OA
BRANCH   5   6
ATOM      6  C   UNL     1       2.668  -0.859  -2.507  1.00  0.00     0.338 C 
ATOM      7  O   UNL     1       2.125  -1.413  -3.428  1.00  0.00    -0.246 OA
BRANCH   6   8
ATOM      8  C   UNL     1       3.532  -1.328  -1.458  1.00  0.00     0.087 C 
ATOM      9  C   UNL     1       4.880  -0.778  -1.645  1.00  0.00     0.027 C 
ATOM     10  C   UNL     1       2.371  -0.945   0.043  1.00  0.00     0.316 C 
ATOM     11  C   UNL     1       5.594   0.474  -0.558  1.00  0.00     0.019 A 
ATOM     12  O   UNL     1       3.132   0.423   1.209  1.00  0.00    -0.475 OA
ATOM     13  C   UNL     1       6.763   1.019  -1.023  1.00  0.00     0.032 A 
ATOM     14  C   UNL     1       4.747   1.187   0.804  1.00  0.00     0.135 A 
ATOM     15  C   UNL     1       7.165   2.174  -0.368  1.00  0.00     0.042 A 
ATOM     16  C   UNL     1       5.300   2.309   1.466  1.00  0.00     0.026 A 
ATOM     17  Cl  UNL     1       8.609   2.947  -0.934  1.00  0.00    -0.084 Cl
ATOM     18  C   UNL     1       6.471   2.772   0.748  1.00  0.00     0.033 A 
BRANCH  10  19
ATOM     19  C   UNL     1       1.894  -2.468   0.238  1.00  0.00     0.430 C 
ATOM     20  F   UNL     1       0.898  -2.652   1.125  1.00  0.00    -0.167 F 
ATOM     21  F   UNL     1       1.344  -2.876  -0.951  1.00  0.00    -0.167 F 
ATOM     22  F   UNL     1       2.873  -3.377   0.459  1.00  0.00    -0.167 F 
ENDBRANCH  10  19
BRANCH  16  23
ATOM     23  C   UNL     1       5.008   3.188   2.786  1.00  0.00    -0.015 A 
ATOM     24  C   UNL     1       4.313   4.763   2.208  1.00  0.00     0.009 A 
ATOM     25  C   UNL     1       5.281   3.033   4.791  1.00  0.00     0.009 A 
ATOM     26  C   UNL     1       3.925   6.026   3.389  1.00  0.00     0.001 A 
ATOM     27  C   UNL     1       4.783   4.381   5.873  1.00  0.00     0.001 A 
ATOM     28  C   UNL     1       4.146   5.837   5.141  1.00  0.00     0.000 A 
ENDBRANCH  16  23
ENDBRANCH   6   8
ENDBRANCH   5   6
ENDBRANCH   4   5
ENDBRANCH   3   4
ENDBRANCH   2   3
ENDBRANCH   1   2
BRANCH   1  29
ATOM     29  C   UNL     1       2.891  -1.520   4.280  1.00  0.00     0.261 C 
BRANCH  29  30
ATOM     30  O   UNL     1       3.600  -0.378   4.685  1.00  0.00    -0.460 OA
BRANCH  30  31
ATOM     31  C   UNL     1       4.817  -0.292   4.124  1.00  0.00     0.338 C 
ATOM     32  O   UNL     1       5.624  -1.173   3.910  1.00  0.00    -0.246 OA
BRANCH  31  33
ATOM     33  C   UNL     1       4.958   1.122   3.817  1.00  0.00     0.060 A 
ATOM     34  C   UNL     1       6.620   1.715   3.626  1.00  0.00     0.016 A 
ATOM     35  C   UNL     1       3.539   2.164   3.996  1.00  0.00     0.016 A 
ATOM     36  C   UNL     1       7.024   3.424   3.647  1.00  0.00     0.010 A 
ATOM     37  C   UNL     1       3.820   3.935   4.058  1.00  0.00     0.010 A 
ATOM     38  C   UNL     1       5.714   4.644   3.882  1.00  0.00    -0.014 A 
BRANCH  38  39
ATOM     39  C   UNL     1       6.558   6.040   4.099  1.00  0.00     0.031 A 
ATOM     40  C   UNL     1       7.155   6.390   5.472  1.00  0.00     0.074 A 
ATOM     41  C   UNL     1       6.808   6.952   3.130  1.00  0.00     0.049 A 
ATOM     42  N   UNL     1       7.423   7.564   6.001  1.00  0.00    -0.248 NA
ATOM     43  C   UNL     1       7.447   5.274   6.380  1.00  0.00     0.031 C 
ATOM     44  C   UNL     1       6.562   6.796   1.704  1.00  0.00     0.029 A 
ATOM     45  N   UNL     1       7.240   8.263   3.239  1.00  0.00    -0.354 N 
ATOM     46  C   UNL     1       7.744   7.327   7.340  1.00  0.00     0.074 A 
ATOM     47  C   UNL     1       7.609   5.900   7.537  1.00  0.00     0.031 C 
ATOM     48  C   UNL     1       6.664   7.989   1.098  1.00  0.00     0.029 A 
ATOM     49  C   UNL     1       7.039   8.995   2.087  1.00  0.00     0.049 A 
ATOM     50  H   UNL     1       7.648   8.635   4.054  1.00  0.00     0.167 HD
ATOM     51  C   UNL     1       8.149   8.188   8.312  1.00  0.00     0.034 A 
ATOM     52  C   UNL     1       7.119  10.318   1.835  1.00  0.00     0.034 A 
ATOM     53  C   UNL     1       8.519   9.561   8.072  1.00  0.00     0.049 A 
ATOM     54  C   UNL     1       7.609  11.267   2.896  1.00  0.00     0.074 A 
ATOM     55  C   UNL     1       9.106  10.460   8.949  1.00  0.00     0.029 A 
ATOM     56  N   UNL     1       8.388  10.220   6.863  1.00  0.00    -0.354 N 
ATOM     57  N   UNL     1       7.906  11.026   4.147  1.00  0.00    -0.248 NA
ATOM     58  C   UNL     1       7.855  12.659   2.481  1.00  0.00     0.031 C 
ATOM     59  C   UNL     1       9.307  11.670   8.276  1.00  0.00     0.029 A 
ATOM     60  C   UNL     1       8.887  11.510   6.967  1.00  0.00     0.049 A 
ATOM     61  H   UNL     1       7.997   9.831   6.047  1.00  0.00     0.167 HD
ATOM     62  C   UNL     1       8.449  12.208   4.645  1.00  0.00     0.074 A 
ATOM     63  C   UNL     1       8.427  13.168   3.563  1.00  0.00     0.031 C 
ATOM     64  C   UNL     1       8.934  12.459   5.885  1.00  0.00     0.034 A 
BRANCH  51  65
ATOM     65  C   UNL     1       8.278   7.668   9.735  1.00  0.00     0.023 A 
ATOM     66  C   UNL     1       9.224   6.673  10.057  1.00  0.00     0.012 A 
ATOM     67  C   UNL     1       7.488   8.212  10.773  1.00  0.00     0.148 A 
ATOM     68  C   UNL     1       9.313   6.160  11.352  1.00  0.00     0.002 A 
ATOM     69  C   UNL     1       7.635   7.748  12.077  1.00  0.00     0.091 A 
ATOM     70  F   UNL     1       6.598   9.169  10.470  1.00  0.00    -0.205 F 
ATOM     71  C   UNL     1       8.525   6.702  12.362  1.00  0.00     0.022 A 
BRANCH  69  72
ATOM     72  S   UNL     1       6.763   8.469  13.475  1.00  0.00     0.127 S 
ATOM     73  O   UNL     1       5.804   7.415  13.801  1.00  0.00    -0.237 OA
ATOM     74  O   UNL     1       7.838   8.637  14.454  1.00  0.00    -0.237 OA
ATOM     75  O   UNL     1       6.187   9.715  12.990  1.00  0.00    -0.744 OA
ENDBRANCH  69  72
ENDBRANCH  51  65
BRANCH  52  76
ATOM     76  C   UNL     1       6.820  10.825   0.464  1.00  0.00     0.023 A 
ATOM     77  C   UNL     1       7.892  11.195  -0.371  1.00  0.00     0.012 A 
ATOM     78  C   UNL     1       5.501  10.923  -0.020  1.00  0.00     0.148 A 
ATOM     79  C   UNL     1       7.657  11.689  -1.653  1.00  0.00     0.002 A 
ATOM     80  C   UNL     1       5.276  11.376  -1.316  1.00  0.00     0.091 A 
ATOM     81  F   UNL     1       4.498  10.559   0.791  1.00  0.00    -0.205 F 
ATOM     82  C   UNL     1       6.352  11.774  -2.127  1.00  0.00     0.022 A 
BRANCH  80  83
ATOM     83  S   UNL     1       3.643  11.434  -2.063  1.00  0.00     0.127 S 
ATOM     84  O   UNL     1       3.494  12.860  -2.349  1.00  0.00    -0.237 OA
ATOM     85  O   UNL     1       3.828  10.586  -3.241  1.00  0.00    -0.237 OA
ATOM     86  O   UNL     1       2.729  10.899  -1.064  1.00  0.00    -0.744 OA
ENDBRANCH  80  83
ENDBRANCH  52  76
BRANCH  64  87
ATOM     87  C   UNL     1       9.580  13.799   6.143  1.00  0.00     0.023 A 
ATOM     88  C   UNL     1       8.803  14.973   6.197  1.00  0.00     0.012 A 
ATOM     89  C   UNL     1      10.966  13.880   6.399  1.00  0.00     0.148 A 
ATOM     90  C   UNL     1       9.399  16.207   6.462  1.00  0.00     0.002 A 
ATOM     91  C   UNL     1      11.543  15.104   6.716  1.00  0.00     0.091 A 
ATOM     92  F   UNL     1      11.696  12.758   6.325  1.00  0.00    -0.205 F 
ATOM     93  C   UNL     1      10.764  16.272   6.733  1.00  0.00     0.022 A 
BRANCH  91  94
ATOM     94  S   UNL     1      13.272  15.268   7.176  1.00  0.00     0.127 S 
ATOM     95  O   UNL     1      13.821  15.984   6.025  1.00  0.00    -0.237 OA
ATOM     96  O   UNL     1      13.191  16.060   8.404  1.00  0.00    -0.237 OA
ATOM     97  O   UNL     1      13.772  13.913   7.362  1.00  0.00    -0.744 OA
ENDBRANCH  91  94
ENDBRANCH  64  87
ENDBRANCH  38  39
ENDBRANCH  31  33
ENDBRANCH  30  31
ENDBRANCH  29  30
ENDBRANCH   1  29
TORSDOF 19
