REMARK SMILES COCCCC(=O)N[C@H]1CC[C@@H](C(=O)OCCOCCOC(=O)c2ccc(-c3c4nc(c(-c5cccc(S(=O)(=O)[O-])c5F)c5ccc([nH]5)c(-c5cccc(S(=O)(=O)[O-])c5F)c5nc(c(-c6cccc(S(=O)(=O)[O-])c6F)c6ccc3[nH]6)C=C5)C=C4)cc2)CC1
REMARK SMILES IDX 17 1 16 2 15 3 13 4 14 5 12 6 9 7 10 8 88 9 11 10 87 11 8 12
REMARK SMILES IDX 6 13 7 14 5 16 4 17 3 18 2 19 1 20 18 21 19 22 20 23 21 24
REMARK SMILES IDX 22 25 23 26 24 27 25 28 86 29 26 30 85 31 27 32 28 33 29 34
REMARK SMILES IDX 79 35 30 36 84 37 78 38 80 39 31 40 83 41 77 42 76 43 32 45
REMARK SMILES IDX 64 46 44 47 63 48 45 49 48 50 62 51 81 52 46 53 47 54 61 56
REMARK SMILES IDX 82 57 49 58 33 59 34 60 42 61 35 62 37 63 43 64 36 65 38 66
REMARK SMILES IDX 39 67 40 68 41 69 65 70 66 71 74 72 67 73 69 74 75 75 68 76
REMARK SMILES IDX 70 77 71 78 72 79 73 80 50 81 51 82 59 83 52 84 54 85 60 86
REMARK SMILES IDX 53 87 55 88 56 89 57 90 58 91
REMARK H PARENT 8 15 80 44 48 55
REMARK Flexibility Score: inf
ROOT
ATOM      1  C   UNL     1       0.505   4.420   4.692  1.00  0.00     0.202 C 
ENDROOT
BRANCH   1   2
ATOM      2  C   UNL     1       0.008   3.402   3.660  1.00  0.00     0.261 C 
BRANCH   2   3
ATOM      3  O   UNL     1       0.868   3.348   2.506  1.00  0.00    -0.463 OA
BRANCH   3   4
ATOM      4  C   UNL     1       0.279   3.503   1.293  1.00  0.00     0.309 C 
ATOM      5  O   UNL     1      -0.928   3.615   1.109  1.00  0.00    -0.252 OA
BRANCH   4   6
ATOM      6  C   UNL     1       1.279   3.494   0.133  1.00  0.00     0.099 C 
ATOM      7  C   UNL     1       3.095   1.132   0.584  1.00  0.00     0.082 C 
ATOM      8  C   UNL     1       1.655   1.020   0.107  1.00  0.00     0.026 C 
ATOM      9  C   UNL     1       3.414   2.516   1.180  1.00  0.00     0.026 C 
ATOM     10  C   UNL     1       1.123   2.211  -0.674  1.00  0.00     0.017 C 
ATOM     11  C   UNL     1       2.757   3.699   0.471  1.00  0.00     0.017 C 
BRANCH   7  12
ATOM     12  N   UNL     1       3.512   0.123   1.572  1.00  0.00    -0.353 N 
ATOM     13  C   UNL     1       2.879  -0.788   2.363  1.00  0.00     0.220 C 
ATOM     14  O   UNL     1       3.468  -1.119   3.394  1.00  0.00    -0.275 OA
ATOM     15  H   UNL     1       4.489   0.101   1.690  1.00  0.00     0.163 HD
BRANCH  13  16
ATOM     16  C   UNL     1       1.545  -1.409   1.999  1.00  0.00     0.102 C 
BRANCH  16  17
ATOM     17  C   UNL     1       0.367  -0.804   2.767  1.00  0.00     0.038 C 
BRANCH  17  18
ATOM     18  C   UNL     1      -0.915  -0.572   1.954  1.00  0.00     0.160 C 
BRANCH  18  19
ATOM     19  O   UNL     1      -1.280  -1.699   1.165  1.00  0.00    -0.385 OA
ATOM     20  C   UNL     1      -1.195  -1.470  -0.235  1.00  0.00     0.194 C 
ENDBRANCH  18  19
ENDBRANCH  17  18
ENDBRANCH  16  17
ENDBRANCH  13  16
ENDBRANCH   7  12
ENDBRANCH   4   6
ENDBRANCH   3   4
ENDBRANCH   2   3
ENDBRANCH   1   2
BRANCH   1  21
ATOM     21  O   UNL     1       0.495   5.790   4.285  1.00  0.00    -0.374 OA
BRANCH  21  22
ATOM     22  C   UNL     1       1.394   6.181   3.251  1.00  0.00     0.202 C 
BRANCH  22  23
ATOM     23  C   UNL     1       2.889   6.196   3.594  1.00  0.00     0.261 C 
BRANCH  23  24
ATOM     24  O   UNL     1       3.397   4.916   4.016  1.00  0.00    -0.460 OA
BRANCH  24  25
ATOM     25  C   UNL     1       4.002   4.934   5.228  1.00  0.00     0.338 C 
ATOM     26  O   UNL     1       4.219   5.926   5.923  1.00  0.00    -0.246 OA
BRANCH  25  27
ATOM     27  C   UNL     1       4.277   3.580   5.733  1.00  0.00     0.060 A 
ATOM     28  C   UNL     1       3.675   3.216   6.944  1.00  0.00     0.016 A 
ATOM     29  C   UNL     1       5.239   2.754   5.146  1.00  0.00     0.016 A 
ATOM     30  C   UNL     1       4.088   2.064   7.608  1.00  0.00     0.010 A 
ATOM     31  C   UNL     1       5.649   1.592   5.817  1.00  0.00     0.010 A 
ATOM     32  C   UNL     1       5.114   1.269   7.077  1.00  0.00    -0.014 A 
BRANCH  32  33
ATOM     33  C   UNL     1       5.680   0.182   7.920  1.00  0.00     0.031 A 
ATOM     34  C   UNL     1       6.969   0.404   8.669  1.00  0.00     0.074 A 
ATOM     35  C   UNL     1       5.011  -0.975   8.076  1.00  0.00     0.049 A 
ATOM     36  N   UNL     1       7.550  -0.358   9.561  1.00  0.00    -0.248 NA
ATOM     37  C   UNL     1       7.700   1.648   8.378  1.00  0.00     0.031 C 
ATOM     38  C   UNL     1       3.775  -1.332   7.384  1.00  0.00     0.029 A 
ATOM     39  N   UNL     1       5.283  -2.063   8.868  1.00  0.00    -0.354 N 
ATOM     40  C   UNL     1       8.719   0.300   9.926  1.00  0.00     0.074 A 
ATOM     41  C   UNL     1       8.775   1.518   9.144  1.00  0.00     0.031 C 
ATOM     42  C   UNL     1       3.393  -2.558   7.782  1.00  0.00     0.029 A 
ATOM     43  C   UNL     1       4.359  -3.074   8.749  1.00  0.00     0.049 A 
ATOM     44  H   UNL     1       6.065  -2.114   9.464  1.00  0.00     0.167 HD
ATOM     45  C   UNL     1       9.649  -0.060  10.844  1.00  0.00     0.034 A 
ATOM     46  C   UNL     1       4.296  -4.277   9.354  1.00  0.00     0.034 A 
ATOM     47  C   UNL     1       9.585  -1.256  11.641  1.00  0.00     0.049 A 
ATOM     48  C   UNL     1       5.329  -4.641  10.389  1.00  0.00     0.074 A 
ATOM     49  C   UNL     1      10.450  -1.675  12.639  1.00  0.00     0.029 A 
ATOM     50  N   UNL     1       8.608  -2.233  11.528  1.00  0.00    -0.354 N 
ATOM     51  N   UNL     1       6.338  -3.934  10.837  1.00  0.00    -0.248 NA
ATOM     52  C   UNL     1       5.185  -5.955  11.035  1.00  0.00     0.031 C 
ATOM     53  C   UNL     1      10.004  -2.913  13.117  1.00  0.00     0.029 A 
ATOM     54  C   UNL     1       8.852  -3.258  12.429  1.00  0.00     0.049 A 
ATOM     55  H   UNL     1       7.851  -2.204  10.899  1.00  0.00     0.167 HD
ATOM     56  C   UNL     1       6.934  -4.704  11.830  1.00  0.00     0.074 A 
ATOM     57  C   UNL     1       6.151  -5.917  11.943  1.00  0.00     0.031 C 
ATOM     58  C   UNL     1       8.042  -4.441  12.568  1.00  0.00     0.034 A 
BRANCH  45  59
ATOM     59  C   UNL     1      10.803   0.881  11.075  1.00  0.00     0.023 A 
ATOM     60  C   UNL     1      10.589   2.075  11.794  1.00  0.00     0.012 A 
ATOM     61  C   UNL     1      12.105   0.560  10.643  1.00  0.00     0.148 A 
ATOM     62  C   UNL     1      11.645   2.946  12.057  1.00  0.00     0.002 A 
ATOM     63  C   UNL     1      13.160   1.416  10.941  1.00  0.00     0.091 A 
ATOM     64  F   UNL     1      12.287  -0.567   9.940  1.00  0.00    -0.205 F 
ATOM     65  C   UNL     1      12.931   2.612  11.640  1.00  0.00     0.022 A 
BRANCH  63  66
ATOM     66  S   UNL     1      14.863   1.038  10.507  1.00  0.00     0.127 S 
ATOM     67  O   UNL     1      15.091   1.948   9.386  1.00  0.00    -0.237 OA
ATOM     68  O   UNL     1      15.582   1.389  11.733  1.00  0.00    -0.237 OA
ATOM     69  O   UNL     1      14.885  -0.381  10.180  1.00  0.00    -0.744 OA
ENDBRANCH  63  66
ENDBRANCH  45  59
BRANCH  46  70
ATOM     70  C   UNL     1       3.169  -5.201   9.044  1.00  0.00     0.023 A 
ATOM     71  C   UNL     1       2.179  -5.439  10.018  1.00  0.00     0.012 A 
ATOM     72  C   UNL     1       3.060  -5.824   7.786  1.00  0.00     0.148 A 
ATOM     73  C   UNL     1       1.115  -6.300   9.753  1.00  0.00     0.002 A 
ATOM     74  C   UNL     1       1.968  -6.639   7.510  1.00  0.00     0.091 A 
ATOM     75  F   UNL     1       4.025  -5.604   6.882  1.00  0.00    -0.205 F 
ATOM     76  C   UNL     1       1.002  -6.890   8.497  1.00  0.00     0.022 A 
BRANCH  74  77
ATOM     77  S   UNL     1       1.678  -7.344   5.884  1.00  0.00     0.127 S 
ATOM     78  O   UNL     1       1.972  -8.757   6.114  1.00  0.00    -0.237 OA
ATOM     79  O   UNL     1       0.263  -7.038   5.668  1.00  0.00    -0.237 OA
ATOM     80  O   UNL     1       2.587  -6.648   4.984  1.00  0.00    -0.744 OA
ENDBRANCH  74  77
ENDBRANCH  46  70
BRANCH  58  81
ATOM     81  C   UNL     1       8.472  -5.481  13.572  1.00  0.00     0.023 A 
ATOM     82  C   UNL     1       9.036  -6.691  13.120  1.00  0.00     0.012 A 
ATOM     83  C   UNL     1       8.362  -5.248  14.957  1.00  0.00     0.148 A 
ATOM     84  C   UNL     1       9.442  -7.670  14.028  1.00  0.00     0.002 A 
ATOM     85  C   UNL     1       8.811  -6.210  15.857  1.00  0.00     0.091 A 
ATOM     86  F   UNL     1       7.805  -4.101  15.375  1.00  0.00    -0.205 F 
ATOM     87  C   UNL     1       9.339  -7.425  15.395  1.00  0.00     0.022 A 
BRANCH  85  88
ATOM     88  S   UNL     1       8.792  -5.928  17.632  1.00  0.00     0.127 S 
ATOM     89  O   UNL     1       7.558  -6.602  18.031  1.00  0.00    -0.237 OA
ATOM     90  O   UNL     1      10.019  -6.595  18.074  1.00  0.00    -0.237 OA
ATOM     91  O   UNL     1       8.808  -4.481  17.797  1.00  0.00    -0.744 OA
ENDBRANCH  85  88
ENDBRANCH  58  81
ENDBRANCH  32  33
ENDBRANCH  25  27
ENDBRANCH  24  25
ENDBRANCH  23  24
ENDBRANCH  22  23
ENDBRANCH  21  22
ENDBRANCH   1  21
TORSDOF 22
