REMARK SMILES CCCCCN(C)S(=O)(=O)c1cc(Cl)cc(C(=O)OCCOCCOC(=O)c2ccc(-c3c4nc(c(-c5cccc(S(=O)(=O)[O-])c5F)c5ccc([nH]5)c(-c5cccc(S(=O)(=O)[O-])c5F)c5nc(c(-c6cccc(S(=O)(=O)[O-])c6F)c6ccc3[nH]6)C=C5)C=C4)cc2)c1F
REMARK SMILES IDX 20 1 19 2 17 3 18 4 16 5 11 6 12 7 91 8 13 9 92 10 14 11
REMARK SMILES IDX 15 12 8 13 9 14 10 15 6 16 7 17 5 18 4 19 3 20 2 21 1 22
REMARK SMILES IDX 21 23 22 24 23 25 24 26 25 27 26 28 27 29 28 30 29 31 90 32
REMARK SMILES IDX 30 33 89 34 31 35 32 36 33 37 83 38 34 39 88 40 82 41 84 42
REMARK SMILES IDX 35 43 87 44 81 45 80 46 36 48 68 49 48 50 67 51 49 52 52 53
REMARK SMILES IDX 66 54 85 55 50 56 51 57 65 59 86 60 53 61 37 62 38 63 46 64
REMARK SMILES IDX 39 65 41 66 47 67 40 68 42 69 43 70 44 71 45 72 69 73 70 74
REMARK SMILES IDX 78 75 71 76 73 77 79 78 72 79 74 80 75 81 76 82 77 83 54 84
REMARK SMILES IDX 55 85 63 86 56 87 58 88 64 89 57 90 59 91 60 92 61 93 62 94
REMARK H PARENT 84 47 52 58
REMARK Flexibility Score: inf
ROOT
ATOM      1  C   UNL     1       0.013   8.754   5.281  1.00  0.00     0.261 C 
ENDROOT
BRANCH   1   2
ATOM      2  O   UNL     1      -0.302   7.380   4.985  1.00  0.00    -0.460 OA
BRANCH   2   3
ATOM      3  C   UNL     1      -0.196   6.516   6.016  1.00  0.00     0.341 C 
ATOM      4  O   UNL     1       0.275   6.729   7.120  1.00  0.00    -0.246 OA
BRANCH   3   5
ATOM      5  C   UNL     1      -0.995   5.316   5.719  1.00  0.00     0.098 A 
ATOM      6  C   UNL     1      -1.673   3.476   4.335  1.00  0.00     0.120 A 
ATOM      7  C   UNL     1      -2.602   3.076   5.308  1.00  0.00     0.045 A 
ATOM      8  C   UNL     1      -0.874   4.599   4.528  1.00  0.00     0.157 A 
ATOM      9  C   UNL     1      -2.708   3.797   6.491  1.00  0.00     0.043 A 
ATOM     10  F   UNL     1       0.021   4.973   3.605  1.00  0.00    -0.205 F 
ATOM     11  Cl  UNL     1      -3.816   3.293   7.704  1.00  0.00    -0.084 Cl
ATOM     12  C   UNL     1      -1.905   4.910   6.708  1.00  0.00     0.039 A 
BRANCH   6  13
ATOM     13  S   UNL     1      -1.399   2.406   2.959  1.00  0.00     0.245 S 
ATOM     14  O   UNL     1      -2.552   1.527   2.875  1.00  0.00    -0.207 OA
ATOM     15  O   UNL     1      -0.083   1.857   3.176  1.00  0.00    -0.207 OA
BRANCH  13  16
ATOM     16  N   UNL     1      -1.437   3.384   1.554  1.00  0.00    -0.201 NA
ATOM     17  C   UNL     1      -2.742   4.069   1.340  1.00  0.00     0.124 C 
BRANCH  16  18
ATOM     18  C   UNL     1      -1.040   2.656   0.293  1.00  0.00     0.102 C 
BRANCH  18  19
ATOM     19  C   UNL     1       0.417   2.884  -0.111  1.00  0.00     0.017 C 
BRANCH  19  20
ATOM     20  C   UNL     1       1.488   2.039   0.588  1.00  0.00     0.001 C 
BRANCH  20  21
ATOM     21  C   UNL     1       1.213   0.534   0.690  1.00  0.00    -0.003 C 
ATOM     22  C   UNL     1       1.217  -0.184  -0.648  1.00  0.00     0.004 C 
ENDBRANCH  20  21
ENDBRANCH  19  20
ENDBRANCH  18  19
ENDBRANCH  16  18
ENDBRANCH  13  16
ENDBRANCH   6  13
ENDBRANCH   3   5
ENDBRANCH   2   3
ENDBRANCH   1   2
BRANCH   1  23
ATOM     23  C   UNL     1      -1.171   9.634   4.874  1.00  0.00     0.202 C 
BRANCH  23  24
ATOM     24  O   UNL     1      -2.313   9.458   5.721  1.00  0.00    -0.374 OA
BRANCH  24  25
ATOM     25  C   UNL     1      -3.222   8.429   5.322  1.00  0.00     0.202 C 
BRANCH  25  26
ATOM     26  C   UNL     1      -4.305   8.906   4.350  1.00  0.00     0.261 C 
BRANCH  26  27
ATOM     27  O   UNL     1      -3.746   9.111   3.041  1.00  0.00    -0.460 OA
BRANCH  27  28
ATOM     28  C   UNL     1      -3.612  10.407   2.666  1.00  0.00     0.338 C 
ATOM     29  O   UNL     1      -4.025  11.387   3.263  1.00  0.00    -0.246 OA
BRANCH  28  30
ATOM     30  C   UNL     1      -2.732  10.497   1.480  1.00  0.00     0.060 A 
ATOM     31  C   UNL     1      -1.823  11.562   1.432  1.00  0.00     0.016 A 
ATOM     32  C   UNL     1      -2.802   9.582   0.425  1.00  0.00     0.016 A 
ATOM     33  C   UNL     1      -1.014  11.741   0.311  1.00  0.00     0.010 A 
ATOM     34  C   UNL     1      -1.994   9.767  -0.702  1.00  0.00     0.010 A 
ATOM     35  C   UNL     1      -1.121  10.865  -0.776  1.00  0.00    -0.014 A 
BRANCH  35  36
ATOM     36  C   UNL     1      -0.419  11.176  -2.043  1.00  0.00     0.031 A 
ATOM     37  C   UNL     1      -1.163  11.910  -3.125  1.00  0.00     0.074 A 
ATOM     38  C   UNL     1       0.861  10.809  -2.231  1.00  0.00     0.049 A 
ATOM     39  N   UNL     1      -0.748  12.280  -4.307  1.00  0.00    -0.248 NA
ATOM     40  C   UNL     1      -2.560  12.275  -2.834  1.00  0.00     0.031 C 
ATOM     41  C   UNL     1       1.685  10.091  -1.260  1.00  0.00     0.029 A 
ATOM     42  N   UNL     1       1.683  10.973  -3.317  1.00  0.00    -0.354 N 
ATOM     43  C   UNL     1      -1.831  12.908  -4.908  1.00  0.00     0.074 A 
ATOM     44  C   UNL     1      -2.928  12.858  -3.966  1.00  0.00     0.031 C 
ATOM     45  C   UNL     1       2.890   9.853  -1.805  1.00  0.00     0.029 A 
ATOM     46  C   UNL     1       2.918  10.390  -3.165  1.00  0.00     0.049 A 
ATOM     47  H   UNL     1       1.414  11.463  -4.128  1.00  0.00     0.167 HD
ATOM     48  C   UNL     1      -1.901  13.495  -6.125  1.00  0.00     0.034 A 
ATOM     49  C   UNL     1       3.948  10.294  -4.029  1.00  0.00     0.034 A 
ATOM     50  C   UNL     1      -0.809  13.565  -7.055  1.00  0.00     0.049 A 
ATOM     51  C   UNL     1       3.835  10.932  -5.389  1.00  0.00     0.074 A 
ATOM     52  C   UNL     1      -0.773  14.176  -8.296  1.00  0.00     0.029 A 
ATOM     53  N   UNL     1       0.440  13.000  -6.849  1.00  0.00    -0.354 N 
ATOM     54  N   UNL     1       2.849  11.636  -5.890  1.00  0.00    -0.248 NA
ATOM     55  C   UNL     1       4.988  10.788  -6.292  1.00  0.00     0.031 C 
ATOM     56  C   UNL     1       0.498  13.974  -8.845  1.00  0.00     0.029 A 
ATOM     57  C   UNL     1       1.252  13.239  -7.944  1.00  0.00     0.049 A 
ATOM     58  H   UNL     1       0.709  12.502  -6.044  1.00  0.00     0.167 HD
ATOM     59  C   UNL     1       3.272  12.043  -7.151  1.00  0.00     0.074 A 
ATOM     60  C   UNL     1       4.611  11.521  -7.332  1.00  0.00     0.031 C 
ATOM     61  C   UNL     1       2.605  12.767  -8.083  1.00  0.00     0.034 A 
BRANCH  48  62
ATOM     62  C   UNL     1      -3.196  14.158  -6.499  1.00  0.00     0.023 A 
ATOM     63  C   UNL     1      -3.490  15.431  -5.970  1.00  0.00     0.012 A 
ATOM     64  C   UNL     1      -4.094  13.555  -7.399  1.00  0.00     0.148 A 
ATOM     65  C   UNL     1      -4.669  16.087  -6.319  1.00  0.00     0.002 A 
ATOM     66  C   UNL     1      -5.255  14.229  -7.764  1.00  0.00     0.091 A 
ATOM     67  F   UNL     1      -3.812  12.329  -7.862  1.00  0.00    -0.205 F 
ATOM     68  C   UNL     1      -5.545  15.492  -7.222  1.00  0.00     0.022 A 
BRANCH  66  69
ATOM     69  S   UNL     1      -6.411  13.555  -8.961  1.00  0.00     0.127 S 
ATOM     70  O   UNL     1      -7.454  13.012  -8.091  1.00  0.00    -0.237 OA
ATOM     71  O   UNL     1      -6.808  14.742  -9.720  1.00  0.00    -0.237 OA
ATOM     72  O   UNL     1      -5.655  12.576  -9.729  1.00  0.00    -0.744 OA
ENDBRANCH  66  69
ENDBRANCH  48  62
BRANCH  49  73
ATOM     73  C   UNL     1       5.200   9.603  -3.615  1.00  0.00     0.023 A 
ATOM     74  C   UNL     1       6.361  10.362  -3.372  1.00  0.00     0.012 A 
ATOM     75  C   UNL     1       5.242   8.207  -3.437  1.00  0.00     0.148 A 
ATOM     76  C   UNL     1       7.546   9.741  -2.976  1.00  0.00     0.002 A 
ATOM     77  C   UNL     1       6.413   7.600  -2.998  1.00  0.00     0.091 A 
ATOM     78  F   UNL     1       4.136   7.497  -3.702  1.00  0.00    -0.205 F 
ATOM     79  C   UNL     1       7.570   8.363  -2.777  1.00  0.00     0.022 A 
BRANCH  77  80
ATOM     80  S   UNL     1       6.478   5.847  -2.606  1.00  0.00     0.127 S 
ATOM     81  O   UNL     1       7.072   5.291  -3.818  1.00  0.00    -0.237 OA
ATOM     82  O   UNL     1       7.344   5.824  -1.427  1.00  0.00    -0.237 OA
ATOM     83  O   UNL     1       5.097   5.468  -2.336  1.00  0.00    -0.744 OA
ENDBRANCH  77  80
ENDBRANCH  49  73
BRANCH  61  84
ATOM     84  C   UNL     1       3.307  13.058  -9.381  1.00  0.00     0.023 A 
ATOM     85  C   UNL     1       3.399  12.047 -10.357  1.00  0.00     0.012 A 
ATOM     86  C   UNL     1       3.786  14.350  -9.673  1.00  0.00     0.148 A 
ATOM     87  C   UNL     1       3.972  12.313 -11.600  1.00  0.00     0.002 A 
ATOM     88  C   UNL     1       4.323  14.617 -10.928  1.00  0.00     0.091 A 
ATOM     89  F   UNL     1       3.710  15.293  -8.723  1.00  0.00    -0.205 F 
ATOM     90  C   UNL     1       4.422  13.599 -11.890  1.00  0.00     0.022 A 
BRANCH  88  91
ATOM     91  S   UNL     1       4.846  16.268 -11.407  1.00  0.00     0.127 S 
ATOM     92  O   UNL     1       6.294  16.188 -11.229  1.00  0.00    -0.237 OA
ATOM     93  O   UNL     1       4.406  16.348 -12.801  1.00  0.00    -0.237 OA
ATOM     94  O   UNL     1       4.147  17.177 -10.507  1.00  0.00    -0.744 OA
ENDBRANCH  88  91
ENDBRANCH  61  84
ENDBRANCH  35  36
ENDBRANCH  28  30
ENDBRANCH  27  28
ENDBRANCH  26  27
ENDBRANCH  25  26
ENDBRANCH  24  25
ENDBRANCH  23  24
ENDBRANCH   1  23
TORSDOF 23
