REMARK SMILES CC(C)(O)CCOc1ccc(C(=O)OCCOCCOC(=O)c2ccc(-c3c4nc(c(-c5cccc(S(=O)(=O)[O-])c5F)c5ccc([nH]5)c(-c5cccc(S(=O)(=O)[O-])c5F)c5nc(c(-c6cccc(S(=O)(=O)[O-])c6F)c6ccc3[nH]6)C=C5)C=C4)cc2)cc1
REMARK SMILES IDX 16 1 15 2 14 3 12 4 13 5 11 6 8 7 9 8 87 9 10 10 86 11 7 12
REMARK SMILES IDX 6 13 5 14 2 15 1 16 3 17 4 18 17 20 18 21 19 22 20 23 21 24
REMARK SMILES IDX 22 25 23 26 24 27 85 28 25 29 84 30 26 31 27 32 28 33 78 34
REMARK SMILES IDX 29 35 83 36 77 37 79 38 30 39 82 40 76 41 75 42 31 44 63 45
REMARK SMILES IDX 43 46 62 47 44 48 47 49 61 50 80 51 45 52 46 53 60 55 81 56
REMARK SMILES IDX 48 57 32 58 33 59 41 60 34 61 36 62 42 63 35 64 37 65 38 66
REMARK SMILES IDX 39 67 40 68 64 69 65 70 73 71 66 72 68 73 74 74 67 75 69 76
REMARK SMILES IDX 70 77 71 78 72 79 49 80 50 81 58 82 51 83 53 84 59 85 52 86
REMARK SMILES IDX 54 87 55 88 56 89 57 90
REMARK H PARENT 4 19 79 43 47 54
REMARK Flexibility Score: inf
ROOT
ATOM      1  C   UNL     1       0.524   3.810   5.098  1.00  0.00     0.202 C 
ENDROOT
BRANCH   1   2
ATOM      2  C   UNL     1      -0.857   3.381   4.591  1.00  0.00     0.261 C 
BRANCH   2   3
ATOM      3  O   UNL     1      -0.800   2.795   3.282  1.00  0.00    -0.460 OA
BRANCH   3   4
ATOM      4  C   UNL     1      -1.109   3.624   2.252  1.00  0.00     0.338 C 
ATOM      5  O   UNL     1      -1.457   4.787   2.303  1.00  0.00    -0.246 OA
BRANCH   4   6
ATOM      6  C   UNL     1      -0.806   2.912   0.997  1.00  0.00     0.060 A 
ATOM      7  C   UNL     1       0.001   1.464  -1.255  1.00  0.00     0.119 A 
ATOM      8  C   UNL     1       0.481   2.761  -1.039  1.00  0.00     0.047 A 
ATOM      9  C   UNL     1      -0.977   0.957  -0.401  1.00  0.00     0.047 A 
ATOM     10  C   UNL     1       0.066   3.496   0.075  1.00  0.00     0.019 A 
ATOM     11  C   UNL     1      -1.349   1.653   0.750  1.00  0.00     0.019 A 
BRANCH   7  12
ATOM     12  O   UNL     1       0.626   0.777  -2.259  1.00  0.00    -0.493 OA
BRANCH  12  13
ATOM     13  C   UNL     1       0.284  -0.591  -2.496  1.00  0.00     0.232 C 
BRANCH  13  14
ATOM     14  C   UNL     1       1.231  -1.628  -1.857  1.00  0.00     0.076 C 
BRANCH  14  15
ATOM     15  C   UNL     1       1.143  -1.860  -0.331  1.00  0.00     0.062 C 
ATOM     16  C   UNL     1       1.933  -0.817   0.467  1.00  0.00     0.042 C 
ATOM     17  C   UNL     1       1.680  -3.252   0.033  1.00  0.00     0.042 C 
BRANCH  15  18
ATOM     18  O   UNL     1      -0.227  -1.861   0.063  1.00  0.00    -0.390 OA
ATOM     19  H   UNL     1      -0.288  -2.007   1.020  1.00  0.00     0.211 HD
ENDBRANCH  15  18
ENDBRANCH  14  15
ENDBRANCH  13  14
ENDBRANCH  12  13
ENDBRANCH   7  12
ENDBRANCH   4   6
ENDBRANCH   3   4
ENDBRANCH   2   3
ENDBRANCH   1   2
BRANCH   1  20
ATOM     20  O   UNL     1       1.193   4.780   4.290  1.00  0.00    -0.374 OA
BRANCH  20  21
ATOM     21  C   UNL     1       2.007   4.244   3.243  1.00  0.00     0.202 C 
BRANCH  21  22
ATOM     22  C   UNL     1       3.445   3.910   3.655  1.00  0.00     0.261 C 
BRANCH  22  23
ATOM     23  O   UNL     1       3.487   2.772   4.532  1.00  0.00    -0.460 OA
BRANCH  23  24
ATOM     24  C   UNL     1       3.700   3.067   5.837  1.00  0.00     0.338 C 
ATOM     25  O   UNL     1       3.944   4.163   6.313  1.00  0.00    -0.246 OA
BRANCH  24  26
ATOM     26  C   UNL     1       3.437   1.878   6.670  1.00  0.00     0.060 A 
ATOM     27  C   UNL     1       2.641   2.055   7.809  1.00  0.00     0.016 A 
ATOM     28  C   UNL     1       4.006   0.633   6.390  1.00  0.00     0.016 A 
ATOM     29  C   UNL     1       2.466   1.006   8.707  1.00  0.00     0.010 A 
ATOM     30  C   UNL     1       3.827  -0.420   7.293  1.00  0.00     0.010 A 
ATOM     31  C   UNL     1       3.093  -0.226   8.477  1.00  0.00    -0.014 A 
BRANCH  31  32
ATOM     32  C   UNL     1       3.087  -1.258   9.543  1.00  0.00     0.031 A 
ATOM     33  C   UNL     1       4.324  -1.460  10.376  1.00  0.00     0.074 A 
ATOM     34  C   UNL     1       1.986  -1.994   9.778  1.00  0.00     0.049 A 
ATOM     35  N   UNL     1       4.531  -2.295  11.361  1.00  0.00    -0.248 NA
ATOM     36  C   UNL     1       5.485  -0.614  10.054  1.00  0.00     0.031 C 
ATOM     37  C   UNL     1       0.730  -1.894   9.036  1.00  0.00     0.029 A 
ATOM     38  N   UNL     1       1.756  -2.985  10.700  1.00  0.00    -0.354 N 
ATOM     39  C   UNL     1       5.848  -2.096  11.758  1.00  0.00     0.074 A 
ATOM     40  C   UNL     1       6.399  -1.074  10.896  1.00  0.00     0.031 C 
ATOM     41  C   UNL     1      -0.134  -2.804   9.518  1.00  0.00     0.029 A 
ATOM     42  C   UNL     1       0.514  -3.563  10.586  1.00  0.00     0.049 A 
ATOM     43  H   UNL     1       2.417  -3.255  11.377  1.00  0.00     0.167 HD
ATOM     44  C   UNL     1       6.532  -2.696  12.761  1.00  0.00     0.034 A 
ATOM     45  C   UNL     1      -0.032  -4.597  11.257  1.00  0.00     0.034 A 
ATOM     46  C   UNL     1       5.975  -3.695  13.632  1.00  0.00     0.049 A 
ATOM     47  C   UNL     1       0.752  -5.252  12.364  1.00  0.00     0.074 A 
ATOM     48  C   UNL     1       6.570  -4.324  14.711  1.00  0.00     0.029 A 
ATOM     49  N   UNL     1       4.697  -4.221  13.518  1.00  0.00    -0.354 N 
ATOM     50  N   UNL     1       1.953  -4.966  12.807  1.00  0.00    -0.248 NA
ATOM     51  C   UNL     1       0.091  -6.346  13.090  1.00  0.00     0.031 C 
ATOM     52  C   UNL     1       5.662  -5.253  15.231  1.00  0.00     0.029 A 
ATOM     53  C   UNL     1       4.489  -5.175  14.498  1.00  0.00     0.049 A 
ATOM     54  H   UNL     1       4.036  -3.955  12.838  1.00  0.00     0.167 HD
ATOM     55  C   UNL     1       2.173  -5.813  13.888  1.00  0.00     0.074 A 
ATOM     56  C   UNL     1       0.976  -6.613  14.042  1.00  0.00     0.031 C 
ATOM     57  C   UNL     1       3.271  -5.925  14.676  1.00  0.00     0.034 A 
BRANCH  44  58
ATOM     58  C   UNL     1       7.960  -2.270  12.989  1.00  0.00     0.023 A 
ATOM     59  C   UNL     1       8.232  -1.002  13.542  1.00  0.00     0.012 A 
ATOM     60  C   UNL     1       9.027  -3.146  12.710  1.00  0.00     0.148 A 
ATOM     61  C   UNL     1       9.546  -0.600  13.784  1.00  0.00     0.002 A 
ATOM     62  C   UNL     1      10.330  -2.756  12.996  1.00  0.00     0.091 A 
ATOM     63  F   UNL     1       8.749  -4.338  12.164  1.00  0.00    -0.205 F 
ATOM     64  C   UNL     1      10.592  -1.480  13.521  1.00  0.00     0.022 A 
BRANCH  62  65
ATOM     65  S   UNL     1      11.739  -3.848  12.769  1.00  0.00     0.127 S 
ATOM     66  O   UNL     1      12.412  -3.227  11.629  1.00  0.00    -0.237 OA
ATOM     67  O   UNL     1      12.444  -3.708  14.043  1.00  0.00    -0.237 OA
ATOM     68  O   UNL     1      11.186  -5.172  12.523  1.00  0.00    -0.744 OA
ENDBRANCH  62  65
ENDBRANCH  44  58
BRANCH  45  69
ATOM     69  C   UNL     1      -1.413  -5.050  10.927  1.00  0.00     0.023 A 
ATOM     70  C   UNL     1      -2.455  -4.844  11.850  1.00  0.00     0.012 A 
ATOM     71  C   UNL     1      -1.699  -5.667   9.693  1.00  0.00     0.148 A 
ATOM     72  C   UNL     1      -3.752  -5.272  11.565  1.00  0.00     0.002 A 
ATOM     73  C   UNL     1      -3.004  -6.038   9.392  1.00  0.00     0.091 A 
ATOM     74  F   UNL     1      -0.690  -5.868   8.834  1.00  0.00    -0.205 F 
ATOM     75  C   UNL     1      -4.029  -5.859  10.333  1.00  0.00     0.022 A 
BRANCH  73  76
ATOM     76  S   UNL     1      -3.473  -6.677   7.780  1.00  0.00     0.127 S 
ATOM     77  O   UNL     1      -3.779  -8.072   8.088  1.00  0.00    -0.237 OA
ATOM     78  O   UNL     1      -4.633  -5.848   7.454  1.00  0.00    -0.237 OA
ATOM     79  O   UNL     1      -2.319  -6.458   6.918  1.00  0.00    -0.744 OA
ENDBRANCH  73  76
ENDBRANCH  45  69
BRANCH  57  80
ATOM     80  C   UNL     1       3.221  -6.910  15.816  1.00  0.00     0.023 A 
ATOM     81  C   UNL     1       3.269  -8.294  15.556  1.00  0.00     0.012 A 
ATOM     82  C   UNL     1       3.204  -6.458  17.151  1.00  0.00     0.148 A 
ATOM     83  C   UNL     1       3.265  -9.213  16.606  1.00  0.00     0.002 A 
ATOM     84  C   UNL     1       3.253  -7.377  18.192  1.00  0.00     0.091 A 
ATOM     85  F   UNL     1       3.140  -5.138  17.378  1.00  0.00    -0.205 F 
ATOM     86  C   UNL     1       3.270  -8.755  17.922  1.00  0.00     0.022 A 
BRANCH  84  87
ATOM     87  S   UNL     1       3.362  -6.875  19.913  1.00  0.00     0.127 S 
ATOM     88  O   UNL     1       2.024  -7.200  20.404  1.00  0.00    -0.237 OA
ATOM     89  O   UNL     1       4.426  -7.742  20.422  1.00  0.00    -0.237 OA
ATOM     90  O   UNL     1       3.695  -5.457  19.898  1.00  0.00    -0.744 OA
ENDBRANCH  84  87
ENDBRANCH  57  80
ENDBRANCH  31  32
ENDBRANCH  24  26
ENDBRANCH  23  24
ENDBRANCH  22  23
ENDBRANCH  21  22
ENDBRANCH  20  21
ENDBRANCH   1  20
TORSDOF 22
