REMARK SMILES CS(=O)(=O)c1ccc(/C=C(/C(=O)OCCOCCOC(=O)c2ccc(-c3c4nc(c(-c5cccc(S(=O)(=O)[O-])c5F)c5ccc([nH]5)c(-c5cccc(S(=O)(=O)[O-])c5F)c5nc(c(-c6cccc(S(=O)(=O)[O-])c6F)c6ccc3[nH]6)C=C5)C=C4)cc2)c2ccc(-c3ccc(S(C)(=O)=O)cc3)cc2)cc1
REMARK SMILES IDX 16 1 15 2 14 3 13 4 11 5 12 6 10 7 9 8 8 9 5 10 6 11 102 12
REMARK SMILES IDX 7 13 101 14 2 15 1 16 3 17 4 18 85 19 86 20 100 21 87 22
REMARK SMILES IDX 99 23 88 24 89 25 90 26 98 27 91 28 97 29 92 30 93 31 94 32
REMARK SMILES IDX 95 33 96 34 17 35 18 36 19 37 20 38 21 39 22 40 23 41 84 42
REMARK SMILES IDX 24 43 83 44 25 45 26 46 27 47 77 48 28 49 82 50 76 51 78 52
REMARK SMILES IDX 29 53 81 54 75 55 74 56 30 58 62 59 42 60 61 61 43 62 46 63
REMARK SMILES IDX 60 64 79 65 44 66 45 67 59 69 80 70 47 71 31 72 32 73 40 74
REMARK SMILES IDX 33 75 35 76 41 77 34 78 36 79 37 80 38 81 39 82 63 83 64 84
REMARK SMILES IDX 72 85 65 86 67 87 73 88 66 89 68 90 69 91 70 92 71 93 48 94
REMARK SMILES IDX 49 95 57 96 50 97 52 98 58 99 51 100 53 101 54 102 55 103
REMARK SMILES IDX 56 104
REMARK H PARENT 78 57 46 68
REMARK Flexibility Score: inf
ROOT
ATOM      1  O   UNL     1       1.923 -11.602   2.555  1.00  0.00    -0.374 OA
ENDROOT
BRANCH   1   2
ATOM      2  C   UNL     1       3.317 -11.360   2.352  1.00  0.00     0.202 C 
BRANCH   2   3
ATOM      3  C   UNL     1       3.714 -10.403   1.223  1.00  0.00     0.261 C 
BRANCH   3   4
ATOM      4  O   UNL     1       3.226  -9.069   1.458  1.00  0.00    -0.460 OA
BRANCH   4   5
ATOM      5  C   UNL     1       2.383  -8.600   0.503  1.00  0.00     0.338 C 
ATOM      6  O   UNL     1       2.135  -9.151  -0.562  1.00  0.00    -0.246 OA
BRANCH   5   7
ATOM      7  C   UNL     1       1.643  -7.377   0.952  1.00  0.00     0.067 C 
ATOM      8  C   UNL     1       2.266  -6.406   1.663  1.00  0.00     0.024 C 
BRANCH   8   9
ATOM      9  C   UNL     1       1.780  -5.029   1.955  1.00  0.00    -0.025 A 
ATOM     10  C   UNL     1       0.988  -2.329   2.012  1.00  0.00     0.067 A 
ATOM     11  C   UNL     1       0.026  -3.332   2.064  1.00  0.00     0.021 A 
ATOM     12  C   UNL     1       2.344  -2.652   2.062  1.00  0.00     0.021 A 
ATOM     13  C   UNL     1       0.429  -4.670   2.076  1.00  0.00     0.009 A 
ATOM     14  C   UNL     1       2.733  -3.998   2.027  1.00  0.00     0.009 A 
BRANCH  10  15
ATOM     15  S   UNL     1       0.490  -0.635   1.830  1.00  0.00     0.175 S 
ATOM     16  C   UNL     1       1.092  -0.193   0.218  1.00  0.00     0.163 C 
ATOM     17  O   UNL     1       1.210   0.140   2.820  1.00  0.00    -0.224 OA
ATOM     18  O   UNL     1      -0.961  -0.601   1.768  1.00  0.00    -0.224 OA
ENDBRANCH  10  15
ENDBRANCH   8   9
BRANCH   7  19
ATOM     19  C   UNL     1       0.249  -7.276   0.483  1.00  0.00    -0.011 A 
ATOM     20  C   UNL     1      -0.767  -7.934   1.190  1.00  0.00     0.009 A 
ATOM     21  C   UNL     1      -0.083  -6.497  -0.624  1.00  0.00     0.009 A 
ATOM     22  C   UNL     1      -2.101  -7.793   0.810  1.00  0.00     0.009 A 
ATOM     23  C   UNL     1      -1.422  -6.342  -0.987  1.00  0.00     0.009 A 
ATOM     24  C   UNL     1      -2.455  -6.980  -0.275  1.00  0.00    -0.018 A 
BRANCH  24  25
ATOM     25  C   UNL     1      -3.865  -6.783  -0.648  1.00  0.00    -0.018 A 
ATOM     26  C   UNL     1      -4.848  -6.524   0.326  1.00  0.00     0.010 A 
ATOM     27  C   UNL     1      -4.263  -6.820  -1.996  1.00  0.00     0.010 A 
ATOM     28  C   UNL     1      -6.179  -6.298  -0.033  1.00  0.00     0.021 A 
ATOM     29  C   UNL     1      -5.589  -6.594  -2.366  1.00  0.00     0.021 A 
ATOM     30  C   UNL     1      -6.540  -6.338  -1.380  1.00  0.00     0.067 A 
BRANCH  30  31
ATOM     31  S   UNL     1      -8.225  -6.022  -1.836  1.00  0.00     0.175 S 
ATOM     32  C   UNL     1      -9.097  -7.434  -1.212  1.00  0.00     0.163 C 
ATOM     33  O   UNL     1      -8.659  -4.854  -1.095  1.00  0.00    -0.224 OA
ATOM     34  O   UNL     1      -8.310  -6.061  -3.284  1.00  0.00    -0.224 OA
ENDBRANCH  30  31
ENDBRANCH  24  25
ENDBRANCH   7  19
ENDBRANCH   5   7
ENDBRANCH   4   5
ENDBRANCH   3   4
ENDBRANCH   2   3
ENDBRANCH   1   2
BRANCH   1  35
ATOM     35  C   UNL     1       1.150 -10.549   3.119  1.00  0.00     0.202 C 
BRANCH  35  36
ATOM     36  C   UNL     1       1.249 -10.299   4.629  1.00  0.00     0.261 C 
BRANCH  36  37
ATOM     37  O   UNL     1       2.591 -10.065   5.073  1.00  0.00    -0.460 OA
BRANCH  37  38
ATOM     38  C   UNL     1       3.155 -11.119   5.708  1.00  0.00     0.338 C 
ATOM     39  O   UNL     1       2.616 -12.180   6.002  1.00  0.00    -0.246 OA
BRANCH  38  40
ATOM     40  C   UNL     1       4.604 -10.901   5.843  1.00  0.00     0.060 A 
ATOM     41  C   UNL     1       5.454 -11.899   5.350  1.00  0.00     0.016 A 
ATOM     42  C   UNL     1       5.121  -9.769   6.476  1.00  0.00     0.016 A 
ATOM     43  C   UNL     1       6.829 -11.794   5.533  1.00  0.00     0.010 A 
ATOM     44  C   UNL     1       6.501  -9.671   6.668  1.00  0.00     0.010 A 
ATOM     45  C   UNL     1       7.355 -10.700   6.232  1.00  0.00    -0.014 A 
BRANCH  45  46
ATOM     46  C   UNL     1       8.781 -10.710   6.629  1.00  0.00     0.031 A 
ATOM     47  C   UNL     1       9.140 -11.083   8.039  1.00  0.00     0.074 A 
ATOM     48  C   UNL     1       9.740 -10.393   5.743  1.00  0.00     0.049 A 
ATOM     49  N   UNL     1      10.316 -11.145   8.604  1.00  0.00    -0.248 NA
ATOM     50  C   UNL     1       8.022 -11.427   8.934  1.00  0.00     0.031 C 
ATOM     51  C   UNL     1       9.509 -10.012   4.351  1.00  0.00     0.029 A 
ATOM     52  N   UNL     1      11.101 -10.316   5.896  1.00  0.00    -0.354 N 
ATOM     53  C   UNL     1      10.082 -11.502   9.926  1.00  0.00     0.074 A 
ATOM     54  C   UNL     1       8.649 -11.630  10.083  1.00  0.00     0.031 C 
ATOM     55  C   UNL     1      10.688  -9.710   3.783  1.00  0.00     0.029 A 
ATOM     56  C   UNL     1      11.751  -9.854   4.777  1.00  0.00     0.049 A 
ATOM     57  H   UNL     1      11.567 -10.566   6.726  1.00  0.00     0.167 HD
ATOM     58  C   UNL     1      10.979 -11.717  10.917  1.00  0.00     0.034 A 
ATOM     59  C   UNL     1      13.052  -9.559   4.585  1.00  0.00     0.034 A 
ATOM     60  C   UNL     1      12.402 -11.603  10.751  1.00  0.00     0.049 A 
ATOM     61  C   UNL     1      14.031  -9.793   5.705  1.00  0.00     0.074 A 
ATOM     62  C   UNL     1      13.400 -11.861  11.674  1.00  0.00     0.029 A 
ATOM     63  N   UNL     1      13.031 -11.177   9.591  1.00  0.00    -0.354 N 
ATOM     64  N   UNL     1      13.810 -10.258   6.911  1.00  0.00    -0.248 NA
ATOM     65  C   UNL     1      15.444  -9.497   5.426  1.00  0.00     0.031 C 
ATOM     66  C   UNL     1      14.631 -11.557  11.082  1.00  0.00     0.029 A 
ATOM     67  C   UNL     1      14.402 -11.145   9.778  1.00  0.00     0.049 A 
ATOM     68  H   UNL     1      12.570 -10.934   8.756  1.00  0.00     0.167 HD
ATOM     69  C   UNL     1      15.055 -10.340   7.525  1.00  0.00     0.074 A 
ATOM     70  C   UNL     1      16.029  -9.894   6.549  1.00  0.00     0.031 C 
ATOM     71  C   UNL     1      15.364 -10.738   8.784  1.00  0.00     0.034 A 
BRANCH  58  72
ATOM     72  C   UNL     1      10.439 -12.110  12.268  1.00  0.00     0.023 A 
ATOM     73  C   UNL     1       9.875 -13.389  12.454  1.00  0.00     0.012 A 
ATOM     74  C   UNL     1      10.512 -11.222  13.359  1.00  0.00     0.148 A 
ATOM     75  C   UNL     1       9.355 -13.763  13.693  1.00  0.00     0.002 A 
ATOM     76  C   UNL     1      10.034 -11.619  14.602  1.00  0.00     0.091 A 
ATOM     77  F   UNL     1      11.025 -10.001  13.157  1.00  0.00    -0.205 F 
ATOM     78  C   UNL     1       9.443 -12.883  14.768  1.00  0.00     0.022 A 
BRANCH  76  79
ATOM     79  S   UNL     1      10.174 -10.584  16.063  1.00  0.00     0.127 S 
ATOM     80  O   UNL     1       8.795 -10.130  16.237  1.00  0.00    -0.237 OA
ATOM     81  O   UNL     1      10.634 -11.536  17.074  1.00  0.00    -0.237 OA
ATOM     82  O   UNL     1      11.140  -9.547  15.726  1.00  0.00    -0.744 OA
ENDBRANCH  76  79
ENDBRANCH  58  72
BRANCH  59  83
ATOM     83  C   UNL     1      13.498  -9.041   3.262  1.00  0.00     0.023 A 
ATOM     84  C   UNL     1      14.276  -9.858   2.420  1.00  0.00     0.012 A 
ATOM     85  C   UNL     1      13.110  -7.763   2.816  1.00  0.00     0.148 A 
ATOM     86  C   UNL     1      14.676  -9.402   1.163  1.00  0.00     0.002 A 
ATOM     87  C   UNL     1      13.463  -7.338   1.542  1.00  0.00     0.091 A 
ATOM     88  F   UNL     1      12.380  -6.999   3.641  1.00  0.00    -0.205 F 
ATOM     89  C   UNL     1      14.260  -8.149   0.719  1.00  0.00     0.022 A 
BRANCH  87  90
ATOM     90  S   UNL     1      12.860  -5.801   0.835  1.00  0.00     0.127 S 
ATOM     91  O   UNL     1      14.090  -5.023   0.712  1.00  0.00    -0.237 OA
ATOM     92  O   UNL     1      12.290  -6.259  -0.433  1.00  0.00    -0.237 OA
ATOM     93  O   UNL     1      11.881  -5.285   1.782  1.00  0.00    -0.744 OA
ENDBRANCH  87  90
ENDBRANCH  59  83
BRANCH  71  94
ATOM     94  C   UNL     1      16.818 -10.743   9.181  1.00  0.00     0.023 A 
ATOM     95  C   UNL     1      17.490  -9.524   9.404  1.00  0.00     0.012 A 
ATOM     96  C   UNL     1      17.496 -11.957   9.410  1.00  0.00     0.148 A 
ATOM     97  C   UNL     1      18.822  -9.514   9.817  1.00  0.00     0.002 A 
ATOM     98  C   UNL     1      18.808 -11.940   9.870  1.00  0.00     0.091 A 
ATOM     99  F   UNL     1      16.846 -13.106   9.176  1.00  0.00    -0.205 F 
ATOM    100  C   UNL     1      19.476 -10.720  10.062  1.00  0.00     0.022 A 
BRANCH  98 101
ATOM    101  S   UNL     1      19.696 -13.440  10.305  1.00  0.00     0.127 S 
ATOM    102  O   UNL     1      20.658 -13.544   9.209  1.00  0.00    -0.237 OA
ATOM    103  O   UNL     1      20.281 -13.090  11.600  1.00  0.00    -0.237 OA
ATOM    104  O   UNL     1      18.695 -14.497  10.361  1.00  0.00    -0.744 OA
ENDBRANCH  98 101
ENDBRANCH  71  94
ENDBRANCH  45  46
ENDBRANCH  38  40
ENDBRANCH  37  38
ENDBRANCH  36  37
ENDBRANCH  35  36
ENDBRANCH   1  35
TORSDOF 22
