REMARK SMILES C#CC[N@H+](CC(=O)OCCOCCOC(=O)c1ccc(-c2c3nc(c(-c4cccc(S(=O)(=O)[O-])c4F)c4ccc([nH]4)c(-c4cccc(S(=O)(=O)[O-])c4F)c4nc(c(-c5cccc(S(=O)(=O)[O-])c5F)c5ccc2[nH]5)C=C4)C=C3)cc1)[C@H](C)c1ccccc1[N+](=O)[O-]
REMARK SMILES IDX 10 1 9 2 8 3 6 4 7 5 5 6 4 7 3 9 2 10 1 11 80 12 81 13 82 14
REMARK SMILES IDX 83 15 87 16 84 17 86 18 85 19 88 20 89 21 90 22 11 23 12 24
REMARK SMILES IDX 13 25 14 26 15 27 16 28 17 29 18 30 79 31 19 32 78 33 20 34
REMARK SMILES IDX 21 35 22 36 72 37 23 38 77 39 71 40 73 41 24 42 76 43 70 44
REMARK SMILES IDX 69 45 25 47 57 48 37 49 56 50 38 51 41 52 55 53 74 54 39 55
REMARK SMILES IDX 40 56 54 58 75 59 42 60 26 61 27 62 35 63 28 64 30 65 36 66
REMARK SMILES IDX 29 67 31 68 32 69 33 70 34 71 58 72 59 73 67 74 60 75 62 76
REMARK SMILES IDX 68 77 61 78 63 79 64 80 65 81 66 82 43 83 44 84 52 85 45 86
REMARK SMILES IDX 47 87 53 88 46 89 48 90 49 91 50 92 51 93
REMARK H PARENT 4 8 73 46 41 57
REMARK Flexibility Score: inf
ROOT
ATOM      1  C   UNL     1      -4.691   5.702   1.913  1.00  0.00     0.202 C 
ENDROOT
BRANCH   1   2
ATOM      2  C   UNL     1      -5.267   4.287   1.971  1.00  0.00     0.261 C 
BRANCH   2   3
ATOM      3  O   UNL     1      -4.437   3.362   1.252  1.00  0.00    -0.459 OA
BRANCH   3   4
ATOM      4  C   UNL     1      -4.903   2.933   0.060  1.00  0.00     0.361 C 
ATOM      5  O   UNL     1      -6.035   3.168  -0.359  1.00  0.00    -0.245 OA
BRANCH   4   6
ATOM      6  C   UNL     1      -3.939   2.055  -0.729  1.00  0.00     0.387 C 
BRANCH   6   7
ATOM      7  N   UNL     1      -2.434   2.212  -0.619  1.00  0.00    -0.309 N 
ATOM      8  H   UNL     1      -2.133   3.170  -0.800  1.00  0.00     0.349 HD
BRANCH   7   9
ATOM      9  C   UNL     1      -1.977   1.936   0.764  1.00  0.00     0.354 C 
BRANCH   9  10
ATOM     10  C   UNL     1      -0.535   2.113   1.004  1.00  0.00    -0.047 C 
ATOM     11  C   UNL     1       0.636   2.251   1.251  1.00  0.00     0.010 C 
ENDBRANCH   9  10
ENDBRANCH   7   9
BRANCH   7  12
ATOM     12  C   UNL     1      -1.820   1.307  -1.672  1.00  0.00     0.220 C 
ATOM     13  C   UNL     1      -2.365  -0.148  -1.594  1.00  0.00     0.081 C 
BRANCH  12  14
ATOM     14  C   UNL     1      -0.292   1.430  -1.849  1.00  0.00     0.087 A 
ATOM     15  C   UNL     1       0.546   0.303  -1.682  1.00  0.00     0.017 A 
ATOM     16  C   UNL     1       0.371   2.647  -2.145  1.00  0.00     0.278 A 
ATOM     17  C   UNL     1       1.944   0.387  -1.750  1.00  0.00     0.001 A 
ATOM     18  C   UNL     1       1.782   2.739  -2.163  1.00  0.00     0.086 A 
ATOM     19  C   UNL     1       2.564   1.609  -1.956  1.00  0.00     0.007 A 
BRANCH  16  20
ATOM     20  N   UNL     1      -0.344   3.880  -2.485  1.00  0.00     0.063 N 
ATOM     21  O   UNL     1       0.194   4.953  -2.170  1.00  0.00    -0.258 OA
ATOM     22  O   UNL     1      -1.375   3.794  -3.167  1.00  0.00    -0.258 OA
ENDBRANCH  16  20
ENDBRANCH  12  14
ENDBRANCH   7  12
ENDBRANCH   6   7
ENDBRANCH   4   6
ENDBRANCH   3   4
ENDBRANCH   2   3
ENDBRANCH   1   2
BRANCH   1  23
ATOM     23  O   UNL     1      -4.630   6.344   0.641  1.00  0.00    -0.374 OA
BRANCH  23  24
ATOM     24  C   UNL     1      -3.651   5.904  -0.297  1.00  0.00     0.202 C 
BRANCH  24  25
ATOM     25  C   UNL     1      -2.172   6.186  -0.018  1.00  0.00     0.261 C 
BRANCH  25  26
ATOM     26  O   UNL     1      -1.693   5.671   1.230  1.00  0.00    -0.460 OA
BRANCH  26  27
ATOM     27  C   UNL     1      -1.482   6.624   2.169  1.00  0.00     0.338 C 
ATOM     28  O   UNL     1      -1.641   7.828   2.051  1.00  0.00    -0.246 OA
BRANCH  27  29
ATOM     29  C   UNL     1      -1.213   5.993   3.470  1.00  0.00     0.060 A 
ATOM     30  C   UNL     1      -2.067   6.325   4.528  1.00  0.00     0.016 A 
ATOM     31  C   UNL     1      -0.101   5.177   3.676  1.00  0.00     0.016 A 
ATOM     32  C   UNL     1      -1.775   5.893   5.816  1.00  0.00     0.010 A 
ATOM     33  C   UNL     1       0.190   4.742   4.973  1.00  0.00     0.010 A 
ATOM     34  C   UNL     1      -0.620   5.137   6.054  1.00  0.00    -0.014 A 
BRANCH  34  35
ATOM     35  C   UNL     1      -0.204   4.883   7.454  1.00  0.00     0.031 A 
ATOM     36  C   UNL     1       0.957   5.647   8.030  1.00  0.00     0.074 A 
ATOM     37  C   UNL     1      -0.884   4.007   8.216  1.00  0.00     0.049 A 
ATOM     38  N   UNL     1       1.474   5.583   9.229  1.00  0.00    -0.248 NA
ATOM     39  C   UNL     1       1.627   6.608   7.138  1.00  0.00     0.031 C 
ATOM     40  C   UNL     1      -2.032   3.218   7.771  1.00  0.00     0.029 A 
ATOM     41  N   UNL     1      -0.696   3.627   9.520  1.00  0.00    -0.354 N 
ATOM     42  C   UNL     1       2.547   6.467   9.227  1.00  0.00     0.074 A 
ATOM     43  C   UNL     1       2.617   7.043   7.902  1.00  0.00     0.031 C 
ATOM     44  C   UNL     1      -2.438   2.433   8.783  1.00  0.00     0.029 A 
ATOM     45  C   UNL     1      -1.558   2.638   9.931  1.00  0.00     0.049 A 
ATOM     46  H   UNL     1      -0.011   4.023  10.105  1.00  0.00     0.167 HD
ATOM     47  C   UNL     1       3.390   6.779  10.240  1.00  0.00     0.034 A 
ATOM     48  C   UNL     1      -1.612   1.956  11.091  1.00  0.00     0.034 A 
ATOM     49  C   UNL     1       3.308   6.211  11.560  1.00  0.00     0.049 A 
ATOM     50  C   UNL     1      -0.641   2.297  12.190  1.00  0.00     0.074 A 
ATOM     51  C   UNL     1       4.085   6.497  12.668  1.00  0.00     0.029 A 
ATOM     52  N   UNL     1       2.413   5.225  11.944  1.00  0.00    -0.354 N 
ATOM     53  N   UNL     1       0.302   3.208  12.206  1.00  0.00    -0.248 NA
ATOM     54  C   UNL     1      -0.764   1.539  13.443  1.00  0.00     0.031 C 
ATOM     55  C   UNL     1       3.696   5.645  13.706  1.00  0.00     0.029 A 
ATOM     56  C   UNL     1       2.633   4.874  13.265  1.00  0.00     0.049 A 
ATOM     57  H   UNL     1       1.722   4.832  11.364  1.00  0.00     0.167 HD
ATOM     58  C   UNL     1       0.857   3.161  13.481  1.00  0.00     0.074 A 
ATOM     59  C   UNL     1       0.129   2.145  14.213  1.00  0.00     0.031 C 
ATOM     60  C   UNL     1       1.879   3.888  13.997  1.00  0.00     0.034 A 
BRANCH  47  61
ATOM     61  C   UNL     1       4.482   7.781   9.963  1.00  0.00     0.023 A 
ATOM     62  C   UNL     1       4.163   9.139   9.759  1.00  0.00     0.012 A 
ATOM     63  C   UNL     1       5.833   7.383   9.963  1.00  0.00     0.148 A 
ATOM     64  C   UNL     1       5.168  10.077   9.521  1.00  0.00     0.002 A 
ATOM     65  C   UNL     1       6.832   8.331   9.777  1.00  0.00     0.091 A 
ATOM     66  F   UNL     1       6.117   6.085  10.141  1.00  0.00    -0.205 F 
ATOM     67  C   UNL     1       6.501   9.675   9.542  1.00  0.00     0.022 A 
BRANCH  65  68
ATOM     68  S   UNL     1       8.580   7.928   9.868  1.00  0.00     0.127 S 
ATOM     69  O   UNL     1       9.004   8.142   8.484  1.00  0.00    -0.237 OA
ATOM     70  O   UNL     1       9.074   8.925  10.818  1.00  0.00    -0.237 OA
ATOM     71  O   UNL     1       8.655   6.551  10.334  1.00  0.00    -0.744 OA
ENDBRANCH  65  68
ENDBRANCH  47  61
BRANCH  48  72
ATOM     72  C   UNL     1      -2.632   0.886  11.280  1.00  0.00     0.023 A 
ATOM     73  C   UNL     1      -3.667   1.060  12.218  1.00  0.00     0.012 A 
ATOM     74  C   UNL     1      -2.579  -0.302  10.525  1.00  0.00     0.148 A 
ATOM     75  C   UNL     1      -4.609   0.052  12.429  1.00  0.00     0.002 A 
ATOM     76  C   UNL     1      -3.555  -1.275  10.697  1.00  0.00     0.091 A 
ATOM     77  F   UNL     1      -1.579  -0.450   9.645  1.00  0.00    -0.205 F 
ATOM     78  C   UNL     1      -4.559  -1.110  11.663  1.00  0.00     0.022 A 
BRANCH  76  79
ATOM     79  S   UNL     1      -3.642  -2.743   9.666  1.00  0.00     0.127 S 
ATOM     80  O   UNL     1      -3.357  -3.802  10.630  1.00  0.00    -0.237 OA
ATOM     81  O   UNL     1      -5.026  -2.693   9.194  1.00  0.00    -0.237 OA
ATOM     82  O   UNL     1      -2.643  -2.556   8.623  1.00  0.00    -0.744 OA
ENDBRANCH  76  79
ENDBRANCH  48  72
BRANCH  60  83
ATOM     83  C   UNL     1       2.241   3.657  15.443  1.00  0.00     0.023 A 
ATOM     84  C   UNL     1       2.845   2.449  15.843  1.00  0.00     0.012 A 
ATOM     85  C   UNL     1       2.029   4.671  16.398  1.00  0.00     0.148 A 
ATOM     86  C   UNL     1       3.189   2.236  17.178  1.00  0.00     0.002 A 
ATOM     87  C   UNL     1       2.428   4.475  17.714  1.00  0.00     0.091 A 
ATOM     88  F   UNL     1       1.441   5.809  16.003  1.00  0.00    -0.205 F 
ATOM     89  C   UNL     1       2.991   3.252  18.110  1.00  0.00     0.022 A 
BRANCH  87  90
ATOM     90  S   UNL     1       2.304   5.761  18.962  1.00  0.00     0.127 S 
ATOM     91  O   UNL     1       1.261   5.228  19.837  1.00  0.00    -0.237 OA
ATOM     92  O   UNL     1       3.647   5.757  19.542  1.00  0.00    -0.237 OA
ATOM     93  O   UNL     1       1.954   6.983  18.250  1.00  0.00    -0.744 OA
ENDBRANCH  87  90
ENDBRANCH  60  83
ENDBRANCH  34  35
ENDBRANCH  27  29
ENDBRANCH  26  27
ENDBRANCH  25  26
ENDBRANCH  24  25
ENDBRANCH  23  24
ENDBRANCH   1  23
TORSDOF 23
