REMARK SMILES Cc1nc(=O)[nH]c(C)c1CC(=O)N1CC[C@H](C(=O)OCCOCCOC(=O)c2ccc(-c3c4nc(c(-c5cccc(S(=O)(=O)[O-])c5F)c5ccc([nH]5)c(-c5cccc(S(=O)(=O)[O-])c5F)c5nc(c(-c6cccc(S(=O)(=O)[O-])c6F)c6ccc3[nH]6)C=C5)C=C4)cc2)[C@@H]1C
REMARK SMILES IDX 22 1 21 2 20 3 19 4 17 5 18 6 16 7 13 8 14 9 91 10 15 11
REMARK SMILES IDX 92 12 11 13 12 14 10 15 9 16 1 17 2 18 3 19 4 20 7 21 5 22
REMARK SMILES IDX 6 23 8 24 23 26 24 27 25 28 26 29 27 30 28 31 29 32 90 33
REMARK SMILES IDX 30 34 89 35 31 36 32 37 33 38 83 39 34 40 88 41 82 42 84 43
REMARK SMILES IDX 35 44 87 45 81 46 80 47 36 49 68 50 48 51 67 52 49 53 52 54
REMARK SMILES IDX 66 55 85 56 50 57 51 58 65 60 86 61 53 62 37 63 38 64 46 65
REMARK SMILES IDX 39 66 41 67 47 68 40 69 42 70 43 71 44 72 45 73 69 74 70 75
REMARK SMILES IDX 78 76 71 77 73 78 79 79 72 80 74 81 75 82 76 83 77 84 54 85
REMARK SMILES IDX 55 86 63 87 56 88 58 89 64 90 57 91 59 92 60 93 61 94 62 95
REMARK H PARENT 6 25 84 48 52 59
REMARK Flexibility Score: inf
ROOT
ATOM      1  O   UNL     1      -1.749  -0.519   8.268  1.00  0.00    -0.374 OA
ENDROOT
BRANCH   1   2
ATOM      2  C   UNL     1      -1.569   0.713   7.567  1.00  0.00     0.202 C 
BRANCH   2   3
ATOM      3  C   UNL     1      -0.356   0.783   6.634  1.00  0.00     0.261 C 
BRANCH   3   4
ATOM      4  O   UNL     1      -0.558  -0.057   5.483  1.00  0.00    -0.463 OA
BRANCH   4   5
ATOM      5  C   UNL     1       0.291  -1.086   5.277  1.00  0.00     0.311 C 
ATOM      6  O   UNL     1       1.217  -1.380   6.024  1.00  0.00    -0.252 OA
BRANCH   5   7
ATOM      7  C   UNL     1      -0.085  -1.951   4.085  1.00  0.00     0.123 C 
ATOM      8  N   UNL     1      -1.819  -2.343   2.502  1.00  0.00    -0.339 N 
ATOM      9  C   UNL     1      -2.230  -3.023   3.712  1.00  0.00     0.121 C 
ATOM     10  C   UNL     1      -0.787  -1.354   2.844  1.00  0.00     0.096 C 
ATOM     11  C   UNL     1      -0.926  -3.181   4.474  1.00  0.00     0.039 C 
ATOM     12  C   UNL     1      -1.429   0.024   2.981  1.00  0.00     0.032 C 
BRANCH   8  13
ATOM     13  C   UNL     1      -2.513  -2.545   1.328  1.00  0.00     0.227 C 
ATOM     14  O   UNL     1      -3.603  -3.132   1.357  1.00  0.00    -0.275 OA
BRANCH  13  15
ATOM     15  C   UNL     1      -1.890  -2.270  -0.055  1.00  0.00     0.139 C 
BRANCH  15  16
ATOM     16  C   UNL     1      -0.994  -1.092  -0.267  1.00  0.00     0.002 A 
ATOM     17  C   UNL     1       1.173  -2.591  -0.218  1.00  0.00     0.067 C 
ATOM     18  C   UNL     1       0.502  -1.229  -0.257  1.00  0.00     0.049 A 
ATOM     19  N   UNL     1       1.329  -0.235  -0.239  1.00  0.00    -0.198 NA
ATOM     20  C   UNL     1       0.840   1.041  -0.287  1.00  0.00     0.345 A 
ATOM     21  C   UNL     1      -1.419   0.171  -0.475  1.00  0.00     0.022 A 
ATOM     22  O   UNL     1       1.572   2.013  -0.121  1.00  0.00    -0.246 OA
ATOM     23  N   UNL     1      -0.503   1.196  -0.498  1.00  0.00    -0.310 N 
ATOM     24  C   UNL     1      -2.857   0.609  -0.571  1.00  0.00     0.065 C 
ATOM     25  H   UNL     1      -0.837   2.105  -0.678  1.00  0.00     0.171 HD
ENDBRANCH  15  16
ENDBRANCH  13  15
ENDBRANCH   8  13
ENDBRANCH   5   7
ENDBRANCH   4   5
ENDBRANCH   3   4
ENDBRANCH   2   3
ENDBRANCH   1   2
BRANCH   1  26
ATOM     26  C   UNL     1      -2.270  -1.607   7.510  1.00  0.00     0.202 C 
BRANCH  26  27
ATOM     27  C   UNL     1      -3.792  -1.680   7.358  1.00  0.00     0.261 C 
BRANCH  27  28
ATOM     28  O   UNL     1      -4.308  -0.584   6.584  1.00  0.00    -0.460 OA
BRANCH  28  29
ATOM     29  C   UNL     1      -4.929   0.374   7.315  1.00  0.00     0.338 C 
ATOM     30  O   UNL     1      -5.135   0.364   8.517  1.00  0.00    -0.246 OA
BRANCH  29  31
ATOM     31  C   UNL     1      -5.179   1.560   6.477  1.00  0.00     0.060 A 
ATOM     32  C   UNL     1      -4.637   2.778   6.907  1.00  0.00     0.016 A 
ATOM     33  C   UNL     1      -5.988   1.502   5.341  1.00  0.00     0.016 A 
ATOM     34  C   UNL     1      -4.931   3.953   6.220  1.00  0.00     0.010 A 
ATOM     35  C   UNL     1      -6.290   2.686   4.661  1.00  0.00     0.010 A 
ATOM     36  C   UNL     1      -5.786   3.920   5.112  1.00  0.00    -0.014 A 
BRANCH  36  37
ATOM     37  C   UNL     1      -6.219   5.185   4.473  1.00  0.00     0.031 A 
ATOM     38  C   UNL     1      -7.606   5.706   4.726  1.00  0.00     0.074 A 
ATOM     39  C   UNL     1      -5.385   5.849   3.652  1.00  0.00     0.049 A 
ATOM     40  N   UNL     1      -8.210   6.736   4.194  1.00  0.00    -0.248 NA
ATOM     41  C   UNL     1      -8.423   4.968   5.704  1.00  0.00     0.031 C 
ATOM     42  C   UNL     1      -4.015   5.448   3.338  1.00  0.00     0.029 A 
ATOM     43  N   UNL     1      -5.587   6.981   2.901  1.00  0.00    -0.354 N 
ATOM     44  C   UNL     1      -9.489   6.748   4.736  1.00  0.00     0.074 A 
ATOM     45  C   UNL     1      -9.573   5.627   5.647  1.00  0.00     0.031 C 
ATOM     46  C   UNL     1      -3.514   6.291   2.420  1.00  0.00     0.029 A 
ATOM     47  C   UNL     1      -4.541   7.264   2.054  1.00  0.00     0.049 A 
ATOM     48  H   UNL     1      -6.399   7.534   2.962  1.00  0.00     0.167 HD
ATOM     49  C   UNL     1     -10.501   7.614   4.494  1.00  0.00     0.034 A 
ATOM     50  C   UNL     1      -4.442   8.171   1.062  1.00  0.00     0.034 A 
ATOM     51  C   UNL     1     -10.406   8.740   3.603  1.00  0.00     0.049 A 
ATOM     52  C   UNL     1      -5.593   9.106   0.798  1.00  0.00     0.074 A 
ATOM     53  C   UNL     1     -11.356   9.715   3.350  1.00  0.00     0.029 A 
ATOM     54  N   UNL     1      -9.314   9.029   2.802  1.00  0.00    -0.354 N 
ATOM     55  N   UNL     1      -6.750   9.185   1.410  1.00  0.00    -0.248 NA
ATOM     56  C   UNL     1      -5.416  10.096  -0.275  1.00  0.00     0.031 C 
ATOM     57  C   UNL     1     -10.857  10.564   2.358  1.00  0.00     0.029 A 
ATOM     58  C   UNL     1      -9.577  10.148   2.030  1.00  0.00     0.049 A 
ATOM     59  H   UNL     1      -8.475   8.514   2.783  1.00  0.00     0.167 HD
ATOM     60  C   UNL     1      -7.422  10.250   0.819  1.00  0.00     0.074 A 
ATOM     61  C   UNL     1      -6.533  10.803  -0.180  1.00  0.00     0.031 C 
ATOM     62  C   UNL     1      -8.669  10.719   1.070  1.00  0.00     0.034 A 
BRANCH  49  63
ATOM     63  C   UNL     1     -11.814   7.391   5.195  1.00  0.00     0.023 A 
ATOM     64  C   UNL     1     -11.943   7.686   6.566  1.00  0.00     0.012 A 
ATOM     65  C   UNL     1     -12.949   6.987   4.463  1.00  0.00     0.148 A 
ATOM     66  C   UNL     1     -13.178   7.568   7.202  1.00  0.00     0.002 A 
ATOM     67  C   UNL     1     -14.184   6.917   5.092  1.00  0.00     0.091 A 
ATOM     68  F   UNL     1     -12.797   6.693   3.164  1.00  0.00    -0.205 F 
ATOM     69  C   UNL     1     -14.300   7.197   6.463  1.00  0.00     0.022 A 
BRANCH  67  70
ATOM     70  S   UNL     1     -15.701   6.532   4.211  1.00  0.00     0.127 S 
ATOM     71  O   UNL     1     -16.072   5.249   4.808  1.00  0.00    -0.237 OA
ATOM     72  O   UNL     1     -16.564   7.652   4.586  1.00  0.00    -0.237 OA
ATOM     73  O   UNL     1     -15.347   6.478   2.799  1.00  0.00    -0.744 OA
ENDBRANCH  67  70
ENDBRANCH  49  63
BRANCH  50  74
ATOM     74  C   UNL     1      -3.213   8.223   0.221  1.00  0.00     0.023 A 
ATOM     75  C   UNL     1      -2.375   9.352   0.267  1.00  0.00     0.012 A 
ATOM     76  C   UNL     1      -2.878   7.152  -0.632  1.00  0.00     0.148 A 
ATOM     77  C   UNL     1      -1.250   9.434  -0.555  1.00  0.00     0.002 A 
ATOM     78  C   UNL     1      -1.721   7.210  -1.396  1.00  0.00     0.091 A 
ATOM     79  F   UNL     1      -3.698   6.093  -0.684  1.00  0.00    -0.205 F 
ATOM     80  C   UNL     1      -0.917   8.360  -1.378  1.00  0.00     0.022 A 
BRANCH  78  81
ATOM     81  S   UNL     1      -1.160   5.797  -2.354  1.00  0.00     0.127 S 
ATOM     82  O   UNL     1      -1.639   6.132  -3.691  1.00  0.00    -0.237 OA
ATOM     83  O   UNL     1       0.291   5.867  -2.183  1.00  0.00    -0.237 OA
ATOM     84  O   UNL     1      -1.772   4.630  -1.723  1.00  0.00    -0.744 OA
ENDBRANCH  78  81
ENDBRANCH  50  74
BRANCH  62  85
ATOM     85  C   UNL     1      -9.142  11.914   0.282  1.00  0.00     0.023 A 
ATOM     86  C   UNL     1      -9.446  11.782  -1.088  1.00  0.00     0.012 A 
ATOM     87  C   UNL     1      -9.351  13.154   0.919  1.00  0.00     0.148 A 
ATOM     88  C   UNL     1      -9.914  12.873  -1.819  1.00  0.00     0.002 A 
ATOM     89  C   UNL     1      -9.869  14.222   0.197  1.00  0.00     0.091 A 
ATOM     90  F   UNL     1      -9.044  13.264   2.220  1.00  0.00    -0.205 F 
ATOM     91  C   UNL     1     -10.136  14.088  -1.175  1.00  0.00     0.022 A 
BRANCH  89  92
ATOM     92  S   UNL     1     -10.280  15.795   0.961  1.00  0.00     0.127 S 
ATOM     93  O   UNL     1      -9.271  16.680   0.381  1.00  0.00    -0.237 OA
ATOM     94  O   UNL     1     -11.643  16.025   0.479  1.00  0.00    -0.237 OA
ATOM     95  O   UNL     1     -10.173  15.587   2.398  1.00  0.00    -0.744 OA
ENDBRANCH  89  92
ENDBRANCH  62  85
ENDBRANCH  36  37
ENDBRANCH  29  31
ENDBRANCH  28  29
ENDBRANCH  27  28
ENDBRANCH  26  27
ENDBRANCH   1  26
TORSDOF 20
