REMARK SMILES CCCCN1C(=O)[C@@H]2[C@H](CCC(=O)OCCOCCOC(=O)c3ccc(-c4c5nc(c(-c6cccc(S(=O)(=O)[O-])c6F)c6ccc([nH]6)c(-c6cccc(S(=O)(=O)[O-])c6F)c6nc(c(-c7cccc(S(=O)(=O)[O-])c7F)c7ccc4[nH]7)C=C6)C=C5)cc3)[NH2+][C@]3(C(=O)Nc4c(CC)cccc43)[C@@H]2C1=O
REMARK SMILES IDX 16 1 15 2 14 3 12 4 13 5 11 6 10 7 9 8 5 9 6 10 100 11 7 12
REMARK SMILES IDX 8 13 99 14 101 15 87 16 86 17 88 18 98 19 89 22 90 23 91 24
REMARK SMILES IDX 97 25 92 27 96 28 95 29 4 30 3 31 2 32 1 33 93 34 94 35
REMARK SMILES IDX 17 36 18 37 19 38 20 39 21 40 22 41 23 42 24 43 85 44 25 45
REMARK SMILES IDX 84 46 26 47 27 48 28 49 78 50 29 51 83 52 77 53 79 54 30 55
REMARK SMILES IDX 82 56 76 57 75 58 31 60 63 61 43 62 62 63 44 64 47 65 61 66
REMARK SMILES IDX 80 67 45 68 46 69 60 71 81 72 48 73 32 74 33 75 41 76 34 77
REMARK SMILES IDX 36 78 42 79 35 80 37 81 38 82 39 83 40 84 64 85 65 86 73 87
REMARK SMILES IDX 66 88 68 89 74 90 67 91 69 92 70 93 71 94 72 95 49 96 50 97
REMARK SMILES IDX 58 98 51 99 53 100 59 101 52 102 54 103 55 104 56 105 57 106
REMARK H PARENT 86 20 86 21 90 26 79 59 47 70
REMARK Flexibility Score: inf
ROOT
ATOM      1  C   UNL     1      -4.507  -4.402  -5.028  1.00  0.00     0.202 C 
ENDROOT
BRANCH   1   2
ATOM      2  C   UNL     1      -3.803  -4.235  -3.678  1.00  0.00     0.261 C 
BRANCH   2   3
ATOM      3  O   UNL     1      -3.383  -2.878  -3.486  1.00  0.00    -0.463 OA
BRANCH   3   4
ATOM      4  C   UNL     1      -2.042  -2.700  -3.502  1.00  0.00     0.306 C 
ATOM      5  O   UNL     1      -1.202  -3.593  -3.463  1.00  0.00    -0.252 OA
BRANCH   4   6
ATOM      6  C   UNL     1      -1.647  -1.268  -3.735  1.00  0.00     0.129 C 
BRANCH   6   7
ATOM      7  C   UNL     1      -2.701  -0.161  -3.851  1.00  0.00     0.077 C 
BRANCH   7   8
ATOM      8  C   UNL     1      -3.695   0.154  -2.708  1.00  0.00     0.197 C 
ATOM      9  N   UNL     1      -1.007   1.180  -1.568  1.00  0.00    -0.282 N 
ATOM     10  C   UNL     1      -1.757   0.152  -1.070  1.00  0.00     0.239 C 
ATOM     11  C   UNL     1      -1.756   2.322  -1.718  1.00  0.00     0.240 C 
ATOM     12  O   UNL     1      -1.373  -0.920  -0.632  1.00  0.00    -0.274 OA
ATOM     13  C   UNL     1      -3.183   0.502  -1.299  1.00  0.00     0.157 C 
ATOM     14  C   UNL     1      -3.170   2.023  -1.241  1.00  0.00     0.174 C 
ATOM     15  O   UNL     1      -1.319   3.409  -2.056  1.00  0.00    -0.274 OA
ATOM     16  C   UNL     1      -4.339   2.410  -2.131  1.00  0.00     0.216 C 
ATOM     17  N   UNL     1      -4.396   1.373  -3.181  1.00  0.00    -0.326 N 
ATOM     18  C   UNL     1      -4.228   3.853  -2.729  1.00  0.00     0.291 C 
ATOM     19  C   UNL     1      -5.670   2.513  -1.395  1.00  0.00     0.047 A 
ATOM     20  H   UNL     1      -5.370   1.149  -3.384  1.00  0.00     0.347 HD
ATOM     21  H   UNL     1      -3.945   1.720  -4.027  1.00  0.00     0.347 HD
ATOM     22  O   UNL     1      -3.465   4.271  -3.584  1.00  0.00    -0.267 OA
ATOM     23  N   UNL     1      -5.234   4.619  -2.145  1.00  0.00    -0.320 N 
ATOM     24  C   UNL     1      -6.115   3.841  -1.407  1.00  0.00     0.054 A 
ATOM     25  C   UNL     1      -6.471   1.520  -0.849  1.00  0.00     0.013 A 
ATOM     26  H   UNL     1      -5.311   5.595  -2.243  1.00  0.00     0.170 HD
ATOM     27  C   UNL     1      -7.321   4.242  -0.844  1.00  0.00    -0.024 A 
ATOM     28  C   UNL     1      -7.711   1.884  -0.317  1.00  0.00     0.001 A 
ATOM     29  C   UNL     1      -8.128   3.225  -0.309  1.00  0.00     0.006 A 
BRANCH   9  30
ATOM     30  C   UNL     1       0.376   1.020  -1.994  1.00  0.00     0.128 C 
BRANCH  30  31
ATOM     31  C   UNL     1       1.389   1.871  -1.244  1.00  0.00     0.022 C 
BRANCH  31  32
ATOM     32  C   UNL     1       1.312   1.718   0.273  1.00  0.00    -0.002 C 
ATOM     33  C   UNL     1       1.644   0.317   0.763  1.00  0.00     0.004 C 
ENDBRANCH  31  32
ENDBRANCH  30  31
ENDBRANCH   9  30
BRANCH  27  34
ATOM     34  C   UNL     1      -7.791   5.671  -0.813  1.00  0.00     0.034 C 
ATOM     35  C   UNL     1      -8.863   5.966  -1.851  1.00  0.00     0.009 C 
ENDBRANCH  27  34
ENDBRANCH   7   8
ENDBRANCH   6   7
ENDBRANCH   4   6
ENDBRANCH   3   4
ENDBRANCH   2   3
ENDBRANCH   1   2
BRANCH   1  36
ATOM     36  O   UNL     1      -3.775  -4.077  -6.208  1.00  0.00    -0.374 OA
BRANCH  36  37
ATOM     37  C   UNL     1      -3.537  -2.704  -6.513  1.00  0.00     0.202 C 
BRANCH  37  38
ATOM     38  C   UNL     1      -4.736  -1.791  -6.814  1.00  0.00     0.261 C 
BRANCH  38  39
ATOM     39  O   UNL     1      -5.588  -1.586  -5.670  1.00  0.00    -0.460 OA
BRANCH  39  40
ATOM     40  C   UNL     1      -6.852  -2.064  -5.815  1.00  0.00     0.338 C 
ATOM     41  O   UNL     1      -7.332  -2.579  -6.808  1.00  0.00    -0.246 OA
BRANCH  40  42
ATOM     42  C   UNL     1      -7.528  -2.079  -4.504  1.00  0.00     0.060 A 
ATOM     43  C   UNL     1      -7.849  -0.899  -3.835  1.00  0.00     0.016 A 
ATOM     44  C   UNL     1      -7.932  -3.319  -3.992  1.00  0.00     0.016 A 
ATOM     45  C   UNL     1      -8.613  -0.969  -2.664  1.00  0.00     0.010 A 
ATOM     46  C   UNL     1      -8.682  -3.385  -2.819  1.00  0.00     0.010 A 
ATOM     47  C   UNL     1      -9.051  -2.208  -2.156  1.00  0.00    -0.014 A 
BRANCH  47  48
ATOM     48  C   UNL     1     -10.037  -2.271  -1.046  1.00  0.00     0.031 A 
ATOM     49  C   UNL     1      -9.680  -2.817   0.307  1.00  0.00     0.074 A 
ATOM     50  C   UNL     1     -11.309  -1.901  -1.302  1.00  0.00     0.049 A 
ATOM     51  N   UNL     1     -10.432  -2.907   1.373  1.00  0.00    -0.248 NA
ATOM     52  C   UNL     1      -8.314  -3.332   0.491  1.00  0.00     0.031 C 
ATOM     53  C   UNL     1     -11.805  -1.445  -2.603  1.00  0.00     0.029 A 
ATOM     54  N   UNL     1     -12.418  -1.868  -0.494  1.00  0.00    -0.354 N 
ATOM     55  C   UNL     1      -9.644  -3.499   2.352  1.00  0.00     0.074 A 
ATOM     56  C   UNL     1      -8.353  -3.758   1.749  1.00  0.00     0.031 C 
ATOM     57  C   UNL     1     -13.113  -1.166  -2.501  1.00  0.00     0.029 A 
ATOM     58  C   UNL     1     -13.556  -1.445  -1.139  1.00  0.00     0.049 A 
ATOM     59  H   UNL     1     -12.400  -2.123   0.457  1.00  0.00     0.167 HD
ATOM     60  C   UNL     1      -9.963  -3.781   3.637  1.00  0.00     0.034 A 
ATOM     61  C   UNL     1     -14.818  -1.297  -0.692  1.00  0.00     0.034 A 
ATOM     62  C   UNL     1     -11.243  -3.513   4.238  1.00  0.00     0.049 A 
ATOM     63  C   UNL     1     -15.136  -1.594   0.744  1.00  0.00     0.074 A 
ATOM     64  C   UNL     1     -11.620  -3.692   5.559  1.00  0.00     0.029 A 
ATOM     65  N   UNL     1     -12.355  -3.036   3.567  1.00  0.00    -0.354 N 
ATOM     66  N   UNL     1     -14.330  -1.999   1.694  1.00  0.00    -0.248 NA
ATOM     67  C   UNL     1     -16.526  -1.390   1.180  1.00  0.00     0.031 C 
ATOM     68  C   UNL     1     -12.966  -3.340   5.682  1.00  0.00     0.029 A 
ATOM     69  C   UNL     1     -13.421  -2.921   4.443  1.00  0.00     0.049 A 
ATOM     70  H   UNL     1     -12.384  -2.811   2.609  1.00  0.00     0.167 HD
ATOM     71  C   UNL     1     -15.107  -2.077   2.843  1.00  0.00     0.074 A 
ATOM     72  C   UNL     1     -16.445  -1.664   2.476  1.00  0.00     0.031 C 
ATOM     73  C   UNL     1     -14.739  -2.469   4.085  1.00  0.00     0.034 A 
BRANCH  60  74
ATOM     74  C   UNL     1      -8.899  -4.355   4.532  1.00  0.00     0.023 A 
ATOM     75  C   UNL     1      -7.933  -3.489   5.080  1.00  0.00     0.012 A 
ATOM     76  C   UNL     1      -8.951  -5.698   4.955  1.00  0.00     0.148 A 
ATOM     77  C   UNL     1      -7.032  -3.950   6.038  1.00  0.00     0.002 A 
ATOM     78  C   UNL     1      -8.067  -6.143   5.930  1.00  0.00     0.091 A 
ATOM     79  F   UNL     1      -9.880  -6.500   4.416  1.00  0.00    -0.205 F 
ATOM     80  C   UNL     1      -7.106  -5.272   6.471  1.00  0.00     0.022 A 
BRANCH  78  81
ATOM     81  S   UNL     1      -8.111  -7.809   6.601  1.00  0.00     0.127 S 
ATOM     82  O   UNL     1      -6.800  -8.321   6.203  1.00  0.00    -0.237 OA
ATOM     83  O   UNL     1      -8.258  -7.557   8.034  1.00  0.00    -0.237 OA
ATOM     84  O   UNL     1      -9.246  -8.469   5.971  1.00  0.00    -0.744 OA
ENDBRANCH  78  81
ENDBRANCH  60  74
BRANCH  61  85
ATOM     85  C   UNL     1     -15.861  -0.778  -1.617  1.00  0.00     0.023 A 
ATOM     86  C   UNL     1     -16.293   0.555  -1.489  1.00  0.00     0.012 A 
ATOM     87  C   UNL     1     -16.372  -1.577  -2.658  1.00  0.00     0.148 A 
ATOM     88  C   UNL     1     -17.228   1.084  -2.379  1.00  0.00     0.002 A 
ATOM     89  C   UNL     1     -17.274  -1.032  -3.563  1.00  0.00     0.091 A 
ATOM     90  F   UNL     1     -15.941  -2.842  -2.755  1.00  0.00    -0.205 F 
ATOM     91  C   UNL     1     -17.711   0.294  -3.420  1.00  0.00     0.022 A 
BRANCH  89  92
ATOM     92  S   UNL     1     -17.881  -1.938  -4.990  1.00  0.00     0.127 S 
ATOM     93  O   UNL     1     -19.310  -2.024  -4.701  1.00  0.00    -0.237 OA
ATOM     94  O   UNL     1     -17.526  -1.035  -6.086  1.00  0.00    -0.237 OA
ATOM     95  O   UNL     1     -17.164  -3.205  -4.990  1.00  0.00    -0.744 OA
ENDBRANCH  89  92
ENDBRANCH  61  85
BRANCH  73  96
ATOM     96  C   UNL     1     -15.778  -2.462   5.172  1.00  0.00     0.023 A 
ATOM     97  C   UNL     1     -16.716  -3.510   5.242  1.00  0.00     0.012 A 
ATOM     98  C   UNL     1     -15.736  -1.496   6.196  1.00  0.00     0.148 A 
ATOM     99  C   UNL     1     -17.601  -3.594   6.317  1.00  0.00     0.002 A 
ATOM    100  C   UNL     1     -16.597  -1.605   7.281  1.00  0.00     0.091 A 
ATOM    101  F   UNL     1     -14.836  -0.506   6.100  1.00  0.00    -0.205 F 
ATOM    102  C   UNL     1     -17.532  -2.651   7.341  1.00  0.00     0.022 A 
BRANCH 100 103
ATOM    103  S   UNL     1     -16.539  -0.483   8.682  1.00  0.00     0.127 S 
ATOM    104  O   UNL     1     -17.841   0.176   8.590  1.00  0.00    -0.237 OA
ATOM    105  O   UNL     1     -16.398  -1.404   9.809  1.00  0.00    -0.237 OA
ATOM    106  O   UNL     1     -15.392   0.387   8.458  1.00  0.00    -0.744 OA
ENDBRANCH 100 103
ENDBRANCH  73  96
ENDBRANCH  47  48
ENDBRANCH  40  42
ENDBRANCH  39  40
ENDBRANCH  38  39
ENDBRANCH  37  38
ENDBRANCH  36  37
ENDBRANCH   1  36
TORSDOF 23
