REMARK SMILES N#C[C@H]1CN(C(=O)[C@H]([NH3+])CC(=O)OCCOCCOC(=O)c2ccc(-c3c4nc(c(-c5cccc(S(=O)(=O)[O-])c5F)c5ccc([nH]5)c(-c5cccc(S(=O)(=O)[O-])c5F)c5nc(c(-c6cccc(S(=O)(=O)[O-])c6F)c6ccc3[nH]6)C=C5)C=C4)cc2)CCO1
REMARK SMILES IDX 15 1 14 2 13 3 11 4 12 5 10 6 8 7 6 8 7 9 5 10 3 11 4 12
REMARK SMILES IDX 87 13 86 14 85 15 2 16 1 17 9 18 16 22 17 23 18 24 19 25
REMARK SMILES IDX 20 26 21 27 22 28 23 29 84 30 24 31 83 32 25 33 26 34 27 35
REMARK SMILES IDX 77 36 28 37 82 38 76 39 78 40 29 41 81 42 75 43 74 44 30 46
REMARK SMILES IDX 62 47 42 48 61 49 43 50 46 51 60 52 79 53 44 54 45 55 59 57
REMARK SMILES IDX 80 58 47 59 31 60 32 61 40 62 33 63 35 64 41 65 34 66 36 67
REMARK SMILES IDX 37 68 38 69 39 70 63 71 64 72 72 73 65 74 67 75 73 76 66 77
REMARK SMILES IDX 68 78 69 79 70 80 71 81 48 82 49 83 57 84 50 85 52 86 58 87
REMARK SMILES IDX 51 88 53 89 54 90 55 91 56 92
REMARK H PARENT 9 19 9 20 9 21 78 45 46 56
REMARK Flexibility Score: inf
ROOT
ATOM      1  C   UNL     1       5.714   3.781  -6.410  1.00  0.00     0.202 C 
ENDROOT
BRANCH   1   2
ATOM      2  C   UNL     1       6.400   3.390  -5.098  1.00  0.00     0.261 C 
BRANCH   2   3
ATOM      3  O   UNL     1       5.444   3.086  -4.075  1.00  0.00    -0.463 OA
BRANCH   3   4
ATOM      4  C   UNL     1       5.240   4.066  -3.169  1.00  0.00     0.312 C 
ATOM      5  O   UNL     1       5.927   5.074  -3.049  1.00  0.00    -0.252 OA
BRANCH   4   6
ATOM      6  C   UNL     1       4.074   3.805  -2.257  1.00  0.00     0.198 C 
BRANCH   6   7
ATOM      7  C   UNL     1       2.945   2.843  -2.662  1.00  0.00     0.282 C 
BRANCH   7   8
ATOM      8  C   UNL     1       1.989   2.683  -1.454  1.00  0.00     0.281 C 
ATOM      9  O   UNL     1       0.884   3.236  -1.487  1.00  0.00    -0.268 OA
BRANCH   8  10
ATOM     10  N   UNL     1       2.404   1.976  -0.335  1.00  0.00    -0.332 N 
ATOM     11  C   UNL     1       4.380   2.265   1.090  1.00  0.00     0.240 C 
ATOM     12  C   UNL     1       3.750   1.441  -0.055  1.00  0.00     0.167 C 
ATOM     13  O   UNL     1       3.538   2.192   2.265  1.00  0.00    -0.360 OA
ATOM     14  C   UNL     1       2.223   2.715   1.990  1.00  0.00     0.183 C 
ATOM     15  C   UNL     1       1.541   1.947   0.849  1.00  0.00     0.148 C 
BRANCH  11  16
ATOM     16  C   UNL     1       5.748   1.810   1.374  1.00  0.00     0.096 C 
ATOM     17  N   UNL     1       6.854   1.506   1.560  1.00  0.00    -0.195 NA
ENDBRANCH  11  16
ENDBRANCH   8  10
ENDBRANCH   7   8
BRANCH   7  18
ATOM     18  N   UNL     1       3.265   1.533  -3.234  1.00  0.00    -0.347 N 
ATOM     19  H   UNL     1       3.700   0.947  -2.521  1.00  0.00     0.345 HD
ATOM     20  H   UNL     1       3.910   1.652  -4.016  1.00  0.00     0.345 HD
ATOM     21  H   UNL     1       2.409   1.087  -3.565  1.00  0.00     0.345 HD
ENDBRANCH   7  18
ENDBRANCH   6   7
ENDBRANCH   4   6
ENDBRANCH   3   4
ENDBRANCH   2   3
ENDBRANCH   1   2
BRANCH   1  22
ATOM     22  O   UNL     1       4.840   4.909  -6.407  1.00  0.00    -0.374 OA
BRANCH  22  23
ATOM     23  C   UNL     1       3.532   4.743  -5.863  1.00  0.00     0.202 C 
BRANCH  23  24
ATOM     24  C   UNL     1       2.498   3.910  -6.634  1.00  0.00     0.261 C 
BRANCH  24  25
ATOM     25  O   UNL     1       2.889   2.541  -6.818  1.00  0.00    -0.460 OA
BRANCH  25  26
ATOM     26  C   UNL     1       3.261   2.229  -8.084  1.00  0.00     0.338 C 
ATOM     27  O   UNL     1       3.240   2.965  -9.057  1.00  0.00    -0.246 OA
BRANCH  26  28
ATOM     28  C   UNL     1       3.917   0.908  -8.110  1.00  0.00     0.060 A 
ATOM     29  C   UNL     1       5.225   0.853  -8.610  1.00  0.00     0.016 A 
ATOM     30  C   UNL     1       3.253  -0.257  -7.729  1.00  0.00     0.016 A 
ATOM     31  C   UNL     1       5.860  -0.374  -8.772  1.00  0.00     0.010 A 
ATOM     32  C   UNL     1       3.891  -1.492  -7.902  1.00  0.00     0.010 A 
ATOM     33  C   UNL     1       5.184  -1.558  -8.453  1.00  0.00    -0.014 A 
BRANCH  33  34
ATOM     34  C   UNL     1       5.809  -2.865  -8.774  1.00  0.00     0.031 A 
ATOM     35  C   UNL     1       5.300  -3.670  -9.938  1.00  0.00     0.074 A 
ATOM     36  C   UNL     1       6.835  -3.324  -8.034  1.00  0.00     0.049 A 
ATOM     37  N   UNL     1       5.685  -4.847 -10.359  1.00  0.00    -0.248 NA
ATOM     38  C   UNL     1       4.214  -3.073 -10.731  1.00  0.00     0.031 C 
ATOM     39  C   UNL     1       7.427  -2.628  -6.892  1.00  0.00     0.029 A 
ATOM     40  N   UNL     1       7.544  -4.495  -8.120  1.00  0.00    -0.354 N 
ATOM     41  C   UNL     1       4.869  -5.149 -11.443  1.00  0.00     0.074 A 
ATOM     42  C   UNL     1       3.963  -4.033 -11.610  1.00  0.00     0.031 C 
ATOM     43  C   UNL     1       8.393  -3.398  -6.366  1.00  0.00     0.029 A 
ATOM     44  C   UNL     1       8.460  -4.655  -7.108  1.00  0.00     0.049 A 
ATOM     45  H   UNL     1       7.410  -5.157  -8.837  1.00  0.00     0.167 HD
ATOM     46  C   UNL     1       4.879  -6.251 -12.230  1.00  0.00     0.034 A 
ATOM     47  C   UNL     1       9.237  -5.709  -6.790  1.00  0.00     0.034 A 
ATOM     48  C   UNL     1       5.787  -7.356 -12.062  1.00  0.00     0.049 A 
ATOM     49  C   UNL     1       9.194  -6.942  -7.652  1.00  0.00     0.074 A 
ATOM     50  C   UNL     1       5.907  -8.495 -12.840  1.00  0.00     0.029 A 
ATOM     51  N   UNL     1       6.711  -7.476 -11.036  1.00  0.00    -0.354 N 
ATOM     52  N   UNL     1       8.492  -7.169  -8.736  1.00  0.00    -0.248 NA
ATOM     53  C   UNL     1      10.072  -8.055  -7.263  1.00  0.00     0.031 C 
ATOM     54  C   UNL     1       6.863  -9.328 -12.252  1.00  0.00     0.029 A 
ATOM     55  C   UNL     1       7.385  -8.682 -11.143  1.00  0.00     0.049 A 
ATOM     56  H   UNL     1       6.867  -6.803 -10.335  1.00  0.00     0.167 HD
ATOM     57  C   UNL     1       8.869  -8.433  -9.177  1.00  0.00     0.074 A 
ATOM     58  C   UNL     1       9.879  -8.912  -8.256  1.00  0.00     0.031 C 
ATOM     59  C   UNL     1       8.414  -9.137 -10.243  1.00  0.00     0.034 A 
BRANCH  46  60
ATOM     60  C   UNL     1       3.871  -6.328 -13.348  1.00  0.00     0.023 A 
ATOM     61  C   UNL     1       3.997  -5.489 -14.474  1.00  0.00     0.012 A 
ATOM     62  C   UNL     1       2.833  -7.282 -13.312  1.00  0.00     0.148 A 
ATOM     63  C   UNL     1       3.088  -5.574 -15.529  1.00  0.00     0.002 A 
ATOM     64  C   UNL     1       1.962  -7.394 -14.388  1.00  0.00     0.091 A 
ATOM     65  F   UNL     1       2.719  -8.059 -12.226  1.00  0.00    -0.205 F 
ATOM     66  C   UNL     1       2.079  -6.533 -15.491  1.00  0.00     0.022 A 
BRANCH  64  67
ATOM     67  S   UNL     1       0.680  -8.650 -14.471  1.00  0.00     0.127 S 
ATOM     68  O   UNL     1      -0.533  -7.838 -14.395  1.00  0.00    -0.237 OA
ATOM     69  O   UNL     1       0.929  -9.253 -15.781  1.00  0.00    -0.237 OA
ATOM     70  O   UNL     1       0.907  -9.536 -13.338  1.00  0.00    -0.744 OA
ENDBRANCH  64  67
ENDBRANCH  46  60
BRANCH  47  71
ATOM     71  C   UNL     1      10.124  -5.647  -5.595  1.00  0.00     0.023 A 
ATOM     72  C   UNL     1      11.522  -5.645  -5.757  1.00  0.00     0.012 A 
ATOM     73  C   UNL     1       9.581  -5.587  -4.297  1.00  0.00     0.148 A 
ATOM     74  C   UNL     1      12.365  -5.620  -4.646  1.00  0.00     0.002 A 
ATOM     75  C   UNL     1      10.425  -5.501  -3.198  1.00  0.00     0.091 A 
ATOM     76  F   UNL     1       8.247  -5.603  -4.165  1.00  0.00    -0.205 F 
ATOM     77  C   UNL     1      11.818  -5.538  -3.368  1.00  0.00     0.022 A 
BRANCH  75  78
ATOM     78  S   UNL     1       9.809  -5.262  -1.528  1.00  0.00     0.127 S 
ATOM     79  O   UNL     1      10.177  -6.523  -0.891  1.00  0.00    -0.237 OA
ATOM     80  O   UNL     1      10.580  -4.099  -1.091  1.00  0.00    -0.237 OA
ATOM     81  O   UNL     1       8.379  -5.019  -1.665  1.00  0.00    -0.744 OA
ENDBRANCH  75  78
ENDBRANCH  47  71
BRANCH  59  82
ATOM     82  C   UNL     1       9.033 -10.487 -10.507  1.00  0.00     0.023 A 
ATOM     83  C   UNL     1       8.781 -11.567  -9.637  1.00  0.00     0.012 A 
ATOM     84  C   UNL     1       9.823 -10.697 -11.655  1.00  0.00     0.148 A 
ATOM     85  C   UNL     1       9.339 -12.822  -9.883  1.00  0.00     0.002 A 
ATOM     86  C   UNL     1      10.329 -11.963 -11.924  1.00  0.00     0.091 A 
ATOM     87  F   UNL     1      10.064  -9.656 -12.464  1.00  0.00    -0.205 F 
ATOM     88  C   UNL     1      10.103 -13.022 -11.030  1.00  0.00     0.022 A 
BRANCH  86  89
ATOM     89  S   UNL     1      11.242 -12.341 -13.424  1.00  0.00     0.127 S 
ATOM     90  O   UNL     1      12.580 -12.609 -12.898  1.00  0.00    -0.237 OA
ATOM     91  O   UNL     1      10.536 -13.521 -13.924  1.00  0.00    -0.237 OA
ATOM     92  O   UNL     1      11.133 -11.163 -14.272  1.00  0.00    -0.744 OA
ENDBRANCH  86  89
ENDBRANCH  59  82
ENDBRANCH  33  34
ENDBRANCH  26  28
ENDBRANCH  25  26
ENDBRANCH  24  25
ENDBRANCH  23  24
ENDBRANCH  22  23
ENDBRANCH   1  22
TORSDOF 22
