REMARK SMILES CC(C)[NH2+][C@@]1(C(=O)OCCOCCOC(=O)c2ccc(-c3c4nc(c(-c5cccc(S(=O)(=O)[O-])c5F)c5ccc([nH]5)c(-c5cccc(S(=O)(=O)[O-])c5F)c5nc(c(-c6cccc(S(=O)(=O)[O-])c6F)c6ccc3[nH]6)C=C5)C=C4)cc2)CCC[C@@H]1CCOC1CCOCC1
REMARK SMILES IDX 10 1 9 2 8 3 6 4 7 5 5 6 80 7 83 8 81 9 82 10 4 11 2 14 1 15
REMARK SMILES IDX 3 16 84 17 85 18 86 19 87 20 88 21 92 22 89 23 91 24 90 25
REMARK SMILES IDX 11 26 12 27 13 28 14 29 15 30 16 31 17 32 18 33 79 34 19 35
REMARK SMILES IDX 78 36 20 37 21 38 22 39 72 40 23 41 77 42 71 43 73 44 24 45
REMARK SMILES IDX 76 46 70 47 69 48 25 50 57 51 37 52 56 53 38 54 41 55 55 56
REMARK SMILES IDX 74 57 39 58 40 59 54 61 75 62 42 63 26 64 27 65 35 66 28 67
REMARK SMILES IDX 30 68 36 69 29 70 31 71 32 72 33 73 34 74 58 75 59 76 67 77
REMARK SMILES IDX 60 78 62 79 68 80 61 81 63 82 64 83 65 84 66 85 43 86 44 87
REMARK SMILES IDX 52 88 45 89 47 90 53 91 46 92 48 93 49 94 50 95 51 96
REMARK H PARENT 4 12 4 13 73 49 41 60
REMARK Flexibility Score: inf
ROOT
ATOM      1  C   UNL     1      -1.762  -2.482   5.425  1.00  0.00     0.202 C 
ENDROOT
BRANCH   1   2
ATOM      2  C   UNL     1      -2.456  -1.796   4.240  1.00  0.00     0.261 C 
BRANCH   2   3
ATOM      3  O   UNL     1      -2.110  -2.509   3.025  1.00  0.00    -0.459 OA
BRANCH   3   4
ATOM      4  C   UNL     1      -1.828  -1.944   1.844  1.00  0.00     0.368 C 
ATOM      5  O   UNL     1      -1.665  -0.722   1.778  1.00  0.00    -0.245 OA
BRANCH   4   6
ATOM      6  C   UNL     1      -1.839  -3.023   0.363  1.00  0.00     0.197 C 
ATOM      7  C   UNL     1      -3.565  -3.760  -0.769  1.00  0.00     0.081 C 
ATOM      8  C   UNL     1      -0.534  -4.461   0.188  1.00  0.00     0.065 C 
ATOM      9  C   UNL     1      -2.931  -5.406  -1.752  1.00  0.00     0.008 C 
ATOM     10  C   UNL     1      -1.104  -5.682  -1.215  1.00  0.00     0.011 C 
BRANCH   6  11
ATOM     11  N   UNL     1      -0.762  -1.890  -0.302  1.00  0.00    -0.330 N 
ATOM     12  H   UNL     1      -0.841  -2.043  -1.307  1.00  0.00     0.347 HD
ATOM     13  H   UNL     1      -1.082  -1.089   0.242  1.00  0.00     0.347 HD
BRANCH  11  14
ATOM     14  C   UNL     1       0.661  -1.675  -0.098  1.00  0.00     0.176 C 
ATOM     15  C   UNL     1       0.969  -0.243  -0.583  1.00  0.00     0.075 C 
ATOM     16  C   UNL     1       1.276  -1.842   1.283  1.00  0.00     0.075 C 
ENDBRANCH  11  14
ENDBRANCH   6  11
BRANCH   8  17
ATOM     17  C   UNL     1      -0.269  -5.205   1.529  1.00  0.00     0.039 C 
BRANCH  17  18
ATOM     18  C   UNL     1      -1.210  -4.921   2.718  1.00  0.00     0.161 C 
BRANCH  18  19
ATOM     19  O   UNL     1      -2.639  -4.699   2.679  1.00  0.00    -0.378 OA
BRANCH  19  20
ATOM     20  C   UNL     1      -3.352  -4.265   1.516  1.00  0.00     0.122 C 
ATOM     21  C   UNL     1      -2.539  -4.909   0.232  1.00  0.00     0.060 C 
ATOM     22  C   UNL     1      -4.130  -2.663   1.232  1.00  0.00     0.060 C 
ATOM     23  C   UNL     1      -1.872  -3.659  -1.420  1.00  0.00     0.163 C 
ATOM     24  C   UNL     1      -3.723  -1.607  -0.161  1.00  0.00     0.163 C 
ATOM     25  O   UNL     1      -2.675  -2.010  -1.384  1.00  0.00    -0.381 OA
ENDBRANCH  19  20
ENDBRANCH  18  19
ENDBRANCH  17  18
ENDBRANCH   8  17
ENDBRANCH   4   6
ENDBRANCH   3   4
ENDBRANCH   2   3
ENDBRANCH   1   2
BRANCH   1  26
ATOM     26  O   UNL     1      -0.530  -1.854   5.796  1.00  0.00    -0.374 OA
BRANCH  26  27
ATOM     27  C   UNL     1       0.530  -1.998   4.856  1.00  0.00     0.202 C 
BRANCH  27  28
ATOM     28  C   UNL     1       1.490  -3.155   5.159  1.00  0.00     0.261 C 
BRANCH  28  29
ATOM     29  O   UNL     1       0.851  -4.444   5.087  1.00  0.00    -0.460 OA
BRANCH  29  30
ATOM     30  C   UNL     1       0.451  -4.941   6.283  1.00  0.00     0.338 C 
ATOM     31  O   UNL     1       0.637  -4.434   7.378  1.00  0.00    -0.246 OA
BRANCH  30  32
ATOM     32  C   UNL     1      -0.363  -6.165   6.114  1.00  0.00     0.060 A 
ATOM     33  C   UNL     1      -1.500  -6.283   6.922  1.00  0.00     0.016 A 
ATOM     34  C   UNL     1       0.014  -7.221   5.277  1.00  0.00     0.016 A 
ATOM     35  C   UNL     1      -2.193  -7.490   6.983  1.00  0.00     0.010 A 
ATOM     36  C   UNL     1      -0.707  -8.425   5.314  1.00  0.00     0.010 A 
ATOM     37  C   UNL     1      -1.760  -8.591   6.233  1.00  0.00    -0.014 A 
BRANCH  37  38
ATOM     38  C   UNL     1      -2.236  -9.946   6.631  1.00  0.00     0.031 A 
ATOM     39  C   UNL     1      -1.305 -10.830   7.429  1.00  0.00     0.074 A 
ATOM     40  C   UNL     1      -3.498 -10.355   6.397  1.00  0.00     0.049 A 
ATOM     41  N   UNL     1      -1.530 -11.997   7.975  1.00  0.00    -0.248 NA
ATOM     42  C   UNL     1       0.065 -10.330   7.641  1.00  0.00     0.031 C 
ATOM     43  C   UNL     1      -4.509  -9.606   5.654  1.00  0.00     0.029 A 
ATOM     44  N   UNL     1      -4.142 -11.510   6.772  1.00  0.00    -0.354 N 
ATOM     45  C   UNL     1      -0.332 -12.377   8.570  1.00  0.00     0.074 A 
ATOM     46  C   UNL     1       0.629 -11.335   8.290  1.00  0.00     0.031 C 
ATOM     47  C   UNL     1      -5.647 -10.322   5.625  1.00  0.00     0.029 A 
ATOM     48  C   UNL     1      -5.444 -11.585   6.335  1.00  0.00     0.049 A 
ATOM     49  H   UNL     1      -3.712 -12.218   7.304  1.00  0.00     0.167 HD
ATOM     50  C   UNL     1      -0.053 -13.474   9.312  1.00  0.00     0.034 A 
ATOM     51  C   UNL     1      -6.365 -12.558   6.490  1.00  0.00     0.034 A 
ATOM     52  C   UNL     1      -1.008 -14.499   9.632  1.00  0.00     0.049 A 
ATOM     53  C   UNL     1      -6.029 -13.778   7.312  1.00  0.00     0.074 A 
ATOM     54  C   UNL     1      -0.827 -15.630  10.408  1.00  0.00     0.029 A 
ATOM     55  N   UNL     1      -2.320 -14.522   9.190  1.00  0.00    -0.354 N 
ATOM     56  N   UNL     1      -4.925 -14.063   7.959  1.00  0.00    -0.248 NA
ATOM     57  C   UNL     1      -7.085 -14.793   7.460  1.00  0.00     0.031 C 
ATOM     58  C   UNL     1      -2.025 -16.352  10.414  1.00  0.00     0.029 A 
ATOM     59  C   UNL     1      -2.960 -15.651   9.671  1.00  0.00     0.049 A 
ATOM     60  H   UNL     1      -2.736 -13.837   8.618  1.00  0.00     0.167 HD
ATOM     61  C   UNL     1      -5.168 -15.262   8.625  1.00  0.00     0.074 A 
ATOM     62  C   UNL     1      -6.531 -15.640   8.317  1.00  0.00     0.031 C 
ATOM     63  C   UNL     1      -4.335 -15.989   9.410  1.00  0.00     0.034 A 
BRANCH  50  64
ATOM     64  C   UNL     1       1.346 -13.609   9.854  1.00  0.00     0.023 A 
ATOM     65  C   UNL     1       1.773 -12.773  10.907  1.00  0.00     0.012 A 
ATOM     66  C   UNL     1       2.222 -14.588   9.349  1.00  0.00     0.148 A 
ATOM     67  C   UNL     1       3.063 -12.886  11.424  1.00  0.00     0.002 A 
ATOM     68  C   UNL     1       3.489 -14.727   9.902  1.00  0.00     0.091 A 
ATOM     69  F   UNL     1       1.806 -15.355   8.332  1.00  0.00    -0.205 F 
ATOM     70  C   UNL     1       3.916 -13.869  10.929  1.00  0.00     0.022 A 
BRANCH  68  71
ATOM     71  S   UNL     1       4.631 -16.014   9.388  1.00  0.00     0.127 S 
ATOM     72  O   UNL     1       5.645 -15.241   8.672  1.00  0.00    -0.237 OA
ATOM     73  O   UNL     1       5.075 -16.562  10.670  1.00  0.00    -0.237 OA
ATOM     74  O   UNL     1       3.855 -16.936   8.570  1.00  0.00    -0.744 OA
ENDBRANCH  68  71
ENDBRANCH  50  64
BRANCH  51  75
ATOM     75  C   UNL     1      -7.722 -12.407   5.888  1.00  0.00     0.023 A 
ATOM     76  C   UNL     1      -8.846 -12.248   6.722  1.00  0.00     0.012 A 
ATOM     77  C   UNL     1      -7.902 -12.427   4.491  1.00  0.00     0.148 A 
ATOM     78  C   UNL     1     -10.128 -12.149   6.177  1.00  0.00     0.002 A 
ATOM     79  C   UNL     1      -9.173 -12.270   3.954  1.00  0.00     0.091 A 
ATOM     80  F   UNL     1      -6.822 -12.600   3.715  1.00  0.00    -0.205 F 
ATOM     81  C   UNL     1     -10.290 -12.150   4.795  1.00  0.00     0.022 A 
BRANCH  79  82
ATOM     82  S   UNL     1      -9.460 -12.133   2.186  1.00  0.00     0.127 S 
ATOM     83  O   UNL     1     -10.151 -13.387   1.896  1.00  0.00    -0.237 OA
ATOM     84  O   UNL     1     -10.298 -10.935   2.110  1.00  0.00    -0.237 OA
ATOM     85  O   UNL     1      -8.143 -11.982   1.583  1.00  0.00    -0.744 OA
ENDBRANCH  79  82
ENDBRANCH  51  75
BRANCH  63  86
ATOM     86  C   UNL     1      -4.880 -17.245  10.045  1.00  0.00     0.023 A 
ATOM     87  C   UNL     1      -5.147 -18.379   9.253  1.00  0.00     0.012 A 
ATOM     88  C   UNL     1      -5.063 -17.321  11.441  1.00  0.00     0.148 A 
ATOM     89  C   UNL     1      -5.628 -19.553   9.833  1.00  0.00     0.002 A 
ATOM     90  C   UNL     1      -5.493 -18.510  12.018  1.00  0.00     0.091 A 
ATOM     91  F   UNL     1      -4.820 -16.228  12.179  1.00  0.00    -0.205 F 
ATOM     92  C   UNL     1      -5.790 -19.622  11.215  1.00  0.00     0.022 A 
BRANCH  90  93
ATOM     93  S   UNL     1      -5.633 -18.716  13.797  1.00  0.00     0.127 S 
ATOM     94  O   UNL     1      -7.079 -18.642  13.994  1.00  0.00    -0.237 OA
ATOM     95  O   UNL     1      -5.057 -20.045  14.005  1.00  0.00    -0.237 OA
ATOM     96  O   UNL     1      -4.861 -17.629  14.386  1.00  0.00    -0.744 OA
ENDBRANCH  90  93
ENDBRANCH  63  86
ENDBRANCH  37  38
ENDBRANCH  30  32
ENDBRANCH  29  30
ENDBRANCH  28  29
ENDBRANCH  27  28
ENDBRANCH  26  27
ENDBRANCH   1  26
TORSDOF 23
