REMARK SMILES CC1(C)CCC[C@H]1NS(=O)(=O)c1ccc(O)c(C(=O)OCCOCCOC(=O)c2ccc(-c3c4nc(c(-c5cccc(S(=O)(=O)[O-])c5F)c5ccc([nH]5)c(-c5cccc(S(=O)(=O)[O-])c5F)c5nc(c(-c6cccc(S(=O)(=O)[O-])c6F)c6ccc3[nH]6)C=C5)C=C4)cc2)c1
REMARK SMILES IDX 23 1 22 2 21 3 20 4 18 5 19 6 17 7 12 8 13 9 92 10 14 11
REMARK SMILES IDX 15 12 9 13 10 14 11 15 8 16 7 18 1 19 2 20 3 21 4 22 5 23
REMARK SMILES IDX 6 24 16 25 24 27 25 28 26 29 27 30 28 31 29 32 30 33 91 34
REMARK SMILES IDX 31 35 90 36 32 37 33 38 34 39 84 40 35 41 89 42 83 43 85 44
REMARK SMILES IDX 36 45 88 46 82 47 81 48 37 50 69 51 49 52 68 53 50 54 53 55
REMARK SMILES IDX 67 56 86 57 51 58 52 59 66 61 87 62 54 63 38 64 39 65 47 66
REMARK SMILES IDX 40 67 42 68 48 69 41 70 43 71 44 72 45 73 46 74 70 75 71 76
REMARK SMILES IDX 79 77 72 78 74 79 80 80 73 81 75 82 76 83 77 84 78 85 55 86
REMARK SMILES IDX 56 87 64 88 57 89 59 90 65 91 58 92 60 93 61 94 62 95 63 96
REMARK H PARENT 8 17 16 26 85 49 53 60
REMARK Flexibility Score: inf
ROOT
ATOM      1  O   UNL     1      -2.929   9.639   2.223  1.00  0.00    -0.374 OA
ENDROOT
BRANCH   1   2
ATOM      2  C   UNL     1      -2.088  10.568   1.531  1.00  0.00     0.202 C 
BRANCH   2   3
ATOM      3  C   UNL     1      -0.592  10.258   1.619  1.00  0.00     0.261 C 
BRANCH   3   4
ATOM      4  O   UNL     1      -0.307   9.079   0.853  1.00  0.00    -0.460 OA
BRANCH   4   5
ATOM      5  C   UNL     1       0.350   8.076   1.481  1.00  0.00     0.342 C 
ATOM      6  O   UNL     1       0.842   8.107   2.597  1.00  0.00    -0.246 OA
BRANCH   5   7
ATOM      7  C   UNL     1       0.151   6.820   0.716  1.00  0.00     0.103 A 
ATOM      8  C   UNL     1      -0.586   4.513   0.797  1.00  0.00     0.083 A 
ATOM      9  C   UNL     1      -0.619   4.481  -0.601  1.00  0.00     0.025 A 
ATOM     10  C   UNL     1      -0.203   5.682   1.460  1.00  0.00     0.041 A 
ATOM     11  C   UNL     1      -0.198   5.588  -1.341  1.00  0.00     0.048 A 
ATOM     12  C   UNL     1       0.183   6.758  -0.683  1.00  0.00     0.130 A 
BRANCH   8  13
ATOM     13  S   UNL     1      -1.257   3.156   1.725  1.00  0.00     0.240 S 
ATOM     14  O   UNL     1      -2.598   2.939   1.238  1.00  0.00    -0.207 OA
ATOM     15  O   UNL     1      -1.010   3.418   3.129  1.00  0.00    -0.207 OA
BRANCH  13  16
ATOM     16  N   UNL     1      -0.293   1.822   1.378  1.00  0.00    -0.208 NA
ATOM     17  H   UNL     1       0.670   2.149   1.447  1.00  0.00     0.141 HD
BRANCH  16  18
ATOM     18  C   UNL     1      -0.371   1.067   0.117  1.00  0.00     0.075 C 
ATOM     19  C   UNL     1       1.934   0.079   0.883  1.00  0.00     0.013 C 
ATOM     20  C   UNL     1       0.657  -0.102   0.053  1.00  0.00    -0.019 C 
ATOM     21  C   UNL     1       1.083  -0.321  -1.417  1.00  0.00     0.013 C 
ATOM     22  C   UNL     1      -0.154  -1.305   0.560  1.00  0.00     0.008 C 
ATOM     23  C   UNL     1      -1.530  -1.113  -0.049  1.00  0.00     0.002 C 
ATOM     24  C   UNL     1      -1.745   0.396  -0.066  1.00  0.00     0.020 C 
ENDBRANCH  16  18
ENDBRANCH  13  16
ENDBRANCH   8  13
BRANCH  12  25
ATOM     25  O   UNL     1       0.574   7.840  -1.415  1.00  0.00    -0.507 OA
ATOM     26  H   UNL     1       0.593   7.792  -2.351  1.00  0.00     0.293 HD
ENDBRANCH  12  25
ENDBRANCH   5   7
ENDBRANCH   4   5
ENDBRANCH   3   4
ENDBRANCH   2   3
ENDBRANCH   1   2
BRANCH   1  27
ATOM     27  C   UNL     1      -3.266   8.443   1.514  1.00  0.00     0.202 C 
BRANCH  27  28
ATOM     28  C   UNL     1      -4.459   8.568   0.558  1.00  0.00     0.261 C 
BRANCH  28  29
ATOM     29  O   UNL     1      -4.122   9.328  -0.616  1.00  0.00    -0.460 OA
BRANCH  29  30
ATOM     30  C   UNL     1      -4.639  10.580  -0.663  1.00  0.00     0.338 C 
ATOM     31  O   UNL     1      -5.402  11.095   0.136  1.00  0.00    -0.246 OA
BRANCH  30  32
ATOM     32  C   UNL     1      -4.003  11.331  -1.763  1.00  0.00     0.060 A 
ATOM     33  C   UNL     1      -3.472  12.595  -1.472  1.00  0.00     0.016 A 
ATOM     34  C   UNL     1      -3.971  10.830  -3.066  1.00  0.00     0.016 A 
ATOM     35  C   UNL     1      -2.940  13.383  -2.493  1.00  0.00     0.010 A 
ATOM     36  C   UNL     1      -3.447  11.624  -4.088  1.00  0.00     0.010 A 
ATOM     37  C   UNL     1      -2.958  12.915  -3.812  1.00  0.00    -0.014 A 
BRANCH  37  38
ATOM     38  C   UNL     1      -2.599  13.809  -4.938  1.00  0.00     0.031 A 
ATOM     39  C   UNL     1      -3.705  14.428  -5.746  1.00  0.00     0.074 A 
ATOM     40  C   UNL     1      -1.313  14.015  -5.273  1.00  0.00     0.049 A 
ATOM     41  N   UNL     1      -3.636  15.111  -6.857  1.00  0.00    -0.248 NA
ATOM     42  C   UNL     1      -5.074  14.242  -5.235  1.00  0.00     0.031 C 
ATOM     43  C   UNL     1      -0.157  13.481  -4.556  1.00  0.00     0.029 A 
ATOM     44  N   UNL     1      -0.768  14.695  -6.334  1.00  0.00    -0.354 N 
ATOM     45  C   UNL     1      -4.951  15.400  -7.204  1.00  0.00     0.074 A 
ATOM     46  C   UNL     1      -5.797  14.820  -6.184  1.00  0.00     0.031 C 
ATOM     47  C   UNL     1       0.961  13.815  -5.222  1.00  0.00     0.029 A 
ATOM     48  C   UNL     1       0.596  14.555  -6.430  1.00  0.00     0.049 A 
ATOM     49  H   UNL     1      -1.302  15.232  -6.964  1.00  0.00     0.167 HD
ATOM     50  C   UNL     1      -5.410  16.093  -8.272  1.00  0.00     0.034 A 
ATOM     51  C   UNL     1       1.446  14.944  -7.401  1.00  0.00     0.034 A 
ATOM     52  C   UNL     1      -4.563  16.688  -9.268  1.00  0.00     0.049 A 
ATOM     53  C   UNL     1       0.908  15.691  -8.595  1.00  0.00     0.074 A 
ATOM     54  C   UNL     1      -4.929  17.449 -10.363  1.00  0.00     0.029 A 
ATOM     55  N   UNL     1      -3.182  16.581  -9.296  1.00  0.00    -0.354 N 
ATOM     56  N   UNL     1      -0.326  16.046  -8.858  1.00  0.00    -0.248 NA
ATOM     57  C   UNL     1       1.882  16.113  -9.614  1.00  0.00     0.031 C 
ATOM     58  C   UNL     1      -3.768  17.783 -11.068  1.00  0.00     0.029 A 
ATOM     59  C   UNL     1      -2.678  17.253 -10.395  1.00  0.00     0.049 A 
ATOM     60  H   UNL     1      -2.639  16.097  -8.632  1.00  0.00     0.167 HD
ATOM     61  C   UNL     1      -0.272  16.769 -10.045  1.00  0.00     0.074 A 
ATOM     62  C   UNL     1       1.118  16.807 -10.448  1.00  0.00     0.031 C 
ATOM     63  C   UNL     1      -1.284  17.341 -10.744  1.00  0.00     0.034 A 
BRANCH  50  64
ATOM     64  C   UNL     1      -6.899  16.264  -8.409  1.00  0.00     0.023 A 
ATOM     65  C   UNL     1      -7.580  17.155  -7.556  1.00  0.00     0.012 A 
ATOM     66  C   UNL     1      -7.613  15.587  -9.417  1.00  0.00     0.148 A 
ATOM     67  C   UNL     1      -8.955  17.350  -7.687  1.00  0.00     0.002 A 
ATOM     68  C   UNL     1      -8.975  15.818  -9.568  1.00  0.00     0.091 A 
ATOM     69  F   UNL     1      -6.950  14.724 -10.201  1.00  0.00    -0.205 F 
ATOM     70  C   UNL     1      -9.649  16.691  -8.699  1.00  0.00     0.022 A 
BRANCH  68  71
ATOM     71  S   UNL     1      -9.940  15.074 -10.888  1.00  0.00     0.127 S 
ATOM     72  O   UNL     1     -10.736  14.092 -10.154  1.00  0.00    -0.237 OA
ATOM     73  O   UNL     1     -10.699  16.217 -11.398  1.00  0.00    -0.237 OA
ATOM     74  O   UNL     1      -8.974  14.521 -11.827  1.00  0.00    -0.744 OA
ENDBRANCH  68  71
ENDBRANCH  50  64
BRANCH  51  75
ATOM     75  C   UNL     1       2.903  14.653  -7.275  1.00  0.00     0.023 A 
ATOM     76  C   UNL     1       3.804  15.711  -7.054  1.00  0.00     0.012 A 
ATOM     77  C   UNL     1       3.395  13.335  -7.349  1.00  0.00     0.148 A 
ATOM     78  C   UNL     1       5.173  15.466  -6.936  1.00  0.00     0.002 A 
ATOM     79  C   UNL     1       4.753  13.092  -7.177  1.00  0.00     0.091 A 
ATOM     80  F   UNL     1       2.524  12.342  -7.579  1.00  0.00    -0.205 F 
ATOM     81  C   UNL     1       5.646  14.157  -6.986  1.00  0.00     0.022 A 
BRANCH  79  82
ATOM     82  S   UNL     1       5.429  11.429  -7.100  1.00  0.00     0.127 S 
ATOM     83  O   UNL     1       6.143  11.336  -8.371  1.00  0.00    -0.237 OA
ATOM     84  O   UNL     1       6.286  11.504  -5.916  1.00  0.00    -0.237 OA
ATOM     85  O   UNL     1       4.281  10.544  -6.952  1.00  0.00    -0.744 OA
ENDBRANCH  79  82
ENDBRANCH  51  75
BRANCH  63  86
ATOM     86  C   UNL     1      -0.939  18.111 -11.992  1.00  0.00     0.023 A 
ATOM     87  C   UNL     1      -0.602  17.421 -13.172  1.00  0.00     0.012 A 
ATOM     88  C   UNL     1      -1.069  19.514 -12.020  1.00  0.00     0.148 A 
ATOM     89  C   UNL     1      -0.382  18.118 -14.359  1.00  0.00     0.002 A 
ATOM     90  C   UNL     1      -0.895  20.197 -13.217  1.00  0.00     0.091 A 
ATOM     91  F   UNL     1      -1.376  20.150 -10.880  1.00  0.00    -0.205 F 
ATOM     92  C   UNL     1      -0.543  19.502 -14.386  1.00  0.00     0.022 A 
BRANCH  90  93
ATOM     93  S   UNL     1      -1.177  21.965 -13.370  1.00  0.00     0.127 S 
ATOM     94  O   UNL     1       0.179  22.465 -13.586  1.00  0.00    -0.237 OA
ATOM     95  O   UNL     1      -2.049  22.038 -14.543  1.00  0.00    -0.237 OA
ATOM     96  O   UNL     1      -1.803  22.384 -12.123  1.00  0.00    -0.744 OA
ENDBRANCH  90  93
ENDBRANCH  63  86
ENDBRANCH  37  38
ENDBRANCH  30  32
ENDBRANCH  29  30
ENDBRANCH  28  29
ENDBRANCH  27  28
ENDBRANCH   1  27
TORSDOF 21
