REMARK SMILES CCCC[C@H](C(=O)OCCOCCOC(=O)c1ccc(-c2c3nc(c(-c4cccc(S(=O)(=O)[O-])c4F)c4ccc([nH]4)c(-c4cccc(S(=O)(=O)[O-])c4F)c4nc(c(-c5cccc(S(=O)(=O)[O-])c5F)c5ccc2[nH]5)C=C4)C=C3)cc1)[C@]1(O)CCc2ccc(OC)cc21
REMARK SMILES IDX 11 1 10 2 9 3 8 4 6 5 7 6 5 7 4 8 3 9 2 10 1 11 80 12 82 13
REMARK SMILES IDX 91 14 83 15 84 16 90 17 85 18 87 19 86 20 81 21 88 23 89 24
REMARK SMILES IDX 12 25 13 26 14 27 15 28 16 29 17 30 18 31 79 32 19 33 78 34
REMARK SMILES IDX 20 35 21 36 22 37 72 38 23 39 77 40 71 41 73 42 24 43 76 44
REMARK SMILES IDX 70 45 69 46 25 48 57 49 37 50 56 51 38 52 41 53 55 54 74 55
REMARK SMILES IDX 39 56 40 57 54 59 75 60 42 61 26 62 27 63 35 64 28 65 30 66
REMARK SMILES IDX 36 67 29 68 31 69 32 70 33 71 34 72 58 73 59 74 67 75 60 76
REMARK SMILES IDX 62 77 68 78 61 79 63 80 64 81 65 82 66 83 43 84 44 85 52 86
REMARK SMILES IDX 45 87 47 88 53 89 46 90 48 91 49 92 50 93 51 94
REMARK H PARENT 81 22 73 47 41 58
REMARK Flexibility Score: inf
ROOT
ATOM      1  O   UNL     1       3.426   0.193   4.029  1.00  0.00    -0.374 OA
ENDROOT
BRANCH   1   2
ATOM      2  C   UNL     1       3.549   0.465   2.638  1.00  0.00     0.202 C 
BRANCH   2   3
ATOM      3  C   UNL     1       2.483  -0.043   1.667  1.00  0.00     0.261 C 
BRANCH   3   4
ATOM      4  O   UNL     1       1.141   0.237   2.113  1.00  0.00    -0.463 OA
BRANCH   4   5
ATOM      5  C   UNL     1       0.271  -0.766   1.841  1.00  0.00     0.312 C 
ATOM      6  O   UNL     1       0.562  -1.712   1.114  1.00  0.00    -0.252 OA
BRANCH   5   7
ATOM      7  C   UNL     1      -1.106  -0.577   2.490  1.00  0.00     0.135 C 
BRANCH   7   8
ATOM      8  C   UNL     1      -2.060  -1.622   1.706  1.00  0.00     0.019 C 
BRANCH   8   9
ATOM      9  C   UNL     1      -3.447  -2.046   2.249  1.00  0.00     0.001 C 
BRANCH   9  10
ATOM     10  C   UNL     1      -4.576  -1.756   1.273  1.00  0.00    -0.003 C 
ATOM     11  C   UNL     1      -4.606  -2.783   0.160  1.00  0.00     0.004 C 
ENDBRANCH   9  10
ENDBRANCH   8   9
ENDBRANCH   7   8
BRANCH   7  12
ATOM     12  C   UNL     1      -1.314  -0.732   4.022  1.00  0.00     0.104 C 
ATOM     13  C   UNL     1      -0.924  -0.191   5.412  1.00  0.00     0.046 C 
ATOM     14  C   UNL     1      -1.094  -2.181   4.429  1.00  0.00    -0.009 A 
ATOM     15  C   UNL     1      -1.798  -1.131   6.381  1.00  0.00     0.039 C 
ATOM     16  C   UNL     1      -1.610  -2.447   5.682  1.00  0.00    -0.042 A 
ATOM     17  C   UNL     1      -0.300  -3.145   3.825  1.00  0.00     0.053 A 
ATOM     18  C   UNL     1      -1.767  -3.758   6.094  1.00  0.00     0.008 A 
ATOM     19  C   UNL     1      -0.430  -4.473   4.185  1.00  0.00     0.119 A 
ATOM     20  C   UNL     1      -1.220  -4.782   5.296  1.00  0.00     0.047 A 
BRANCH  12  21
ATOM     21  O   UNL     1      -2.681  -0.205   4.114  1.00  0.00    -0.384 OA
ATOM     22  H   UNL     1      -2.690   0.722   3.830  1.00  0.00     0.211 HD
ENDBRANCH  12  21
BRANCH  19  23
ATOM     23  O   UNL     1       0.163  -5.503   3.502  1.00  0.00    -0.497 OA
ATOM     24  C   UNL     1       0.667  -5.174   2.198  1.00  0.00     0.278 C 
ENDBRANCH  19  23
ENDBRANCH   7  12
ENDBRANCH   5   7
ENDBRANCH   4   5
ENDBRANCH   3   4
ENDBRANCH   2   3
ENDBRANCH   1   2
BRANCH   1  25
ATOM     25  C   UNL     1       2.224   0.584   4.671  1.00  0.00     0.202 C 
BRANCH  25  26
ATOM     26  C   UNL     1       1.843   2.072   4.799  1.00  0.00     0.261 C 
BRANCH  26  27
ATOM     27  O   UNL     1       2.050   2.853   3.621  1.00  0.00    -0.460 OA
BRANCH  27  28
ATOM     28  C   UNL     1       3.145   3.652   3.667  1.00  0.00     0.338 C 
ATOM     29  O   UNL     1       3.909   3.815   4.608  1.00  0.00    -0.246 OA
BRANCH  28  30
ATOM     30  C   UNL     1       3.419   4.134   2.307  1.00  0.00     0.060 A 
ATOM     31  C   UNL     1       4.598   3.695   1.688  1.00  0.00     0.016 A 
ATOM     32  C   UNL     1       2.523   4.971   1.643  1.00  0.00     0.016 A 
ATOM     33  C   UNL     1       4.875   4.069   0.381  1.00  0.00     0.010 A 
ATOM     34  C   UNL     1       2.825   5.383   0.346  1.00  0.00     0.010 A 
ATOM     35  C   UNL     1       4.004   4.940  -0.280  1.00  0.00    -0.014 A 
BRANCH  35  36
ATOM     36  C   UNL     1       4.407   5.514  -1.576  1.00  0.00     0.031 A 
ATOM     37  C   UNL     1       5.059   6.862  -1.581  1.00  0.00     0.074 A 
ATOM     38  C   UNL     1       4.180   4.841  -2.716  1.00  0.00     0.049 A 
ATOM     39  N   UNL     1       5.430   7.596  -2.593  1.00  0.00    -0.248 NA
ATOM     40  C   UNL     1       5.327   7.464  -0.263  1.00  0.00     0.031 C 
ATOM     41  C   UNL     1       3.582   3.510  -2.805  1.00  0.00     0.029 A 
ATOM     42  N   UNL     1       4.401   5.203  -4.018  1.00  0.00    -0.354 N 
ATOM     43  C   UNL     1       5.946   8.760  -2.039  1.00  0.00     0.074 A 
ATOM     44  C   UNL     1       5.835   8.638  -0.603  1.00  0.00     0.031 C 
ATOM     45  C   UNL     1       3.449   3.181  -4.101  1.00  0.00     0.029 A 
ATOM     46  C   UNL     1       3.918   4.292  -4.926  1.00  0.00     0.049 A 
ATOM     47  H   UNL     1       4.861   6.034  -4.278  1.00  0.00     0.167 HD
ATOM     48  C   UNL     1       6.471   9.832  -2.677  1.00  0.00     0.034 A 
ATOM     49  C   UNL     1       3.833   4.372  -6.268  1.00  0.00     0.034 A 
ATOM     50  C   UNL     1       6.565   9.936  -4.107  1.00  0.00     0.049 A 
ATOM     51  C   UNL     1       4.355   5.607  -6.953  1.00  0.00     0.074 A 
ATOM     52  C   UNL     1       7.111  10.956  -4.862  1.00  0.00     0.029 A 
ATOM     53  N   UNL     1       6.073   8.993  -4.999  1.00  0.00    -0.354 N 
ATOM     54  N   UNL     1       4.942   6.657  -6.428  1.00  0.00    -0.248 NA
ATOM     55  C   UNL     1       4.221   5.663  -8.415  1.00  0.00     0.031 C 
ATOM     56  C   UNL     1       6.909  10.651  -6.212  1.00  0.00     0.029 A 
ATOM     57  C   UNL     1       6.274   9.421  -6.299  1.00  0.00     0.049 A 
ATOM     58  H   UNL     1       5.645   8.144  -4.744  1.00  0.00     0.167 HD
ATOM     59  C   UNL     1       5.269   7.487  -7.494  1.00  0.00     0.074 A 
ATOM     60  C   UNL     1       4.835   6.805  -8.697  1.00  0.00     0.031 C 
ATOM     61  C   UNL     1       5.862   8.707  -7.482  1.00  0.00     0.034 A 
BRANCH  48  62
ATOM     62  C   UNL     1       6.970  10.968  -1.826  1.00  0.00     0.023 A 
ATOM     63  C   UNL     1       8.133  10.806  -1.046  1.00  0.00     0.012 A 
ATOM     64  C   UNL     1       6.295  12.204  -1.810  1.00  0.00     0.148 A 
ATOM     65  C   UNL     1       8.593  11.840  -0.231  1.00  0.00     0.002 A 
ATOM     66  C   UNL     1       6.787  13.246  -1.034  1.00  0.00     0.091 A 
ATOM     67  F   UNL     1       5.176  12.331  -2.537  1.00  0.00    -0.205 F 
ATOM     68  C   UNL     1       7.926  13.062  -0.233  1.00  0.00     0.022 A 
BRANCH  66  69
ATOM     69  S   UNL     1       6.042  14.880  -1.024  1.00  0.00     0.127 S 
ATOM     70  O   UNL     1       5.461  14.931   0.317  1.00  0.00    -0.237 OA
ATOM     71  O   UNL     1       7.204  15.747  -1.218  1.00  0.00    -0.237 OA
ATOM     72  O   UNL     1       5.084  14.892  -2.120  1.00  0.00    -0.744 OA
ENDBRANCH  66  69
ENDBRANCH  48  62
BRANCH  49  73
ATOM     73  C   UNL     1       3.241   3.247  -7.044  1.00  0.00     0.023 A 
ATOM     74  C   UNL     1       4.066   2.471  -7.879  1.00  0.00     0.012 A 
ATOM     75  C   UNL     1       1.874   2.923  -6.935  1.00  0.00     0.148 A 
ATOM     76  C   UNL     1       3.537   1.405  -8.608  1.00  0.00     0.002 A 
ATOM     77  C   UNL     1       1.364   1.828  -7.622  1.00  0.00     0.091 A 
ATOM     78  F   UNL     1       1.103   3.683  -6.144  1.00  0.00    -0.205 F 
ATOM     79  C   UNL     1       2.191   1.077  -8.472  1.00  0.00     0.022 A 
BRANCH  77  80
ATOM     80  S   UNL     1      -0.326   1.256  -7.414  1.00  0.00     0.127 S 
ATOM     81  O   UNL     1      -0.890   1.501  -8.739  1.00  0.00    -0.237 OA
ATOM     82  O   UNL     1      -0.124  -0.154  -7.079  1.00  0.00    -0.237 OA
ATOM     83  O   UNL     1      -0.886   2.058  -6.334  1.00  0.00    -0.744 OA
ENDBRANCH  77  80
ENDBRANCH  49  73
BRANCH  61  84
ATOM     84  C   UNL     1       6.093   9.384  -8.807  1.00  0.00     0.023 A 
ATOM     85  C   UNL     1       5.003   9.932  -9.512  1.00  0.00     0.012 A 
ATOM     86  C   UNL     1       7.400   9.563  -9.304  1.00  0.00     0.148 A 
ATOM     87  C   UNL     1       5.208  10.627 -10.703  1.00  0.00     0.002 A 
ATOM     88  C   UNL     1       7.601  10.300 -10.463  1.00  0.00     0.091 A 
ATOM     89  F   UNL     1       8.421   9.023  -8.622  1.00  0.00    -0.205 F 
ATOM     90  C   UNL     1       6.505  10.822 -11.171  1.00  0.00     0.022 A 
BRANCH  88  91
ATOM     91  S   UNL     1       9.237  10.690 -11.092  1.00  0.00     0.127 S 
ATOM     92  O   UNL     1       9.252   9.959 -12.358  1.00  0.00    -0.237 OA
ATOM     93  O   UNL     1       9.175  12.145 -11.228  1.00  0.00    -0.237 OA
ATOM     94  O   UNL     1      10.181  10.211 -10.091  1.00  0.00    -0.744 OA
ENDBRANCH  88  91
ENDBRANCH  61  84
ENDBRANCH  35  36
ENDBRANCH  28  30
ENDBRANCH  27  28
ENDBRANCH  26  27
ENDBRANCH  25  26
ENDBRANCH   1  25
TORSDOF 23
