REMARK SMILES CC(C)Cc1ccc(-c2cc(Cl)cc3c2O[C@@H](C(F)(F)F)C(C(=O)OCCOCCOC(=O)c2ccc(-c4c5nc(c(-c6cccc(S(=O)(=O)[O-])c6F)c6ccc([nH]6)c(-c6cccc(S(=O)(=O)[O-])c6F)c6nc(c(-c7cccc(S(=O)(=O)[O-])c7F)c7ccc4[nH]7)C=C6)C=C5)cc2)=C3)cc1
REMARK SMILES IDX 28 1 27 2 26 3 25 4 23 5 24 6 22 7 9 8 10 9 15 10 11 11
REMARK SMILES IDX 14 12 16 13 12 14 13 15 97 16 17 17 8 18 5 19 6 20 99 21
REMARK SMILES IDX 7 22 98 23 4 24 2 25 1 26 3 27 18 28 19 29 20 30 21 31 29 32
REMARK SMILES IDX 30 33 31 34 32 35 33 36 34 37 35 38 96 39 36 40 95 41 37 42
REMARK SMILES IDX 38 43 39 44 89 45 40 46 94 47 88 48 90 49 41 50 93 51 87 52
REMARK SMILES IDX 86 53 42 55 74 56 54 57 73 58 55 59 58 60 72 61 91 62 56 63
REMARK SMILES IDX 57 64 71 66 92 67 59 68 43 69 44 70 52 71 45 72 47 73 53 74
REMARK SMILES IDX 46 75 48 76 49 77 50 78 51 79 75 80 76 81 84 82 77 83 79 84
REMARK SMILES IDX 85 85 78 86 80 87 81 88 82 89 83 90 60 91 61 92 69 93 62 94
REMARK SMILES IDX 64 95 70 96 63 97 65 98 66 99 67 100 68 101
REMARK H PARENT 90 54 58 65
REMARK Flexibility Score: inf
ROOT
ATOM      1  O   UNL     1      -2.071   9.299   4.405  1.00  0.00    -0.374 OA
ENDROOT
BRANCH   1   2
ATOM      2  C   UNL     1      -2.463  10.015   5.570  1.00  0.00     0.202 C 
BRANCH   2   3
ATOM      3  C   UNL     1      -2.671   9.237   6.881  1.00  0.00     0.261 C 
BRANCH   3   4
ATOM      4  O   UNL     1      -2.004   7.965   6.896  1.00  0.00    -0.460 OA
BRANCH   4   5
ATOM      5  C   UNL     1      -2.659   6.965   7.514  1.00  0.00     0.338 C 
ATOM      6  O   UNL     1      -3.695   7.085   8.155  1.00  0.00    -0.246 OA
BRANCH   5   7
ATOM      7  C   UNL     1      -2.105   5.631   7.174  1.00  0.00     0.087 C 
ATOM      8  C   UNL     1      -1.518   5.035   3.112  1.00  0.00     0.026 A 
ATOM      9  C   UNL     1      -2.458   5.867   2.461  1.00  0.00     0.033 A 
ATOM     10  C   UNL     1      -1.615   4.995   4.518  1.00  0.00     0.135 A 
ATOM     11  C   UNL     1      -3.587   6.343   3.125  1.00  0.00     0.042 A 
ATOM     12  C   UNL     1      -2.863   5.240   5.113  1.00  0.00     0.019 A 
ATOM     13  O   UNL     1      -0.470   5.074   5.321  1.00  0.00    -0.475 OA
ATOM     14  Cl  UNL     1      -4.717   7.327   2.287  1.00  0.00    -0.084 Cl
ATOM     15  C   UNL     1      -3.846   5.940   4.424  1.00  0.00     0.032 A 
ATOM     16  C   UNL     1      -3.042   4.906   6.541  1.00  0.00     0.027 C 
ATOM     17  C   UNL     1      -0.682   5.281   6.788  1.00  0.00     0.316 C 
BRANCH   8  18
ATOM     18  C   UNL     1      -1.006   3.913   2.247  1.00  0.00    -0.015 A 
ATOM     19  C   UNL     1      -0.849   1.818   0.282  1.00  0.00    -0.048 A 
ATOM     20  C   UNL     1      -0.493   3.132  -0.034  1.00  0.00     0.004 A 
ATOM     21  C   UNL     1      -1.247   1.546   1.596  1.00  0.00     0.004 A 
ATOM     22  C   UNL     1      -0.550   4.152   0.933  1.00  0.00     0.009 A 
ATOM     23  C   UNL     1      -1.318   2.573   2.559  1.00  0.00     0.009 A 
BRANCH  19  24
ATOM     24  C   UNL     1      -0.763   0.722  -0.764  1.00  0.00     0.038 C 
BRANCH  24  25
ATOM     25  C   UNL     1       0.696   0.382  -1.137  1.00  0.00    -0.013 C 
ATOM     26  C   UNL     1       1.460  -0.182   0.063  1.00  0.00     0.008 C 
ATOM     27  C   UNL     1       0.764  -0.611  -2.300  1.00  0.00     0.008 C 
ENDBRANCH  24  25
ENDBRANCH  19  24
ENDBRANCH   8  18
BRANCH  17  28
ATOM     28  C   UNL     1       0.419   6.054   7.551  1.00  0.00     0.430 C 
ATOM     29  F   UNL     1       0.401   5.675   8.860  1.00  0.00    -0.167 F 
ATOM     30  F   UNL     1       1.653   5.751   7.086  1.00  0.00    -0.167 F 
ATOM     31  F   UNL     1       0.302   7.392   7.529  1.00  0.00    -0.167 F 
ENDBRANCH  17  28
ENDBRANCH   5   7
ENDBRANCH   4   5
ENDBRANCH   3   4
ENDBRANCH   2   3
ENDBRANCH   1   2
BRANCH   1  32
ATOM     32  C   UNL     1      -0.784   8.684   4.397  1.00  0.00     0.202 C 
BRANCH  32  33
ATOM     33  C   UNL     1       0.464   9.571   4.429  1.00  0.00     0.261 C 
BRANCH  33  34
ATOM     34  O   UNL     1       0.536  10.426   5.579  1.00  0.00    -0.460 OA
BRANCH  34  35
ATOM     35  C   UNL     1       0.465  11.748   5.295  1.00  0.00     0.338 C 
ATOM     36  O   UNL     1       0.359  12.262   4.187  1.00  0.00    -0.246 OA
BRANCH  35  37
ATOM     37  C   UNL     1       0.362  12.534   6.532  1.00  0.00     0.060 A 
ATOM     38  C   UNL     1      -0.770  13.341   6.693  1.00  0.00     0.016 A 
ATOM     39  C   UNL     1       1.408  12.576   7.455  1.00  0.00     0.016 A 
ATOM     40  C   UNL     1      -0.836  14.240   7.752  1.00  0.00     0.010 A 
ATOM     41  C   UNL     1       1.342  13.484   8.516  1.00  0.00     0.010 A 
ATOM     42  C   UNL     1       0.240  14.351   8.642  1.00  0.00    -0.014 A 
BRANCH  42  43
ATOM     43  C   UNL     1       0.259  15.476   9.607  1.00  0.00     0.031 A 
ATOM     44  C   UNL     1       1.115  16.679   9.316  1.00  0.00     0.074 A 
ATOM     45  C   UNL     1      -0.510  15.439  10.710  1.00  0.00     0.049 A 
ATOM     46  N   UNL     1       1.250  17.782  10.004  1.00  0.00    -0.248 NA
ATOM     47  C   UNL     1       1.926  16.635   8.087  1.00  0.00     0.031 C 
ATOM     48  C   UNL     1      -1.375  14.326  11.098  1.00  0.00     0.029 A 
ATOM     49  N   UNL     1      -0.673  16.359  11.714  1.00  0.00    -0.354 N 
ATOM     50  C   UNL     1       2.183  18.548   9.314  1.00  0.00     0.074 A 
ATOM     51  C   UNL     1       2.588  17.782   8.156  1.00  0.00     0.031 C 
ATOM     52  C   UNL     1      -1.959  14.617  12.273  1.00  0.00     0.029 A 
ATOM     53  C   UNL     1      -1.495  15.926  12.728  1.00  0.00     0.049 A 
ATOM     54  H   UNL     1      -0.243  17.245  11.710  1.00  0.00     0.167 HD
ATOM     55  C   UNL     1       2.648  19.784   9.611  1.00  0.00     0.034 A 
ATOM     56  C   UNL     1      -1.816  16.511  13.899  1.00  0.00     0.034 A 
ATOM     57  C   UNL     1       2.221  20.554  10.748  1.00  0.00     0.049 A 
ATOM     58  C   UNL     1      -1.281  17.886  14.202  1.00  0.00     0.074 A 
ATOM     59  C   UNL     1       2.582  21.843  11.096  1.00  0.00     0.029 A 
ATOM     60  N   UNL     1       1.354  20.102  11.729  1.00  0.00    -0.354 N 
ATOM     61  N   UNL     1      -0.510  18.653  13.470  1.00  0.00    -0.248 NA
ATOM     62  C   UNL     1      -1.689  18.491  15.478  1.00  0.00     0.031 C 
ATOM     63  C   UNL     1       1.964  22.156  12.310  1.00  0.00     0.029 A 
ATOM     64  C   UNL     1       1.184  21.077  12.696  1.00  0.00     0.049 A 
ATOM     65  H   UNL     1       0.922  19.217  11.738  1.00  0.00     0.167 HD
ATOM     66  C   UNL     1      -0.369  19.841  14.179  1.00  0.00     0.074 A 
ATOM     67  C   UNL     1      -1.157  19.702  15.386  1.00  0.00     0.031 C 
ATOM     68  C   UNL     1       0.359  20.943  13.869  1.00  0.00     0.034 A 
BRANCH  55  69
ATOM     69  C   UNL     1       3.667  20.397   8.686  1.00  0.00     0.023 A 
ATOM     70  C   UNL     1       3.272  20.867   7.418  1.00  0.00     0.012 A 
ATOM     71  C   UNL     1       4.998  20.581   9.109  1.00  0.00     0.148 A 
ATOM     72  C   UNL     1       4.192  21.489   6.574  1.00  0.00     0.002 A 
ATOM     73  C   UNL     1       5.898  21.242   8.282  1.00  0.00     0.091 A 
ATOM     74  F   UNL     1       5.357  20.108  10.311  1.00  0.00    -0.205 F 
ATOM     75  C   UNL     1       5.500  21.688   7.011  1.00  0.00     0.022 A 
BRANCH  73  76
ATOM     76  S   UNL     1       7.581  21.619   8.784  1.00  0.00     0.127 S 
ATOM     77  O   UNL     1       8.355  20.775   7.875  1.00  0.00    -0.237 OA
ATOM     78  O   UNL     1       7.668  23.053   8.508  1.00  0.00    -0.237 OA
ATOM     79  O   UNL     1       7.673  21.262  10.193  1.00  0.00    -0.744 OA
ENDBRANCH  73  76
ENDBRANCH  55  69
BRANCH  56  80
ATOM     80  C   UNL     1      -2.703  15.806  14.867  1.00  0.00     0.023 A 
ATOM     81  C   UNL     1      -3.990  16.310  15.137  1.00  0.00     0.012 A 
ATOM     82  C   UNL     1      -2.271  14.637  15.525  1.00  0.00     0.148 A 
ATOM     83  C   UNL     1      -4.815  15.685  16.073  1.00  0.00     0.002 A 
ATOM     84  C   UNL     1      -3.120  13.987  16.411  1.00  0.00     0.091 A 
ATOM     85  F   UNL     1      -1.036  14.184  15.268  1.00  0.00    -0.205 F 
ATOM     86  C   UNL     1      -4.385  14.519  16.702  1.00  0.00     0.022 A 
BRANCH  84  87
ATOM     87  S   UNL     1      -2.697  12.413  17.166  1.00  0.00     0.127 S 
ATOM     88  O   UNL     1      -2.456  12.802  18.552  1.00  0.00    -0.237 OA
ATOM     89  O   UNL     1      -3.916  11.635  16.946  1.00  0.00    -0.237 OA
ATOM     90  O   UNL     1      -1.536  11.927  16.432  1.00  0.00    -0.744 OA
ENDBRANCH  84  87
ENDBRANCH  56  80
BRANCH  68  91
ATOM     91  C   UNL     1       0.315  22.104  14.828  1.00  0.00     0.023 A 
ATOM     92  C   UNL     1       0.956  22.009  16.079  1.00  0.00     0.012 A 
ATOM     93  C   UNL     1      -0.305  23.316  14.460  1.00  0.00     0.148 A 
ATOM     94  C   UNL     1       0.948  23.086  16.964  1.00  0.00     0.002 A 
ATOM     95  C   UNL     1      -0.263  24.402  15.325  1.00  0.00     0.091 A 
ATOM     96  F   UNL     1      -0.923  23.383  13.273  1.00  0.00    -0.205 F 
ATOM     97  C   UNL     1       0.350  24.285  16.583  1.00  0.00     0.022 A 
BRANCH  95  98
ATOM     98  S   UNL     1      -0.918  26.014  14.880  1.00  0.00     0.127 S 
ATOM     99  O   UNL     1      -2.108  26.096  15.725  1.00  0.00    -0.237 OA
ATOM    100  O   UNL     1       0.171  26.910  15.270  1.00  0.00    -0.237 OA
ATOM    101  O   UNL     1      -1.173  25.963  13.446  1.00  0.00    -0.744 OA
ENDBRANCH  95  98
ENDBRANCH  68  91
ENDBRANCH  42  43
ENDBRANCH  35  37
ENDBRANCH  34  35
ENDBRANCH  33  34
ENDBRANCH  32  33
ENDBRANCH   1  32
TORSDOF 21
