REMARK SMILES NS(=O)(=O)c1ccc(-c2cc(Cl)cc3c2O[C@@H](C(F)(F)F)C(C(=O)OCCOCCOC(=O)c2ccc(-c4c5nc(c(-c6cccc(S(=O)(=O)[O-])c6F)c6ccc([nH]6)c(-c6cccc(S(=O)(=O)[O-])c6F)c6nc(c(-c7cccc(S(=O)(=O)[O-])c7F)c7ccc4[nH]7)C=C6)C=C5)cc2)=C3)cc1
REMARK SMILES IDX 28 1 27 2 26 3 25 4 23 5 24 6 22 7 9 8 10 9 15 10 11 11
REMARK SMILES IDX 14 12 16 13 12 14 13 15 97 16 17 17 8 18 5 19 6 20 99 21
REMARK SMILES IDX 7 22 98 23 2 24 3 25 4 26 1 27 18 30 19 31 20 32 21 33 29 34
REMARK SMILES IDX 30 35 31 36 32 37 33 38 34 39 35 40 96 41 36 42 95 43 37 44
REMARK SMILES IDX 38 45 39 46 89 47 40 48 94 49 88 50 90 51 41 52 93 53 87 54
REMARK SMILES IDX 86 55 42 57 74 58 54 59 73 60 55 61 58 62 72 63 91 64 56 65
REMARK SMILES IDX 57 66 71 68 92 69 59 70 43 71 44 72 52 73 45 74 47 75 53 76
REMARK SMILES IDX 46 77 48 78 49 79 50 80 51 81 75 82 76 83 84 84 77 85 79 86
REMARK SMILES IDX 85 87 78 88 80 89 81 90 82 91 83 92 60 93 61 94 69 95 62 96
REMARK SMILES IDX 64 97 70 98 63 99 65 100 66 101 67 102 68 103
REMARK H PARENT 1 28 1 29 90 56 58 67
REMARK Flexibility Score: inf
ROOT
ATOM      1  O   UNL     1       5.180  10.011  -4.848  1.00  0.00    -0.374 OA
ENDROOT
BRANCH   1   2
ATOM      2  C   UNL     1       5.064  11.405  -5.104  1.00  0.00     0.202 C 
BRANCH   2   3
ATOM      3  C   UNL     1       3.940  12.193  -4.410  1.00  0.00     0.261 C 
BRANCH   3   4
ATOM      4  O   UNL     1       3.394  11.519  -3.264  1.00  0.00    -0.460 OA
BRANCH   4   5
ATOM      5  C   UNL     1       2.054  11.553  -3.147  1.00  0.00     0.338 C 
ATOM      6  O   UNL     1       1.296  12.187  -3.869  1.00  0.00    -0.246 OA
BRANCH   5   7
ATOM      7  C   UNL     1       1.539  10.583  -2.150  1.00  0.00     0.087 C 
ATOM      8  C   UNL     1       2.828   6.658  -2.594  1.00  0.00     0.026 A 
ATOM      9  C   UNL     1       3.213   6.556  -3.951  1.00  0.00     0.033 A 
ATOM     10  C   UNL     1       2.250   7.893  -2.231  1.00  0.00     0.135 A 
ATOM     11  C   UNL     1       2.717   7.443  -4.907  1.00  0.00     0.042 A 
ATOM     12  C   UNL     1       1.530   8.612  -3.197  1.00  0.00     0.019 A 
ATOM     13  O   UNL     1       2.783   8.624  -1.152  1.00  0.00    -0.475 OA
ATOM     14  Cl  UNL     1       3.161   7.252  -6.555  1.00  0.00    -0.084 Cl
ATOM     15  C   UNL     1       1.790   8.409  -4.546  1.00  0.00     0.032 A 
ATOM     16  C   UNL     1       0.684   9.738  -2.750  1.00  0.00     0.027 C 
ATOM     17  C   UNL     1       2.243  10.001  -0.942  1.00  0.00     0.316 C 
BRANCH   8  18
ATOM     18  C   UNL     1       2.413   5.328  -1.999  1.00  0.00    -0.015 A 
ATOM     19  C   UNL     1       1.343   2.696  -1.716  1.00  0.00     0.082 A 
ATOM     20  C   UNL     1       2.688   2.875  -2.038  1.00  0.00     0.022 A 
ATOM     21  C   UNL     1       0.538   3.808  -1.472  1.00  0.00     0.022 A 
ATOM     22  C   UNL     1       3.216   4.174  -2.154  1.00  0.00     0.010 A 
ATOM     23  C   UNL     1       1.072   5.106  -1.605  1.00  0.00     0.010 A 
BRANCH  19  24
ATOM     24  S   UNL     1       0.639   1.067  -1.771  1.00  0.00     0.238 S 
ATOM     25  O   UNL     1       1.292   0.303  -2.814  1.00  0.00    -0.207 OA
ATOM     26  O   UNL     1      -0.797   1.153  -1.671  1.00  0.00    -0.207 OA
BRANCH  24  27
ATOM     27  N   UNL     1       1.152   0.388  -0.324  1.00  0.00    -0.225 NA
ATOM     28  H   UNL     1       0.797  -0.565  -0.252  1.00  0.00     0.137 HD
ATOM     29  H   UNL     1       0.800   0.943   0.456  1.00  0.00     0.137 HD
ENDBRANCH  24  27
ENDBRANCH  19  24
ENDBRANCH   8  18
BRANCH  17  30
ATOM     30  C   UNL     1       3.134  10.987  -0.151  1.00  0.00     0.430 C 
ATOM     31  F   UNL     1       2.336  11.883   0.492  1.00  0.00    -0.167 F 
ATOM     32  F   UNL     1       3.846  10.354   0.810  1.00  0.00    -0.167 F 
ATOM     33  F   UNL     1       4.003  11.696  -0.891  1.00  0.00    -0.167 F 
ENDBRANCH  17  30
ENDBRANCH   5   7
ENDBRANCH   4   5
ENDBRANCH   3   4
ENDBRANCH   2   3
ENDBRANCH   1   2
BRANCH   1  34
ATOM     34  C   UNL     1       5.516   9.596  -3.526  1.00  0.00     0.202 C 
BRANCH  34  35
ATOM     35  C   UNL     1       6.890   9.965  -2.959  1.00  0.00     0.261 C 
BRANCH  35  36
ATOM     36  O   UNL     1       7.122  11.379  -2.880  1.00  0.00    -0.460 OA
BRANCH  36  37
ATOM     37  C   UNL     1       8.118  11.831  -3.682  1.00  0.00     0.338 C 
ATOM     38  O   UNL     1       8.810  11.177  -4.444  1.00  0.00    -0.246 OA
BRANCH  37  39
ATOM     39  C   UNL     1       8.161  13.301  -3.639  1.00  0.00     0.060 A 
ATOM     40  C   UNL     1       7.933  14.001  -4.830  1.00  0.00     0.016 A 
ATOM     41  C   UNL     1       8.521  13.973  -2.470  1.00  0.00     0.016 A 
ATOM     42  C   UNL     1       8.100  15.382  -4.865  1.00  0.00     0.010 A 
ATOM     43  C   UNL     1       8.695  15.358  -2.511  1.00  0.00     0.010 A 
ATOM     44  C   UNL     1       8.518  16.063  -3.715  1.00  0.00    -0.014 A 
BRANCH  44  45
ATOM     45  C   UNL     1       8.889  17.494  -3.804  1.00  0.00     0.031 A 
ATOM     46  C   UNL     1      10.344  17.874  -3.828  1.00  0.00     0.074 A 
ATOM     47  C   UNL     1       7.936  18.441  -3.855  1.00  0.00     0.049 A 
ATOM     48  N   UNL     1      10.888  19.062  -3.857  1.00  0.00    -0.248 NA
ATOM     49  C   UNL     1      11.315  16.767  -3.813  1.00  0.00     0.031 C 
ATOM     50  C   UNL     1       6.496  18.189  -3.842  1.00  0.00     0.029 A 
ATOM     51  N   UNL     1       8.040  19.808  -3.900  1.00  0.00    -0.354 N 
ATOM     52  C   UNL     1      12.261  18.850  -3.829  1.00  0.00     0.074 A 
ATOM     53  C   UNL     1      12.468  17.419  -3.771  1.00  0.00     0.031 C 
ATOM     54  C   UNL     1       5.848  19.366  -3.849  1.00  0.00     0.029 A 
ATOM     55  C   UNL     1       6.827  20.451  -3.835  1.00  0.00     0.049 A 
ATOM     56  H   UNL     1       8.900  20.283  -3.973  1.00  0.00     0.167 HD
ATOM     57  C   UNL     1      13.259  19.764  -3.859  1.00  0.00     0.034 A 
ATOM     58  C   UNL     1       6.542  21.765  -3.745  1.00  0.00     0.034 A 
ATOM     59  C   UNL     1      13.045  21.185  -3.931  1.00  0.00     0.049 A 
ATOM     60  C   UNL     1       7.671  22.761  -3.753  1.00  0.00     0.074 A 
ATOM     61  C   UNL     1      13.988  22.193  -4.021  1.00  0.00     0.029 A 
ATOM     62  N   UNL     1      11.803  21.800  -3.903  1.00  0.00    -0.354 N 
ATOM     63  N   UNL     1       8.962  22.547  -3.845  1.00  0.00    -0.248 NA
ATOM     64  C   UNL     1       7.304  24.183  -3.678  1.00  0.00     0.031 C 
ATOM     65  C   UNL     1      13.317  23.420  -4.006  1.00  0.00     0.029 A 
ATOM     66  C   UNL     1      11.954  23.175  -3.953  1.00  0.00     0.049 A 
ATOM     67  H   UNL     1      10.940  21.328  -3.854  1.00  0.00     0.167 HD
ATOM     68  C   UNL     1       9.557  23.804  -3.874  1.00  0.00     0.074 A 
ATOM     69  C   UNL     1       8.483  24.774  -3.812  1.00  0.00     0.031 C 
ATOM     70  C   UNL     1      10.873  24.128  -3.936  1.00  0.00     0.034 A 
BRANCH  57  71
ATOM     71  C   UNL     1      14.678  19.256  -3.825  1.00  0.00     0.023 A 
ATOM     72  C   UNL     1      15.216  18.597  -4.949  1.00  0.00     0.012 A 
ATOM     73  C   UNL     1      15.494  19.480  -2.699  1.00  0.00     0.148 A 
ATOM     74  C   UNL     1      16.533  18.138  -4.939  1.00  0.00     0.002 A 
ATOM     75  C   UNL     1      16.820  19.062  -2.715  1.00  0.00     0.091 A 
ATOM     76  F   UNL     1      14.959  20.090  -1.632  1.00  0.00    -0.205 F 
ATOM     77  C   UNL     1      17.337  18.380  -3.828  1.00  0.00     0.022 A 
BRANCH  75  78
ATOM     78  S   UNL     1      17.958  19.396  -1.366  1.00  0.00     0.127 S 
ATOM     79  O   UNL     1      18.178  18.054  -0.827  1.00  0.00    -0.237 OA
ATOM     80  O   UNL     1      19.108  19.965  -2.070  1.00  0.00    -0.237 OA
ATOM     81  O   UNL     1      17.270  20.320  -0.476  1.00  0.00    -0.744 OA
ENDBRANCH  75  78
ENDBRANCH  57  71
BRANCH  58  82
ATOM     82  C   UNL     1       5.124  22.216  -3.658  1.00  0.00     0.023 A 
ATOM     83  C   UNL     1       4.551  22.924  -4.732  1.00  0.00     0.012 A 
ATOM     84  C   UNL     1       4.339  21.935  -2.523  1.00  0.00     0.148 A 
ATOM     85  C   UNL     1       3.232  23.372  -4.663  1.00  0.00     0.002 A 
ATOM     86  C   UNL     1       3.009  22.335  -2.485  1.00  0.00     0.091 A 
ATOM     87  F   UNL     1       4.908  21.272  -1.506  1.00  0.00    -0.205 F 
ATOM     88  C   UNL     1       2.458  23.070  -3.546  1.00  0.00     0.022 A 
BRANCH  86  89
ATOM     89  S   UNL     1       1.904  21.882  -1.143  1.00  0.00     0.127 S 
ATOM     90  O   UNL     1       1.657  23.175  -0.510  1.00  0.00    -0.237 OA
ATOM     91  O   UNL     1       0.763  21.324  -1.870  1.00  0.00    -0.237 OA
ATOM     92  O   UNL     1       2.636  20.915  -0.337  1.00  0.00    -0.744 OA
ENDBRANCH  86  89
ENDBRANCH  58  82
BRANCH  70  93
ATOM     93  C   UNL     1      11.232  25.591  -3.982  1.00  0.00     0.023 A 
ATOM     94  C   UNL     1      11.074  26.394  -2.835  1.00  0.00     0.012 A 
ATOM     95  C   UNL     1      11.796  26.153  -5.145  1.00  0.00     0.148 A 
ATOM     96  C   UNL     1      11.435  27.741  -2.856  1.00  0.00     0.002 A 
ATOM     97  C   UNL     1      12.204  27.481  -5.143  1.00  0.00     0.091 A 
ATOM     98  F   UNL     1      11.925  25.377  -6.231  1.00  0.00    -0.205 F 
ATOM     99  C   UNL     1      12.010  28.280  -4.004  1.00  0.00     0.022 A 
BRANCH  97 100
ATOM    100  S   UNL     1      13.044  28.235  -6.539  1.00  0.00     0.127 S 
ATOM    101  O   UNL     1      12.027  29.161  -7.035  1.00  0.00    -0.237 OA
ATOM    102  O   UNL     1      14.193  28.877  -5.899  1.00  0.00    -0.237 OA
ATOM    103  O   UNL     1      13.386  27.144  -7.442  1.00  0.00    -0.744 OA
ENDBRANCH  97 100
ENDBRANCH  70  93
ENDBRANCH  44  45
ENDBRANCH  37  39
ENDBRANCH  36  37
ENDBRANCH  35  36
ENDBRANCH  34  35
ENDBRANCH   1  34
TORSDOF 21
