REMARK SMILES CN(CC(=O)N1C[C@@H](O)C[C@H]1C(=O)OCCOCCOC(=O)c1ccc(-c2c3nc(c(-c4cccc(S(=O)(=O)[O-])c4F)c4ccc([nH]4)c(-c4cccc(S(=O)(=O)[O-])c4F)c4nc(c(-c5cccc(S(=O)(=O)[O-])c5F)c5ccc2[nH]5)C=C4)C=C3)cc1)C(=O)c1cccs1
REMARK SMILES IDX 16 1 15 2 14 3 12 4 13 5 11 6 6 7 7 8 8 9 10 10 4 11 5 12
REMARK SMILES IDX 3 13 2 14 1 15 86 16 87 17 88 18 89 19 92 20 90 21 91 22
REMARK SMILES IDX 9 23 17 25 18 26 19 27 20 28 21 29 22 30 23 31 24 32 85 33
REMARK SMILES IDX 25 34 84 35 26 36 27 37 28 38 78 39 29 40 83 41 77 42 79 43
REMARK SMILES IDX 30 44 82 45 76 46 75 47 31 49 63 50 43 51 62 52 44 53 47 54
REMARK SMILES IDX 61 55 80 56 45 57 46 58 60 60 81 61 48 62 32 63 33 64 41 65
REMARK SMILES IDX 34 66 36 67 42 68 35 69 37 70 38 71 39 72 40 73 64 74 65 75
REMARK SMILES IDX 73 76 66 77 68 78 74 79 67 80 69 81 70 82 71 83 72 84 49 85
REMARK SMILES IDX 50 86 58 87 51 88 53 89 59 90 52 91 54 92 55 93 56 94 57 95
REMARK H PARENT 9 24 79 48 47 59
REMARK Flexibility Score: inf
ROOT
ATOM      1  C   UNL     1      -6.233  -4.708   0.378  1.00  0.00     0.202 C 
ENDROOT
BRANCH   1   2
ATOM      2  C   UNL     1      -6.147  -3.447  -0.494  1.00  0.00     0.261 C 
BRANCH   2   3
ATOM      3  O   UNL     1      -4.980  -2.626  -0.293  1.00  0.00    -0.462 OA
BRANCH   3   4
ATOM      4  C   UNL     1      -5.228  -1.423   0.300  1.00  0.00     0.329 C 
ATOM      5  O   UNL     1      -6.331  -1.056   0.698  1.00  0.00    -0.250 OA
BRANCH   4   6
ATOM      6  C   UNL     1      -4.037  -0.457   0.267  1.00  0.00     0.197 C 
ATOM      7  N   UNL     1      -2.648  -0.927   0.064  1.00  0.00    -0.325 N 
ATOM      8  C   UNL     1      -2.191  -0.518  -1.252  1.00  0.00     0.152 C 
ATOM      9  C   UNL     1      -2.918   0.804  -1.465  1.00  0.00     0.136 C 
ATOM     10  C   UNL     1      -4.301   0.505  -0.907  1.00  0.00     0.070 C 
BRANCH   7  11
ATOM     11  C   UNL     1      -1.934  -1.377   1.151  1.00  0.00     0.243 C 
ATOM     12  O   UNL     1      -2.549  -1.701   2.179  1.00  0.00    -0.273 OA
BRANCH  11  13
ATOM     13  C   UNL     1      -0.383  -1.316   1.256  1.00  0.00     0.219 C 
BRANCH  13  14
ATOM     14  N   UNL     1       0.515  -1.172   0.113  1.00  0.00    -0.332 N 
ATOM     15  C   UNL     1       0.989   0.179  -0.174  1.00  0.00     0.147 C 
BRANCH  14  16
ATOM     16  C   UNL     1       1.197  -2.217  -0.537  1.00  0.00     0.264 C 
ATOM     17  O   UNL     1       2.024  -1.938  -1.408  1.00  0.00    -0.268 OA
BRANCH  16  18
ATOM     18  C   UNL     1       0.972  -3.597  -0.121  1.00  0.00     0.092 A 
ATOM     19  C   UNL     1      -0.177  -4.271   0.245  1.00  0.00     0.025 A 
ATOM     20  S   UNL     1       2.332  -4.654  -0.084  1.00  0.00    -0.139 S 
ATOM     21  C   UNL     1       0.081  -5.614   0.655  1.00  0.00     0.012 A 
ATOM     22  C   UNL     1       1.402  -5.958   0.500  1.00  0.00     0.065 A 
ENDBRANCH  16  18
ENDBRANCH  14  16
ENDBRANCH  13  14
ENDBRANCH  11  13
ENDBRANCH   7  11
BRANCH   9  23
ATOM     23  O   UNL     1      -2.964   1.229  -2.809  1.00  0.00    -0.391 OA
ATOM     24  H   UNL     1      -3.402   0.551  -3.347  1.00  0.00     0.211 HD
ENDBRANCH   9  23
ENDBRANCH   4   6
ENDBRANCH   3   4
ENDBRANCH   2   3
ENDBRANCH   1   2
BRANCH   1  25
ATOM     25  O   UNL     1      -6.014  -4.580   1.777  1.00  0.00    -0.374 OA
BRANCH  25  26
ATOM     26  C   UNL     1      -4.710  -4.194   2.208  1.00  0.00     0.202 C 
BRANCH  26  27
ATOM     27  C   UNL     1      -3.541  -5.121   1.852  1.00  0.00     0.261 C 
BRANCH  27  28
ATOM     28  O   UNL     1      -3.380  -5.330   0.433  1.00  0.00    -0.460 OA
BRANCH  28  29
ATOM     29  C   UNL     1      -3.285  -6.632   0.062  1.00  0.00     0.338 C 
ATOM     30  O   UNL     1      -3.243  -7.604   0.806  1.00  0.00    -0.246 OA
BRANCH  29  31
ATOM     31  C   UNL     1      -3.337  -6.784  -1.402  1.00  0.00     0.060 A 
ATOM     32  C   UNL     1      -4.411  -7.499  -1.946  1.00  0.00     0.016 A 
ATOM     33  C   UNL     1      -2.274  -6.383  -2.213  1.00  0.00     0.016 A 
ATOM     34  C   UNL     1      -4.402  -7.850  -3.296  1.00  0.00     0.010 A 
ATOM     35  C   UNL     1      -2.265  -6.739  -3.566  1.00  0.00     0.010 A 
ATOM     36  C   UNL     1      -3.312  -7.504  -4.107  1.00  0.00    -0.014 A 
BRANCH  36  37
ATOM     37  C   UNL     1      -3.235  -8.007  -5.500  1.00  0.00     0.031 A 
ATOM     38  C   UNL     1      -2.387  -9.207  -5.821  1.00  0.00     0.074 A 
ATOM     39  C   UNL     1      -3.923  -7.387  -6.476  1.00  0.00     0.049 A 
ATOM     40  N   UNL     1      -2.223  -9.819  -6.966  1.00  0.00    -0.248 NA
ATOM     41  C   UNL     1      -1.623  -9.796  -4.710  1.00  0.00     0.031 C 
ATOM     42  C   UNL     1      -4.761  -6.204  -6.291  1.00  0.00     0.029 A 
ATOM     43  N   UNL     1      -4.008  -7.656  -7.818  1.00  0.00    -0.354 N 
ATOM     44  C   UNL     1      -1.334 -10.859  -6.718  1.00  0.00     0.074 A 
ATOM     45  C   UNL     1      -0.975 -10.781  -5.318  1.00  0.00     0.031 C 
ATOM     46  C   UNL     1      -5.265  -5.837  -7.481  1.00  0.00     0.029 A 
ATOM     47  C   UNL     1      -4.774  -6.750  -8.512  1.00  0.00     0.049 A 
ATOM     48  H   UNL     1      -3.564  -8.424  -8.244  1.00  0.00     0.167 HD
ATOM     49  C   UNL     1      -0.879 -11.807  -7.572  1.00  0.00     0.034 A 
ATOM     50  C   UNL     1      -5.045  -6.663  -9.829  1.00  0.00     0.034 A 
ATOM     51  C   UNL     1      -1.246 -11.890  -8.961  1.00  0.00     0.049 A 
ATOM     52  C   UNL     1      -4.502  -7.712 -10.763  1.00  0.00     0.074 A 
ATOM     53  C   UNL     1      -0.885 -12.848  -9.892  1.00  0.00     0.029 A 
ATOM     54  N   UNL     1      -2.046 -10.972  -9.623  1.00  0.00    -0.354 N 
ATOM     55  N   UNL     1      -3.790  -8.777 -10.483  1.00  0.00    -0.248 NA
ATOM     56  C   UNL     1      -4.829  -7.567 -12.189  1.00  0.00     0.031 C 
ATOM     57  C   UNL     1      -1.452 -12.499 -11.123  1.00  0.00     0.029 A 
ATOM     58  C   UNL     1      -2.177 -11.330 -10.954  1.00  0.00     0.049 A 
ATOM     59  H   UNL     1      -2.461 -10.182  -9.208  1.00  0.00     0.167 HD
ATOM     60  C   UNL     1      -3.607  -9.443 -11.690  1.00  0.00     0.074 A 
ATOM     61  C   UNL     1      -4.302  -8.672 -12.701  1.00  0.00     0.031 C 
ATOM     62  C   UNL     1      -2.912 -10.580 -11.941  1.00  0.00     0.034 A 
BRANCH  49  63
ATOM     63  C   UNL     1       0.030 -12.870  -7.013  1.00  0.00     0.023 A 
ATOM     64  C   UNL     1      -0.519 -13.889  -6.207  1.00  0.00     0.012 A 
ATOM     65  C   UNL     1       1.404 -12.899  -7.322  1.00  0.00     0.148 A 
ATOM     66  C   UNL     1       0.288 -14.904  -5.696  1.00  0.00     0.002 A 
ATOM     67  C   UNL     1       2.196 -13.935  -6.837  1.00  0.00     0.091 A 
ATOM     68  F   UNL     1       1.913 -11.910  -8.070  1.00  0.00    -0.205 F 
ATOM     69  C   UNL     1       1.642 -14.932  -6.018  1.00  0.00     0.022 A 
BRANCH  67  70
ATOM     70  S   UNL     1       3.938 -14.091  -7.252  1.00  0.00     0.127 S 
ATOM     71  O   UNL     1       4.577 -13.631  -6.020  1.00  0.00    -0.237 OA
ATOM     72  O   UNL     1       4.070 -15.526  -7.508  1.00  0.00    -0.237 OA
ATOM     73  O   UNL     1       4.143 -13.248  -8.422  1.00  0.00    -0.744 OA
ENDBRANCH  67  70
ENDBRANCH  49  63
BRANCH  50  74
ATOM     74  C   UNL     1      -5.926  -5.572 -10.331  1.00  0.00     0.023 A 
ATOM     75  C   UNL     1      -7.219  -5.883 -10.790  1.00  0.00     0.012 A 
ATOM     76  C   UNL     1      -5.507  -4.227 -10.314  1.00  0.00     0.148 A 
ATOM     77  C   UNL     1      -8.074  -4.878 -11.243  1.00  0.00     0.002 A 
ATOM     78  C   UNL     1      -6.383  -3.225 -10.716  1.00  0.00     0.091 A 
ATOM     79  F   UNL     1      -4.264  -3.952  -9.894  1.00  0.00    -0.205 F 
ATOM     80  C   UNL     1      -7.661  -3.549 -11.194  1.00  0.00     0.022 A 
BRANCH  78  81
ATOM     81  S   UNL     1      -5.979  -1.482 -10.549  1.00  0.00     0.127 S 
ATOM     82  O   UNL     1      -5.696  -1.106 -11.931  1.00  0.00    -0.237 OA
ATOM     83  O   UNL     1      -7.220  -0.932 -10.001  1.00  0.00    -0.237 OA
ATOM     84  O   UNL     1      -4.851  -1.431  -9.629  1.00  0.00    -0.744 OA
ENDBRANCH  78  81
ENDBRANCH  50  74
BRANCH  62  85
ATOM     85  C   UNL     1      -2.873 -11.074 -13.364  1.00  0.00     0.023 A 
ATOM     86  C   UNL     1      -2.060 -10.412 -14.305  1.00  0.00     0.012 A 
ATOM     87  C   UNL     1      -3.575 -12.233 -13.750  1.00  0.00     0.148 A 
ATOM     88  C   UNL     1      -1.965 -10.880 -15.614  1.00  0.00     0.002 A 
ATOM     89  C   UNL     1      -3.442 -12.719 -15.046  1.00  0.00     0.091 A 
ATOM     90  F   UNL     1      -4.359 -12.838 -12.846  1.00  0.00    -0.205 F 
ATOM     91  C   UNL     1      -2.646 -12.039 -15.982  1.00  0.00     0.022 A 
BRANCH  89  92
ATOM     92  S   UNL     1      -4.213 -14.251 -15.583  1.00  0.00     0.127 S 
ATOM     93  O   UNL     1      -5.314 -13.758 -16.407  1.00  0.00    -0.237 OA
ATOM     94  O   UNL     1      -3.134 -14.899 -16.330  1.00  0.00    -0.237 OA
ATOM     95  O   UNL     1      -4.604 -14.948 -14.365  1.00  0.00    -0.744 OA
ENDBRANCH  89  92
ENDBRANCH  62  85
ENDBRANCH  36  37
ENDBRANCH  29  31
ENDBRANCH  28  29
ENDBRANCH  27  28
ENDBRANCH  26  27
ENDBRANCH  25  26
ENDBRANCH   1  25
TORSDOF 23
