REMARK SMILES Cc1ccc(C(=O)OCCOCCOC(=O)c2ccc(-c3c4nc(c(-c5cccc(S(=O)(=O)[O-])c5F)c5ccc([nH]5)c(-c5cccc(S(=O)(=O)[O-])c5F)c5nc(c(-c6cccc(S(=O)(=O)[O-])c6F)c6ccc3[nH]6)C=C5)C=C4)cc2)cc1S(=O)(=O)N(C)[C@H]1CCSC1
REMARK SMILES IDX 11 1 10 2 9 3 8 4 6 5 7 6 5 7 1 8 2 9 3 10 81 11 4 12 80 13
REMARK SMILES IDX 82 14 83 15 84 16 85 17 86 18 87 19 88 20 91 21 89 22 90 23
REMARK SMILES IDX 12 24 13 25 14 26 15 27 16 28 17 29 18 30 79 31 19 32 78 33
REMARK SMILES IDX 20 34 21 35 22 36 72 37 23 38 77 39 71 40 73 41 24 42 76 43
REMARK SMILES IDX 70 44 69 45 25 47 57 48 37 49 56 50 38 51 41 52 55 53 74 54
REMARK SMILES IDX 39 55 40 56 54 58 75 59 42 60 26 61 27 62 35 63 28 64 30 65
REMARK SMILES IDX 36 66 29 67 31 68 32 69 33 70 34 71 58 72 59 73 67 74 60 75
REMARK SMILES IDX 62 76 68 77 61 78 63 79 64 80 65 81 66 82 43 83 44 84 52 85
REMARK SMILES IDX 45 86 47 87 53 88 46 89 48 90 49 91 50 92 51 93
REMARK H PARENT 73 46 41 57
REMARK Flexibility Score: inf
ROOT
ATOM      1  O   UNL     1      -2.786   0.828  -4.236  1.00  0.00    -0.374 OA
ENDROOT
BRANCH   1   2
ATOM      2  C   UNL     1      -3.848   1.213  -3.385  1.00  0.00     0.202 C 
BRANCH   2   3
ATOM      3  C   UNL     1      -3.752   2.614  -2.774  1.00  0.00     0.261 C 
BRANCH   3   4
ATOM      4  O   UNL     1      -2.562   2.784  -2.034  1.00  0.00    -0.460 OA
BRANCH   4   5
ATOM      5  C   UNL     1      -2.507   2.021  -0.912  1.00  0.00     0.338 C 
ATOM      6  O   UNL     1      -3.350   1.292  -0.454  1.00  0.00    -0.246 OA
BRANCH   5   7
ATOM      7  C   UNL     1      -1.074   1.969  -0.596  1.00  0.00     0.061 A 
ATOM      8  C   UNL     1       3.009   0.965  -1.246  1.00  0.00     0.046 C 
ATOM      9  C   UNL     1       1.643   1.472  -0.899  1.00  0.00    -0.031 A 
ATOM     10  C   UNL     1       0.773   0.480  -0.398  1.00  0.00     0.006 A 
ATOM     11  C   UNL     1       1.127   2.761  -1.161  1.00  0.00     0.086 A 
ATOM     12  C   UNL     1      -0.582   0.720  -0.252  1.00  0.00     0.016 A 
ATOM     13  C   UNL     1      -0.227   3.018  -0.957  1.00  0.00     0.037 A 
BRANCH  11  14
ATOM     14  S   UNL     1       2.031   4.121  -1.883  1.00  0.00     0.243 S 
ATOM     15  O   UNL     1       2.159   3.844  -3.297  1.00  0.00    -0.207 OA
ATOM     16  O   UNL     1       1.441   5.358  -1.411  1.00  0.00    -0.207 OA
BRANCH  14  17
ATOM     17  N   UNL     1       3.547   4.034  -1.163  1.00  0.00    -0.197 NA
ATOM     18  C   UNL     1       4.715   3.931  -2.038  1.00  0.00     0.125 C 
BRANCH  17  19
ATOM     19  C   UNL     1       3.656   4.346   0.276  1.00  0.00     0.083 C 
ATOM     20  C   UNL     1       4.537   3.352   1.025  1.00  0.00     0.032 C 
ATOM     21  C   UNL     1       4.213   5.734   0.572  1.00  0.00     0.089 C 
ATOM     22  C   UNL     1       4.550   3.840   2.460  1.00  0.00     0.071 C 
ATOM     23  S   UNL     1       4.779   5.636   2.307  1.00  0.00    -0.160 SA
ENDBRANCH  17  19
ENDBRANCH  14  17
ENDBRANCH  11  14
ENDBRANCH   5   7
ENDBRANCH   4   5
ENDBRANCH   3   4
ENDBRANCH   2   3
ENDBRANCH   1   2
BRANCH   1  24
ATOM     24  C   UNL     1      -2.320   1.844  -5.108  1.00  0.00     0.202 C 
BRANCH  24  25
ATOM     25  C   UNL     1      -3.330   2.755  -5.913  1.00  0.00     0.261 C 
BRANCH  25  26
ATOM     26  O   UNL     1      -4.755   2.316  -5.919  1.00  0.00    -0.460 OA
BRANCH  26  27
ATOM     27  C   UNL     1      -5.935   3.037  -5.834  1.00  0.00     0.338 C 
ATOM     28  O   UNL     1      -6.652   3.264  -6.803  1.00  0.00    -0.246 OA
BRANCH  27  29
ATOM     29  C   UNL     1      -6.569   3.112  -4.471  1.00  0.00     0.060 A 
ATOM     30  C   UNL     1      -6.982   4.326  -3.922  1.00  0.00     0.016 A 
ATOM     31  C   UNL     1      -6.812   1.967  -3.716  1.00  0.00     0.016 A 
ATOM     32  C   UNL     1      -7.246   4.440  -2.541  1.00  0.00     0.010 A 
ATOM     33  C   UNL     1      -6.970   2.077  -2.327  1.00  0.00     0.010 A 
ATOM     34  C   UNL     1      -7.053   3.339  -1.708  1.00  0.00    -0.014 A 
BRANCH  34  35
ATOM     35  C   UNL     1      -6.570   3.464  -0.305  1.00  0.00     0.031 A 
ATOM     36  C   UNL     1      -7.074   2.618   0.822  1.00  0.00     0.074 A 
ATOM     37  C   UNL     1      -5.373   4.082  -0.082  1.00  0.00     0.049 A 
ATOM     38  N   UNL     1      -6.725   2.790   2.062  1.00  0.00    -0.248 NA
ATOM     39  C   UNL     1      -8.049   1.540   0.674  1.00  0.00     0.031 C 
ATOM     40  C   UNL     1      -4.407   3.690   0.949  1.00  0.00     0.029 A 
ATOM     41  N   UNL     1      -4.730   5.155  -0.720  1.00  0.00    -0.354 N 
ATOM     42  C   UNL     1      -7.050   1.634   2.737  1.00  0.00     0.074 A 
ATOM     43  C   UNL     1      -8.041   1.005   1.902  1.00  0.00     0.031 C 
ATOM     44  C   UNL     1      -3.412   4.576   1.005  1.00  0.00     0.029 A 
ATOM     45  C   UNL     1      -3.761   5.684   0.151  1.00  0.00     0.049 A 
ATOM     46  H   UNL     1      -4.926   5.483  -1.627  1.00  0.00     0.167 HD
ATOM     47  C   UNL     1      -6.322   1.248   3.826  1.00  0.00     0.034 A 
ATOM     48  C   UNL     1      -3.569   6.991   0.483  1.00  0.00     0.034 A 
ATOM     49  C   UNL     1      -5.365   2.284   4.263  1.00  0.00     0.049 A 
ATOM     50  C   UNL     1      -3.807   7.229   1.966  1.00  0.00     0.074 A 
ATOM     51  C   UNL     1      -3.984   2.340   4.356  1.00  0.00     0.029 A 
ATOM     52  N   UNL     1      -5.819   3.570   4.549  1.00  0.00    -0.354 N 
ATOM     53  N   UNL     1      -3.806   6.289   2.873  1.00  0.00    -0.248 NA
ATOM     54  C   UNL     1      -4.159   8.527   2.542  1.00  0.00     0.031 C 
ATOM     55  C   UNL     1      -3.612   3.694   4.597  1.00  0.00     0.029 A 
ATOM     56  C   UNL     1      -4.762   4.460   4.691  1.00  0.00     0.049 A 
ATOM     57  H   UNL     1      -6.768   3.817   4.638  1.00  0.00     0.167 HD
ATOM     58  C   UNL     1      -4.461   6.742   3.989  1.00  0.00     0.074 A 
ATOM     59  C   UNL     1      -4.506   8.181   3.795  1.00  0.00     0.031 C 
ATOM     60  C   UNL     1      -5.025   5.887   4.903  1.00  0.00     0.034 A 
BRANCH  47  61
ATOM     61  C   UNL     1      -6.326  -0.151   4.449  1.00  0.00     0.023 A 
ATOM     62  C   UNL     1      -5.641  -0.320   5.676  1.00  0.00     0.012 A 
ATOM     63  C   UNL     1      -6.872  -1.335   3.888  1.00  0.00     0.148 A 
ATOM     64  C   UNL     1      -5.503  -1.568   6.303  1.00  0.00     0.002 A 
ATOM     65  C   UNL     1      -6.809  -2.565   4.555  1.00  0.00     0.091 A 
ATOM     66  F   UNL     1      -7.377  -1.321   2.652  1.00  0.00    -0.205 F 
ATOM     67  C   UNL     1      -6.106  -2.689   5.754  1.00  0.00     0.022 A 
BRANCH  65  68
ATOM     68  S   UNL     1      -7.632  -4.049   3.938  1.00  0.00     0.127 S 
ATOM     69  O   UNL     1      -6.502  -4.919   3.615  1.00  0.00    -0.237 OA
ATOM     70  O   UNL     1      -8.415  -4.477   5.098  1.00  0.00    -0.237 OA
ATOM     71  O   UNL     1      -8.435  -3.627   2.797  1.00  0.00    -0.744 OA
ENDBRANCH  65  68
ENDBRANCH  47  61
BRANCH  48  72
ATOM     72  C   UNL     1      -3.797   7.935  -0.635  1.00  0.00     0.023 A 
ATOM     73  C   UNL     1      -2.748   8.049  -1.578  1.00  0.00     0.012 A 
ATOM     74  C   UNL     1      -5.098   8.294  -1.009  1.00  0.00     0.148 A 
ATOM     75  C   UNL     1      -3.012   8.402  -2.902  1.00  0.00     0.002 A 
ATOM     76  C   UNL     1      -5.365   8.554  -2.349  1.00  0.00     0.091 A 
ATOM     77  F   UNL     1      -6.067   8.210  -0.088  1.00  0.00    -0.205 F 
ATOM     78  C   UNL     1      -4.328   8.610  -3.296  1.00  0.00     0.022 A 
BRANCH  76  79
ATOM     79  S   UNL     1      -7.039   8.473  -3.001  1.00  0.00     0.127 S 
ATOM     80  O   UNL     1      -7.274   9.849  -3.422  1.00  0.00    -0.237 OA
ATOM     81  O   UNL     1      -6.873   7.513  -4.091  1.00  0.00    -0.237 OA
ATOM     82  O   UNL     1      -7.855   7.989  -1.898  1.00  0.00    -0.744 OA
ENDBRANCH  76  79
ENDBRANCH  48  72
BRANCH  60  83
ATOM     83  C   UNL     1      -5.938   6.312   6.045  1.00  0.00     0.023 A 
ATOM     84  C   UNL     1      -6.712   7.489   6.005  1.00  0.00     0.012 A 
ATOM     85  C   UNL     1      -6.148   5.454   7.156  1.00  0.00     0.148 A 
ATOM     86  C   UNL     1      -7.593   7.835   7.038  1.00  0.00     0.002 A 
ATOM     87  C   UNL     1      -7.106   5.749   8.126  1.00  0.00     0.091 A 
ATOM     88  F   UNL     1      -5.401   4.348   7.291  1.00  0.00    -0.205 F 
ATOM     89  C   UNL     1      -7.807   6.955   8.089  1.00  0.00     0.022 A 
BRANCH  87  90
ATOM     90  S   UNL     1      -7.577   4.528   9.361  1.00  0.00     0.127 S 
ATOM     91  O   UNL     1      -6.674   4.844  10.465  1.00  0.00    -0.237 OA
ATOM     92  O   UNL     1      -8.982   4.854   9.613  1.00  0.00    -0.237 OA
ATOM     93  O   UNL     1      -7.374   3.241   8.708  1.00  0.00    -0.744 OA
ENDBRANCH  87  90
ENDBRANCH  60  83
ENDBRANCH  34  35
ENDBRANCH  27  29
ENDBRANCH  26  27
ENDBRANCH  25  26
ENDBRANCH  24  25
ENDBRANCH   1  24
TORSDOF 20
