REMARK SMILES COc1ccc(F)cc1[C@@H](C(=O)OCCOCCOC(=O)c1ccc(-c2c3nc(c(-c4cccc(S(=O)(=O)[O-])c4F)c4ccc([nH]4)c(-c4cccc(S(=O)(=O)[O-])c4F)c4nc(c(-c5cccc(S(=O)(=O)[O-])c5F)c5ccc2[nH]5)C=C4)C=C3)cc1)[N@H+](C)CCn1ccnc1C
REMARK SMILES IDX 15 1 14 2 13 3 11 4 12 5 10 6 9 7 3 8 4 9 5 10 8 11 6 12
REMARK SMILES IDX 7 13 2 14 1 15 85 16 86 17 87 19 88 20 89 21 90 22 93 23
REMARK SMILES IDX 91 24 92 25 94 26 16 27 17 28 18 29 19 30 20 31 21 32 22 33
REMARK SMILES IDX 23 34 84 35 24 36 83 37 25 38 26 39 27 40 77 41 28 42 82 43
REMARK SMILES IDX 76 44 78 45 29 46 81 47 75 48 74 49 30 51 62 52 42 53 61 54
REMARK SMILES IDX 43 55 46 56 60 57 79 58 44 59 45 60 59 62 80 63 47 64 31 65
REMARK SMILES IDX 32 66 40 67 33 68 35 69 41 70 34 71 36 72 37 73 38 74 39 75
REMARK SMILES IDX 63 76 64 77 72 78 65 79 67 80 73 81 66 82 68 83 69 84 70 85
REMARK SMILES IDX 71 86 48 87 49 88 57 89 50 90 52 91 58 92 51 93 53 94 54 95
REMARK SMILES IDX 55 96 56 97
REMARK H PARENT 85 18 78 50 46 61
REMARK Flexibility Score: inf
ROOT
ATOM      1  C   UNL     1      -3.341   1.686   4.795  1.00  0.00     0.202 C 
ENDROOT
BRANCH   1   2
ATOM      2  C   UNL     1      -3.519   0.937   3.359  1.00  0.00     0.261 C 
BRANCH   2   3
ATOM      3  O   UNL     1      -2.850   1.232   1.929  1.00  0.00    -0.459 OA
BRANCH   3   4
ATOM      4  C   UNL     1      -2.255   1.552   0.763  1.00  0.00     0.370 C 
ATOM      5  O   UNL     1      -2.587   0.835  -0.202  1.00  0.00    -0.245 OA
BRANCH   4   6
ATOM      6  C   UNL     1      -1.276   2.829   0.383  1.00  0.00     0.330 C 
BRANCH   6   7
ATOM      7  C   UNL     1       0.228   2.763   0.803  1.00  0.00     0.066 A 
ATOM      8  C   UNL     1       0.980   1.578   0.628  1.00  0.00     0.128 A 
ATOM      9  C   UNL     1       2.289   1.458   1.149  1.00  0.00     0.050 A 
ATOM     10  C   UNL     1       2.885   2.506   1.842  1.00  0.00     0.043 A 
ATOM     11  C   UNL     1       0.948   3.844   1.337  1.00  0.00     0.053 A 
ATOM     12  C   UNL     1       2.214   3.703   1.905  1.00  0.00     0.124 A 
ATOM     13  F   UNL     1       2.755   4.740   2.562  1.00  0.00    -0.207 F 
BRANCH   8  14
ATOM     14  O   UNL     1       0.405   0.614  -0.156  1.00  0.00    -0.496 OA
ATOM     15  C   UNL     1       0.929  -0.704  -0.056  1.00  0.00     0.278 C 
ENDBRANCH   8  14
ENDBRANCH   6   7
BRANCH   6  16
ATOM     16  N   UNL     1      -2.010   4.151   0.084  1.00  0.00    -0.320 N 
ATOM     17  C   UNL     1      -3.000   4.083  -0.983  1.00  0.00     0.333 C 
ATOM     18  H   UNL     1      -2.152   4.045   1.088  1.00  0.00     0.348 HD
BRANCH  16  19
ATOM     19  C   UNL     1      -1.654   5.525   0.484  1.00  0.00     0.285 C 
BRANCH  19  20
ATOM     20  C   UNL     1      -1.929   6.057   1.921  1.00  0.00     0.184 C 
BRANCH  20  21
ATOM     21  N   UNL     1      -1.780   5.022   2.898  1.00  0.00    -0.330 N 
ATOM     22  C   UNL     1      -0.657   4.747   3.633  1.00  0.00     0.107 A 
ATOM     23  C   UNL     1      -2.579   3.921   2.865  1.00  0.00     0.105 A 
ATOM     24  C   UNL     1      -0.672   3.387   3.785  1.00  0.00     0.131 A 
ATOM     25  N   UNL     1      -1.812   2.911   3.237  1.00  0.00    -0.242 NA
ATOM     26  C   UNL     1      -3.985   3.885   2.285  1.00  0.00     0.087 C 
ENDBRANCH  20  21
ENDBRANCH  19  20
ENDBRANCH  16  19
ENDBRANCH   6  16
ENDBRANCH   4   6
ENDBRANCH   3   4
ENDBRANCH   2   3
ENDBRANCH   1   2
BRANCH   1  27
ATOM     27  O   UNL     1      -3.916   3.006   4.911  1.00  0.00    -0.374 OA
BRANCH  27  28
ATOM     28  C   UNL     1      -3.684   3.864   6.041  1.00  0.00     0.202 C 
BRANCH  28  29
ATOM     29  C   UNL     1      -2.299   4.493   6.330  1.00  0.00     0.261 C 
BRANCH  29  30
ATOM     30  O   UNL     1      -1.296   3.506   6.555  1.00  0.00    -0.460 OA
BRANCH  30  31
ATOM     31  C   UNL     1      -1.387   2.974   7.785  1.00  0.00     0.338 C 
ATOM     32  O   UNL     1      -1.954   3.461   8.750  1.00  0.00    -0.246 OA
BRANCH  31  33
ATOM     33  C   UNL     1      -1.002   1.563   7.712  1.00  0.00     0.060 A 
ATOM     34  C   UNL     1      -1.972   0.677   8.179  1.00  0.00     0.016 A 
ATOM     35  C   UNL     1       0.245   1.111   7.272  1.00  0.00     0.016 A 
ATOM     36  C   UNL     1      -1.645  -0.651   8.360  1.00  0.00     0.010 A 
ATOM     37  C   UNL     1       0.565  -0.242   7.434  1.00  0.00     0.010 A 
ATOM     38  C   UNL     1      -0.353  -1.105   8.058  1.00  0.00    -0.014 A 
BRANCH  38  39
ATOM     39  C   UNL     1       0.026  -2.420   8.629  1.00  0.00     0.031 A 
ATOM     40  C   UNL     1       0.882  -2.456   9.868  1.00  0.00     0.074 A 
ATOM     41  C   UNL     1      -0.577  -3.539   8.187  1.00  0.00     0.049 A 
ATOM     42  N   UNL     1       1.108  -3.457  10.679  1.00  0.00    -0.248 NA
ATOM     43  C   UNL     1       1.553  -1.205  10.265  1.00  0.00     0.031 C 
ATOM     44  C   UNL     1      -1.460  -3.615   7.022  1.00  0.00     0.029 A 
ATOM     45  N   UNL     1      -0.578  -4.813   8.694  1.00  0.00    -0.354 N 
ATOM     46  C   UNL     1       1.941  -2.959  11.673  1.00  0.00     0.074 A 
ATOM     47  C   UNL     1       2.212  -1.577  11.353  1.00  0.00     0.031 C 
ATOM     48  C   UNL     1      -1.943  -4.864   6.923  1.00  0.00     0.029 A 
ATOM     49  C   UNL     1      -1.387  -5.681   8.000  1.00  0.00     0.049 A 
ATOM     50  H   UNL     1      -0.050  -5.081   9.481  1.00  0.00     0.167 HD
ATOM     51  C   UNL     1       2.411  -3.586  12.775  1.00  0.00     0.034 A 
ATOM     52  C   UNL     1      -1.656  -6.986   8.212  1.00  0.00     0.034 A 
ATOM     53  C   UNL     1       2.115  -4.949  13.115  1.00  0.00     0.049 A 
ATOM     54  C   UNL     1      -1.070  -7.672   9.419  1.00  0.00     0.074 A 
ATOM     55  C   UNL     1       2.534  -5.661  14.224  1.00  0.00     0.029 A 
ATOM     56  N   UNL     1       1.336  -5.805  12.356  1.00  0.00    -0.354 N 
ATOM     57  N   UNL     1      -0.363  -7.159  10.396  1.00  0.00    -0.248 NA
ATOM     58  C   UNL     1      -1.343  -9.109   9.570  1.00  0.00     0.031 C 
ATOM     59  C   UNL     1       2.039  -6.961  14.118  1.00  0.00     0.029 A 
ATOM     60  C   UNL     1       1.276  -7.046  12.964  1.00  0.00     0.049 A 
ATOM     61  H   UNL     1       0.891  -5.567  11.510  1.00  0.00     0.167 HD
ATOM     62  C   UNL     1      -0.138  -8.199  11.292  1.00  0.00     0.074 A 
ATOM     63  C   UNL     1      -0.797  -9.368  10.752  1.00  0.00     0.031 C 
ATOM     64  C   UNL     1       0.564  -8.186  12.451  1.00  0.00     0.034 A 
BRANCH  51  65
ATOM     65  C   UNL     1       3.268  -2.803  13.732  1.00  0.00     0.023 A 
ATOM     66  C   UNL     1       2.669  -1.859  14.588  1.00  0.00     0.012 A 
ATOM     67  C   UNL     1       4.638  -3.098  13.872  1.00  0.00     0.148 A 
ATOM     68  C   UNL     1       3.423  -1.213  15.567  1.00  0.00     0.002 A 
ATOM     69  C   UNL     1       5.372  -2.485  14.879  1.00  0.00     0.091 A 
ATOM     70  F   UNL     1       5.188  -3.987  13.033  1.00  0.00    -0.205 F 
ATOM     71  C   UNL     1       4.768  -1.538  15.723  1.00  0.00     0.022 A 
BRANCH  69  72
ATOM     72  S   UNL     1       7.087  -2.897  15.219  1.00  0.00     0.127 S 
ATOM     73  O   UNL     1       7.759  -1.633  14.918  1.00  0.00    -0.237 OA
ATOM     74  O   UNL     1       7.042  -3.241  16.640  1.00  0.00    -0.237 OA
ATOM     75  O   UNL     1       7.423  -4.001  14.331  1.00  0.00    -0.744 OA
ENDBRANCH  69  72
ENDBRANCH  51  65
BRANCH  52  76
ATOM     76  C   UNL     1      -2.553  -7.721   7.277  1.00  0.00     0.023 A 
ATOM     77  C   UNL     1      -3.799  -8.201   7.725  1.00  0.00     0.012 A 
ATOM     78  C   UNL     1      -2.176  -7.939   5.937  1.00  0.00     0.148 A 
ATOM     79  C   UNL     1      -4.638  -8.909   6.863  1.00  0.00     0.002 A 
ATOM     80  C   UNL     1      -3.042  -8.591   5.069  1.00  0.00     0.091 A 
ATOM     81  F   UNL     1      -0.977  -7.492   5.535  1.00  0.00    -0.205 F 
ATOM     82  C   UNL     1      -4.266  -9.094   5.534  1.00  0.00     0.022 A 
BRANCH  80  83
ATOM     83  S   UNL     1      -2.698  -8.759   3.314  1.00  0.00     0.127 S 
ATOM     84  O   UNL     1      -2.469 -10.196   3.192  1.00  0.00    -0.237 OA
ATOM     85  O   UNL     1      -3.945  -8.279   2.718  1.00  0.00    -0.237 OA
ATOM     86  O   UNL     1      -1.542  -7.911   3.056  1.00  0.00    -0.744 OA
ENDBRANCH  80  83
ENDBRANCH  52  76
BRANCH  64  87
ATOM     87  C   UNL     1       0.648  -9.455  13.259  1.00  0.00     0.023 A 
ATOM     88  C   UNL     1       1.480 -10.505  12.825  1.00  0.00     0.012 A 
ATOM     89  C   UNL     1       0.034  -9.535  14.526  1.00  0.00     0.148 A 
ATOM     90  C   UNL     1       1.692 -11.620  13.635  1.00  0.00     0.002 A 
ATOM     91  C   UNL     1       0.292 -10.624  15.349  1.00  0.00     0.091 A 
ATOM     92  F   UNL     1      -0.760  -8.527  14.915  1.00  0.00    -0.205 F 
ATOM     93  C   UNL     1       1.113 -11.672  14.901  1.00  0.00     0.022 A 
BRANCH  91  94
ATOM     94  S   UNL     1      -0.316 -10.731  17.037  1.00  0.00     0.127 S 
ATOM     95  O   UNL     1      -1.215 -11.881  16.957  1.00  0.00    -0.237 OA
ATOM     96  O   UNL     1       0.914 -10.970  17.791  1.00  0.00    -0.237 OA
ATOM     97  O   UNL     1      -0.966  -9.457  17.316  1.00  0.00    -0.744 OA
ENDBRANCH  91  94
ENDBRANCH  64  87
ENDBRANCH  38  39
ENDBRANCH  31  33
ENDBRANCH  30  31
ENDBRANCH  29  30
ENDBRANCH  28  29
ENDBRANCH  27  28
ENDBRANCH   1  27
TORSDOF 23
