REMARK SMILES Cc1cc(/C=C2\C(=O)N(Cc3ccco3)C(=O)N=C2OCCOCCOC(=O)c2ccc(-c3c4nc(c(-c5cccc(S(=O)(=O)[O-])c5F)c5ccc([nH]5)c(-c5cccc(S(=O)(=O)[O-])c5F)c5nc(c(-c6cccc(S(=O)(=O)[O-])c6F)c6ccc3[nH]6)C=C5)C=C4)cc2)c(C)n1-c1ccc(Cl)c(C(=O)[O-])c1
REMARK SMILES IDX 24 1 23 2 22 3 21 4 20 5 19 6 5 7 6 8 7 9 8 10 9 11 18 12
REMARK SMILES IDX 16 13 17 14 4 15 1 16 2 17 3 18 94 19 92 20 93 21 95 22
REMARK SMILES IDX 96 23 104 24 97 25 100 26 98 27 99 28 101 29 102 30 103 31
REMARK SMILES IDX 10 32 11 33 12 34 15 35 13 36 14 37 25 38 26 39 27 40 28 41
REMARK SMILES IDX 29 42 30 43 91 44 31 45 90 46 32 47 33 48 34 49 84 50 35 51
REMARK SMILES IDX 89 52 83 53 85 54 36 55 88 56 82 57 81 58 37 60 69 61 49 62
REMARK SMILES IDX 68 63 50 64 53 65 67 66 86 67 51 68 52 69 66 71 87 72 54 73
REMARK SMILES IDX 38 74 39 75 47 76 40 77 42 78 48 79 41 80 43 81 44 82 45 83
REMARK SMILES IDX 46 84 70 85 71 86 79 87 72 88 74 89 80 90 73 91 75 92 76 93
REMARK SMILES IDX 77 94 78 95 55 96 56 97 64 98 57 99 59 100 65 101 58 102
REMARK SMILES IDX 60 103 61 104 62 105 63 106
REMARK H PARENT 85 59 53 70
REMARK Flexibility Score: inf
ROOT
ATOM      1  C   UNL     1      -1.424   5.101   5.544  1.00  0.00     0.202 C 
ENDROOT
BRANCH   1   2
ATOM      2  O   UNL     1      -2.290   6.257   5.552  1.00  0.00    -0.374 OA
BRANCH   2   3
ATOM      3  C   UNL     1      -3.686   5.960   5.465  1.00  0.00     0.202 C 
BRANCH   3   4
ATOM      4  C   UNL     1      -4.258   5.983   4.032  1.00  0.00     0.260 C 
BRANCH   4   5
ATOM      5  O   UNL     1      -3.409   5.305   3.081  1.00  0.00    -0.475 OA
BRANCH   5   6
ATOM      6  C   UNL     1      -2.494   6.079   2.445  1.00  0.00     0.231 C 
ATOM      7  C   UNL     1      -1.416   4.027   1.576  1.00  0.00     0.029 C 
ATOM      8  C   UNL     1      -1.351   5.330   1.914  1.00  0.00     0.103 C 
ATOM      9  C   UNL     1      -0.167   6.197   1.762  1.00  0.00     0.267 C 
ATOM     10  O   UNL     1       0.961   5.841   2.082  1.00  0.00    -0.268 OA
ATOM     11  N   UNL     1      -0.487   7.463   1.317  1.00  0.00    -0.250 N 
ATOM     12  N   UNL     1      -2.606   7.361   2.390  1.00  0.00    -0.156 NA
ATOM     13  C   UNL     1      -1.600   8.101   1.840  1.00  0.00     0.354 C 
ATOM     14  O   UNL     1      -1.670   9.334   1.890  1.00  0.00    -0.245 OA
BRANCH   7  15
ATOM     15  C   UNL     1      -0.439   3.163   0.972  1.00  0.00    -0.003 A 
ATOM     16  C   UNL     1       0.962  -0.203   0.135  1.00  0.00     0.065 C 
ATOM     17  C   UNL     1       0.577   1.220   0.342  1.00  0.00     0.020 A 
ATOM     18  C   UNL     1      -0.450   1.746   1.105  1.00  0.00     0.031 A 
ATOM     19  N   UNL     1       1.276   2.288  -0.183  1.00  0.00    -0.318 N 
ATOM     20  C   UNL     1       0.575   3.464   0.073  1.00  0.00     0.027 A 
ATOM     21  C   UNL     1       0.944   4.725  -0.640  1.00  0.00     0.065 C 
BRANCH  19  22
ATOM     22  C   UNL     1       2.423   2.230  -1.011  1.00  0.00     0.046 A 
ATOM     23  C   UNL     1       3.578   2.901  -0.610  1.00  0.00     0.028 A 
ATOM     24  C   UNL     1       2.288   1.736  -2.311  1.00  0.00     0.038 A 
ATOM     25  C   UNL     1       4.608   3.087  -1.529  1.00  0.00     0.023 A 
ATOM     26  C   UNL     1       3.305   1.965  -3.259  1.00  0.00     0.018 A 
ATOM     27  C   UNL     1       4.471   2.642  -2.853  1.00  0.00     0.050 A 
ATOM     28  Cl  UNL     1       5.783   3.026  -3.914  1.00  0.00    -0.084 Cl
BRANCH  26  29
ATOM     29  C   UNL     1       3.073   1.558  -4.668  1.00  0.00     0.073 C 
ATOM     30  O   UNL     1       3.817   1.706  -5.637  1.00  0.00    -0.545 OA
ATOM     31  O   UNL     1       1.869   0.991  -4.851  1.00  0.00    -0.545 OA
ENDBRANCH  26  29
ENDBRANCH  19  22
ENDBRANCH   7  15
BRANCH  11  32
ATOM     32  C   UNL     1       0.597   8.259   0.761  1.00  0.00     0.206 C 
BRANCH  32  33
ATOM     33  C   UNL     1       0.167   9.076  -0.414  1.00  0.00     0.123 A 
ATOM     34  C   UNL     1      -0.351  10.352  -0.531  1.00  0.00     0.047 A 
ATOM     35  O   UNL     1       0.337   8.535  -1.659  1.00  0.00    -0.467 OA
ATOM     36  C   UNL     1      -0.522  10.599  -1.911  1.00  0.00     0.042 A 
ATOM     37  C   UNL     1      -0.079   9.470  -2.556  1.00  0.00     0.195 A 
ENDBRANCH  32  33
ENDBRANCH  11  32
ENDBRANCH   5   6
ENDBRANCH   4   5
ENDBRANCH   3   4
ENDBRANCH   2   3
ENDBRANCH   1   2
BRANCH   1  38
ATOM     38  C   UNL     1      -1.195   4.428   6.926  1.00  0.00     0.261 C 
BRANCH  38  39
ATOM     39  O   UNL     1      -1.444   2.971   6.982  1.00  0.00    -0.460 OA
BRANCH  39  40
ATOM     40  C   UNL     1      -2.182   2.513   8.053  1.00  0.00     0.338 C 
ATOM     41  O   UNL     1      -2.877   3.256   8.736  1.00  0.00    -0.246 OA
BRANCH  40  42
ATOM     42  C   UNL     1      -2.181   0.996   8.284  1.00  0.00     0.060 A 
ATOM     43  C   UNL     1      -3.332   0.267   7.989  1.00  0.00     0.016 A 
ATOM     44  C   UNL     1      -1.228   0.309   9.062  1.00  0.00     0.016 A 
ATOM     45  C   UNL     1      -3.502  -1.095   8.432  1.00  0.00     0.010 A 
ATOM     46  C   UNL     1      -1.431  -1.060   9.557  1.00  0.00     0.010 A 
ATOM     47  C   UNL     1      -2.588  -1.816   9.278  1.00  0.00    -0.014 A 
BRANCH  47  48
ATOM     48  C   UNL     1      -3.231  -2.973  10.210  1.00  0.00     0.031 A 
ATOM     49  C   UNL     1      -4.420  -2.286  10.799  1.00  0.00     0.074 A 
ATOM     50  C   UNL     1      -3.042  -4.280  10.682  1.00  0.00     0.049 A 
ATOM     51  N   UNL     1      -4.333  -1.105  11.352  1.00  0.00    -0.248 NA
ATOM     52  C   UNL     1      -5.793  -2.698  10.493  1.00  0.00     0.031 C 
ATOM     53  C   UNL     1      -1.905  -5.182  10.430  1.00  0.00     0.029 A 
ATOM     54  N   UNL     1      -3.841  -5.147  11.517  1.00  0.00    -0.354 N 
ATOM     55  C   UNL     1      -5.569  -0.879  11.881  1.00  0.00     0.074 A 
ATOM     56  C   UNL     1      -6.455  -1.683  11.056  1.00  0.00     0.031 C 
ATOM     57  C   UNL     1      -2.117  -6.434  10.941  1.00  0.00     0.029 A 
ATOM     58  C   UNL     1      -3.393  -6.518  11.654  1.00  0.00     0.049 A 
ATOM     59  H   UNL     1      -4.652  -4.822  11.970  1.00  0.00     0.167 HD
ATOM     60  C   UNL     1      -5.621  -0.676  13.229  1.00  0.00     0.034 A 
ATOM     61  C   UNL     1      -3.923  -7.616  12.339  1.00  0.00     0.034 A 
ATOM     62  C   UNL     1      -6.344  -1.691  13.941  1.00  0.00     0.049 A 
ATOM     63  C   UNL     1      -4.806  -7.085  13.392  1.00  0.00     0.074 A 
ATOM     64  C   UNL     1      -7.492  -2.416  13.691  1.00  0.00     0.029 A 
ATOM     65  N   UNL     1      -5.640  -2.387  14.900  1.00  0.00    -0.354 N 
ATOM     66  N   UNL     1      -4.312  -6.642  14.509  1.00  0.00    -0.248 NA
ATOM     67  C   UNL     1      -6.260  -7.221  13.372  1.00  0.00     0.031 C 
ATOM     68  C   UNL     1      -7.212  -3.728  14.136  1.00  0.00     0.029 A 
ATOM     69  C   UNL     1      -6.043  -3.707  14.884  1.00  0.00     0.049 A 
ATOM     70  H   UNL     1      -4.959  -2.004  15.500  1.00  0.00     0.167 HD
ATOM     71  C   UNL     1      -5.355  -5.983  15.080  1.00  0.00     0.074 A 
ATOM     72  C   UNL     1      -6.542  -6.598  14.520  1.00  0.00     0.031 C 
ATOM     73  C   UNL     1      -5.127  -4.691  15.412  1.00  0.00     0.034 A 
BRANCH  60  74
ATOM     74  C   UNL     1      -4.475   0.111  13.819  1.00  0.00     0.023 A 
ATOM     75  C   UNL     1      -4.758   1.389  14.324  1.00  0.00     0.012 A 
ATOM     76  C   UNL     1      -3.125  -0.324  13.775  1.00  0.00     0.148 A 
ATOM     77  C   UNL     1      -3.721   2.237  14.721  1.00  0.00     0.002 A 
ATOM     78  C   UNL     1      -2.096   0.562  14.066  1.00  0.00     0.091 A 
ATOM     79  F   UNL     1      -2.865  -1.603  13.461  1.00  0.00    -0.205 F 
ATOM     80  C   UNL     1      -2.394   1.840  14.557  1.00  0.00     0.022 A 
BRANCH  78  81
ATOM     81  S   UNL     1      -0.383   0.218  13.619  1.00  0.00     0.127 S 
ATOM     82  O   UNL     1       0.022   1.461  12.954  1.00  0.00    -0.237 OA
ATOM     83  O   UNL     1       0.257  -0.011  14.908  1.00  0.00    -0.237 OA
ATOM     84  O   UNL     1      -0.417  -0.932  12.722  1.00  0.00    -0.744 OA
ENDBRANCH  78  81
ENDBRANCH  60  74
BRANCH  61  85
ATOM     85  C   UNL     1      -3.782  -9.161  12.619  1.00  0.00     0.023 A 
ATOM     86  C   UNL     1      -3.880  -9.598  13.990  1.00  0.00     0.012 A 
ATOM     87  C   UNL     1      -4.011 -10.182  11.668  1.00  0.00     0.148 A 
ATOM     88  C   UNL     1      -4.302 -10.880  14.392  1.00  0.00     0.002 A 
ATOM     89  C   UNL     1      -4.384 -11.496  12.079  1.00  0.00     0.091 A 
ATOM     90  F   UNL     1      -3.972  -9.860  10.369  1.00  0.00    -0.205 F 
ATOM     91  C   UNL     1      -4.565 -11.830  13.431  1.00  0.00     0.022 A 
BRANCH  89  92
ATOM     92  S   UNL     1      -4.729 -12.856  10.938  1.00  0.00     0.127 S 
ATOM     93  O   UNL     1      -4.071 -13.994  11.585  1.00  0.00    -0.237 OA
ATOM     94  O   UNL     1      -6.190 -12.912  10.963  1.00  0.00    -0.237 OA
ATOM     95  O   UNL     1      -4.131 -12.456   9.672  1.00  0.00    -0.744 OA
ENDBRANCH  89  92
ENDBRANCH  61  85
BRANCH  73  96
ATOM     96  C   UNL     1      -3.768  -4.350  16.006  1.00  0.00     0.023 A 
ATOM     97  C   UNL     1      -2.523  -4.742  15.459  1.00  0.00     0.012 A 
ATOM     98  C   UNL     1      -3.744  -3.592  17.186  1.00  0.00     0.148 A 
ATOM     99  C   UNL     1      -1.312  -4.430  16.086  1.00  0.00     0.002 A 
ATOM    100  C   UNL     1      -2.537  -3.232  17.781  1.00  0.00     0.091 A 
ATOM    101  F   UNL     1      -4.920  -3.233  17.724  1.00  0.00    -0.205 F 
ATOM    102  C   UNL     1      -1.317  -3.657  17.241  1.00  0.00     0.022 A 
BRANCH 100 103
ATOM    103  S   UNL     1      -2.527  -2.188  19.238  1.00  0.00     0.127 S 
ATOM    104  O   UNL     1      -2.471  -3.175  20.316  1.00  0.00    -0.237 OA
ATOM    105  O   UNL     1      -1.314  -1.390  19.082  1.00  0.00    -0.237 OA
ATOM    106  O   UNL     1      -3.765  -1.418  19.158  1.00  0.00    -0.744 OA
ENDBRANCH 100 103
ENDBRANCH  73  96
ENDBRANCH  47  48
ENDBRANCH  40  42
ENDBRANCH  39  40
ENDBRANCH  38  39
ENDBRANCH   1  38
TORSDOF 21
