REMARK SMILES O=C(OCCOCCOC(=O)c1cc(Cl)cc(Cl)c1O)c1ccc(-c2c3nc(c(-c4cccc(S(=O)(=O)[O-])c4F)c4ccc([nH]4)c(-c4cccc(S(=O)(=O)[O-])c4F)c4nc(c(-c5cccc(S(=O)(=O)[O-])c5F)c5ccc2[nH]5)C=C4)C=C3)cc1
REMARK SMILES IDX 5 1 4 2 3 3 2 4 1 5 21 6 22 7 83 8 23 9 82 10 24 11 25 12
REMARK SMILES IDX 26 13 76 14 27 15 81 16 75 17 77 18 28 19 80 20 74 21 73 22
REMARK SMILES IDX 29 24 61 25 41 26 60 27 42 28 45 29 59 30 78 31 43 32 44 33
REMARK SMILES IDX 58 35 79 36 46 37 30 38 31 39 39 40 32 41 34 42 40 43 33 44
REMARK SMILES IDX 35 45 36 46 37 47 38 48 62 49 63 50 71 51 64 52 66 53 72 54
REMARK SMILES IDX 65 55 67 56 68 57 69 58 70 59 47 60 48 61 56 62 49 63 51 64
REMARK SMILES IDX 57 65 50 66 52 67 53 68 54 69 55 70 6 71 7 72 8 73 9 74
REMARK SMILES IDX 10 75 11 76 12 77 13 78 19 79 14 80 17 81 15 82 16 83 18 84
REMARK SMILES IDX 20 85
REMARK H PARENT 77 23 45 34 20 86
REMARK Flexibility Score: inf
ROOT
ATOM      1  C   UNL     1       4.241   1.433  -1.077  1.00  0.00     0.202 C 
ENDROOT
BRANCH   1   2
ATOM      2  C   UNL     1       3.758   0.019  -1.419  1.00  0.00     0.261 C 
BRANCH   2   3
ATOM      3  O   UNL     1       2.391  -0.170  -1.003  1.00  0.00    -0.460 OA
BRANCH   3   4
ATOM      4  C   UNL     1       1.930  -1.077  -0.104  1.00  0.00     0.338 C 
ATOM      5  O   UNL     1       0.730  -1.337  -0.076  1.00  0.00    -0.246 OA
BRANCH   4   6
ATOM      6  C   UNL     1       2.836  -1.754   0.869  1.00  0.00     0.060 A 
ATOM      7  C   UNL     1       4.017  -1.179   1.328  1.00  0.00     0.016 A 
ATOM      8  C   UNL     1       2.447  -2.988   1.411  1.00  0.00     0.016 A 
ATOM      9  C   UNL     1       4.862  -1.847   2.192  1.00  0.00     0.010 A 
ATOM     10  C   UNL     1       3.250  -3.630   2.365  1.00  0.00     0.010 A 
ATOM     11  C   UNL     1       4.475  -3.066   2.741  1.00  0.00    -0.014 A 
BRANCH  11  12
ATOM     12  C   UNL     1       5.418  -3.702   3.681  1.00  0.00     0.031 A 
ATOM     13  C   UNL     1       6.153  -4.936   3.259  1.00  0.00     0.074 A 
ATOM     14  C   UNL     1       5.715  -3.062   4.830  1.00  0.00     0.049 A 
ATOM     15  N   UNL     1       7.055  -5.616   3.909  1.00  0.00    -0.248 NA
ATOM     16  C   UNL     1       5.845  -5.467   1.919  1.00  0.00     0.031 C 
ATOM     17  C   UNL     1       5.097  -1.809   5.278  1.00  0.00     0.029 A 
ATOM     18  N   UNL     1       6.631  -3.344   5.808  1.00  0.00    -0.354 N 
ATOM     19  C   UNL     1       7.395  -6.677   3.081  1.00  0.00     0.074 A 
ATOM     20  C   UNL     1       6.607  -6.550   1.876  1.00  0.00     0.031 C 
ATOM     21  C   UNL     1       5.676  -1.414   6.421  1.00  0.00     0.029 A 
ATOM     22  C   UNL     1       6.648  -2.420   6.827  1.00  0.00     0.049 A 
ATOM     23  H   UNL     1       7.221  -4.132   5.784  1.00  0.00     0.167 HD
ATOM     24  C   UNL     1       8.291  -7.664   3.311  1.00  0.00     0.034 A 
ATOM     25  C   UNL     1       7.349  -2.408   7.976  1.00  0.00     0.034 A 
ATOM     26  C   UNL     1       9.070  -7.758   4.513  1.00  0.00     0.049 A 
ATOM     27  C   UNL     1       8.309  -3.539   8.218  1.00  0.00     0.074 A 
ATOM     28  C   UNL     1       9.957  -8.747   4.894  1.00  0.00     0.029 A 
ATOM     29  N   UNL     1       9.054  -6.815   5.533  1.00  0.00    -0.354 N 
ATOM     30  N   UNL     1       8.618  -4.540   7.426  1.00  0.00    -0.248 NA
ATOM     31  C   UNL     1       9.026  -3.540   9.498  1.00  0.00     0.031 C 
ATOM     32  C   UNL     1      10.468  -8.407   6.153  1.00  0.00     0.029 A 
ATOM     33  C   UNL     1       9.918  -7.195   6.544  1.00  0.00     0.049 A 
ATOM     34  H   UNL     1       8.508  -5.996   5.536  1.00  0.00     0.167 HD
ATOM     35  C   UNL     1       9.571  -5.285   8.107  1.00  0.00     0.074 A 
ATOM     36  C   UNL     1       9.820  -4.592   9.357  1.00  0.00     0.031 C 
ATOM     37  C   UNL     1      10.166  -6.451   7.753  1.00  0.00     0.034 A 
BRANCH  24  38
ATOM     38  C   UNL     1       8.445  -8.712   2.243  1.00  0.00     0.023 A 
ATOM     39  C   UNL     1       9.136  -8.406   1.053  1.00  0.00     0.012 A 
ATOM     40  C   UNL     1       7.891  -9.996   2.412  1.00  0.00     0.148 A 
ATOM     41  C   UNL     1       9.243  -9.351   0.033  1.00  0.00     0.002 A 
ATOM     42  C   UNL     1       8.033 -10.944   1.405  1.00  0.00     0.091 A 
ATOM     43  F   UNL     1       7.216 -10.257   3.540  1.00  0.00    -0.205 F 
ATOM     44  C   UNL     1       8.698 -10.620   0.211  1.00  0.00     0.022 A 
BRANCH  42  45
ATOM     45  S   UNL     1       7.407 -12.621   1.554  1.00  0.00     0.127 S 
ATOM     46  O   UNL     1       6.360 -12.636   0.533  1.00  0.00    -0.237 OA
ATOM     47  O   UNL     1       8.590 -13.418   1.228  1.00  0.00    -0.237 OA
ATOM     48  O   UNL     1       6.938 -12.757   2.926  1.00  0.00    -0.744 OA
ENDBRANCH  42  45
ENDBRANCH  24  38
BRANCH  25  49
ATOM     49  C   UNL     1       7.152  -1.317   8.975  1.00  0.00     0.023 A 
ATOM     50  C   UNL     1       8.211  -0.445   9.290  1.00  0.00     0.012 A 
ATOM     51  C   UNL     1       5.906  -1.130   9.608  1.00  0.00     0.148 A 
ATOM     52  C   UNL     1       8.043   0.568  10.239  1.00  0.00     0.002 A 
ATOM     53  C   UNL     1       5.726  -0.081  10.502  1.00  0.00     0.091 A 
ATOM     54  F   UNL     1       4.911  -1.983   9.323  1.00  0.00    -0.205 F 
ATOM     55  C   UNL     1       6.798   0.758  10.835  1.00  0.00     0.022 A 
BRANCH  53  56
ATOM     56  S   UNL     1       4.113   0.308  11.193  1.00  0.00     0.127 S 
ATOM     57  O   UNL     1       4.212  -0.268  12.530  1.00  0.00    -0.237 OA
ATOM     58  O   UNL     1       4.104   1.771  11.150  1.00  0.00    -0.237 OA
ATOM     59  O   UNL     1       3.151  -0.317  10.294  1.00  0.00    -0.744 OA
ENDBRANCH  53  56
ENDBRANCH  25  49
BRANCH  37  60
ATOM     60  C   UNL     1      11.151  -7.032   8.728  1.00  0.00     0.023 A 
ATOM     61  C   UNL     1      10.684  -7.632   9.914  1.00  0.00     0.012 A 
ATOM     62  C   UNL     1      12.527  -7.040   8.438  1.00  0.00     0.148 A 
ATOM     63  C   UNL     1      11.580  -8.203  10.815  1.00  0.00     0.002 A 
ATOM     64  C   UNL     1      13.409  -7.655   9.316  1.00  0.00     0.091 A 
ATOM     65  F   UNL     1      12.950  -6.440   7.315  1.00  0.00    -0.205 F 
ATOM     66  C   UNL     1      12.939  -8.226  10.511  1.00  0.00     0.022 A 
BRANCH  64  67
ATOM     67  S   UNL     1      15.159  -7.818   8.950  1.00  0.00     0.127 S 
ATOM     68  O   UNL     1      15.739  -6.782   9.802  1.00  0.00    -0.237 OA
ATOM     69  O   UNL     1      15.441  -9.189   9.375  1.00  0.00    -0.237 OA
ATOM     70  O   UNL     1      15.285  -7.597   7.515  1.00  0.00    -0.744 OA
ENDBRANCH  64  67
ENDBRANCH  37  60
ENDBRANCH  11  12
ENDBRANCH   4   6
ENDBRANCH   3   4
ENDBRANCH   2   3
ENDBRANCH   1   2
BRANCH   1  71
ATOM     71  O   UNL     1       4.144   1.805   0.298  1.00  0.00    -0.374 OA
BRANCH  71  72
ATOM     72  C   UNL     1       2.844   2.212   0.746  1.00  0.00     0.202 C 
BRANCH  72  73
ATOM     73  C   UNL     1       2.981   3.468   1.614  1.00  0.00     0.261 C 
BRANCH  73  74
ATOM     74  O   UNL     1       3.458   4.543   0.784  1.00  0.00    -0.460 OA
BRANCH  74  75
ATOM     75  C   UNL     1       4.803   4.585   0.624  1.00  0.00     0.342 C 
ATOM     76  O   UNL     1       5.665   4.068   1.318  1.00  0.00    -0.246 OA
BRANCH  75  77
ATOM     77  C   UNL     1       5.096   5.129  -0.714  1.00  0.00     0.104 A 
ATOM     78  C   UNL     1       4.319   6.168  -1.238  1.00  0.00     0.040 A 
ATOM     79  C   UNL     1       6.099   4.529  -1.491  1.00  0.00     0.148 A 
ATOM     80  C   UNL     1       4.531   6.587  -2.548  1.00  0.00     0.043 A 
ATOM     81  C   UNL     1       6.278   4.944  -2.815  1.00  0.00     0.085 A 
ATOM     82  Cl  UNL     1       3.575   7.861  -3.197  1.00  0.00    -0.084 Cl
ATOM     83  C   UNL     1       5.495   5.973  -3.344  1.00  0.00     0.045 A 
ATOM     84  Cl  UNL     1       7.435   4.187  -3.849  1.00  0.00    -0.080 Cl
BRANCH  79  85
ATOM     85  O   UNL     1       6.890   3.518  -1.006  1.00  0.00    -0.505 OA
ATOM     86  H   UNL     1       6.786   3.225  -0.122  1.00  0.00     0.293 HD
ENDBRANCH  79  85
ENDBRANCH  75  77
ENDBRANCH  74  75
ENDBRANCH  73  74
ENDBRANCH  72  73
ENDBRANCH  71  72
ENDBRANCH   1  71
TORSDOF 18
