REMARK SMILES O=C(OCCOCCOC(=O)c1nnn(-c2cccc(C(F)(F)F)c2)c1[C@H]1COc2ccccc2O1)c1ccc(-c2c3nc(c(-c4cccc(S(=O)(=O)[O-])c4F)c4ccc([nH]4)c(-c4cccc(S(=O)(=O)[O-])c4F)c4nc(c(-c5cccc(S(=O)(=O)[O-])c5F)c5ccc2[nH]5)C=C4)C=C3)cc1
REMARK SMILES IDX 5 1 4 2 3 3 2 4 1 5 37 6 38 7 99 8 39 9 98 10 40 11 41 12
REMARK SMILES IDX 42 13 92 14 43 15 97 16 91 17 93 18 44 19 96 20 90 21 89 22
REMARK SMILES IDX 45 24 77 25 57 26 76 27 58 28 61 29 75 30 94 31 59 32 60 33
REMARK SMILES IDX 74 35 95 36 62 37 46 38 47 39 55 40 48 41 50 42 56 43 49 44
REMARK SMILES IDX 51 45 52 46 53 47 54 48 78 49 79 50 87 51 80 52 82 53 88 54
REMARK SMILES IDX 81 55 83 56 84 57 85 58 86 59 63 60 64 61 72 62 65 63 67 64
REMARK SMILES IDX 73 65 66 66 68 67 69 68 70 69 71 70 6 71 7 72 8 73 9 74
REMARK SMILES IDX 10 75 11 76 12 77 13 78 26 79 14 80 15 81 27 82 28 83 36 84
REMARK SMILES IDX 29 85 35 86 30 87 34 88 31 89 33 90 32 91 16 92 17 93 25 94
REMARK SMILES IDX 18 95 20 96 19 97 21 98 22 99 23 100 24 101
REMARK H PARENT 93 23 61 34
REMARK Flexibility Score: inf
ROOT
ATOM      1  C   UNL     1      -1.199  -0.810  -2.900  1.00  0.00     0.202 C 
ENDROOT
BRANCH   1   2
ATOM      2  C   UNL     1      -0.436  -1.625  -1.854  1.00  0.00     0.261 C 
BRANCH   2   3
ATOM      3  O   UNL     1       0.561  -2.476  -2.434  1.00  0.00    -0.460 OA
BRANCH   3   4
ATOM      4  C   UNL     1       0.441  -3.701  -2.984  1.00  0.00     0.338 C 
ATOM      5  O   UNL     1       1.362  -4.101  -3.695  1.00  0.00    -0.246 OA
BRANCH   4   6
ATOM      6  C   UNL     1      -0.722  -4.613  -2.756  1.00  0.00     0.060 A 
ATOM      7  C   UNL     1      -1.867  -4.319  -2.016  1.00  0.00     0.016 A 
ATOM      8  C   UNL     1      -0.593  -5.904  -3.301  1.00  0.00     0.016 A 
ATOM      9  C   UNL     1      -2.669  -5.341  -1.552  1.00  0.00     0.010 A 
ATOM     10  C   UNL     1      -1.445  -6.921  -2.913  1.00  0.00     0.010 A 
ATOM     11  C   UNL     1      -2.394  -6.647  -1.942  1.00  0.00    -0.014 A 
BRANCH  11  12
ATOM     12  C   UNL     1      -3.191  -7.694  -1.336  1.00  0.00     0.031 A 
ATOM     13  C   UNL     1      -4.638  -7.583  -1.640  1.00  0.00     0.074 A 
ATOM     14  C   UNL     1      -2.619  -8.664  -0.598  1.00  0.00     0.049 A 
ATOM     15  N   UNL     1      -5.601  -7.306  -0.823  1.00  0.00    -0.248 NA
ATOM     16  C   UNL     1      -5.031  -7.569  -3.057  1.00  0.00     0.031 C 
ATOM     17  C   UNL     1      -1.190  -8.963  -0.459  1.00  0.00     0.029 A 
ATOM     18  N   UNL     1      -3.210  -9.688   0.072  1.00  0.00    -0.354 N 
ATOM     19  C   UNL     1      -6.760  -7.337  -1.599  1.00  0.00     0.074 A 
ATOM     20  C   UNL     1      -6.325  -7.266  -2.966  1.00  0.00     0.031 C 
ATOM     21  C   UNL     1      -1.048 -10.230  -0.011  1.00  0.00     0.029 A 
ATOM     22  C   UNL     1      -2.361 -10.767   0.295  1.00  0.00     0.049 A 
ATOM     23  H   UNL     1      -4.148  -9.668   0.370  1.00  0.00     0.167 HD
ATOM     24  C   UNL     1      -7.949  -7.723  -1.058  1.00  0.00     0.034 A 
ATOM     25  C   UNL     1      -2.738 -12.035   0.595  1.00  0.00     0.034 A 
ATOM     26  C   UNL     1      -7.919  -7.608   0.382  1.00  0.00     0.049 A 
ATOM     27  C   UNL     1      -4.126 -11.971   1.112  1.00  0.00     0.074 A 
ATOM     28  C   UNL     1      -7.711  -6.580   1.280  1.00  0.00     0.029 A 
ATOM     29  N   UNL     1      -7.745  -8.771   1.092  1.00  0.00    -0.354 N 
ATOM     30  N   UNL     1      -4.444 -11.392   2.236  1.00  0.00    -0.248 NA
ATOM     31  C   UNL     1      -5.213 -12.134   0.160  1.00  0.00     0.031 C 
ATOM     32  C   UNL     1      -6.971  -7.168   2.347  1.00  0.00     0.029 A 
ATOM     33  C   UNL     1      -6.829  -8.531   2.077  1.00  0.00     0.049 A 
ATOM     34  H   UNL     1      -8.199  -9.628   0.921  1.00  0.00     0.167 HD
ATOM     35  C   UNL     1      -5.618 -10.707   1.948  1.00  0.00     0.074 A 
ATOM     36  C   UNL     1      -6.099 -11.287   0.694  1.00  0.00     0.031 C 
ATOM     37  C   UNL     1      -5.924  -9.537   2.584  1.00  0.00     0.034 A 
BRANCH  24  38
ATOM     38  C   UNL     1      -8.949  -8.637  -1.751  1.00  0.00     0.023 A 
ATOM     39  C   UNL     1     -10.094  -9.000  -1.003  1.00  0.00     0.012 A 
ATOM     40  C   UNL     1      -8.688  -9.400  -2.914  1.00  0.00     0.148 A 
ATOM     41  C   UNL     1     -10.849 -10.136  -1.313  1.00  0.00     0.002 A 
ATOM     42  C   UNL     1      -9.472 -10.499  -3.249  1.00  0.00     0.091 A 
ATOM     43  F   UNL     1      -7.622  -9.148  -3.670  1.00  0.00    -0.205 F 
ATOM     44  C   UNL     1     -10.528 -10.896  -2.429  1.00  0.00     0.022 A 
BRANCH  42  45
ATOM     45  S   UNL     1      -9.116 -11.504  -4.698  1.00  0.00     0.127 S 
ATOM     46  O   UNL     1      -8.625 -12.733  -4.082  1.00  0.00    -0.237 OA
ATOM     47  O   UNL     1     -10.437 -11.603  -5.319  1.00  0.00    -0.237 OA
ATOM     48  O   UNL     1      -8.143 -10.751  -5.480  1.00  0.00    -0.744 OA
ENDBRANCH  42  45
ENDBRANCH  24  38
BRANCH  25  49
ATOM     49  C   UNL     1      -2.118 -13.310   0.163  1.00  0.00     0.023 A 
ATOM     50  C   UNL     1      -2.414 -14.502   0.855  1.00  0.00     0.012 A 
ATOM     51  C   UNL     1      -1.459 -13.412  -1.084  1.00  0.00     0.148 A 
ATOM     52  C   UNL     1      -2.087 -15.751   0.312  1.00  0.00     0.002 A 
ATOM     53  C   UNL     1      -1.126 -14.655  -1.614  1.00  0.00     0.091 A 
ATOM     54  F   UNL     1      -1.242 -12.298  -1.794  1.00  0.00    -0.205 F 
ATOM     55  C   UNL     1      -1.450 -15.829  -0.924  1.00  0.00     0.022 A 
BRANCH  53  56
ATOM     56  S   UNL     1      -0.323 -14.830  -3.214  1.00  0.00     0.127 S 
ATOM     57  O   UNL     1       0.782 -15.736  -2.898  1.00  0.00    -0.237 OA
ATOM     58  O   UNL     1      -1.385 -15.420  -4.023  1.00  0.00    -0.237 OA
ATOM     59  O   UNL     1       0.095 -13.488  -3.600  1.00  0.00    -0.744 OA
ENDBRANCH  53  56
ENDBRANCH  25  49
BRANCH  37  60
ATOM     60  C   UNL     1      -5.093  -9.139   3.776  1.00  0.00     0.023 A 
ATOM     61  C   UNL     1      -3.722  -8.823   3.675  1.00  0.00     0.012 A 
ATOM     62  C   UNL     1      -5.758  -8.904   4.989  1.00  0.00     0.148 A 
ATOM     63  C   UNL     1      -3.026  -8.303   4.771  1.00  0.00     0.002 A 
ATOM     64  C   UNL     1      -5.076  -8.343   6.060  1.00  0.00     0.091 A 
ATOM     65  F   UNL     1      -7.064  -9.205   5.064  1.00  0.00    -0.205 F 
ATOM     66  C   UNL     1      -3.707  -8.049   5.959  1.00  0.00     0.022 A 
BRANCH  64  67
ATOM     67  S   UNL     1      -5.929  -7.875   7.567  1.00  0.00     0.127 S 
ATOM     68  O   UNL     1      -5.505  -8.921   8.495  1.00  0.00    -0.237 OA
ATOM     69  O   UNL     1      -5.374  -6.549   7.843  1.00  0.00    -0.237 OA
ATOM     70  O   UNL     1      -7.349  -7.867   7.237  1.00  0.00    -0.744 OA
ENDBRANCH  64  67
ENDBRANCH  37  60
ENDBRANCH  11  12
ENDBRANCH   4   6
ENDBRANCH   3   4
ENDBRANCH   2   3
ENDBRANCH   1   2
BRANCH   1  71
ATOM     71  O   UNL     1      -2.006  -1.467  -3.870  1.00  0.00    -0.374 OA
BRANCH  71  72
ATOM     72  C   UNL     1      -1.425  -2.096  -5.011  1.00  0.00     0.202 C 
BRANCH  72  73
ATOM     73  C   UNL     1      -0.632  -1.274  -6.029  1.00  0.00     0.261 C 
BRANCH  73  74
ATOM     74  O   UNL     1       0.495  -0.613  -5.450  1.00  0.00    -0.458 OA
BRANCH  74  75
ATOM     75  C   UNL     1       0.361   0.741  -5.297  1.00  0.00     0.361 C 
ATOM     76  O   UNL     1      -0.611   1.393  -5.618  1.00  0.00    -0.244 OA
BRANCH  75  77
ATOM     77  C   UNL     1       1.503   1.307  -4.598  1.00  0.00     0.198 A 
ATOM     78  N   UNL     1       1.384   2.051  -3.446  1.00  0.00    -0.122 NA
ATOM     79  C   UNL     1       2.838   1.221  -4.941  1.00  0.00     0.123 A 
ATOM     80  N   UNL     1       2.599   2.445  -3.081  1.00  0.00    -0.061 NA
ATOM     81  N   UNL     1       3.441   2.104  -4.074  1.00  0.00    -0.213 N 
BRANCH  79  82
ATOM     82  C   UNL     1       3.578   0.455  -5.985  1.00  0.00     0.262 C 
ATOM     83  C   UNL     1       4.175  -0.835  -5.407  1.00  0.00     0.281 C 
ATOM     84  O   UNL     1       2.644   0.231  -7.044  1.00  0.00    -0.477 OA
ATOM     85  O   UNL     1       4.801  -1.596  -6.446  1.00  0.00    -0.485 OA
ATOM     86  C   UNL     1       2.835  -0.948  -7.708  1.00  0.00     0.162 A 
ATOM     87  C   UNL     1       3.881  -1.831  -7.435  1.00  0.00     0.161 A 
ATOM     88  C   UNL     1       1.887  -1.266  -8.678  1.00  0.00     0.050 A 
ATOM     89  C   UNL     1       4.007  -3.012  -8.159  1.00  0.00     0.050 A 
ATOM     90  C   UNL     1       1.982  -2.472  -9.370  1.00  0.00     0.004 A 
ATOM     91  C   UNL     1       3.046  -3.340  -9.117  1.00  0.00     0.004 A 
ENDBRANCH  79  82
BRANCH  81  92
ATOM     92  C   UNL     1       4.586   2.868  -4.345  1.00  0.00     0.067 A 
ATOM     93  C   UNL     1       5.625   2.952  -3.424  1.00  0.00     0.028 A 
ATOM     94  C   UNL     1       4.664   3.494  -5.597  1.00  0.00     0.041 A 
ATOM     95  C   UNL     1       6.799   3.597  -3.814  1.00  0.00     0.003 A 
ATOM     96  C   UNL     1       5.827   4.157  -5.983  1.00  0.00     0.058 A 
ATOM     97  C   UNL     1       6.904   4.183  -5.085  1.00  0.00     0.013 A 
BRANCH  96  98
ATOM     98  C   UNL     1       5.915   4.792  -7.347  1.00  0.00     0.416 C 
ATOM     99  F   UNL     1       6.242   6.112  -7.293  1.00  0.00    -0.166 F 
ATOM    100  F   UNL     1       6.853   4.200  -8.135  1.00  0.00    -0.166 F 
ATOM    101  F   UNL     1       4.748   4.727  -8.050  1.00  0.00    -0.166 F 
ENDBRANCH  96  98
ENDBRANCH  81  92
ENDBRANCH  75  77
ENDBRANCH  74  75
ENDBRANCH  73  74
ENDBRANCH  72  73
ENDBRANCH  71  72
ENDBRANCH   1  71
TORSDOF 20
