REMARK SMILES O=C(OCCOCCOC(=O)[C@H]1N=c2ccccc2=C1C[NH2+]CCc1ccccc1)c1ccc(-c2c3nc(c(-c4cccc(S(=O)(=O)[O-])c4F)c4ccc([nH]4)c(-c4cccc(S(=O)(=O)[O-])c4F)c4nc(c(-c5cccc(S(=O)(=O)[O-])c5F)c5ccc2[nH]5)C=C4)C=C3)cc1
REMARK SMILES IDX 7 1 6 2 5 3 4 4 3 5 2 6 1 7 31 8 32 9 93 10 33 11 92 12
REMARK SMILES IDX 34 13 35 14 36 15 86 16 37 17 91 18 85 19 87 20 38 21 90 22
REMARK SMILES IDX 84 23 83 24 39 26 71 27 51 28 70 29 52 30 55 31 69 32 88 33
REMARK SMILES IDX 53 34 54 35 68 37 89 38 56 39 40 40 41 41 49 42 42 43 44 44
REMARK SMILES IDX 50 45 43 46 45 47 46 48 47 49 48 50 72 51 73 52 81 53 74 54
REMARK SMILES IDX 76 55 82 56 75 57 77 58 78 59 79 60 80 61 57 62 58 63 66 64
REMARK SMILES IDX 59 65 61 66 67 67 60 68 62 69 63 70 64 71 65 72 8 73 9 74
REMARK SMILES IDX 10 75 11 76 12 77 13 78 20 79 14 80 19 81 15 82 18 83 16 84
REMARK SMILES IDX 17 85 21 86 22 87 23 90 24 91 25 92 26 93 30 94 27 95 29 96
REMARK SMILES IDX 28 97
REMARK H PARENT 87 25 55 36 22 88 22 89
REMARK Flexibility Score: inf
ROOT
ATOM      1  C   UNL     1       2.224  -1.023  -1.339  1.00  0.00     0.202 C 
ENDROOT
BRANCH   1   2
ATOM      2  O   UNL     1       3.504  -0.575  -0.894  1.00  0.00    -0.374 OA
BRANCH   2   3
ATOM      3  C   UNL     1       4.054  -1.239   0.242  1.00  0.00     0.202 C 
BRANCH   3   4
ATOM      4  C   UNL     1       4.237  -0.294   1.428  1.00  0.00     0.261 C 
BRANCH   4   5
ATOM      5  O   UNL     1       3.018   0.363   1.800  1.00  0.00    -0.460 OA
BRANCH   5   6
ATOM      6  C   UNL     1       2.304   1.227   1.041  1.00  0.00     0.338 C 
ATOM      7  O   UNL     1       1.086   1.278   1.225  1.00  0.00    -0.246 OA
BRANCH   6   8
ATOM      8  C   UNL     1       2.902   2.185   0.045  1.00  0.00     0.060 A 
ATOM      9  C   UNL     1       2.074   3.257  -0.339  1.00  0.00     0.016 A 
ATOM     10  C   UNL     1       4.143   2.069  -0.593  1.00  0.00     0.016 A 
ATOM     11  C   UNL     1       2.450   4.142  -1.351  1.00  0.00     0.010 A 
ATOM     12  C   UNL     1       4.515   2.928  -1.622  1.00  0.00     0.010 A 
ATOM     13  C   UNL     1       3.669   3.963  -2.007  1.00  0.00    -0.014 A 
BRANCH  13  14
ATOM     14  C   UNL     1       4.176   4.931  -2.989  1.00  0.00     0.031 A 
ATOM     15  C   UNL     1       4.141   4.641  -4.454  1.00  0.00     0.074 A 
ATOM     16  C   UNL     1       4.816   6.002  -2.492  1.00  0.00     0.049 A 
ATOM     17  N   UNL     1       4.578   5.377  -5.440  1.00  0.00    -0.248 NA
ATOM     18  C   UNL     1       3.557   3.356  -4.869  1.00  0.00     0.031 C 
ATOM     19  C   UNL     1       4.993   6.277  -1.063  1.00  0.00     0.029 A 
ATOM     20  N   UNL     1       5.476   7.021  -3.117  1.00  0.00    -0.354 N 
ATOM     21  C   UNL     1       4.317   4.654  -6.596  1.00  0.00     0.074 A 
ATOM     22  C   UNL     1       3.713   3.404  -6.187  1.00  0.00     0.031 C 
ATOM     23  C   UNL     1       5.735   7.382  -0.920  1.00  0.00     0.029 A 
ATOM     24  C   UNL     1       6.079   7.889  -2.243  1.00  0.00     0.049 A 
ATOM     25  H   UNL     1       5.516   7.121  -4.096  1.00  0.00     0.167 HD
ATOM     26  C   UNL     1       4.543   5.025  -7.879  1.00  0.00     0.034 A 
ATOM     27  C   UNL     1       6.821   8.982  -2.485  1.00  0.00     0.034 A 
ATOM     28  C   UNL     1       5.170   6.270  -8.243  1.00  0.00     0.049 A 
ATOM     29  C   UNL     1       7.029   9.395  -3.907  1.00  0.00     0.074 A 
ATOM     30  C   UNL     1       5.387   6.793  -9.504  1.00  0.00     0.029 A 
ATOM     31  N   UNL     1       5.700   7.180  -7.336  1.00  0.00    -0.354 N 
ATOM     32  N   UNL     1       6.631   8.787  -5.000  1.00  0.00    -0.248 NA
ATOM     33  C   UNL     1       7.744  10.653  -4.135  1.00  0.00     0.031 C 
ATOM     34  C   UNL     1       6.062   8.012  -9.360  1.00  0.00     0.029 A 
ATOM     35  C   UNL     1       6.251   8.257  -8.007  1.00  0.00     0.049 A 
ATOM     36  H   UNL     1       5.686   7.073  -6.357  1.00  0.00     0.167 HD
ATOM     37  C   UNL     1       7.038   9.591  -6.053  1.00  0.00     0.074 A 
ATOM     38  C   UNL     1       7.694  10.744  -5.459  1.00  0.00     0.031 C 
ATOM     39  C   UNL     1       6.895   9.390  -7.386  1.00  0.00     0.034 A 
BRANCH  26  40
ATOM     40  C   UNL     1       4.041   4.117  -8.973  1.00  0.00     0.023 A 
ATOM     41  C   UNL     1       2.652   4.047  -9.211  1.00  0.00     0.012 A 
ATOM     42  C   UNL     1       4.918   3.394  -9.804  1.00  0.00     0.148 A 
ATOM     43  C   UNL     1       2.142   3.258 -10.241  1.00  0.00     0.002 A 
ATOM     44  C   UNL     1       4.404   2.630 -10.848  1.00  0.00     0.091 A 
ATOM     45  F   UNL     1       6.234   3.462  -9.558  1.00  0.00    -0.205 F 
ATOM     46  C   UNL     1       3.017   2.557 -11.064  1.00  0.00     0.022 A 
BRANCH  44  47
ATOM     47  S   UNL     1       5.440   1.716 -11.998  1.00  0.00     0.127 S 
ATOM     48  O   UNL     1       5.088   0.334 -11.677  1.00  0.00    -0.237 OA
ATOM     49  O   UNL     1       4.949   2.184 -13.293  1.00  0.00    -0.237 OA
ATOM     50  O   UNL     1       6.814   2.092 -11.692  1.00  0.00    -0.744 OA
ENDBRANCH  44  47
ENDBRANCH  26  40
BRANCH  27  51
ATOM     51  C   UNL     1       7.278   9.783  -1.322  1.00  0.00     0.023 A 
ATOM     52  C   UNL     1       6.500  10.884  -0.918  1.00  0.00     0.012 A 
ATOM     53  C   UNL     1       8.337   9.343  -0.504  1.00  0.00     0.148 A 
ATOM     54  C   UNL     1       6.760  11.528   0.290  1.00  0.00     0.002 A 
ATOM     55  C   UNL     1       8.571   9.970   0.714  1.00  0.00     0.091 A 
ATOM     56  F   UNL     1       9.043   8.275  -0.904  1.00  0.00    -0.205 F 
ATOM     57  C   UNL     1       7.785  11.064   1.111  1.00  0.00     0.022 A 
BRANCH  55  58
ATOM     58  S   UNL     1       9.789   9.383   1.897  1.00  0.00     0.127 S 
ATOM     59  O   UNL     1      10.670  10.540   2.018  1.00  0.00    -0.237 OA
ATOM     60  O   UNL     1       8.960   9.113   3.070  1.00  0.00    -0.237 OA
ATOM     61  O   UNL     1      10.395   8.201   1.292  1.00  0.00    -0.744 OA
ENDBRANCH  55  58
ENDBRANCH  27  51
BRANCH  39  62
ATOM     62  C   UNL     1       7.490  10.428  -8.294  1.00  0.00     0.023 A 
ATOM     63  C   UNL     1       8.885  10.455  -8.485  1.00  0.00     0.012 A 
ATOM     64  C   UNL     1       6.671  11.329  -9.001  1.00  0.00     0.148 A 
ATOM     65  C   UNL     1       9.462  11.381  -9.351  1.00  0.00     0.002 A 
ATOM     66  C   UNL     1       7.250  12.226  -9.889  1.00  0.00     0.091 A 
ATOM     67  F   UNL     1       5.348  11.290  -8.790  1.00  0.00    -0.205 F 
ATOM     68  C   UNL     1       8.644  12.259 -10.059  1.00  0.00     0.022 A 
BRANCH  66  69
ATOM     69  S   UNL     1       6.279  13.355 -10.892  1.00  0.00     0.127 S 
ATOM     70  O   UNL     1       6.620  14.648 -10.300  1.00  0.00    -0.237 OA
ATOM     71  O   UNL     1       6.829  13.131 -12.229  1.00  0.00    -0.237 OA
ATOM     72  O   UNL     1       4.890  12.946 -10.731  1.00  0.00    -0.744 OA
ENDBRANCH  66  69
ENDBRANCH  39  62
ENDBRANCH  13  14
ENDBRANCH   6   8
ENDBRANCH   5   6
ENDBRANCH   4   5
ENDBRANCH   3   4
ENDBRANCH   2   3
ENDBRANCH   1   2
BRANCH   1  73
ATOM     73  C   UNL     1       2.328  -1.960  -2.545  1.00  0.00     0.261 C 
BRANCH  73  74
ATOM     74  O   UNL     1       3.044  -3.148  -2.191  1.00  0.00    -0.461 OA
BRANCH  74  75
ATOM     75  C   UNL     1       4.404  -2.990  -2.177  1.00  0.00     0.335 C 
ATOM     76  O   UNL     1       4.996  -2.029  -2.658  1.00  0.00    -0.249 OA
BRANCH  75  77
ATOM     77  C   UNL     1       5.107  -4.118  -1.393  1.00  0.00     0.248 C 
ATOM     78  N   UNL     1       4.167  -4.707  -0.372  1.00  0.00    -0.265 NA
ATOM     79  C   UNL     1       5.534  -5.266  -2.259  1.00  0.00     0.029 C 
ATOM     80  C   UNL     1       4.066  -5.939  -0.765  1.00  0.00     0.066 A 
ATOM     81  C   UNL     1       4.882  -6.374  -1.912  1.00  0.00     0.007 A 
ATOM     82  C   UNL     1       3.208  -6.967  -0.137  1.00  0.00     0.028 A 
ATOM     83  C   UNL     1       4.853  -7.722  -2.384  1.00  0.00     0.010 A 
ATOM     84  C   UNL     1       3.222  -8.215  -0.632  1.00  0.00     0.002 A 
ATOM     85  C   UNL     1       4.048  -8.602  -1.765  1.00  0.00     0.001 A 
BRANCH  79  86
ATOM     86  C   UNL     1       6.556  -5.051  -3.322  1.00  0.00     0.296 C 
BRANCH  86  87
ATOM     87  N   UNL     1       6.020  -4.070  -4.229  1.00  0.00    -0.342 N 
ATOM     88  H   UNL     1       5.662  -3.296  -3.669  1.00  0.00     0.346 HD
ATOM     89  H   UNL     1       5.317  -4.571  -4.774  1.00  0.00     0.346 HD
BRANCH  87  90
ATOM     90  C   UNL     1       6.931  -3.510  -5.217  1.00  0.00     0.265 C 
BRANCH  90  91
ATOM     91  C   UNL     1       7.032  -4.352  -6.498  1.00  0.00     0.097 C 
BRANCH  91  92
ATOM     92  C   UNL     1       5.681  -4.810  -7.011  1.00  0.00    -0.042 A 
ATOM     93  C   UNL     1       5.347  -6.171  -6.992  1.00  0.00     0.004 A 
ATOM     94  C   UNL     1       4.716  -3.877  -7.418  1.00  0.00     0.004 A 
ATOM     95  C   UNL     1       4.070  -6.590  -7.366  1.00  0.00     0.000 A 
ATOM     96  C   UNL     1       3.438  -4.299  -7.786  1.00  0.00     0.000 A 
ATOM     97  C   UNL     1       3.116  -5.654  -7.760  1.00  0.00     0.000 A 
ENDBRANCH  91  92
ENDBRANCH  90  91
ENDBRANCH  87  90
ENDBRANCH  86  87
ENDBRANCH  79  86
ENDBRANCH  75  77
ENDBRANCH  74  75
ENDBRANCH  73  74
ENDBRANCH   1  73
TORSDOF 22
