REMARK SMILES Cc1c(Cl)cc2c(c1C)O[C@@H](C(F)(F)F)C(C(=O)OCCOCCOC(=O)c1ccc(-c3c4nc(c(-c5cccc(S(=O)(=O)[O-])c5F)c5ccc([nH]5)c(-c5cccc(S(=O)(=O)[O-])c5F)c5nc(c(-c6cccc(S(=O)(=O)[O-])c6F)c6ccc3[nH]6)C=C5)C=C4)cc1)=C2
REMARK SMILES IDX 23 1 22 2 21 3 20 4 19 5 17 6 18 7 16 8 1 9 2 10 3 11 8 12
REMARK SMILES IDX 4 13 5 14 7 15 9 16 6 17 10 18 91 19 11 20 12 21 13 22 14 23
REMARK SMILES IDX 15 24 24 25 25 26 26 27 27 28 28 29 29 30 90 31 30 32 89 33
REMARK SMILES IDX 31 34 32 35 33 36 83 37 34 38 88 39 82 40 84 41 35 42 87 43
REMARK SMILES IDX 81 44 80 45 36 47 68 48 48 49 67 50 49 51 52 52 66 53 85 54
REMARK SMILES IDX 50 55 51 56 65 58 86 59 53 60 37 61 38 62 46 63 39 64 41 65
REMARK SMILES IDX 47 66 40 67 42 68 43 69 44 70 45 71 69 72 70 73 78 74 71 75
REMARK SMILES IDX 73 76 79 77 72 78 74 79 75 80 76 81 77 82 54 83 55 84 63 85
REMARK SMILES IDX 56 86 58 87 64 88 57 89 59 90 60 91 61 92 62 93
REMARK H PARENT 84 46 52 57
REMARK Flexibility Score: inf
ROOT
ATOM      1  C   UNL     1       0.604   5.803   6.615  1.00  0.00     0.202 C 
ENDROOT
BRANCH   1   2
ATOM      2  O   UNL     1      -0.283   6.864   6.977  1.00  0.00    -0.374 OA
BRANCH   2   3
ATOM      3  C   UNL     1      -1.432   6.504   7.748  1.00  0.00     0.202 C 
BRANCH   3   4
ATOM      4  C   UNL     1      -2.679   6.109   6.952  1.00  0.00     0.261 C 
BRANCH   4   5
ATOM      5  O   UNL     1      -2.435   4.899   6.215  1.00  0.00    -0.460 OA
BRANCH   5   6
ATOM      6  C   UNL     1      -2.198   5.081   4.903  1.00  0.00     0.338 C 
ATOM      7  O   UNL     1      -2.398   6.108   4.271  1.00  0.00    -0.246 OA
BRANCH   6   8
ATOM      8  C   UNL     1      -1.527   3.898   4.329  1.00  0.00     0.087 C 
ATOM      9  C   UNL     1       1.123  -0.171  -0.039  1.00  0.00     0.046 C 
ATOM     10  C   UNL     1       0.673   0.907   0.916  1.00  0.00    -0.026 A 
ATOM     11  C   UNL     1       1.070   2.237   0.652  1.00  0.00     0.045 A 
ATOM     12  C   UNL     1      -0.170   0.656   2.032  1.00  0.00    -0.004 A 
ATOM     13  Cl  UNL     1       2.068   2.647  -0.705  1.00  0.00    -0.084 Cl
ATOM     14  C   UNL     1       0.646   3.292   1.454  1.00  0.00     0.032 A 
ATOM     15  C   UNL     1      -0.600   1.743   2.829  1.00  0.00     0.131 A 
ATOM     16  C   UNL     1      -0.622  -0.724   2.444  1.00  0.00     0.049 C 
ATOM     17  C   UNL     1      -0.203   3.047   2.529  1.00  0.00     0.019 A 
ATOM     18  O   UNL     1      -1.489   1.474   3.844  1.00  0.00    -0.475 OA
ATOM     19  C   UNL     1      -0.771   4.163   3.255  1.00  0.00     0.027 C 
ATOM     20  C   UNL     1      -1.722   2.501   4.860  1.00  0.00     0.316 C 
BRANCH  20  21
ATOM     21  C   UNL     1      -0.879   2.150   6.104  1.00  0.00     0.430 C 
ATOM     22  F   UNL     1      -1.120   2.963   7.155  1.00  0.00    -0.167 F 
ATOM     23  F   UNL     1      -1.137   0.888   6.527  1.00  0.00    -0.167 F 
ATOM     24  F   UNL     1       0.451   2.220   5.848  1.00  0.00    -0.167 F 
ENDBRANCH  20  21
ENDBRANCH   6   8
ENDBRANCH   5   6
ENDBRANCH   4   5
ENDBRANCH   3   4
ENDBRANCH   2   3
ENDBRANCH   1   2
BRANCH   1  25
ATOM     25  C   UNL     1       1.568   5.301   7.700  1.00  0.00     0.261 C 
BRANCH  25  26
ATOM     26  O   UNL     1       0.876   4.576   8.732  1.00  0.00    -0.460 OA
BRANCH  26  27
ATOM     27  C   UNL     1       0.729   5.239   9.903  1.00  0.00     0.338 C 
ATOM     28  O   UNL     1       1.224   6.315  10.204  1.00  0.00    -0.246 OA
BRANCH  27  29
ATOM     29  C   UNL     1      -0.323   4.587  10.710  1.00  0.00     0.060 A 
ATOM     30  C   UNL     1      -1.357   5.401  11.193  1.00  0.00     0.016 A 
ATOM     31  C   UNL     1      -0.300   3.223  11.006  1.00  0.00     0.016 A 
ATOM     32  C   UNL     1      -2.345   4.864  12.014  1.00  0.00     0.010 A 
ATOM     33  C   UNL     1      -1.287   2.687  11.842  1.00  0.00     0.010 A 
ATOM     34  C   UNL     1      -2.291   3.513  12.380  1.00  0.00    -0.014 A 
BRANCH  34  35
ATOM     35  C   UNL     1      -3.192   3.022  13.452  1.00  0.00     0.031 A 
ATOM     36  C   UNL     1      -2.647   2.871  14.846  1.00  0.00     0.074 A 
ATOM     37  C   UNL     1      -4.490   2.766  13.205  1.00  0.00     0.049 A 
ATOM     38  N   UNL     1      -3.264   2.508  15.940  1.00  0.00    -0.248 NA
ATOM     39  C   UNL     1      -1.218   3.174  15.035  1.00  0.00     0.031 C 
ATOM     40  C   UNL     1      -5.141   2.889  11.902  1.00  0.00     0.029 A 
ATOM     41  N   UNL     1      -5.493   2.344  14.044  1.00  0.00    -0.354 N 
ATOM     42  C   UNL     1      -2.300   2.525  16.941  1.00  0.00     0.074 A 
ATOM     43  C   UNL     1      -1.050   2.904  16.321  1.00  0.00     0.031 C 
ATOM     44  C   UNL     1      -6.434   2.545  12.027  1.00  0.00     0.029 A 
ATOM     45  C   UNL     1      -6.699   2.155  13.412  1.00  0.00     0.049 A 
ATOM     46  H   UNL     1      -5.360   2.191  15.007  1.00  0.00     0.167 HD
ATOM     47  C   UNL     1      -2.447   2.275  18.263  1.00  0.00     0.034 A 
ATOM     48  C   UNL     1      -7.879   1.712  13.893  1.00  0.00     0.034 A 
ATOM     49  C   UNL     1      -3.694   1.918  18.882  1.00  0.00     0.049 A 
ATOM     50  C   UNL     1      -8.004   1.389  15.361  1.00  0.00     0.074 A 
ATOM     51  C   UNL     1      -3.947   1.683  20.222  1.00  0.00     0.029 A 
ATOM     52  N   UNL     1      -4.891   1.734  18.210  1.00  0.00    -0.354 N 
ATOM     53  N   UNL     1      -7.114   1.522  16.314  1.00  0.00    -0.248 NA
ATOM     54  C   UNL     1      -9.305   0.883  15.827  1.00  0.00     0.031 C 
ATOM     55  C   UNL     1      -5.289   1.320  20.355  1.00  0.00     0.029 A 
ATOM     56  C   UNL     1      -5.883   1.367  19.103  1.00  0.00     0.049 A 
ATOM     57  H   UNL     1      -5.018   1.848  17.240  1.00  0.00     0.167 HD
ATOM     58  C   UNL     1      -7.751   1.145  17.493  1.00  0.00     0.074 A 
ATOM     59  C   UNL     1      -9.112   0.801  17.138  1.00  0.00     0.031 C 
ATOM     60  C   UNL     1      -7.249   1.073  18.750  1.00  0.00     0.034 A 
BRANCH  47  61
ATOM     61  C   UNL     1      -1.236   2.417  19.147  1.00  0.00     0.023 A 
ATOM     62  C   UNL     1      -0.732   3.703  19.432  1.00  0.00     0.012 A 
ATOM     63  C   UNL     1      -0.656   1.293  19.768  1.00  0.00     0.148 A 
ATOM     64  C   UNL     1       0.344   3.866  20.303  1.00  0.00     0.002 A 
ATOM     65  C   UNL     1       0.384   1.469  20.673  1.00  0.00     0.091 A 
ATOM     66  F   UNL     1      -1.138   0.079  19.469  1.00  0.00    -0.205 F 
ATOM     67  C   UNL     1       0.892   2.752  20.933  1.00  0.00     0.022 A 
BRANCH  65  68
ATOM     68  S   UNL     1       1.101   0.111  21.605  1.00  0.00     0.127 S 
ATOM     69  O   UNL     1       2.458   0.064  21.059  1.00  0.00    -0.237 OA
ATOM     70  O   UNL     1       1.014   0.605  22.979  1.00  0.00    -0.237 OA
ATOM     71  O   UNL     1       0.278  -1.055  21.320  1.00  0.00    -0.744 OA
ENDBRANCH  65  68
ENDBRANCH  47  61
BRANCH  48  72
ATOM     72  C   UNL     1      -9.055   1.596  12.982  1.00  0.00     0.023 A 
ATOM     73  C   UNL     1     -10.154   2.461  13.154  1.00  0.00     0.012 A 
ATOM     74  C   UNL     1      -9.077   0.663  11.926  1.00  0.00     0.148 A 
ATOM     75  C   UNL     1     -11.261   2.384  12.307  1.00  0.00     0.002 A 
ATOM     76  C   UNL     1     -10.155   0.632  11.050  1.00  0.00     0.091 A 
ATOM     77  F   UNL     1      -8.030  -0.163  11.788  1.00  0.00    -0.205 F 
ATOM     78  C   UNL     1     -11.256   1.479  11.249  1.00  0.00     0.022 A 
BRANCH  76  79
ATOM     79  S   UNL     1     -10.179  -0.400   9.579  1.00  0.00     0.127 S 
ATOM     80  O   UNL     1     -11.279  -1.315   9.872  1.00  0.00    -0.237 OA
ATOM     81  O   UNL     1     -10.456   0.583   8.531  1.00  0.00    -0.237 OA
ATOM     82  O   UNL     1      -8.858  -1.009   9.501  1.00  0.00    -0.744 OA
ENDBRANCH  76  79
ENDBRANCH  48  72
BRANCH  60  83
ATOM     83  C   UNL     1      -8.159   0.615  19.863  1.00  0.00     0.023 A 
ATOM     84  C   UNL     1      -8.531  -0.741  19.944  1.00  0.00     0.012 A 
ATOM     85  C   UNL     1      -8.528   1.495  20.903  1.00  0.00     0.148 A 
ATOM     86  C   UNL     1      -9.268  -1.212  21.030  1.00  0.00     0.002 A 
ATOM     87  C   UNL     1      -9.216   1.007  22.008  1.00  0.00     0.091 A 
ATOM     88  F   UNL     1      -8.173   2.784  20.804  1.00  0.00    -0.205 F 
ATOM     89  C   UNL     1      -9.597  -0.343  22.068  1.00  0.00     0.022 A 
BRANCH  87  90
ATOM     90  S   UNL     1      -9.589   2.020  23.445  1.00  0.00     0.127 S 
ATOM     91  O   UNL     1     -11.049   2.079  23.397  1.00  0.00    -0.237 OA
ATOM     92  O   UNL     1      -9.047   1.213  24.539  1.00  0.00    -0.237 OA
ATOM     93  O   UNL     1      -8.911   3.291  23.232  1.00  0.00    -0.744 OA
ENDBRANCH  87  90
ENDBRANCH  60  83
ENDBRANCH  34  35
ENDBRANCH  27  29
ENDBRANCH  26  27
ENDBRANCH  25  26
ENDBRANCH   1  25
TORSDOF 18
