REMARK SMILES Cn1cc(NC(=O)N2Cc3nc[nH]c3C[C@@H]2C(=O)OCCOCCOC(=O)c2ccc(-c3c4nc(c(-c5cccc(S(=O)(=O)[O-])c5F)c5ccc([nH]5)c(-c5cccc(S(=O)(=O)[O-])c5F)c5nc(c(-c6cccc(S(=O)(=O)[O-])c6F)c6ccc3[nH]6)C=C5)C=C4)cc2)cn1
REMARK SMILES IDX 23 1 22 2 21 3 20 4 19 5 17 6 18 7 16 8 8 9 9 10 10 11 15 12
REMARK SMILES IDX 11 13 14 14 12 15 13 16 6 18 5 19 7 21 4 22 1 23 2 24 3 25
REMARK SMILES IDX 92 26 91 27 24 28 25 29 26 30 27 31 28 32 29 33 90 34 30 35
REMARK SMILES IDX 89 36 31 37 32 38 33 39 83 40 34 41 88 42 82 43 84 44 35 45
REMARK SMILES IDX 87 46 81 47 80 48 36 50 68 51 48 52 67 53 49 54 52 55 66 56
REMARK SMILES IDX 85 57 50 58 51 59 65 61 86 62 53 63 37 64 38 65 46 66 39 67
REMARK SMILES IDX 41 68 47 69 40 70 42 71 43 72 44 73 45 74 69 75 70 76 78 77
REMARK SMILES IDX 71 78 73 79 79 80 72 81 74 82 75 83 76 84 77 85 54 86 55 87
REMARK SMILES IDX 63 88 56 89 58 90 64 91 57 92 59 93 60 94 61 95 62 96
REMARK H PARENT 13 17 5 20 84 49 52 60
REMARK Flexibility Score: inf
ROOT
ATOM      1  C   UNL     1       1.190  -0.791   2.963  1.00  0.00     0.202 C 
ENDROOT
BRANCH   1   2
ATOM      2  O   UNL     1       1.729  -1.428   4.114  1.00  0.00    -0.374 OA
BRANCH   2   3
ATOM      3  C   UNL     1       2.659  -0.742   4.952  1.00  0.00     0.202 C 
BRANCH   3   4
ATOM      4  C   UNL     1       3.973  -0.235   4.350  1.00  0.00     0.261 C 
BRANCH   4   5
ATOM      5  O   UNL     1       3.756   0.700   3.280  1.00  0.00    -0.462 OA
BRANCH   5   6
ATOM      6  C   UNL     1       4.263   0.330   2.063  1.00  0.00     0.329 C 
ATOM      7  O   UNL     1       4.992  -0.637   1.889  1.00  0.00    -0.250 OA
BRANCH   6   8
ATOM      8  C   UNL     1       3.683   1.232   0.950  1.00  0.00     0.203 C 
ATOM      9  N   UNL     1       3.970   0.644  -0.412  1.00  0.00    -0.304 N 
ATOM     10  C   UNL     1       4.399   1.441  -1.567  1.00  0.00     0.180 C 
ATOM     11  C   UNL     1       4.380   2.888  -1.282  1.00  0.00     0.081 A 
ATOM     12  C   UNL     1       4.178   2.678   1.224  1.00  0.00     0.093 C 
ATOM     13  N   UNL     1       4.442   3.868  -2.235  1.00  0.00    -0.240 NA
ATOM     14  C   UNL     1       4.262   3.437  -0.033  1.00  0.00     0.042 A 
ATOM     15  C   UNL     1       4.351   4.999  -1.567  1.00  0.00     0.197 A 
ATOM     16  N   UNL     1       4.236   4.788  -0.217  1.00  0.00    -0.348 N 
ATOM     17  H   UNL     1       4.151   5.477   0.482  1.00  0.00     0.167 HD
BRANCH   9  18
ATOM     18  C   UNL     1       3.703  -0.669  -0.720  1.00  0.00     0.323 C 
ATOM     19  N   UNL     1       2.474  -1.183  -0.442  1.00  0.00    -0.305 N 
ATOM     20  H   UNL     1       2.451  -2.126  -0.160  1.00  0.00     0.171 HD
ATOM     21  O   UNL     1       4.532  -1.384  -1.285  1.00  0.00    -0.248 OA
BRANCH  19  22
ATOM     22  C   UNL     1       1.253  -0.536  -0.508  1.00  0.00     0.081 A 
ATOM     23  C   UNL     1      -2.321  -0.330  -0.120  1.00  0.00     0.173 C 
ATOM     24  N   UNL     1      -0.910  -0.199  -0.389  1.00  0.00    -0.274 N 
ATOM     25  C   UNL     1       0.048  -1.167  -0.293  1.00  0.00     0.134 A 
ATOM     26  N   UNL     1      -0.418   1.005  -0.716  1.00  0.00    -0.180 NA
ATOM     27  C   UNL     1       0.894   0.793  -0.825  1.00  0.00     0.161 A 
ENDBRANCH  19  22
ENDBRANCH   9  18
ENDBRANCH   6   8
ENDBRANCH   5   6
ENDBRANCH   4   5
ENDBRANCH   3   4
ENDBRANCH   2   3
ENDBRANCH   1   2
BRANCH   1  28
ATOM     28  C   UNL     1       0.265   0.409   3.120  1.00  0.00     0.261 C 
BRANCH  28  29
ATOM     29  O   UNL     1       0.798   1.387   3.987  1.00  0.00    -0.460 OA
BRANCH  29  30
ATOM     30  C   UNL     1       0.312   1.292   5.238  1.00  0.00     0.338 C 
ATOM     31  O   UNL     1      -0.278   0.330   5.737  1.00  0.00    -0.246 OA
BRANCH  30  32
ATOM     32  C   UNL     1       0.456   2.580   5.898  1.00  0.00     0.060 A 
ATOM     33  C   UNL     1       0.007   2.638   7.218  1.00  0.00     0.016 A 
ATOM     34  C   UNL     1       0.593   3.718   5.090  1.00  0.00     0.016 A 
ATOM     35  C   UNL     1      -0.613   3.792   7.620  1.00  0.00     0.010 A 
ATOM     36  C   UNL     1      -0.035   4.863   5.491  1.00  0.00     0.010 A 
ATOM     37  C   UNL     1      -0.728   4.838   6.697  1.00  0.00    -0.014 A 
BRANCH  37  38
ATOM     38  C   UNL     1      -1.446   6.024   7.090  1.00  0.00     0.031 A 
ATOM     39  C   UNL     1      -0.601   6.816   8.009  1.00  0.00     0.074 A 
ATOM     40  C   UNL     1      -2.648   6.346   6.573  1.00  0.00     0.049 A 
ATOM     41  N   UNL     1      -0.673   6.834   9.300  1.00  0.00    -0.248 NA
ATOM     42  C   UNL     1       0.664   7.361   7.479  1.00  0.00     0.031 C 
ATOM     43  C   UNL     1      -3.371   5.716   5.463  1.00  0.00     0.029 A 
ATOM     44  N   UNL     1      -3.447   7.400   6.872  1.00  0.00    -0.354 N 
ATOM     45  C   UNL     1       0.362   7.678   9.684  1.00  0.00     0.074 A 
ATOM     46  C   UNL     1       1.308   7.659   8.608  1.00  0.00     0.031 C 
ATOM     47  C   UNL     1      -4.334   6.563   5.021  1.00  0.00     0.029 A 
ATOM     48  C   UNL     1      -4.376   7.728   5.888  1.00  0.00     0.049 A 
ATOM     49  H   UNL     1      -3.376   7.895   7.719  1.00  0.00     0.167 HD
ATOM     50  C   UNL     1       0.144   8.630  10.631  1.00  0.00     0.034 A 
ATOM     51  C   UNL     1      -5.044   8.910   5.774  1.00  0.00     0.034 A 
ATOM     52  C   UNL     1      -1.051   8.326  11.385  1.00  0.00     0.049 A 
ATOM     53  C   UNL     1      -4.940   9.594   7.087  1.00  0.00     0.074 A 
ATOM     54  C   UNL     1      -1.480   7.256  12.145  1.00  0.00     0.029 A 
ATOM     55  N   UNL     1      -2.180   9.025  11.031  1.00  0.00    -0.354 N 
ATOM     56  N   UNL     1      -5.493   9.133   8.174  1.00  0.00    -0.248 NA
ATOM     57  C   UNL     1      -3.805  10.484   7.285  1.00  0.00     0.031 C 
ATOM     58  C   UNL     1      -2.865   7.115  11.835  1.00  0.00     0.029 A 
ATOM     59  C   UNL     1      -3.238   8.159  10.987  1.00  0.00     0.049 A 
ATOM     60  H   UNL     1      -2.220   9.991  10.841  1.00  0.00     0.167 HD
ATOM     61  C   UNL     1      -4.504   9.268   9.140  1.00  0.00     0.074 A 
ATOM     62  C   UNL     1      -3.517  10.178   8.553  1.00  0.00     0.031 C 
ATOM     63  C   UNL     1      -4.412   8.378  10.171  1.00  0.00     0.034 A 
BRANCH  50  64
ATOM     64  C   UNL     1       0.698  10.042  10.563  1.00  0.00     0.023 A 
ATOM     65  C   UNL     1       0.423  10.875  11.668  1.00  0.00     0.012 A 
ATOM     66  C   UNL     1       1.214  10.677   9.405  1.00  0.00     0.148 A 
ATOM     67  C   UNL     1       0.581  12.263  11.599  1.00  0.00     0.002 A 
ATOM     68  C   UNL     1       1.438  12.046   9.363  1.00  0.00     0.091 A 
ATOM     69  F   UNL     1       1.387   9.998   8.272  1.00  0.00    -0.205 F 
ATOM     70  C   UNL     1       1.091  12.850  10.447  1.00  0.00     0.022 A 
BRANCH  68  71
ATOM     71  S   UNL     1       2.124  12.847   7.904  1.00  0.00     0.127 S 
ATOM     72  O   UNL     1       0.986  13.638   7.444  1.00  0.00    -0.237 OA
ATOM     73  O   UNL     1       3.225  13.616   8.483  1.00  0.00    -0.237 OA
ATOM     74  O   UNL     1       2.549  11.772   7.016  1.00  0.00    -0.744 OA
ENDBRANCH  68  71
ENDBRANCH  50  64
BRANCH  51  75
ATOM     75  C   UNL     1      -5.437   9.668   4.553  1.00  0.00     0.023 A 
ATOM     76  C   UNL     1      -6.374  10.723   4.643  1.00  0.00     0.012 A 
ATOM     77  C   UNL     1      -4.673   9.570   3.370  1.00  0.00     0.148 A 
ATOM     78  C   UNL     1      -6.523  11.656   3.605  1.00  0.00     0.002 A 
ATOM     79  C   UNL     1      -4.824  10.497   2.341  1.00  0.00     0.091 A 
ATOM     80  F   UNL     1      -3.729   8.625   3.293  1.00  0.00    -0.205 F 
ATOM     81  C   UNL     1      -5.742  11.549   2.458  1.00  0.00     0.022 A 
BRANCH  79  82
ATOM     82  S   UNL     1      -3.816  10.444   0.852  1.00  0.00     0.127 S 
ATOM     83  O   UNL     1      -4.832  10.486  -0.200  1.00  0.00    -0.237 OA
ATOM     84  O   UNL     1      -3.019  11.661   0.983  1.00  0.00    -0.237 OA
ATOM     85  O   UNL     1      -3.070   9.194   0.920  1.00  0.00    -0.744 OA
ENDBRANCH  79  82
ENDBRANCH  51  75
BRANCH  63  86
ATOM     86  C   UNL     1      -5.556   7.418  10.381  1.00  0.00     0.023 A 
ATOM     87  C   UNL     1      -5.892   6.388   9.475  1.00  0.00     0.012 A 
ATOM     88  C   UNL     1      -6.200   7.466  11.625  1.00  0.00     0.148 A 
ATOM     89  C   UNL     1      -6.864   5.437   9.807  1.00  0.00     0.002 A 
ATOM     90  C   UNL     1      -7.128   6.495  11.969  1.00  0.00     0.091 A 
ATOM     91  F   UNL     1      -5.863   8.452  12.470  1.00  0.00    -0.205 F 
ATOM     92  C   UNL     1      -7.473   5.483  11.060  1.00  0.00     0.022 A 
BRANCH  90  93
ATOM     93  S   UNL     1      -7.843   6.440  13.611  1.00  0.00     0.127 S 
ATOM     94  O   UNL     1      -9.211   6.887  13.361  1.00  0.00    -0.237 OA
ATOM     95  O   UNL     1      -7.713   5.024  13.960  1.00  0.00    -0.237 OA
ATOM     96  O   UNL     1      -7.033   7.331  14.433  1.00  0.00    -0.744 OA
ENDBRANCH  90  93
ENDBRANCH  63  86
ENDBRANCH  37  38
ENDBRANCH  30  32
ENDBRANCH  29  30
ENDBRANCH  28  29
ENDBRANCH   1  28
TORSDOF 19
