REMARK SMILES C[C@@H](C(=O)OCCOCCOC(=O)c1ccc(-c2c3nc(c(-c4cccc(S(=O)(=O)[O-])c4F)c4ccc([nH]4)c(-c4cccc(S(=O)(=O)[O-])c4F)c4nc(c(-c5cccc(S(=O)(=O)[O-])c5F)c5ccc2[nH]5)C=C4)C=C3)cc1)c1ccc(-c2cccc(OC(=O)NC3CC3)c2)c(F)c1
REMARK SMILES IDX 7 1 6 2 5 3 3 4 4 5 2 6 1 7 77 8 78 9 96 10 79 11 94 12
REMARK SMILES IDX 80 13 95 14 81 15 82 16 93 17 83 18 85 19 84 20 86 21 87 22
REMARK SMILES IDX 88 23 89 24 90 26 91 27 92 28 8 29 9 30 10 31 11 32 12 33
REMARK SMILES IDX 13 34 14 35 15 36 76 37 16 38 75 39 17 40 18 41 19 42 69 43
REMARK SMILES IDX 20 44 74 45 68 46 70 47 21 48 73 49 67 50 66 51 22 53 54 54
REMARK SMILES IDX 34 55 53 56 35 57 38 58 52 59 71 60 36 61 37 62 51 64 72 65
REMARK SMILES IDX 39 66 23 67 24 68 32 69 25 70 27 71 33 72 26 73 28 74 29 75
REMARK SMILES IDX 30 76 31 77 55 78 56 79 64 80 57 81 59 82 65 83 58 84 60 85
REMARK SMILES IDX 61 86 62 87 63 88 40 89 41 90 49 91 42 92 44 93 50 94 43 95
REMARK SMILES IDX 45 96 46 97 47 98 48 99
REMARK H PARENT 89 25 70 52 38 63
REMARK Flexibility Score: inf
ROOT
ATOM      1  C   UNL     1       2.425   3.298   3.239  1.00  0.00     0.202 C 
ENDROOT
BRANCH   1   2
ATOM      2  C   UNL     1       2.339   1.838   3.699  1.00  0.00     0.261 C 
BRANCH   2   3
ATOM      3  O   UNL     1       2.019   0.957   2.602  1.00  0.00    -0.463 OA
BRANCH   3   4
ATOM      4  C   UNL     1       0.906   0.187   2.753  1.00  0.00     0.313 C 
ATOM      5  O   UNL     1       0.257   0.116   3.792  1.00  0.00    -0.252 OA
BRANCH   4   6
ATOM      6  C   UNL     1       0.528  -0.573   1.470  1.00  0.00     0.126 C 
ATOM      7  C   UNL     1       1.271  -0.150   0.201  1.00  0.00     0.025 C 
BRANCH   6   8
ATOM      8  C   UNL     1      -0.983  -0.528   1.250  1.00  0.00    -0.031 A 
ATOM      9  C   UNL     1      -1.655   0.676   0.988  1.00  0.00     0.005 A 
ATOM     10  C   UNL     1      -1.750  -1.685   1.404  1.00  0.00     0.044 A 
ATOM     11  C   UNL     1      -3.049   0.751   0.993  1.00  0.00     0.012 A 
ATOM     12  C   UNL     1      -3.143  -1.610   1.379  1.00  0.00     0.131 A 
ATOM     13  C   UNL     1      -3.822  -0.391   1.224  1.00  0.00     0.018 A 
ATOM     14  F   UNL     1      -3.833  -2.748   1.552  1.00  0.00    -0.206 F 
BRANCH  13  15
ATOM     15  C   UNL     1      -5.274  -0.278   1.419  1.00  0.00    -0.012 A 
ATOM     16  C   UNL     1      -6.104   0.422   0.528  1.00  0.00     0.009 A 
ATOM     17  C   UNL     1      -5.853  -0.828   2.576  1.00  0.00     0.056 A 
ATOM     18  C   UNL     1      -7.473   0.555   0.780  1.00  0.00     0.004 A 
ATOM     19  C   UNL     1      -7.213  -0.696   2.827  1.00  0.00     0.133 A 
ATOM     20  C   UNL     1      -8.028  -0.006   1.930  1.00  0.00     0.047 A 
BRANCH  19  21
ATOM     21  O   UNL     1      -7.864  -1.233   3.963  1.00  0.00    -0.410 OA
BRANCH  21  22
ATOM     22  C   UNL     1      -7.282  -2.035   4.941  1.00  0.00     0.412 C 
ATOM     23  O   UNL     1      -6.091  -2.314   5.045  1.00  0.00    -0.224 OA
ATOM     24  N   UNL     1      -8.173  -2.554   5.842  1.00  0.00    -0.318 N 
ATOM     25  H   UNL     1      -7.781  -3.158   6.514  1.00  0.00     0.167 HD
BRANCH  24  26
ATOM     26  C   UNL     1      -9.576  -2.353   5.958  1.00  0.00     0.085 C 
ATOM     27  C   UNL     1     -10.531  -1.981   4.861  1.00  0.00     0.027 C 
ATOM     28  C   UNL     1     -10.497  -3.390   5.366  1.00  0.00     0.027 C 
ENDBRANCH  24  26
ENDBRANCH  21  22
ENDBRANCH  19  21
ENDBRANCH  13  15
ENDBRANCH   6   8
ENDBRANCH   4   6
ENDBRANCH   3   4
ENDBRANCH   2   3
ENDBRANCH   1   2
BRANCH   1  29
ATOM     29  O   UNL     1       1.215   3.946   2.836  1.00  0.00    -0.374 OA
BRANCH  29  30
ATOM     30  C   UNL     1       0.602   3.482   1.640  1.00  0.00     0.202 C 
BRANCH  30  31
ATOM     31  C   UNL     1       1.163   3.962   0.296  1.00  0.00     0.261 C 
BRANCH  31  32
ATOM     32  O   UNL     1       2.563   3.696   0.153  1.00  0.00    -0.460 OA
BRANCH  32  33
ATOM     33  C   UNL     1       3.345   4.787   0.347  1.00  0.00     0.338 C 
ATOM     34  O   UNL     1       2.976   5.937   0.517  1.00  0.00    -0.246 OA
BRANCH  33  35
ATOM     35  C   UNL     1       4.745   4.370   0.525  1.00  0.00     0.060 A 
ATOM     36  C   UNL     1       5.383   4.783   1.702  1.00  0.00     0.016 A 
ATOM     37  C   UNL     1       5.435   3.650  -0.451  1.00  0.00     0.016 A 
ATOM     38  C   UNL     1       6.737   4.528   1.883  1.00  0.00     0.010 A 
ATOM     39  C   UNL     1       6.799   3.405  -0.271  1.00  0.00     0.010 A 
ATOM     40  C   UNL     1       7.461   3.881   0.876  1.00  0.00    -0.014 A 
BRANCH  40  41
ATOM     41  C   UNL     1       8.939   3.849   0.963  1.00  0.00     0.031 A 
ATOM     42  C   UNL     1       9.736   4.817   0.134  1.00  0.00     0.074 A 
ATOM     43  C   UNL     1       9.556   2.990   1.794  1.00  0.00     0.049 A 
ATOM     44  N   UNL     1      11.031   4.960   0.048  1.00  0.00    -0.248 NA
ATOM     45  C   UNL     1       8.970   5.750  -0.711  1.00  0.00     0.031 C 
ATOM     46  C   UNL     1       8.883   2.023   2.659  1.00  0.00     0.029 A 
ATOM     47  N   UNL     1      10.891   2.786   2.030  1.00  0.00    -0.354 N 
ATOM     48  C   UNL     1      11.239   5.968  -0.886  1.00  0.00     0.074 A 
ATOM     49  C   UNL     1       9.937   6.398  -1.344  1.00  0.00     0.031 C 
ATOM     50  C   UNL     1       9.812   1.309   3.318  1.00  0.00     0.029 A 
ATOM     51  C   UNL     1      11.141   1.748   2.896  1.00  0.00     0.049 A 
ATOM     52  H   UNL     1      11.601   3.329   1.619  1.00  0.00     0.167 HD
ATOM     53  C   UNL     1      12.410   6.494  -1.315  1.00  0.00     0.034 A 
ATOM     54  C   UNL     1      12.310   1.200   3.281  1.00  0.00     0.034 A 
ATOM     55  C   UNL     1      13.700   6.074  -0.840  1.00  0.00     0.049 A 
ATOM     56  C   UNL     1      13.598   1.784   2.762  1.00  0.00     0.074 A 
ATOM     57  C   UNL     1      14.945   6.579  -1.172  1.00  0.00     0.029 A 
ATOM     58  N   UNL     1      13.915   5.036   0.053  1.00  0.00    -0.354 N 
ATOM     59  N   UNL     1      13.779   2.808   1.964  1.00  0.00    -0.248 NA
ATOM     60  C   UNL     1      14.844   1.155   3.222  1.00  0.00     0.031 C 
ATOM     61  C   UNL     1      15.914   5.816  -0.515  1.00  0.00     0.029 A 
ATOM     62  C   UNL     1      15.273   4.869   0.267  1.00  0.00     0.049 A 
ATOM     63  H   UNL     1      13.207   4.497   0.473  1.00  0.00     0.167 HD
ATOM     64  C   UNL     1      15.156   2.972   1.859  1.00  0.00     0.074 A 
ATOM     65  C   UNL     1      15.761   1.952   2.690  1.00  0.00     0.031 C 
ATOM     66  C   UNL     1      15.858   3.879   1.135  1.00  0.00     0.034 A 
BRANCH  53  67
ATOM     67  C   UNL     1      12.353   7.585  -2.353  1.00  0.00     0.023 A 
ATOM     68  C   UNL     1      11.888   8.869  -2.005  1.00  0.00     0.012 A 
ATOM     69  C   UNL     1      12.817   7.349  -3.662  1.00  0.00     0.148 A 
ATOM     70  C   UNL     1      11.856   9.893  -2.952  1.00  0.00     0.002 A 
ATOM     71  C   UNL     1      12.828   8.386  -4.586  1.00  0.00     0.091 A 
ATOM     72  F   UNL     1      13.234   6.115  -3.980  1.00  0.00    -0.205 F 
ATOM     73  C   UNL     1      12.337   9.655  -4.237  1.00  0.00     0.022 A 
BRANCH  71  74
ATOM     74  S   UNL     1      13.502   8.202  -6.241  1.00  0.00     0.127 S 
ATOM     75  O   UNL     1      12.296   8.306  -7.063  1.00  0.00    -0.237 OA
ATOM     76  O   UNL     1      14.403   9.351  -6.333  1.00  0.00    -0.237 OA
ATOM     77  O   UNL     1      14.162   6.905  -6.266  1.00  0.00    -0.744 OA
ENDBRANCH  71  74
ENDBRANCH  53  67
BRANCH  54  78
ATOM     78  C   UNL     1      12.319   0.047   4.224  1.00  0.00     0.023 A 
ATOM     79  C   UNL     1      12.837   0.211   5.523  1.00  0.00     0.012 A 
ATOM     80  C   UNL     1      11.813  -1.210   3.841  1.00  0.00     0.148 A 
ATOM     81  C   UNL     1      12.883  -0.864   6.411  1.00  0.00     0.002 A 
ATOM     82  C   UNL     1      11.809  -2.262   4.748  1.00  0.00     0.091 A 
ATOM     83  F   UNL     1      11.338  -1.350   2.595  1.00  0.00    -0.205 F 
ATOM     84  C   UNL     1      12.362  -2.097   6.028  1.00  0.00     0.022 A 
BRANCH  82  85
ATOM     85  S   UNL     1      11.045  -3.846   4.386  1.00  0.00     0.127 S 
ATOM     86  O   UNL     1      12.205  -4.731   4.325  1.00  0.00    -0.237 OA
ATOM     87  O   UNL     1      10.182  -4.036   5.552  1.00  0.00    -0.237 OA
ATOM     88  O   UNL     1      10.327  -3.660   3.132  1.00  0.00    -0.744 OA
ENDBRANCH  82  85
ENDBRANCH  54  78
BRANCH  66  89
ATOM     89  C   UNL     1      17.361   3.851   1.244  1.00  0.00     0.023 A 
ATOM     90  C   UNL     1      18.094   2.798   0.662  1.00  0.00     0.012 A 
ATOM     91  C   UNL     1      18.050   4.913   1.863  1.00  0.00     0.148 A 
ATOM     92  C   UNL     1      19.487   2.783   0.730  1.00  0.00     0.002 A 
ATOM     93  C   UNL     1      19.439   4.920   1.877  1.00  0.00     0.091 A 
ATOM     94  F   UNL     1      17.334   5.899   2.423  1.00  0.00    -0.205 F 
ATOM     95  C   UNL     1      20.159   3.848   1.325  1.00  0.00     0.022 A 
BRANCH  93  96
ATOM     96  S   UNL     1      20.391   6.296   2.530  1.00  0.00     0.127 S 
ATOM     97  O   UNL     1      20.969   5.711   3.739  1.00  0.00    -0.237 OA
ATOM     98  O   UNL     1      21.350   6.546   1.454  1.00  0.00    -0.237 OA
ATOM     99  O   UNL     1      19.438   7.375   2.755  1.00  0.00    -0.744 OA
ENDBRANCH  93  96
ENDBRANCH  66  89
ENDBRANCH  40  41
ENDBRANCH  33  35
ENDBRANCH  32  33
ENDBRANCH  31  32
ENDBRANCH  30  31
ENDBRANCH  29  30
ENDBRANCH   1  29
TORSDOF 22
