REMARK SMILES O=C(OCCOCCOC(=O)c1cc(-c2ccn(C(F)F)c(=O)c2)ccc1O)c1ccc(-c2c3nc(c(-c4cccc(S(=O)(=O)[O-])c4F)c4ccc([nH]4)c(-c4cccc(S(=O)(=O)[O-])c4F)c4nc(c(-c5cccc(S(=O)(=O)[O-])c5F)c5ccc2[nH]5)C=C4)C=C3)cc1
REMARK SMILES IDX 5 1 4 2 3 3 2 4 1 5 29 6 30 7 91 8 31 9 90 10 32 11 33 12
REMARK SMILES IDX 34 13 84 14 35 15 89 16 83 17 85 18 36 19 88 20 82 21 81 22
REMARK SMILES IDX 37 24 69 25 49 26 68 27 50 28 53 29 67 30 86 31 51 32 52 33
REMARK SMILES IDX 66 35 87 36 54 37 38 38 39 39 47 40 40 41 42 42 48 43 41 44
REMARK SMILES IDX 43 45 44 46 45 47 46 48 70 49 71 50 79 51 72 52 74 53 80 54
REMARK SMILES IDX 73 55 75 56 76 57 77 58 78 59 55 60 56 61 64 62 57 63 59 64
REMARK SMILES IDX 65 65 58 66 60 67 61 68 62 69 63 70 6 71 7 72 8 73 9 74
REMARK SMILES IDX 10 75 11 76 12 77 13 78 27 79 14 80 26 81 25 82 28 83 15 85
REMARK SMILES IDX 16 86 24 87 17 88 22 89 18 90 23 91 19 92 20 93 21 94
REMARK H PARENT 85 23 53 34 28 84
REMARK Flexibility Score: inf
ROOT
ATOM      1  C   UNL     1       4.634   1.298  -0.180  1.00  0.00     0.202 C 
ENDROOT
BRANCH   1   2
ATOM      2  C   UNL     1       4.217   0.303  -1.261  1.00  0.00     0.261 C 
BRANCH   2   3
ATOM      3  O   UNL     1       2.856  -0.131  -1.140  1.00  0.00    -0.460 OA
BRANCH   3   4
ATOM      4  C   UNL     1       2.458  -1.316  -0.612  1.00  0.00     0.338 C 
ATOM      5  O   UNL     1       1.414  -1.831  -1.007  1.00  0.00    -0.246 OA
BRANCH   4   6
ATOM      6  C   UNL     1       3.115  -1.866   0.611  1.00  0.00     0.060 A 
ATOM      7  C   UNL     1       2.266  -2.410   1.592  1.00  0.00     0.016 A 
ATOM      8  C   UNL     1       4.492  -1.888   0.839  1.00  0.00     0.016 A 
ATOM      9  C   UNL     1       2.785  -2.921   2.786  1.00  0.00     0.010 A 
ATOM     10  C   UNL     1       5.008  -2.319   2.054  1.00  0.00     0.010 A 
ATOM     11  C   UNL     1       4.161  -2.862   3.021  1.00  0.00    -0.014 A 
BRANCH  11  12
ATOM     12  C   UNL     1       4.793  -3.585   4.136  1.00  0.00     0.031 A 
ATOM     13  C   UNL     1       5.103  -2.916   5.434  1.00  0.00     0.074 A 
ATOM     14  C   UNL     1       5.224  -4.831   3.863  1.00  0.00     0.049 A 
ATOM     15  N   UNL     1       5.619  -3.443   6.511  1.00  0.00    -0.248 NA
ATOM     16  C   UNL     1       4.816  -1.476   5.543  1.00  0.00     0.031 C 
ATOM     17  C   UNL     1       5.082  -5.497   2.562  1.00  0.00     0.029 A 
ATOM     18  N   UNL     1       5.919  -5.729   4.623  1.00  0.00    -0.354 N 
ATOM     19  C   UNL     1       5.695  -2.414   7.439  1.00  0.00     0.074 A 
ATOM     20  C   UNL     1       5.207  -1.218   6.788  1.00  0.00     0.031 C 
ATOM     21  C   UNL     1       5.719  -6.675   2.600  1.00  0.00     0.029 A 
ATOM     22  C   UNL     1       6.273  -6.864   3.935  1.00  0.00     0.049 A 
ATOM     23  H   UNL     1       6.144  -5.578   5.569  1.00  0.00     0.167 HD
ATOM     24  C   UNL     1       6.109  -2.494   8.725  1.00  0.00     0.034 A 
ATOM     25  C   UNL     1       6.949  -7.951   4.343  1.00  0.00     0.034 A 
ATOM     26  C   UNL     1       6.604  -3.706   9.323  1.00  0.00     0.049 A 
ATOM     27  C   UNL     1       7.337  -8.038   5.785  1.00  0.00     0.074 A 
ATOM     28  C   UNL     1       6.952  -3.932  10.642  1.00  0.00     0.029 A 
ATOM     29  N   UNL     1       6.840  -4.887   8.635  1.00  0.00    -0.354 N 
ATOM     30  N   UNL     1       7.197  -7.130   6.721  1.00  0.00    -0.248 NA
ATOM     31  C   UNL     1       7.913  -9.305   6.251  1.00  0.00     0.031 C 
ATOM     32  C   UNL     1       7.408  -5.249  10.749  1.00  0.00     0.029 A 
ATOM     33  C   UNL     1       7.333  -5.845   9.500  1.00  0.00     0.049 A 
ATOM     34  H   UNL     1       6.679  -5.022   7.673  1.00  0.00     0.167 HD
ATOM     35  C   UNL     1       7.638  -7.721   7.894  1.00  0.00     0.074 A 
ATOM     36  C   UNL     1       8.048  -9.070   7.552  1.00  0.00     0.031 C 
ATOM     37  C   UNL     1       7.700  -7.191   9.138  1.00  0.00     0.034 A 
BRANCH  24  38
ATOM     38  C   UNL     1       5.946  -1.294   9.618  1.00  0.00     0.023 A 
ATOM     39  C   UNL     1       4.661  -1.014  10.126  1.00  0.00     0.012 A 
ATOM     40  C   UNL     1       7.054  -0.569  10.098  1.00  0.00     0.148 A 
ATOM     41  C   UNL     1       4.479  -0.034  11.101  1.00  0.00     0.002 A 
ATOM     42  C   UNL     1       6.868   0.392  11.088  1.00  0.00     0.091 A 
ATOM     43  F   UNL     1       8.266  -0.853   9.602  1.00  0.00    -0.205 F 
ATOM     44  C   UNL     1       5.583   0.659  11.590  1.00  0.00     0.022 A 
BRANCH  42  45
ATOM     45  S   UNL     1       8.223   1.305  11.837  1.00  0.00     0.127 S 
ATOM     46  O   UNL     1       7.880   2.684  11.487  1.00  0.00    -0.237 OA
ATOM     47  O   UNL     1       8.065   0.980  13.254  1.00  0.00    -0.237 OA
ATOM     48  O   UNL     1       9.442   0.801  11.220  1.00  0.00    -0.744 OA
ENDBRANCH  42  45
ENDBRANCH  24  38
BRANCH  25  49
ATOM     49  C   UNL     1       7.141  -9.066   3.382  1.00  0.00     0.023 A 
ATOM     50  C   UNL     1       6.247 -10.152   3.412  1.00  0.00     0.012 A 
ATOM     51  C   UNL     1       8.090  -8.976   2.345  1.00  0.00     0.148 A 
ATOM     52  C   UNL     1       6.296 -11.135   2.425  1.00  0.00     0.002 A 
ATOM     53  C   UNL     1       8.112  -9.942   1.346  1.00  0.00     0.091 A 
ATOM     54  F   UNL     1       8.918  -7.921   2.334  1.00  0.00    -0.205 F 
ATOM     55  C   UNL     1       7.219 -11.025   1.387  1.00  0.00     0.022 A 
BRANCH  53  56
ATOM     56  S   UNL     1       9.184  -9.826  -0.091  1.00  0.00     0.127 S 
ATOM     57  O   UNL     1      10.101 -10.941   0.133  1.00  0.00    -0.237 OA
ATOM     58  O   UNL     1       8.238 -10.019  -1.191  1.00  0.00    -0.237 OA
ATOM     59  O   UNL     1       9.781  -8.499  -0.035  1.00  0.00    -0.744 OA
ENDBRANCH  53  56
ENDBRANCH  25  49
BRANCH  37  60
ATOM     60  C   UNL     1       8.233  -8.055  10.241  1.00  0.00     0.023 A 
ATOM     61  C   UNL     1       9.626  -8.181  10.397  1.00  0.00     0.012 A 
ATOM     62  C   UNL     1       7.365  -8.593  11.210  1.00  0.00     0.148 A 
ATOM     63  C   UNL     1      10.151  -8.831  11.511  1.00  0.00     0.002 A 
ATOM     64  C   UNL     1       7.896  -9.210  12.333  1.00  0.00     0.091 A 
ATOM     65  F   UNL     1       6.044  -8.454  11.029  1.00  0.00    -0.205 F 
ATOM     66  C   UNL     1       9.288  -9.332  12.484  1.00  0.00     0.022 A 
BRANCH  64  67
ATOM     67  S   UNL     1       6.875  -9.820  13.678  1.00  0.00     0.127 S 
ATOM     68  O   UNL     1       7.210 -11.244  13.684  1.00  0.00    -0.237 OA
ATOM     69  O   UNL     1       7.392  -9.067  14.820  1.00  0.00    -0.237 OA
ATOM     70  O   UNL     1       5.498  -9.517  13.314  1.00  0.00    -0.744 OA
ENDBRANCH  64  67
ENDBRANCH  37  60
ENDBRANCH  11  12
ENDBRANCH   4   6
ENDBRANCH   3   4
ENDBRANCH   2   3
ENDBRANCH   1   2
BRANCH   1  71
ATOM     71  O   UNL     1       4.355   0.941   1.169  1.00  0.00    -0.374 OA
BRANCH  71  72
ATOM     72  C   UNL     1       3.103   1.410   1.676  1.00  0.00     0.202 C 
BRANCH  72  73
ATOM     73  C   UNL     1       3.158   2.832   2.249  1.00  0.00     0.261 C 
BRANCH  73  74
ATOM     74  O   UNL     1       3.461   3.797   1.226  1.00  0.00    -0.460 OA
BRANCH  74  75
ATOM     75  C   UNL     1       4.747   4.242   1.187  1.00  0.00     0.342 C 
ATOM     76  O   UNL     1       5.650   3.979   1.946  1.00  0.00    -0.246 OA
BRANCH  75  77
ATOM     77  C   UNL     1       4.952   4.919  -0.114  1.00  0.00     0.102 A 
ATOM     78  C   UNL     1       5.923   4.386  -0.984  1.00  0.00     0.028 A 
ATOM     79  C   UNL     1       4.174   6.008  -0.509  1.00  0.00     0.130 A 
ATOM     80  C   UNL     1       6.061   4.901  -2.273  1.00  0.00    -0.017 A 
ATOM     81  C   UNL     1       4.346   6.558  -1.777  1.00  0.00     0.048 A 
ATOM     82  C   UNL     1       5.276   5.998  -2.657  1.00  0.00     0.012 A 
BRANCH  79  83
ATOM     83  O   UNL     1       3.258   6.547   0.346  1.00  0.00    -0.507 OA
ATOM     84  H   UNL     1       3.141   6.178   1.200  1.00  0.00     0.293 HD
ENDBRANCH  79  83
BRANCH  80  85
ATOM     85  C   UNL     1       6.992   4.323  -3.259  1.00  0.00    -0.011 A 
ATOM     86  C   UNL     1       8.311   4.873  -3.498  1.00  0.00     0.027 A 
ATOM     87  C   UNL     1       6.545   3.329  -4.047  1.00  0.00     0.080 A 
ATOM     88  C   UNL     1       9.035   4.469  -4.548  1.00  0.00     0.095 A 
ATOM     89  C   UNL     1       7.350   2.853  -5.209  1.00  0.00     0.255 A 
ATOM     90  N   UNL     1       8.562   3.495  -5.409  1.00  0.00    -0.258 N 
ATOM     91  O   UNL     1       6.879   1.978  -5.928  1.00  0.00    -0.269 OA
BRANCH  90  92
ATOM     92  C   UNL     1       9.302   3.148  -6.595  1.00  0.00     0.451 C 
ATOM     93  F   UNL     1       9.570   1.822  -6.652  1.00  0.00    -0.185 F 
ATOM     94  F   UNL     1       8.603   3.483  -7.710  1.00  0.00    -0.185 F 
ENDBRANCH  90  92
ENDBRANCH  80  85
ENDBRANCH  75  77
ENDBRANCH  74  75
ENDBRANCH  73  74
ENDBRANCH  72  73
ENDBRANCH  71  72
ENDBRANCH   1  71
TORSDOF 20
