REMARK SMILES C[C@@H](C(=O)OCCOCCOC(=O)c1ccc(-c2c3nc(c(-c4cccc(S(=O)(=O)[O-])c4F)c4ccc([nH]4)c(-c4cccc(S(=O)(=O)[O-])c4F)c4nc(c(-c5cccc(S(=O)(=O)[O-])c5F)c5ccc2[nH]5)C=C4)C=C3)cc1)c1ccc2c(c1)[nH]c1ccc(Cl)cc12
REMARK SMILES IDX 9 1 8 2 7 3 6 4 5 5 3 6 4 7 2 8 1 9 77 10 78 11 82 12 79 13
REMARK SMILES IDX 81 14 80 15 83 16 90 17 84 18 89 20 85 21 87 22 86 23 88 24
REMARK SMILES IDX 10 25 11 26 12 27 13 28 14 29 15 30 76 31 16 32 75 33 17 34
REMARK SMILES IDX 18 35 19 36 69 37 20 38 74 39 68 40 70 41 21 42 73 43 67 44
REMARK SMILES IDX 66 45 22 47 54 48 34 49 53 50 35 51 38 52 52 53 71 54 36 55
REMARK SMILES IDX 37 56 51 58 72 59 39 60 23 61 24 62 32 63 25 64 27 65 33 66
REMARK SMILES IDX 26 67 28 68 29 69 30 70 31 71 55 72 56 73 64 74 57 75 59 76
REMARK SMILES IDX 65 77 58 78 60 79 61 80 62 81 63 82 40 83 41 84 49 85 42 86
REMARK SMILES IDX 44 87 50 88 43 89 45 90 46 91 47 92 48 93
REMARK H PARENT 83 19 70 46 38 57
REMARK Flexibility Score: inf
ROOT
ATOM      1  C   UNL     1       0.673  -3.491  -1.636  1.00  0.00     0.202 C 
ENDROOT
BRANCH   1   2
ATOM      2  O   UNL     1       1.371  -3.921  -2.798  1.00  0.00    -0.374 OA
BRANCH   2   3
ATOM      3  C   UNL     1       2.510  -3.138  -3.180  1.00  0.00     0.202 C 
BRANCH   3   4
ATOM      4  C   UNL     1       2.226  -1.727  -3.715  1.00  0.00     0.261 C 
BRANCH   4   5
ATOM      5  O   UNL     1       1.802  -0.849  -2.650  1.00  0.00    -0.463 OA
BRANCH   5   6
ATOM      6  C   UNL     1       0.696  -0.090  -2.891  1.00  0.00     0.313 C 
ATOM      7  O   UNL     1       0.135  -0.018  -3.979  1.00  0.00    -0.252 OA
BRANCH   6   8
ATOM      8  C   UNL     1       0.187   0.639  -1.635  1.00  0.00     0.126 C 
ATOM      9  C   UNL     1       1.064   0.458  -0.388  1.00  0.00     0.025 C 
BRANCH   8  10
ATOM     10  C   UNL     1      -1.278   0.279  -1.371  1.00  0.00    -0.032 A 
ATOM     11  C   UNL     1      -2.307   1.127  -1.803  1.00  0.00     0.005 A 
ATOM     12  C   UNL     1      -1.620  -0.946  -0.778  1.00  0.00     0.031 A 
ATOM     13  C   UNL     1      -3.660   0.757  -1.690  1.00  0.00     0.011 A 
ATOM     14  C   UNL     1      -2.964  -1.321  -0.716  1.00  0.00     0.047 A 
ATOM     15  C   UNL     1      -3.999  -0.505  -1.158  1.00  0.00     0.007 A 
ATOM     16  N   UNL     1      -3.523  -2.489  -0.260  1.00  0.00    -0.355 N 
ATOM     17  C   UNL     1      -5.224  -1.216  -0.922  1.00  0.00     0.009 A 
ATOM     18  C   UNL     1      -4.892  -2.436  -0.330  1.00  0.00     0.047 A 
ATOM     19  H   UNL     1      -3.010  -3.260   0.074  1.00  0.00     0.167 HD
ATOM     20  C   UNL     1      -6.587  -0.933  -1.146  1.00  0.00     0.031 A 
ATOM     21  C   UNL     1      -5.843  -3.374   0.084  1.00  0.00     0.028 A 
ATOM     22  C   UNL     1      -7.550  -1.863  -0.735  1.00  0.00     0.041 A 
ATOM     23  C   UNL     1      -7.187  -3.059  -0.119  1.00  0.00     0.022 A 
ATOM     24  Cl  UNL     1      -9.220  -1.521  -0.988  1.00  0.00    -0.084 Cl
ENDBRANCH   8  10
ENDBRANCH   6   8
ENDBRANCH   5   6
ENDBRANCH   4   5
ENDBRANCH   3   4
ENDBRANCH   2   3
ENDBRANCH   1   2
BRANCH   1  25
ATOM     25  C   UNL     1       1.214  -3.950  -0.275  1.00  0.00     0.261 C 
BRANCH  25  26
ATOM     26  O   UNL     1       2.614  -3.701  -0.124  1.00  0.00    -0.460 OA
BRANCH  26  27
ATOM     27  C   UNL     1       3.384  -4.793  -0.344  1.00  0.00     0.338 C 
ATOM     28  O   UNL     1       3.000  -5.943  -0.522  1.00  0.00    -0.246 OA
BRANCH  27  29
ATOM     29  C   UNL     1       4.786  -4.389  -0.521  1.00  0.00     0.060 A 
ATOM     30  C   UNL     1       5.432  -4.827  -1.683  1.00  0.00     0.016 A 
ATOM     31  C   UNL     1       5.470  -3.647   0.443  1.00  0.00     0.016 A 
ATOM     32  C   UNL     1       6.788  -4.578  -1.858  1.00  0.00     0.010 A 
ATOM     33  C   UNL     1       6.834  -3.401   0.268  1.00  0.00     0.010 A 
ATOM     34  C   UNL     1       7.506  -3.903  -0.862  1.00  0.00    -0.014 A 
BRANCH  34  35
ATOM     35  C   UNL     1       8.984  -3.861  -0.941  1.00  0.00     0.031 A 
ATOM     36  C   UNL     1       9.784  -4.812  -0.094  1.00  0.00     0.074 A 
ATOM     37  C   UNL     1       9.600  -3.005  -1.774  1.00  0.00     0.049 A 
ATOM     38  N   UNL     1      11.080  -4.950  -0.005  1.00  0.00    -0.248 NA
ATOM     39  C   UNL     1       9.020  -5.730   0.769  1.00  0.00     0.031 C 
ATOM     40  C   UNL     1       8.926  -2.047  -2.649  1.00  0.00     0.029 A 
ATOM     41  N   UNL     1      10.935  -2.794  -2.005  1.00  0.00    -0.354 N 
ATOM     42  C   UNL     1      11.290  -5.943   0.945  1.00  0.00     0.074 A 
ATOM     43  C   UNL     1       9.989  -6.367   1.411  1.00  0.00     0.031 C 
ATOM     44  C   UNL     1       9.854  -1.333  -3.309  1.00  0.00     0.029 A 
ATOM     45  C   UNL     1      11.184  -1.765  -2.882  1.00  0.00     0.049 A 
ATOM     46  H   UNL     1      11.647  -3.327  -1.583  1.00  0.00     0.167 HD
ATOM     47  C   UNL     1      12.462  -6.462   1.379  1.00  0.00     0.034 A 
ATOM     48  C   UNL     1      12.352  -1.223  -3.278  1.00  0.00     0.034 A 
ATOM     49  C   UNL     1      13.752  -6.051   0.895  1.00  0.00     0.049 A 
ATOM     50  C   UNL     1      13.642  -1.804  -2.759  1.00  0.00     0.074 A 
ATOM     51  C   UNL     1      14.996  -6.553   1.230  1.00  0.00     0.029 A 
ATOM     52  N   UNL     1      13.965  -5.026  -0.014  1.00  0.00    -0.354 N 
ATOM     53  N   UNL     1      13.824  -2.821  -1.952  1.00  0.00    -0.248 NA
ATOM     54  C   UNL     1      14.888  -1.183  -3.231  1.00  0.00     0.031 C 
ATOM     55  C   UNL     1      15.965  -5.807   0.552  1.00  0.00     0.029 A 
ATOM     56  C   UNL     1      15.321  -4.867  -0.238  1.00  0.00     0.049 A 
ATOM     57  H   UNL     1      13.256  -4.491  -0.439  1.00  0.00     0.167 HD
ATOM     58  C   UNL     1      15.202  -2.987  -1.850  1.00  0.00     0.074 A 
ATOM     59  C   UNL     1      15.805  -1.975  -2.693  1.00  0.00     0.031 C 
ATOM     60  C   UNL     1      15.905  -3.887  -1.119  1.00  0.00     0.034 A 
BRANCH  47  61
ATOM     61  C   UNL     1      12.405  -7.542   2.428  1.00  0.00     0.023 A 
ATOM     62  C   UNL     1      11.950  -8.832   2.086  1.00  0.00     0.012 A 
ATOM     63  C   UNL     1      12.853  -7.293   3.740  1.00  0.00     0.148 A 
ATOM     64  C   UNL     1      11.912  -9.847   3.041  1.00  0.00     0.002 A 
ATOM     65  C   UNL     1      12.856  -8.321   4.674  1.00  0.00     0.091 A 
ATOM     66  F   UNL     1      13.259  -6.053   4.051  1.00  0.00    -0.205 F 
ATOM     67  C   UNL     1      12.375  -9.595   4.330  1.00  0.00     0.022 A 
BRANCH  65  68
ATOM     68  S   UNL     1      13.506  -8.117   6.336  1.00  0.00     0.127 S 
ATOM     69  O   UNL     1      12.285  -8.183   7.139  1.00  0.00    -0.237 OA
ATOM     70  O   UNL     1      14.385  -9.280   6.466  1.00  0.00    -0.237 OA
ATOM     71  O   UNL     1      14.191  -6.833   6.346  1.00  0.00    -0.744 OA
ENDBRANCH  65  68
ENDBRANCH  47  61
BRANCH  48  72
ATOM     72  C   UNL     1      12.359  -0.085  -4.239  1.00  0.00     0.023 A 
ATOM     73  C   UNL     1      12.858  -0.276  -5.542  1.00  0.00     0.012 A 
ATOM     74  C   UNL     1      11.860   1.181  -3.874  1.00  0.00     0.148 A 
ATOM     75  C   UNL     1      12.891   0.781  -6.453  1.00  0.00     0.002 A 
ATOM     76  C   UNL     1      11.842   2.213  -4.803  1.00  0.00     0.091 A 
ATOM     77  F   UNL     1      11.402   1.346  -2.625  1.00  0.00    -0.205 F 
ATOM     78  C   UNL     1      12.374   2.021  -6.087  1.00  0.00     0.022 A 
BRANCH  76  79
ATOM     79  S   UNL     1      11.080   3.803  -4.462  1.00  0.00     0.127 S 
ATOM     80  O   UNL     1      12.242   4.688  -4.416  1.00  0.00    -0.237 OA
ATOM     81  O   UNL     1      10.217   3.979  -5.631  1.00  0.00    -0.237 OA
ATOM     82  O   UNL     1      10.363   3.636  -3.206  1.00  0.00    -0.744 OA
ENDBRANCH  76  79
ENDBRANCH  48  72
BRANCH  60  83
ATOM     83  C   UNL     1      17.408  -3.857  -1.226  1.00  0.00     0.023 A 
ATOM     84  C   UNL     1      18.136  -2.804  -0.639  1.00  0.00     0.012 A 
ATOM     85  C   UNL     1      18.101  -4.916  -1.845  1.00  0.00     0.148 A 
ATOM     86  C   UNL     1      19.529  -2.787  -0.697  1.00  0.00     0.002 A 
ATOM     87  C   UNL     1      19.491  -4.919  -1.853  1.00  0.00     0.091 A 
ATOM     88  F   UNL     1      17.390  -5.901  -2.413  1.00  0.00    -0.205 F 
ATOM     89  C   UNL     1      20.206  -3.849  -1.292  1.00  0.00     0.022 A 
BRANCH  87  90
ATOM     90  S   UNL     1      20.447  -6.292  -2.506  1.00  0.00     0.127 S 
ATOM     91  O   UNL     1      21.005  -5.712  -3.727  1.00  0.00    -0.237 OA
ATOM     92  O   UNL     1      21.422  -6.525  -1.440  1.00  0.00    -0.237 OA
ATOM     93  O   UNL     1      19.502  -7.381  -2.709  1.00  0.00    -0.744 OA
ENDBRANCH  87  90
ENDBRANCH  60  83
ENDBRANCH  34  35
ENDBRANCH  27  29
ENDBRANCH  26  27
ENDBRANCH  25  26
ENDBRANCH   1  25
TORSDOF 18
