REMARK SMILES CC(C)CC[C@@]1(CC(=O)OCCOCCOC(=O)c2ccc(-c3c4nc(c(-c5cccc(S(=O)(=O)[O-])c5F)c5ccc([nH]5)c(-c5cccc(S(=O)(=O)[O-])c5F)c5nc(c(-c6cccc(S(=O)(=O)[O-])c6F)c6ccc3[nH]6)C=C5)C=C4)cc2)CCOC(C)(C)C1
REMARK SMILES IDX 12 1 11 2 10 3 8 4 9 5 7 6 6 7 82 8 88 9 83 10 85 11 84 12
REMARK SMILES IDX 86 13 87 14 5 15 4 16 2 17 1 18 3 19 13 20 14 21 15 22 16 23
REMARK SMILES IDX 17 24 18 25 19 26 20 27 81 28 21 29 80 30 22 31 23 32 24 33
REMARK SMILES IDX 74 34 25 35 79 36 73 37 75 38 26 39 78 40 72 41 71 42 27 44
REMARK SMILES IDX 59 45 39 46 58 47 40 48 43 49 57 50 76 51 41 52 42 53 56 55
REMARK SMILES IDX 77 56 44 57 28 58 29 59 37 60 30 61 32 62 38 63 31 64 33 65
REMARK SMILES IDX 34 66 35 67 36 68 60 69 61 70 69 71 62 72 64 73 70 74 63 75
REMARK SMILES IDX 65 76 66 77 67 78 68 79 45 80 46 81 54 82 47 83 49 84 55 85
REMARK SMILES IDX 48 86 50 87 51 88 52 89 53 90
REMARK H PARENT 75 43 43 54
REMARK Flexibility Score: inf
ROOT
ATOM      1  C   UNL     1       2.819  -1.091  -1.069  1.00  0.00     0.202 C 
ENDROOT
BRANCH   1   2
ATOM      2  C   UNL     1       2.876   0.175  -1.999  1.00  0.00     0.261 C 
BRANCH   2   3
ATOM      3  O   UNL     1       1.985   1.292  -1.609  1.00  0.00    -0.463 OA
BRANCH   3   4
ATOM      4  C   UNL     1       1.665   2.163  -2.612  1.00  0.00     0.306 C 
ATOM      5  O   UNL     1       2.263   2.151  -3.692  1.00  0.00    -0.252 OA
BRANCH   4   6
ATOM      6  C   UNL     1       0.454   3.156  -2.437  1.00  0.00     0.130 C 
BRANCH   6   7
ATOM      7  C   UNL     1      -0.778   3.264  -1.425  1.00  0.00    -0.014 C 
ATOM      8  C   UNL     1      -1.529   4.603  -1.778  1.00  0.00     0.036 C 
ATOM      9  C   UNL     1      -0.214   3.549   0.018  1.00  0.00     0.042 C 
ATOM     10  C   UNL     1      -2.546   5.011  -0.702  1.00  0.00     0.161 C 
ATOM     11  C   UNL     1      -1.186   4.128   1.081  1.00  0.00     0.063 C 
ATOM     12  O   UNL     1      -1.918   5.239   0.552  1.00  0.00    -0.376 OA
ATOM     13  C   UNL     1      -2.135   3.098   1.717  1.00  0.00     0.042 C 
ATOM     14  C   UNL     1      -0.342   4.707   2.235  1.00  0.00     0.042 C 
BRANCH   7  15
ATOM     15  C   UNL     1      -1.966   2.188  -1.504  1.00  0.00     0.008 C 
BRANCH  15  16
ATOM     16  C   UNL     1      -1.974   0.945  -2.418  1.00  0.00     0.003 C 
BRANCH  16  17
ATOM     17  C   UNL     1      -0.684   0.177  -2.331  1.00  0.00    -0.017 C 
ATOM     18  C   UNL     1      -0.341   0.128  -0.858  1.00  0.00     0.007 C 
ATOM     19  C   UNL     1      -0.641  -1.163  -3.043  1.00  0.00     0.007 C 
ENDBRANCH  16  17
ENDBRANCH  15  16
ENDBRANCH   7  15
ENDBRANCH   6   7
ENDBRANCH   4   6
ENDBRANCH   3   4
ENDBRANCH   2   3
ENDBRANCH   1   2
BRANCH   1  20
ATOM     20  O   UNL     1       1.680  -1.948  -1.286  1.00  0.00    -0.374 OA
BRANCH  20  21
ATOM     21  C   UNL     1       1.294  -2.830  -0.207  1.00  0.00     0.202 C 
BRANCH  21  22
ATOM     22  C   UNL     1       0.430  -2.245   0.951  1.00  0.00     0.261 C 
BRANCH  22  23
ATOM     23  O   UNL     1       1.053  -1.131   1.611  1.00  0.00    -0.460 OA
BRANCH  23  24
ATOM     24  C   UNL     1       2.070  -1.511   2.402  1.00  0.00     0.338 C 
ATOM     25  O   UNL     1       2.335  -2.675   2.724  1.00  0.00    -0.246 OA
BRANCH  24  26
ATOM     26  C   UNL     1       3.015  -0.412   2.617  1.00  0.00     0.060 A 
ATOM     27  C   UNL     1       4.339  -0.686   2.253  1.00  0.00     0.016 A 
ATOM     28  C   UNL     1       2.675   0.786   3.251  1.00  0.00     0.016 A 
ATOM     29  C   UNL     1       5.352   0.169   2.643  1.00  0.00     0.010 A 
ATOM     30  C   UNL     1       3.704   1.647   3.652  1.00  0.00     0.010 A 
ATOM     31  C   UNL     1       5.046   1.291   3.421  1.00  0.00    -0.014 A 
BRANCH  31  32
ATOM     32  C   UNL     1       6.159   1.880   4.200  1.00  0.00     0.031 A 
ATOM     33  C   UNL     1       6.315   1.475   5.642  1.00  0.00     0.074 A 
ATOM     34  C   UNL     1       7.095   2.633   3.600  1.00  0.00     0.049 A 
ATOM     35  N   UNL     1       7.266   1.770   6.488  1.00  0.00    -0.248 NA
ATOM     36  C   UNL     1       5.261   0.612   6.203  1.00  0.00     0.031 C 
ATOM     37  C   UNL     1       7.071   3.047   2.199  1.00  0.00     0.029 A 
ATOM     38  N   UNL     1       8.250   3.176   4.098  1.00  0.00    -0.354 N 
ATOM     39  C   UNL     1       6.907   1.164   7.686  1.00  0.00     0.074 A 
ATOM     40  C   UNL     1       5.647   0.493   7.463  1.00  0.00     0.031 C 
ATOM     41  C   UNL     1       8.155   3.801   1.952  1.00  0.00     0.029 A 
ATOM     42  C   UNL     1       8.932   3.939   3.183  1.00  0.00     0.049 A 
ATOM     43  H   UNL     1       8.560   3.034   5.021  1.00  0.00     0.167 HD
ATOM     44  C   UNL     1       7.573   1.153   8.865  1.00  0.00     0.034 A 
ATOM     45  C   UNL     1      10.047   4.682   3.330  1.00  0.00     0.034 A 
ATOM     46  C   UNL     1       8.841   1.796   9.073  1.00  0.00     0.049 A 
ATOM     47  C   UNL     1      10.764   4.672   4.653  1.00  0.00     0.074 A 
ATOM     48  C   UNL     1       9.623   1.809  10.213  1.00  0.00     0.029 A 
ATOM     49  N   UNL     1       9.507   2.553   8.120  1.00  0.00    -0.354 N 
ATOM     50  N   UNL     1      10.464   4.017   5.749  1.00  0.00    -0.248 NA
ATOM     51  C   UNL     1      11.992   5.473   4.749  1.00  0.00     0.031 C 
ATOM     52  C   UNL     1      10.745   2.606   9.960  1.00  0.00     0.029 A 
ATOM     53  C   UNL     1      10.681   3.057   8.651  1.00  0.00     0.049 A 
ATOM     54  H   UNL     1       9.190   2.709   7.201  1.00  0.00     0.167 HD
ATOM     55  C   UNL     1      11.477   4.305   6.657  1.00  0.00     0.074 A 
ATOM     56  C   UNL     1      12.410   5.178   5.973  1.00  0.00     0.031 C 
ATOM     57  C   UNL     1      11.617   3.894   7.943  1.00  0.00     0.034 A 
BRANCH  44  58
ATOM     58  C   UNL     1       6.927   0.427  10.017  1.00  0.00     0.023 A 
ATOM     59  C   UNL     1       6.852  -0.981  10.017  1.00  0.00     0.012 A 
ATOM     60  C   UNL     1       6.394   1.147  11.104  1.00  0.00     0.148 A 
ATOM     61  C   UNL     1       6.216  -1.658  11.058  1.00  0.00     0.002 A 
ATOM     62  C   UNL     1       5.805   0.462  12.160  1.00  0.00     0.091 A 
ATOM     63  F   UNL     1       6.447   2.486  11.074  1.00  0.00    -0.205 F 
ATOM     64  C   UNL     1       5.701  -0.938  12.132  1.00  0.00     0.022 A 
BRANCH  62  65
ATOM     65  S   UNL     1       5.184   1.303  13.621  1.00  0.00     0.127 S 
ATOM     66  O   UNL     1       3.740   1.249  13.402  1.00  0.00    -0.237 OA
ATOM     67  O   UNL     1       5.669   0.444  14.702  1.00  0.00    -0.237 OA
ATOM     68  O   UNL     1       5.776   2.633  13.596  1.00  0.00    -0.744 OA
ENDBRANCH  62  65
ENDBRANCH  44  58
BRANCH  45  69
ATOM     69  C   UNL     1      10.543   5.481   2.177  1.00  0.00     0.023 A 
ATOM     70  C   UNL     1      11.725   5.108   1.513  1.00  0.00     0.012 A 
ATOM     71  C   UNL     1       9.797   6.576   1.696  1.00  0.00     0.148 A 
ATOM     72  C   UNL     1      12.164   5.821   0.396  1.00  0.00     0.002 A 
ATOM     73  C   UNL     1      10.207   7.244   0.550  1.00  0.00     0.091 A 
ATOM     74  F   UNL     1       8.681   6.921   2.355  1.00  0.00    -0.205 F 
ATOM     75  C   UNL     1      11.399   6.878  -0.094  1.00  0.00     0.022 A 
BRANCH  73  76
ATOM     76  S   UNL     1       9.214   8.521  -0.229  1.00  0.00     0.127 S 
ATOM     77  O   UNL     1      10.056   9.702  -0.056  1.00  0.00    -0.237 OA
ATOM     78  O   UNL     1       9.119   8.027  -1.603  1.00  0.00    -0.237 OA
ATOM     79  O   UNL     1       7.950   8.538   0.494  1.00  0.00    -0.744 OA
ENDBRANCH  73  76
ENDBRANCH  45  69
BRANCH  57  80
ATOM     80  C   UNL     1      12.838   4.358   8.695  1.00  0.00     0.023 A 
ATOM     81  C   UNL     1      12.937   5.699   9.115  1.00  0.00     0.012 A 
ATOM     82  C   UNL     1      13.849   3.445   9.054  1.00  0.00     0.148 A 
ATOM     83  C   UNL     1      14.040   6.132   9.850  1.00  0.00     0.002 A 
ATOM     84  C   UNL     1      14.920   3.871   9.829  1.00  0.00     0.091 A 
ATOM     85  F   UNL     1      13.746   2.176   8.630  1.00  0.00    -0.205 F 
ATOM     86  C   UNL     1      15.024   5.216  10.217  1.00  0.00     0.022 A 
BRANCH  84  87
ATOM     87  S   UNL     1      16.180   2.741  10.431  1.00  0.00     0.127 S 
ATOM     88  O   UNL     1      17.321   3.089   9.587  1.00  0.00    -0.237 OA
ATOM     89  O   UNL     1      16.314   3.141  11.833  1.00  0.00    -0.237 OA
ATOM     90  O   UNL     1      15.642   1.401  10.237  1.00  0.00    -0.744 OA
ENDBRANCH  84  87
ENDBRANCH  57  80
ENDBRANCH  31  32
ENDBRANCH  24  26
ENDBRANCH  23  24
ENDBRANCH  22  23
ENDBRANCH  21  22
ENDBRANCH  20  21
ENDBRANCH   1  20
TORSDOF 21
