REMARK SMILES Cc1cc(N2N=C(C(=O)OCCOCCOC(=O)c3ccc(-c4c5nc(c(-c6cccc(S(=O)(=O)[O-])c6F)c6ccc([nH]6)c(-c6cccc(S(=O)(=O)[O-])c6F)c6nc(c(-c7cccc(S(=O)(=O)[O-])c7F)c7ccc4[nH]7)C=C6)C=C5)cc3)C[C@H]2c2ccccc2)c([N+](=O)[O-])cc1C
REMARK SMILES IDX 14 1 13 2 12 3 11 4 10 5 8 6 9 7 7 8 5 9 6 10 83 11 82 12
REMARK SMILES IDX 4 13 1 14 2 15 3 16 95 17 94 18 96 19 90 20 91 21 92 22
REMARK SMILES IDX 93 23 84 24 85 25 89 26 86 27 88 28 87 29 15 30 16 31 17 32
REMARK SMILES IDX 18 33 19 34 20 35 81 36 21 37 80 38 22 39 23 40 24 41 74 42
REMARK SMILES IDX 25 43 79 44 73 45 75 46 26 47 78 48 72 49 71 50 27 52 59 53
REMARK SMILES IDX 39 54 58 55 40 56 43 57 57 58 76 59 41 60 42 61 56 63 77 64
REMARK SMILES IDX 44 65 28 66 29 67 37 68 30 69 32 70 38 71 31 72 33 73 34 74
REMARK SMILES IDX 35 75 36 76 60 77 61 78 69 79 62 80 64 81 70 82 63 83 65 84
REMARK SMILES IDX 66 85 67 86 68 87 45 88 46 89 54 90 47 91 49 92 55 93 48 94
REMARK SMILES IDX 50 95 51 96 52 97 53 98
REMARK H PARENT 75 51 43 62
REMARK Flexibility Score: inf
ROOT
ATOM      1  C   UNL     1      -7.347   0.111   1.828  1.00  0.00     0.202 C 
ENDROOT
BRANCH   1   2
ATOM      2  O   UNL     1      -7.988   0.679   2.975  1.00  0.00    -0.374 OA
BRANCH   2   3
ATOM      3  C   UNL     1      -8.639   1.940   2.790  1.00  0.00     0.202 C 
BRANCH   3   4
ATOM      4  C   UNL     1      -7.712   3.152   2.892  1.00  0.00     0.261 C 
BRANCH   4   5
ATOM      5  O   UNL     1      -6.738   3.095   1.840  1.00  0.00    -0.459 OA
BRANCH   5   6
ATOM      6  C   UNL     1      -5.457   3.163   2.243  1.00  0.00     0.354 C 
ATOM      7  O   UNL     1      -5.029   3.502   3.331  1.00  0.00    -0.245 OA
BRANCH   6   8
ATOM      8  C   UNL     1      -4.565   2.624   1.153  1.00  0.00     0.148 C 
ATOM      9  N   UNL     1      -2.928   1.700   0.200  1.00  0.00    -0.250 N 
ATOM     10  N   UNL     1      -3.483   1.951   1.413  1.00  0.00    -0.169 NA
ATOM     11  C   UNL     1      -3.539   2.473  -0.896  1.00  0.00     0.144 C 
ATOM     12  C   UNL     1      -4.928   2.746  -0.298  1.00  0.00     0.098 C 
BRANCH   9  13
ATOM     13  C   UNL     1      -1.817   0.885   0.115  1.00  0.00     0.138 A 
ATOM     14  C   UNL     1       1.958   1.425   0.284  1.00  0.00     0.045 C 
ATOM     15  C   UNL     1       0.645   0.700   0.171  1.00  0.00    -0.046 A 
ATOM     16  C   UNL     1      -0.541   1.454   0.254  1.00  0.00     0.039 A 
ATOM     17  C   UNL     1       0.564  -0.691  -0.006  1.00  0.00    -0.041 A 
ATOM     18  C   UNL     1      -0.704  -1.287  -0.100  1.00  0.00     0.091 A 
ATOM     19  C   UNL     1       1.773  -1.585  -0.051  1.00  0.00     0.045 C 
ATOM     20  C   UNL     1      -1.871  -0.503  -0.045  1.00  0.00     0.294 A 
BRANCH  20  21
ATOM     21  N   UNL     1      -3.153  -1.195  -0.134  1.00  0.00     0.065 N 
ATOM     22  O   UNL     1      -3.252  -2.281   0.458  1.00  0.00    -0.258 OA
ATOM     23  O   UNL     1      -4.040  -0.707  -0.853  1.00  0.00    -0.258 OA
ENDBRANCH  20  21
ENDBRANCH   9  13
BRANCH  11  24
ATOM     24  C   UNL     1      -2.716   3.716  -1.230  1.00  0.00    -0.023 A 
ATOM     25  C   UNL     1      -3.034   5.004  -0.768  1.00  0.00     0.006 A 
ATOM     26  C   UNL     1      -1.558   3.575  -2.019  1.00  0.00     0.006 A 
ATOM     27  C   UNL     1      -2.224   6.102  -1.071  1.00  0.00     0.000 A 
ATOM     28  C   UNL     1      -0.730   4.666  -2.293  1.00  0.00     0.000 A 
ATOM     29  C   UNL     1      -1.065   5.931  -1.820  1.00  0.00     0.000 A 
ENDBRANCH  11  24
ENDBRANCH   6   8
ENDBRANCH   5   6
ENDBRANCH   4   5
ENDBRANCH   3   4
ENDBRANCH   2   3
ENDBRANCH   1   2
BRANCH   1  30
ATOM     30  C   UNL     1      -8.276  -0.609   0.842  1.00  0.00     0.261 C 
BRANCH  30  31
ATOM     31  O   UNL     1      -9.130   0.317   0.145  1.00  0.00    -0.460 OA
BRANCH  31  32
ATOM     32  C   UNL     1     -10.449   0.229   0.452  1.00  0.00     0.338 C 
ATOM     33  O   UNL     1     -10.982  -0.593   1.178  1.00  0.00    -0.246 OA
BRANCH  32  34
ATOM     34  C   UNL     1     -11.166   1.408  -0.076  1.00  0.00     0.060 A 
ATOM     35  C   UNL     1     -11.987   2.116   0.812  1.00  0.00     0.016 A 
ATOM     36  C   UNL     1     -11.078   1.794  -1.415  1.00  0.00     0.016 A 
ATOM     37  C   UNL     1     -12.749   3.192   0.357  1.00  0.00     0.010 A 
ATOM     38  C   UNL     1     -11.851   2.868  -1.872  1.00  0.00     0.010 A 
ATOM     39  C   UNL     1     -12.709   3.556  -0.995  1.00  0.00    -0.014 A 
BRANCH  39  40
ATOM     40  C   UNL     1     -13.628   4.602  -1.507  1.00  0.00     0.031 A 
ATOM     41  C   UNL     1     -14.893   4.198  -2.212  1.00  0.00     0.074 A 
ATOM     42  C   UNL     1     -13.326   5.905  -1.361  1.00  0.00     0.049 A 
ATOM     43  N   UNL     1     -15.818   4.953  -2.745  1.00  0.00    -0.248 NA
ATOM     44  C   UNL     1     -15.149   2.754  -2.335  1.00  0.00     0.031 C 
ATOM     45  C   UNL     1     -12.123   6.424  -0.711  1.00  0.00     0.029 A 
ATOM     46  N   UNL     1     -13.995   7.029  -1.779  1.00  0.00    -0.354 N 
ATOM     47  C   UNL     1     -16.753   4.081  -3.288  1.00  0.00     0.074 A 
ATOM     48  C   UNL     1     -16.280   2.738  -3.027  1.00  0.00     0.031 C 
ATOM     49  C   UNL     1     -12.120   7.764  -0.807  1.00  0.00     0.029 A 
ATOM     50  C   UNL     1     -13.310   8.197  -1.539  1.00  0.00     0.049 A 
ATOM     51  H   UNL     1     -14.879   7.001  -2.210  1.00  0.00     0.167 HD
ATOM     52  C   UNL     1     -17.910   4.371  -3.930  1.00  0.00     0.034 A 
ATOM     53  C   UNL     1     -13.598   9.467  -1.888  1.00  0.00     0.034 A 
ATOM     54  C   UNL     1     -18.395   5.704  -4.165  1.00  0.00     0.049 A 
ATOM     55  C   UNL     1     -14.883   9.761  -2.617  1.00  0.00     0.074 A 
ATOM     56  C   UNL     1     -19.595   6.094  -4.733  1.00  0.00     0.029 A 
ATOM     57  N   UNL     1     -17.698   6.864  -3.867  1.00  0.00    -0.354 N 
ATOM     58  N   UNL     1     -15.835   8.934  -2.977  1.00  0.00    -0.248 NA
ATOM     59  C   UNL     1     -15.149  11.166  -2.961  1.00  0.00     0.031 C 
ATOM     60  C   UNL     1     -19.615   7.492  -4.798  1.00  0.00     0.029 A 
ATOM     61  C   UNL     1     -18.432   7.971  -4.259  1.00  0.00     0.049 A 
ATOM     62  H   UNL     1     -16.813   6.897  -3.439  1.00  0.00     0.167 HD
ATOM     63  C   UNL     1     -16.820   9.719  -3.568  1.00  0.00     0.074 A 
ATOM     64  C   UNL     1     -16.362  11.091  -3.493  1.00  0.00     0.031 C 
ATOM     65  C   UNL     1     -17.989   9.336  -4.138  1.00  0.00     0.034 A 
BRANCH  52  66
ATOM     66  C   UNL     1     -18.761   3.220  -4.391  1.00  0.00     0.023 A 
ATOM     67  C   UNL     1     -19.524   2.502  -3.449  1.00  0.00     0.012 A 
ATOM     68  C   UNL     1     -18.860   2.894  -5.758  1.00  0.00     0.148 A 
ATOM     69  C   UNL     1     -20.358   1.462  -3.857  1.00  0.00     0.002 A 
ATOM     70  C   UNL     1     -19.721   1.879  -6.161  1.00  0.00     0.091 A 
ATOM     71  F   UNL     1     -18.106   3.573  -6.634  1.00  0.00    -0.205 F 
ATOM     72  C   UNL     1     -20.465   1.159  -5.212  1.00  0.00     0.022 A 
BRANCH  70  73
ATOM     73  S   UNL     1     -19.976   1.460  -7.889  1.00  0.00     0.127 S 
ATOM     74  O   UNL     1     -19.256   0.192  -7.993  1.00  0.00    -0.237 OA
ATOM     75  O   UNL     1     -21.432   1.342  -7.968  1.00  0.00    -0.237 OA
ATOM     76  O   UNL     1     -19.415   2.564  -8.655  1.00  0.00    -0.744 OA
ENDBRANCH  70  73
ENDBRANCH  52  66
BRANCH  53  77
ATOM     77  C   UNL     1     -12.659  10.565  -1.524  1.00  0.00     0.023 A 
ATOM     78  C   UNL     1     -13.031  11.503  -0.544  1.00  0.00     0.012 A 
ATOM     79  C   UNL     1     -11.389  10.666  -2.125  1.00  0.00     0.148 A 
ATOM     80  C   UNL     1     -12.166  12.538  -0.185  1.00  0.00     0.002 A 
ATOM     81  C   UNL     1     -10.510  11.665  -1.723  1.00  0.00     0.091 A 
ATOM     82  F   UNL     1     -11.061   9.779  -3.075  1.00  0.00    -0.205 F 
ATOM     83  C   UNL     1     -10.902  12.611  -0.765  1.00  0.00     0.022 A 
BRANCH  81  84
ATOM     84  S   UNL     1      -8.817  11.741  -2.321  1.00  0.00     0.127 S 
ATOM     85  O   UNL     1      -8.886  12.837  -3.282  1.00  0.00    -0.237 OA
ATOM     86  O   UNL     1      -8.072  12.039  -1.096  1.00  0.00    -0.237 OA
ATOM     87  O   UNL     1      -8.543  10.421  -2.874  1.00  0.00    -0.744 OA
ENDBRANCH  81  84
ENDBRANCH  53  77
BRANCH  65  88
ATOM     88  C   UNL     1     -18.867  10.410  -4.726  1.00  0.00     0.023 A 
ATOM     89  C   UNL     1     -18.501  11.011  -5.947  1.00  0.00     0.012 A 
ATOM     90  C   UNL     1     -20.089  10.765  -4.120  1.00  0.00     0.148 A 
ATOM     91  C   UNL     1     -19.323  11.967  -6.542  1.00  0.00     0.002 A 
ATOM     92  C   UNL     1     -20.924  11.687  -4.740  1.00  0.00     0.091 A 
ATOM     93  F   UNL     1     -20.411  10.196  -2.949  1.00  0.00    -0.205 F 
ATOM     94  C   UNL     1     -20.539  12.296  -5.946  1.00  0.00     0.022 A 
BRANCH  92  95
ATOM     95  S   UNL     1     -22.547  12.104  -4.090  1.00  0.00     0.127 S 
ATOM     96  O   UNL     1     -22.309  13.430  -3.522  1.00  0.00    -0.237 OA
ATOM     97  O   UNL     1     -23.378  12.097  -5.295  1.00  0.00    -0.237 OA
ATOM     98  O   UNL     1     -22.871  11.058  -3.130  1.00  0.00    -0.744 OA
ENDBRANCH  92  95
ENDBRANCH  65  88
ENDBRANCH  39  40
ENDBRANCH  32  34
ENDBRANCH  31  32
ENDBRANCH  30  31
ENDBRANCH   1  30
TORSDOF 20
