REMARK SMILES CSc1ccc(C=C2C(C)=C(CC(=O)OCCOCCOC(=O)c3ccc(-c4c5nc(c(-c6cccc(S(=O)(=O)[O-])c6F)c6ccc([nH]6)c(-c6cccc(S(=O)(=O)[O-])c6F)c6nc(c(-c7cccc(S(=O)(=O)[O-])c7F)c7ccc4[nH]7)C=C6)C=C5)cc3)c3cc(F)ccc32)cc1
REMARK SMILES IDX 18 1 17 2 16 3 15 4 13 5 14 6 12 7 11 8 7 9 8 10 9 11 93 12
REMARK SMILES IDX 10 13 87 14 92 15 88 16 91 17 89 18 90 19 6 20 3 21 4 22
REMARK SMILES IDX 95 23 5 24 94 25 2 26 1 27 19 28 20 29 21 30 22 31 23 32
REMARK SMILES IDX 24 33 25 34 86 35 26 36 85 37 27 38 28 39 29 40 79 41 30 42
REMARK SMILES IDX 84 43 78 44 80 45 31 46 83 47 77 48 76 49 32 51 64 52 44 53
REMARK SMILES IDX 63 54 45 55 48 56 62 57 81 58 46 59 47 60 61 62 82 63 49 64
REMARK SMILES IDX 33 65 34 66 42 67 35 68 37 69 43 70 36 71 38 72 39 73 40 74
REMARK SMILES IDX 41 75 65 76 66 77 74 78 67 79 69 80 75 81 68 82 70 83 71 84
REMARK SMILES IDX 72 85 73 86 50 87 51 88 59 89 52 90 54 91 60 92 53 93 55 94
REMARK SMILES IDX 56 95 57 96 58 97
REMARK H PARENT 80 50 48 61
REMARK Flexibility Score: inf
ROOT
ATOM      1  O   UNL     1       2.179   6.553   9.734  1.00  0.00    -0.374 OA
ENDROOT
BRANCH   1   2
ATOM      2  C   UNL     1       1.003   7.126   9.162  1.00  0.00     0.202 C 
BRANCH   2   3
ATOM      3  C   UNL     1       1.176   8.155   8.040  1.00  0.00     0.261 C 
BRANCH   3   4
ATOM      4  O   UNL     1       1.739   7.583   6.847  1.00  0.00    -0.463 OA
BRANCH   4   5
ATOM      5  C   UNL     1       2.933   8.096   6.441  1.00  0.00     0.310 C 
ATOM      6  O   UNL     1       3.543   8.997   7.005  1.00  0.00    -0.252 OA
BRANCH   5   7
ATOM      7  C   UNL     1       3.439   7.445   5.169  1.00  0.00     0.159 C 
BRANCH   7   8
ATOM      8  C   UNL     1       3.276   5.952   5.158  1.00  0.00    -0.025 C 
ATOM      9  C   UNL     1       3.058   5.271   2.013  1.00  0.00     0.017 C 
ATOM     10  C   UNL     1       3.149   4.715   3.243  1.00  0.00    -0.014 C 
ATOM     11  C   UNL     1       2.375   5.322   4.362  1.00  0.00    -0.039 C 
ATOM     12  C   UNL     1       4.410   4.307   3.903  1.00  0.00    -0.010 A 
ATOM     13  C   UNL     1       1.581   4.151   4.963  1.00  0.00     0.045 C 
ATOM     14  C   UNL     1       4.485   5.093   5.075  1.00  0.00    -0.011 A 
ATOM     15  C   UNL     1       5.020   3.061   3.847  1.00  0.00     0.012 A 
ATOM     16  C   UNL     1       5.239   4.700   6.170  1.00  0.00     0.048 A 
ATOM     17  C   UNL     1       5.684   2.608   4.995  1.00  0.00     0.040 A 
ATOM     18  C   UNL     1       5.793   3.426   6.130  1.00  0.00     0.123 A 
ATOM     19  F   UNL     1       6.319   2.916   7.253  1.00  0.00    -0.207 F 
BRANCH   9  20
ATOM     20  C   UNL     1       2.103   4.597   1.079  1.00  0.00    -0.025 A 
ATOM     21  C   UNL     1       0.725   2.856  -0.620  1.00  0.00     0.007 A 
ATOM     22  C   UNL     1       0.399   2.903   0.727  1.00  0.00     0.015 A 
ATOM     23  C   UNL     1       1.555   3.845  -1.154  1.00  0.00     0.015 A 
ATOM     24  C   UNL     1       1.063   3.790   1.556  1.00  0.00     0.009 A 
ATOM     25  C   UNL     1       2.252   4.716  -0.303  1.00  0.00     0.009 A 
BRANCH  21  26
ATOM     26  S   UNL     1       0.218   1.454  -1.595  1.00  0.00    -0.130 SA
ATOM     27  C   UNL     1       0.870   0.135  -0.511  1.00  0.00     0.091 C 
ENDBRANCH  21  26
ENDBRANCH   9  20
ENDBRANCH   7   8
ENDBRANCH   5   7
ENDBRANCH   4   5
ENDBRANCH   3   4
ENDBRANCH   2   3
ENDBRANCH   1   2
BRANCH   1  28
ATOM     28  C   UNL     1       2.958   5.684   8.920  1.00  0.00     0.202 C 
BRANCH  28  29
ATOM     29  C   UNL     1       2.412   4.279   8.637  1.00  0.00     0.261 C 
BRANCH  29  30
ATOM     30  O   UNL     1       1.089   4.285   8.088  1.00  0.00    -0.460 OA
BRANCH  30  31
ATOM     31  C   UNL     1       0.131   3.816   8.914  1.00  0.00     0.338 C 
ATOM     32  O   UNL     1       0.283   3.347  10.038  1.00  0.00    -0.246 OA
BRANCH  31  33
ATOM     33  C   UNL     1      -1.191   4.103   8.347  1.00  0.00     0.060 A 
ATOM     34  C   UNL     1      -2.047   4.910   9.104  1.00  0.00     0.016 A 
ATOM     35  C   UNL     1      -1.612   3.538   7.140  1.00  0.00     0.016 A 
ATOM     36  C   UNL     1      -3.354   5.112   8.683  1.00  0.00     0.010 A 
ATOM     37  C   UNL     1      -2.926   3.743   6.718  1.00  0.00     0.010 A 
ATOM     38  C   UNL     1      -3.811   4.494   7.512  1.00  0.00    -0.014 A 
BRANCH  38  39
ATOM     39  C   UNL     1      -5.258   4.523   7.212  1.00  0.00     0.031 A 
ATOM     40  C   UNL     1      -6.085   3.305   7.506  1.00  0.00     0.074 A 
ATOM     41  C   UNL     1      -5.819   5.641   6.720  1.00  0.00     0.049 A 
ATOM     42  N   UNL     1      -7.366   3.115   7.341  1.00  0.00    -0.248 NA
ATOM     43  C   UNL     1      -5.371   2.141   8.060  1.00  0.00     0.031 C 
ATOM     44  C   UNL     1      -5.097   6.873   6.401  1.00  0.00     0.029 A 
ATOM     45  N   UNL     1      -7.119   5.914   6.388  1.00  0.00    -0.354 N 
ATOM     46  C   UNL     1      -7.610   1.808   7.745  1.00  0.00     0.074 A 
ATOM     47  C   UNL     1      -6.340   1.242   8.142  1.00  0.00     0.031 C 
ATOM     48  C   UNL     1      -5.963   7.765   5.893  1.00  0.00     0.029 A 
ATOM     49  C   UNL     1      -7.290   7.157   5.828  1.00  0.00     0.049 A 
ATOM     50  H   UNL     1      -7.859   5.282   6.536  1.00  0.00     0.167 HD
ATOM     51  C   UNL     1      -8.791   1.147   7.796  1.00  0.00     0.034 A 
ATOM     52  C   UNL     1      -8.390   7.726   5.300  1.00  0.00     0.034 A 
ATOM     53  C   UNL     1     -10.044   1.730   7.400  1.00  0.00     0.049 A 
ATOM     54  C   UNL     1      -9.688   6.966   5.349  1.00  0.00     0.074 A 
ATOM     55  C   UNL     1     -11.307   1.169   7.440  1.00  0.00     0.029 A 
ATOM     56  N   UNL     1     -10.188   3.006   6.873  1.00  0.00    -0.354 N 
ATOM     57  N   UNL     1      -9.924   5.769   5.831  1.00  0.00    -0.248 NA
ATOM     58  C   UNL     1     -10.876   7.645   4.818  1.00  0.00     0.031 C 
ATOM     59  C   UNL     1     -12.209   2.093   6.901  1.00  0.00     0.029 A 
ATOM     60  C   UNL     1     -11.515   3.247   6.569  1.00  0.00     0.049 A 
ATOM     61  H   UNL     1      -9.452   3.646   6.736  1.00  0.00     0.167 HD
ATOM     62  C   UNL     1     -11.291   5.562   5.691  1.00  0.00     0.074 A 
ATOM     63  C   UNL     1     -11.832   6.770   5.098  1.00  0.00     0.031 C 
ATOM     64  C   UNL     1     -12.032   4.473   6.013  1.00  0.00     0.034 A 
BRANCH  51  65
ATOM     65  C   UNL     1      -8.775  -0.272   8.306  1.00  0.00     0.023 A 
ATOM     66  C   UNL     1      -8.508  -0.528   9.667  1.00  0.00     0.012 A 
ATOM     67  C   UNL     1      -9.048  -1.352   7.444  1.00  0.00     0.148 A 
ATOM     68  C   UNL     1      -8.470  -1.835  10.153  1.00  0.00     0.002 A 
ATOM     69  C   UNL     1      -9.056  -2.649   7.945  1.00  0.00     0.091 A 
ATOM     70  F   UNL     1      -9.277  -1.094   6.149  1.00  0.00    -0.205 F 
ATOM     71  C   UNL     1      -8.753  -2.893   9.294  1.00  0.00     0.022 A 
BRANCH  69  72
ATOM     72  S   UNL     1      -9.482  -4.074   6.939  1.00  0.00     0.127 S 
ATOM     73  O   UNL     1      -8.195  -4.762   6.841  1.00  0.00    -0.237 OA
ATOM     74  O   UNL     1     -10.474  -4.753   7.774  1.00  0.00    -0.237 OA
ATOM     75  O   UNL     1     -10.002  -3.543   5.687  1.00  0.00    -0.744 OA
ENDBRANCH  69  72
ENDBRANCH  51  65
BRANCH  52  76
ATOM     76  C   UNL     1      -8.304   9.087   4.701  1.00  0.00     0.023 A 
ATOM     77  C   UNL     1      -8.933  10.177   5.332  1.00  0.00     0.012 A 
ATOM     78  C   UNL     1      -7.558   9.309   3.526  1.00  0.00     0.148 A 
ATOM     79  C   UNL     1      -8.843  11.459   4.788  1.00  0.00     0.002 A 
ATOM     80  C   UNL     1      -7.423  10.597   3.023  1.00  0.00     0.091 A 
ATOM     81  F   UNL     1      -6.977   8.256   2.936  1.00  0.00    -0.205 F 
ATOM     82  C   UNL     1      -8.080  11.672   3.642  1.00  0.00     0.022 A 
BRANCH  80  83
ATOM     83  S   UNL     1      -6.349  10.981   1.636  1.00  0.00     0.127 S 
ATOM     84  O   UNL     1      -7.315  11.355   0.606  1.00  0.00    -0.237 OA
ATOM     85  O   UNL     1      -5.556  12.089   2.170  1.00  0.00    -0.237 OA
ATOM     86  O   UNL     1      -5.588   9.767   1.378  1.00  0.00    -0.744 OA
ENDBRANCH  80  83
ENDBRANCH  52  76
BRANCH  64  87
ATOM     87  C   UNL     1     -13.517   4.548   5.769  1.00  0.00     0.023 A 
ATOM     88  C   UNL     1     -14.018   4.516   4.452  1.00  0.00     0.012 A 
ATOM     89  C   UNL     1     -14.416   4.580   6.853  1.00  0.00     0.148 A 
ATOM     90  C   UNL     1     -15.392   4.552   4.219  1.00  0.00     0.002 A 
ATOM     91  C   UNL     1     -15.783   4.558   6.614  1.00  0.00     0.091 A 
ATOM     92  F   UNL     1     -13.916   4.626   8.096  1.00  0.00    -0.205 F 
ATOM     93  C   UNL     1     -16.273   4.560   5.298  1.00  0.00     0.022 A 
BRANCH  91  94
ATOM     94  S   UNL     1     -16.991   4.464   7.939  1.00  0.00     0.127 S 
ATOM     95  O   UNL     1     -17.598   5.793   7.883  1.00  0.00    -0.237 OA
ATOM     96  O   UNL     1     -17.860   3.377   7.487  1.00  0.00    -0.237 OA
ATOM     97  O   UNL     1     -16.238   4.174   9.152  1.00  0.00    -0.744 OA
ENDBRANCH  91  94
ENDBRANCH  64  87
ENDBRANCH  38  39
ENDBRANCH  31  33
ENDBRANCH  30  31
ENDBRANCH  29  30
ENDBRANCH  28  29
ENDBRANCH   1  28
TORSDOF 20
