REMARK SMILES CC[C@@H](C)c1ccccc1NC(=O)[C@@H]1[C@@H](C(=O)OCCOCCOC(=O)c2ccc(-c3c4nc(c(-c5cccc(S(=O)(=O)[O-])c5F)c5ccc([nH]5)c(-c5cccc(S(=O)(=O)[O-])c5F)c5nc(c(-c6cccc(S(=O)(=O)[O-])c6F)c6ccc3[nH]6)C=C5)C=C4)cc2)[C@@H]2C=C[C@H]1C2
REMARK SMILES IDX 20 1 19 2 18 3 16 4 17 5 15 6 14 7 93 8 90 9 92 10 94 11
REMARK SMILES IDX 91 12 12 13 11 14 13 16 10 17 5 18 6 19 7 20 9 21 8 22 3 23
REMARK SMILES IDX 4 24 2 25 1 26 21 27 22 28 23 29 24 30 25 31 26 32 27 33
REMARK SMILES IDX 28 34 89 35 29 36 88 37 30 38 31 39 32 40 82 41 33 42 87 43
REMARK SMILES IDX 81 44 83 45 34 46 86 47 80 48 79 49 35 51 67 52 47 53 66 54
REMARK SMILES IDX 48 55 51 56 65 57 84 58 49 59 50 60 64 62 85 63 52 64 36 65
REMARK SMILES IDX 37 66 45 67 38 68 40 69 46 70 39 71 41 72 42 73 43 74 44 75
REMARK SMILES IDX 68 76 69 77 77 78 70 79 72 80 78 81 71 82 73 83 74 84 75 85
REMARK SMILES IDX 76 86 53 87 54 88 62 89 55 90 57 91 63 92 56 93 58 94 59 95
REMARK SMILES IDX 60 96 61 97
REMARK H PARENT 11 15 83 50 51 61
REMARK Flexibility Score: inf
ROOT
ATOM      1  C   UNL     1      -5.097   0.195   7.426  1.00  0.00     0.202 C 
ENDROOT
BRANCH   1   2
ATOM      2  C   UNL     1      -4.203   0.824   8.498  1.00  0.00     0.261 C 
BRANCH   2   3
ATOM      3  O   UNL     1      -2.888   1.057   7.981  1.00  0.00    -0.463 OA
BRANCH   3   4
ATOM      4  C   UNL     1      -1.968   0.059   8.140  1.00  0.00     0.310 C 
ATOM      5  O   UNL     1      -2.092  -0.921   8.854  1.00  0.00    -0.252 OA
BRANCH   4   6
ATOM      6  C   UNL     1      -0.791   0.372   7.230  1.00  0.00     0.119 C 
ATOM      7  C   UNL     1      -0.258  -0.769   6.348  1.00  0.00     0.100 C 
ATOM      8  C   UNL     1       1.163  -1.023   6.927  1.00  0.00     0.025 C 
ATOM      9  C   UNL     1       0.443   0.754   8.083  1.00  0.00     0.027 C 
ATOM     10  C   UNL     1       2.051   0.124   6.538  1.00  0.00    -0.027 C 
ATOM     11  C   UNL     1       0.986  -0.646   8.408  1.00  0.00     0.017 C 
ATOM     12  C   UNL     1       1.614   1.194   7.220  1.00  0.00    -0.027 C 
BRANCH   7  13
ATOM     13  C   UNL     1      -0.278  -0.645   4.803  1.00  0.00     0.228 C 
ATOM     14  N   UNL     1       0.010   0.367   3.933  1.00  0.00    -0.326 N 
ATOM     15  H   UNL     1       0.086  -0.015   3.029  1.00  0.00     0.169 HD
ATOM     16  O   UNL     1      -0.525  -1.717   4.208  1.00  0.00    -0.274 OA
BRANCH  14  17
ATOM     17  C   UNL     1       0.242   1.771   3.847  1.00  0.00     0.044 A 
ATOM     18  C   UNL     1       0.670   2.423   2.649  1.00  0.00    -0.022 A 
ATOM     19  C   UNL     1       0.871   3.845   2.718  1.00  0.00     0.006 A 
ATOM     20  C   UNL     1       0.539   4.631   3.812  1.00  0.00     0.000 A 
ATOM     21  C   UNL     1      -0.006   2.613   4.936  1.00  0.00     0.026 A 
ATOM     22  C   UNL     1       0.085   4.004   4.933  1.00  0.00     0.002 A 
BRANCH  18  23
ATOM     23  C   UNL     1       1.052   1.842   1.256  1.00  0.00     0.018 C 
ATOM     24  C   UNL     1       0.459   2.706   0.105  1.00  0.00     0.013 C 
BRANCH  23  25
ATOM     25  C   UNL     1       0.771   0.355   0.939  1.00  0.00     0.005 C 
ATOM     26  C   UNL     1       1.217  -0.102  -0.452  1.00  0.00     0.004 C 
ENDBRANCH  23  25
ENDBRANCH  18  23
ENDBRANCH  14  17
ENDBRANCH   7  13
ENDBRANCH   4   6
ENDBRANCH   3   4
ENDBRANCH   2   3
ENDBRANCH   1   2
BRANCH   1  27
ATOM     27  O   UNL     1      -4.720  -1.129   7.042  1.00  0.00    -0.374 OA
BRANCH  27  28
ATOM     28  C   UNL     1      -3.824  -1.218   5.931  1.00  0.00     0.202 C 
BRANCH  28  29
ATOM     29  C   UNL     1      -4.493  -1.315   4.559  1.00  0.00     0.261 C 
BRANCH  29  30
ATOM     30  O   UNL     1      -5.113  -0.066   4.209  1.00  0.00    -0.460 OA
BRANCH  30  31
ATOM     31  C   UNL     1      -6.443  -0.012   4.443  1.00  0.00     0.338 C 
ATOM     32  O   UNL     1      -7.166  -0.929   4.811  1.00  0.00    -0.246 OA
BRANCH  31  33
ATOM     33  C   UNL     1      -6.904   1.385   4.375  1.00  0.00     0.060 A 
ATOM     34  C   UNL     1      -7.712   1.847   5.421  1.00  0.00     0.016 A 
ATOM     35  C   UNL     1      -6.604   2.212   3.290  1.00  0.00     0.016 A 
ATOM     36  C   UNL     1      -8.276   3.117   5.358  1.00  0.00     0.010 A 
ATOM     37  C   UNL     1      -7.175   3.487   3.227  1.00  0.00     0.010 A 
ATOM     38  C   UNL     1      -8.048   3.927   4.240  1.00  0.00    -0.014 A 
BRANCH  38  39
ATOM     39  C   UNL     1      -8.834   5.172   4.067  1.00  0.00     0.031 A 
ATOM     40  C   UNL     1      -9.977   5.182   3.089  1.00  0.00     0.074 A 
ATOM     41  C   UNL     1      -8.535   6.276   4.777  1.00  0.00     0.049 A 
ATOM     42  N   UNL     1     -10.773   6.165   2.760  1.00  0.00    -0.248 NA
ATOM     43  C   UNL     1     -10.262   3.919   2.385  1.00  0.00     0.031 C 
ATOM     44  C   UNL     1      -7.454   6.384   5.756  1.00  0.00     0.029 A 
ATOM     45  N   UNL     1      -9.100   7.527   4.759  1.00  0.00    -0.354 N 
ATOM     46  C   UNL     1     -11.618   5.658   1.780  1.00  0.00     0.074 A 
ATOM     47  C   UNL     1     -11.246   4.276   1.571  1.00  0.00     0.031 C 
ATOM     48  C   UNL     1      -7.412   7.644   6.221  1.00  0.00     0.029 A 
ATOM     49  C   UNL     1      -8.440   8.437   5.551  1.00  0.00     0.049 A 
ATOM     50  H   UNL     1      -9.900   7.750   4.231  1.00  0.00     0.167 HD
ATOM     51  C   UNL     1     -12.617   6.286   1.119  1.00  0.00     0.034 A 
ATOM     52  C   UNL     1      -8.625   9.765   5.691  1.00  0.00     0.034 A 
ATOM     53  C   UNL     1     -13.008   7.649   1.355  1.00  0.00     0.049 A 
ATOM     54  C   UNL     1      -9.742  10.436   4.931  1.00  0.00     0.074 A 
ATOM     55  C   UNL     1     -14.062   8.348   0.793  1.00  0.00     0.029 A 
ATOM     56  N   UNL     1     -12.351   8.526   2.202  1.00  0.00    -0.354 N 
ATOM     57  N   UNL     1     -10.623   9.906   4.117  1.00  0.00    -0.248 NA
ATOM     58  C   UNL     1      -9.912  11.882   5.135  1.00  0.00     0.031 C 
ATOM     59  C   UNL     1     -14.012   9.663   1.262  1.00  0.00     0.029 A 
ATOM     60  C   UNL     1     -12.960   9.768   2.157  1.00  0.00     0.049 A 
ATOM     61  H   UNL     1     -11.568   8.300   2.753  1.00  0.00     0.167 HD
ATOM     62  C   UNL     1     -11.474  10.943   3.749  1.00  0.00     0.074 A 
ATOM     63  C   UNL     1     -11.017  12.127   4.446  1.00  0.00     0.031 C 
ATOM     64  C   UNL     1     -12.532  10.923   2.902  1.00  0.00     0.034 A 
BRANCH  51  65
ATOM     65  C   UNL     1     -13.374   5.519   0.069  1.00  0.00     0.023 A 
ATOM     66  C   UNL     1     -14.307   4.534   0.447  1.00  0.00     0.012 A 
ATOM     67  C   UNL     1     -13.236   5.860  -1.292  1.00  0.00     0.148 A 
ATOM     68  C   UNL     1     -15.084   3.890  -0.517  1.00  0.00     0.002 A 
ATOM     69  C   UNL     1     -14.046   5.248  -2.240  1.00  0.00     0.091 A 
ATOM     70  F   UNL     1     -12.326   6.785  -1.628  1.00  0.00    -0.205 F 
ATOM     71  C   UNL     1     -14.964   4.257  -1.855  1.00  0.00     0.022 A 
BRANCH  69  72
ATOM     72  S   UNL     1     -14.029   5.713  -3.974  1.00  0.00     0.127 S 
ATOM     73  O   UNL     1     -13.525   4.492  -4.602  1.00  0.00    -0.237 OA
ATOM     74  O   UNL     1     -15.443   5.992  -4.229  1.00  0.00    -0.237 OA
ATOM     75  O   UNL     1     -13.150   6.869  -4.075  1.00  0.00    -0.744 OA
ENDBRANCH  69  72
ENDBRANCH  51  65
BRANCH  52  76
ATOM     76  C   UNL     1      -7.738  10.562   6.586  1.00  0.00     0.023 A 
ATOM     77  C   UNL     1      -8.271  11.175   7.737  1.00  0.00     0.012 A 
ATOM     78  C   UNL     1      -6.374  10.743   6.283  1.00  0.00     0.148 A 
ATOM     79  C   UNL     1      -7.476  11.995   8.539  1.00  0.00     0.002 A 
ATOM     80  C   UNL     1      -5.573  11.509   7.121  1.00  0.00     0.091 A 
ATOM     81  F   UNL     1      -5.886  10.167   5.175  1.00  0.00    -0.205 F 
ATOM     82  C   UNL     1      -6.127  12.156   8.236  1.00  0.00     0.022 A 
BRANCH  80  83
ATOM     83  S   UNL     1      -3.800  11.658   6.877  1.00  0.00     0.127 S 
ATOM     84  O   UNL     1      -3.679  13.027   6.385  1.00  0.00    -0.237 OA
ATOM     85  O   UNL     1      -3.289  11.441   8.231  1.00  0.00    -0.237 OA
ATOM     86  O   UNL     1      -3.446  10.607   5.932  1.00  0.00    -0.744 OA
ENDBRANCH  80  83
ENDBRANCH  52  76
BRANCH  64  87
ATOM     87  C   UNL     1     -13.315  12.197   2.720  1.00  0.00     0.023 A 
ATOM     88  C   UNL     1     -12.755  13.279   2.013  1.00  0.00     0.012 A 
ATOM     89  C   UNL     1     -14.641  12.290   3.190  1.00  0.00     0.148 A 
ATOM     90  C   UNL     1     -13.488  14.448   1.810  1.00  0.00     0.002 A 
ATOM     91  C   UNL     1     -15.384  13.436   2.935  1.00  0.00     0.091 A 
ATOM     92  F   UNL     1     -15.151  11.256   3.873  1.00  0.00    -0.205 F 
ATOM     93  C   UNL     1     -14.805  14.522   2.260  1.00  0.00     0.022 A 
BRANCH  91  94
ATOM     94  S   UNL     1     -17.117  13.579   3.385  1.00  0.00     0.127 S 
ATOM     95  O   UNL     1     -17.063  14.559   4.469  1.00  0.00    -0.237 OA
ATOM     96  O   UNL     1     -17.718  14.074   2.146  1.00  0.00    -0.237 OA
ATOM     97  O   UNL     1     -17.545  12.242   3.774  1.00  0.00    -0.744 OA
ENDBRANCH  91  94
ENDBRANCH  64  87
ENDBRANCH  38  39
ENDBRANCH  31  33
ENDBRANCH  30  31
ENDBRANCH  29  30
ENDBRANCH  28  29
ENDBRANCH  27  28
ENDBRANCH   1  27
TORSDOF 21
