REMARK SMILES CC(C)C[C@H](Nc1ncnc2scc(-c3ccccc3)c12)C(=O)OCCOCCOC(=O)c1ccc(-c2c3nc(c(-c4cccc(S(=O)(=O)[O-])c4F)c4ccc([nH]4)c(-c4cccc(S(=O)(=O)[O-])c4F)c4nc(c(-c5cccc(S(=O)(=O)[O-])c5F)c5ccc2[nH]5)C=C4)C=C3)cc1
REMARK SMILES IDX 27 1 26 2 25 3 24 4 22 5 23 6 5 7 4 8 2 9 1 10 3 11 6 12
REMARK SMILES IDX 7 14 8 15 21 16 9 17 11 18 14 19 10 20 12 21 13 22 15 23
REMARK SMILES IDX 16 24 20 25 17 26 19 27 18 28 28 29 29 30 30 31 31 32 32 33
REMARK SMILES IDX 33 34 34 35 95 36 35 37 94 38 36 39 37 40 38 41 88 42 39 43
REMARK SMILES IDX 93 44 87 45 89 46 40 47 92 48 86 49 85 50 41 52 73 53 53 54
REMARK SMILES IDX 72 55 54 56 57 57 71 58 90 59 55 60 56 61 70 63 91 64 58 65
REMARK SMILES IDX 42 66 43 67 51 68 44 69 46 70 52 71 45 72 47 73 48 74 49 75
REMARK SMILES IDX 50 76 74 77 75 78 83 79 76 80 78 81 84 82 77 83 79 84 80 85
REMARK SMILES IDX 81 86 82 87 59 88 60 89 68 90 61 91 63 92 69 93 62 94 64 95
REMARK SMILES IDX 65 96 66 97 67 98
REMARK H PARENT 6 13 89 51 57 62
REMARK Flexibility Score: inf
ROOT
ATOM      1  O   UNL     1      -5.224  -0.202  -0.245  1.00  0.00    -0.374 OA
ENDROOT
BRANCH   1   2
ATOM      2  C   UNL     1      -5.569   0.888   0.607  1.00  0.00     0.202 C 
BRANCH   2   3
ATOM      3  C   UNL     1      -4.839   1.012   1.943  1.00  0.00     0.261 C 
BRANCH   3   4
ATOM      4  O   UNL     1      -3.426   1.190   1.783  1.00  0.00    -0.462 OA
BRANCH   4   5
ATOM      5  C   UNL     1      -2.709   0.030   1.856  1.00  0.00     0.328 C 
ATOM      6  O   UNL     1      -3.198  -1.086   1.999  1.00  0.00    -0.250 OA
BRANCH   5   7
ATOM      7  C   UNL     1      -1.203   0.295   1.810  1.00  0.00     0.191 C 
BRANCH   7   8
ATOM      8  C   UNL     1      -0.729   0.828   3.177  1.00  0.00     0.040 C 
BRANCH   8   9
ATOM      9  C   UNL     1      -1.437   0.248   4.416  1.00  0.00    -0.015 C 
ATOM     10  C   UNL     1      -1.229  -1.258   4.564  1.00  0.00     0.007 C 
ATOM     11  C   UNL     1      -0.955   0.972   5.673  1.00  0.00     0.007 C 
ENDBRANCH   8   9
ENDBRANCH   7   8
BRANCH   7  12
ATOM     12  N   UNL     1      -0.855   1.258   0.746  1.00  0.00    -0.356 N 
ATOM     13  H   UNL     1      -1.558   1.768   0.283  1.00  0.00     0.163 HD
BRANCH  12  14
ATOM     14  C   UNL     1       0.477   1.431   0.410  1.00  0.00     0.139 A 
ATOM     15  N   UNL     1       1.290   0.352   0.511  1.00  0.00    -0.219 NA
ATOM     16  C   UNL     1       1.045   2.664  -0.002  1.00  0.00     0.062 A 
ATOM     17  C   UNL     1       2.584   0.470   0.195  1.00  0.00     0.225 A 
ATOM     18  C   UNL     1       2.407   2.629  -0.286  1.00  0.00     0.129 A 
ATOM     19  C   UNL     1       0.545   4.016  -0.173  1.00  0.00     0.006 A 
ATOM     20  N   UNL     1       3.220   1.563  -0.215  1.00  0.00    -0.225 NA
ATOM     21  S   UNL     1       3.049   4.134  -0.755  1.00  0.00    -0.123 S 
ATOM     22  C   UNL     1       1.542   4.896  -0.561  1.00  0.00     0.076 A 
BRANCH  19  23
ATOM     23  C   UNL     1      -0.790   4.545   0.064  1.00  0.00    -0.017 A 
ATOM     24  C   UNL     1      -1.426   5.302  -0.925  1.00  0.00     0.009 A 
ATOM     25  C   UNL     1      -1.414   4.375   1.305  1.00  0.00     0.009 A 
ATOM     26  C   UNL     1      -2.655   5.894  -0.660  1.00  0.00     0.001 A 
ATOM     27  C   UNL     1      -2.679   4.908   1.542  1.00  0.00     0.001 A 
ATOM     28  C   UNL     1      -3.290   5.681   0.563  1.00  0.00     0.000 A 
ENDBRANCH  19  23
ENDBRANCH  12  14
ENDBRANCH   7  12
ENDBRANCH   5   7
ENDBRANCH   4   5
ENDBRANCH   3   4
ENDBRANCH   2   3
ENDBRANCH   1   2
BRANCH   1  29
ATOM     29  C   UNL     1      -4.044  -0.072  -1.037  1.00  0.00     0.202 C 
BRANCH  29  30
ATOM     30  C   UNL     1      -4.115   0.800  -2.296  1.00  0.00     0.261 C 
BRANCH  30  31
ATOM     31  O   UNL     1      -4.519   2.150  -2.032  1.00  0.00    -0.460 OA
BRANCH  31  32
ATOM     32  C   UNL     1      -5.830   2.408  -2.266  1.00  0.00     0.338 C 
ATOM     33  O   UNL     1      -6.669   1.639  -2.712  1.00  0.00    -0.246 OA
BRANCH  32  34
ATOM     34  C   UNL     1      -6.157   3.741  -1.734  1.00  0.00     0.060 A 
ATOM     35  C   UNL     1      -7.167   3.861  -0.769  1.00  0.00     0.016 A 
ATOM     36  C   UNL     1      -5.489   4.869  -2.199  1.00  0.00     0.016 A 
ATOM     37  C   UNL     1      -7.521   5.120  -0.275  1.00  0.00     0.010 A 
ATOM     38  C   UNL     1      -5.843   6.123  -1.696  1.00  0.00     0.010 A 
ATOM     39  C   UNL     1      -6.875   6.269  -0.748  1.00  0.00    -0.014 A 
BRANCH  39  40
ATOM     40  C   UNL     1      -7.342   7.634  -0.375  1.00  0.00     0.031 A 
ATOM     41  C   UNL     1      -7.864   8.539  -1.465  1.00  0.00     0.074 A 
ATOM     42  C   UNL     1      -7.270   8.093   0.892  1.00  0.00     0.049 A 
ATOM     43  N   UNL     1      -8.232   9.791  -1.399  1.00  0.00    -0.248 NA
ATOM     44  C   UNL     1      -7.944   7.965  -2.820  1.00  0.00     0.031 C 
ATOM     45  C   UNL     1      -6.755   7.351   2.044  1.00  0.00     0.029 A 
ATOM     46  N   UNL     1      -7.613   9.317   1.417  1.00  0.00    -0.354 N 
ATOM     47  C   UNL     1      -8.532  10.164  -2.704  1.00  0.00     0.074 A 
ATOM     48  C   UNL     1      -8.249   9.026  -3.547  1.00  0.00     0.031 C 
ATOM     49  C   UNL     1      -6.808   8.137   3.134  1.00  0.00     0.029 A 
ATOM     50  C   UNL     1      -7.342   9.444   2.761  1.00  0.00     0.049 A 
ATOM     51  H   UNL     1      -8.016  10.037   0.880  1.00  0.00     0.167 HD
ATOM     52  C   UNL     1      -9.039  11.331  -3.165  1.00  0.00     0.034 A 
ATOM     53  C   UNL     1      -7.501  10.494   3.594  1.00  0.00     0.034 A 
ATOM     54  C   UNL     1      -9.392  12.441  -2.326  1.00  0.00     0.049 A 
ATOM     55  C   UNL     1      -8.095  11.776   3.062  1.00  0.00     0.074 A 
ATOM     56  C   UNL     1      -9.996  13.632  -2.688  1.00  0.00     0.029 A 
ATOM     57  N   UNL     1      -9.176  12.498  -0.960  1.00  0.00    -0.354 N 
ATOM     58  N   UNL     1      -8.501  12.059   1.849  1.00  0.00    -0.248 NA
ATOM     59  C   UNL     1      -8.289  12.871   4.026  1.00  0.00     0.031 C 
ATOM     60  C   UNL     1     -10.117  14.423  -1.542  1.00  0.00     0.029 A 
ATOM     61  C   UNL     1      -9.627  13.707  -0.462  1.00  0.00     0.049 A 
ATOM     62  H   UNL     1      -8.764  11.783  -0.422  1.00  0.00     0.167 HD
ATOM     63  C   UNL     1      -9.037  13.342   1.914  1.00  0.00     0.074 A 
ATOM     64  C   UNL     1      -8.922  13.774   3.290  1.00  0.00     0.031 C 
ATOM     65  C   UNL     1      -9.564  14.101   0.921  1.00  0.00     0.034 A 
BRANCH  52  66
ATOM     66  C   UNL     1      -9.285  11.445  -4.646  1.00  0.00     0.023 A 
ATOM     67  C   UNL     1     -10.310  10.686  -5.249  1.00  0.00     0.012 A 
ATOM     68  C   UNL     1      -8.527  12.331  -5.435  1.00  0.00     0.148 A 
ATOM     69  C   UNL     1     -10.543  10.769  -6.620  1.00  0.00     0.002 A 
ATOM     70  C   UNL     1      -8.803  12.450  -6.791  1.00  0.00     0.091 A 
ATOM     71  F   UNL     1      -7.544  13.029  -4.848  1.00  0.00    -0.205 F 
ATOM     72  C   UNL     1      -9.798  11.659  -7.388  1.00  0.00     0.022 A 
BRANCH  70  73
ATOM     73  S   UNL     1      -7.961  13.630  -7.851  1.00  0.00     0.127 S 
ATOM     74  O   UNL     1      -7.200  12.744  -8.731  1.00  0.00    -0.237 OA
ATOM     75  O   UNL     1      -9.082  14.313  -8.495  1.00  0.00    -0.237 OA
ATOM     76  O   UNL     1      -7.161  14.467  -6.968  1.00  0.00    -0.744 OA
ENDBRANCH  70  73
ENDBRANCH  52  66
BRANCH  53  77
ATOM     77  C   UNL     1      -7.145  10.378   5.040  1.00  0.00     0.023 A 
ATOM     78  C   UNL     1      -8.165  10.412   6.012  1.00  0.00     0.012 A 
ATOM     79  C   UNL     1      -5.806  10.258   5.459  1.00  0.00     0.148 A 
ATOM     80  C   UNL     1      -7.857  10.377   7.373  1.00  0.00     0.002 A 
ATOM     81  C   UNL     1      -5.510  10.166   6.815  1.00  0.00     0.091 A 
ATOM     82  F   UNL     1      -4.848  10.237   4.522  1.00  0.00    -0.205 F 
ATOM     83  C   UNL     1      -6.531  10.247   7.774  1.00  0.00     0.022 A 
BRANCH  81  84
ATOM     84  S   UNL     1      -3.845   9.873   7.423  1.00  0.00     0.127 S 
ATOM     85  O   UNL     1      -3.543  11.136   8.090  1.00  0.00    -0.237 OA
ATOM     86  O   UNL     1      -4.051   8.734   8.319  1.00  0.00    -0.237 OA
ATOM     87  O   UNL     1      -3.043   9.572   6.245  1.00  0.00    -0.744 OA
ENDBRANCH  81  84
ENDBRANCH  53  77
BRANCH  65  88
ATOM     88  C   UNL     1     -10.117  15.456   1.282  1.00  0.00     0.023 A 
ATOM     89  C   UNL     1      -9.245  16.507   1.631  1.00  0.00     0.012 A 
ATOM     90  C   UNL     1     -11.501  15.709   1.189  1.00  0.00     0.148 A 
ATOM     91  C   UNL     1      -9.746  17.777   1.917  1.00  0.00     0.002 A 
ATOM     92  C   UNL     1     -11.986  16.989   1.421  1.00  0.00     0.091 A 
ATOM     93  F   UNL     1     -12.315  14.693   0.869  1.00  0.00    -0.205 F 
ATOM     94  C   UNL     1     -11.112  18.021   1.800  1.00  0.00     0.022 A 
BRANCH  92  95
ATOM     95  S   UNL     1     -13.714  17.421   1.193  1.00  0.00     0.127 S 
ATOM     96  O   UNL     1     -14.153  17.633   2.571  1.00  0.00    -0.237 OA
ATOM     97  O   UNL     1     -13.624  18.639   0.387  1.00  0.00    -0.237 OA
ATOM     98  O   UNL     1     -14.326  16.289   0.511  1.00  0.00    -0.744 OA
ENDBRANCH  92  95
ENDBRANCH  65  88
ENDBRANCH  39  40
ENDBRANCH  32  34
ENDBRANCH  31  32
ENDBRANCH  30  31
ENDBRANCH  29  30
ENDBRANCH   1  29
TORSDOF 22
