REMARK SMILES O=C(OCCOCCOC(=O)[C@H]1Cc2c([nH]c3ccccc23)[C@H](c2c[nH]c3ccccc23)[NH2+]1)c1ccc(-c2c3nc(c(-c4cccc(S(=O)(=O)[O-])c4F)c4ccc([nH]4)c(-c4cccc(S(=O)(=O)[O-])c4F)c4nc(c(-c5cccc(S(=O)(=O)[O-])c5F)c5ccc2[nH]5)C=C4)C=C3)cc1
REMARK SMILES IDX 5 1 4 2 3 3 2 4 1 5 34 6 35 7 96 8 36 9 95 10 37 11 38 12
REMARK SMILES IDX 39 13 89 14 40 15 94 16 88 17 90 18 41 19 93 20 87 21 86 22
REMARK SMILES IDX 42 24 74 25 54 26 73 27 55 28 58 29 72 30 91 31 56 32 57 33
REMARK SMILES IDX 71 35 92 36 59 37 43 38 44 39 52 40 45 41 47 42 53 43 46 44
REMARK SMILES IDX 48 45 49 46 50 47 51 48 75 49 76 50 84 51 77 52 79 53 85 54
REMARK SMILES IDX 78 55 80 56 81 57 82 58 83 59 60 60 61 61 69 62 62 63 64 64
REMARK SMILES IDX 70 65 63 66 65 67 66 68 67 69 68 70 6 71 7 72 8 73 9 74
REMARK SMILES IDX 10 75 11 76 12 77 13 78 33 79 14 80 23 81 15 84 22 85 16 86
REMARK SMILES IDX 17 87 21 88 18 90 20 91 19 92 24 93 25 94 32 95 26 96 27 97
REMARK SMILES IDX 31 98 28 100 30 101 29 102
REMARK H PARENT 90 23 58 34 33 82 33 83 16 89 26 99
REMARK Flexibility Score: inf
ROOT
ATOM      1  C   UNL     1       4.547  -0.372  -1.178  1.00  0.00     0.202 C 
ENDROOT
BRANCH   1   2
ATOM      2  C   UNL     1       4.255  -1.206   0.081  1.00  0.00     0.261 C 
BRANCH   2   3
ATOM      3  O   UNL     1       2.862  -1.187   0.427  1.00  0.00    -0.460 OA
BRANCH   3   4
ATOM      4  C   UNL     1       2.221  -0.272   1.199  1.00  0.00     0.338 C 
ATOM      5  O   UNL     1       1.007  -0.387   1.355  1.00  0.00    -0.246 OA
BRANCH   4   6
ATOM      6  C   UNL     1       2.921   0.870   1.865  1.00  0.00     0.060 A 
ATOM      7  C   UNL     1       4.172   1.354   1.491  1.00  0.00     0.016 A 
ATOM      8  C   UNL     1       2.258   1.532   2.911  1.00  0.00     0.016 A 
ATOM      9  C   UNL     1       4.780   2.406   2.119  1.00  0.00     0.010 A 
ATOM     10  C   UNL     1       2.865   2.606   3.572  1.00  0.00     0.010 A 
ATOM     11  C   UNL     1       4.142   3.018   3.179  1.00  0.00    -0.014 A 
BRANCH  11  12
ATOM     12  C   UNL     1       5.020   3.898   3.948  1.00  0.00     0.031 A 
ATOM     13  C   UNL     1       5.686   3.302   5.146  1.00  0.00     0.074 A 
ATOM     14  C   UNL     1       5.431   5.046   3.381  1.00  0.00     0.049 A 
ATOM     15  N   UNL     1       6.576   3.825   5.937  1.00  0.00    -0.248 NA
ATOM     16  C   UNL     1       5.332   1.906   5.475  1.00  0.00     0.031 C 
ATOM     17  C   UNL     1       4.975   5.555   2.081  1.00  0.00     0.029 A 
ATOM     18  N   UNL     1       6.366   5.952   3.785  1.00  0.00    -0.354 N 
ATOM     19  C   UNL     1       6.824   2.859   6.902  1.00  0.00     0.074 A 
ATOM     20  C   UNL     1       6.036   1.696   6.574  1.00  0.00     0.031 C 
ATOM     21  C   UNL     1       5.641   6.684   1.795  1.00  0.00     0.029 A 
ATOM     22  C   UNL     1       6.504   7.011   2.921  1.00  0.00     0.049 A 
ATOM     23  H   UNL     1       6.889   5.857   4.613  1.00  0.00     0.167 HD
ATOM     24  C   UNL     1       7.627   2.963   7.982  1.00  0.00     0.034 A 
ATOM     25  C   UNL     1       7.222   8.138   3.067  1.00  0.00     0.034 A 
ATOM     26  C   UNL     1       8.402   4.139   8.252  1.00  0.00     0.049 A 
ATOM     27  C   UNL     1       8.038   8.265   4.324  1.00  0.00     0.074 A 
ATOM     28  C   UNL     1       9.198   4.420   9.342  1.00  0.00     0.029 A 
ATOM     29  N   UNL     1       8.462   5.240   7.406  1.00  0.00    -0.354 N 
ATOM     30  N   UNL     1       8.225   7.380   5.277  1.00  0.00    -0.248 NA
ATOM     31  C   UNL     1       8.747   9.531   4.527  1.00  0.00     0.031 C 
ATOM     32  C   UNL     1       9.710   5.712   9.173  1.00  0.00     0.029 A 
ATOM     33  C   UNL     1       9.275   6.212   7.952  1.00  0.00     0.049 A 
ATOM     34  H   UNL     1       7.994   5.316   6.543  1.00  0.00     0.167 HD
ATOM     35  C   UNL     1       9.101   7.966   6.177  1.00  0.00     0.074 A 
ATOM     36  C   UNL     1       9.420   9.277   5.641  1.00  0.00     0.031 C 
ATOM     37  C   UNL     1       9.593   7.480   7.344  1.00  0.00     0.034 A 
BRANCH  24  38
ATOM     38  C   UNL     1       7.599   1.828   8.966  1.00  0.00     0.023 A 
ATOM     39  C   UNL     1       8.199   0.589   8.665  1.00  0.00     0.012 A 
ATOM     40  C   UNL     1       6.917   1.988  10.189  1.00  0.00     0.148 A 
ATOM     41  C   UNL     1       8.086  -0.485   9.550  1.00  0.00     0.002 A 
ATOM     42  C   UNL     1       6.849   0.930  11.085  1.00  0.00     0.091 A 
ATOM     43  F   UNL     1       6.318   3.162  10.436  1.00  0.00    -0.205 F 
ATOM     44  C   UNL     1       7.419  -0.312  10.761  1.00  0.00     0.022 A 
BRANCH  42  45
ATOM     45  S   UNL     1       6.065   1.076  12.693  1.00  0.00     0.127 S 
ATOM     46  O   UNL     1       4.914   0.187  12.542  1.00  0.00    -0.237 OA
ATOM     47  O   UNL     1       7.110   0.576  13.586  1.00  0.00    -0.237 OA
ATOM     48  O   UNL     1       5.744   2.486  12.860  1.00  0.00    -0.744 OA
ENDBRANCH  42  45
ENDBRANCH  24  38
BRANCH  25  49
ATOM     49  C   UNL     1       7.167   9.217   2.041  1.00  0.00     0.023 A 
ATOM     50  C   UNL     1       8.329   9.578   1.333  1.00  0.00     0.012 A 
ATOM     51  C   UNL     1       5.959   9.889   1.758  1.00  0.00     0.148 A 
ATOM     52  C   UNL     1       8.297  10.607   0.390  1.00  0.00     0.002 A 
ATOM     53  C   UNL     1       5.921  10.874   0.778  1.00  0.00     0.091 A 
ATOM     54  F   UNL     1       4.864   9.548   2.452  1.00  0.00    -0.205 F 
ATOM     55  C   UNL     1       7.093  11.248   0.106  1.00  0.00     0.022 A 
BRANCH  53  56
ATOM     56  S   UNL     1       4.392  11.669   0.270  1.00  0.00     0.127 S 
ATOM     57  O   UNL     1       4.570  13.020   0.797  1.00  0.00    -0.237 OA
ATOM     58  O   UNL     1       4.465  11.561  -1.188  1.00  0.00    -0.237 OA
ATOM     59  O   UNL     1       3.321  10.889   0.876  1.00  0.00    -0.744 OA
ENDBRANCH  53  56
ENDBRANCH  25  49
BRANCH  37  60
ATOM     60  C   UNL     1      10.577   8.346   8.076  1.00  0.00     0.023 A 
ATOM     61  C   UNL     1      10.142   9.503   8.748  1.00  0.00     0.012 A 
ATOM     62  C   UNL     1      11.926   7.953   8.158  1.00  0.00     0.148 A 
ATOM     63  C   UNL     1      11.048  10.281   9.464  1.00  0.00     0.002 A 
ATOM     64  C   UNL     1      12.809   8.697   8.924  1.00  0.00     0.091 A 
ATOM     65  F   UNL     1      12.317   6.858   7.490  1.00  0.00    -0.205 F 
ATOM     66  C   UNL     1      12.377   9.870   9.564  1.00  0.00     0.022 A 
BRANCH  64  67
ATOM     67  S   UNL     1      14.502   8.171   9.202  1.00  0.00     0.127 S 
ATOM     68  O   UNL     1      15.245   9.098   8.351  1.00  0.00    -0.237 OA
ATOM     69  O   UNL     1      14.664   8.396  10.639  1.00  0.00    -0.237 OA
ATOM     70  O   UNL     1      14.556   6.771   8.803  1.00  0.00    -0.744 OA
ENDBRANCH  64  67
ENDBRANCH  37  60
ENDBRANCH  11  12
ENDBRANCH   4   6
ENDBRANCH   3   4
ENDBRANCH   2   3
ENDBRANCH   1   2
BRANCH   1  71
ATOM     71  O   UNL     1       4.011   0.949  -1.260  1.00  0.00    -0.374 OA
BRANCH  71  72
ATOM     72  C   UNL     1       2.635   1.063  -1.637  1.00  0.00     0.202 C 
BRANCH  72  73
ATOM     73  C   UNL     1       2.478   1.520  -3.082  1.00  0.00     0.261 C 
BRANCH  73  74
ATOM     74  O   UNL     1       2.826   0.422  -3.939  1.00  0.00    -0.459 OA
BRANCH  74  75
ATOM     75  C   UNL     1       4.153   0.316  -4.202  1.00  0.00     0.365 C 
ATOM     76  O   UNL     1       4.993   1.183  -3.968  1.00  0.00    -0.245 OA
BRANCH  75  77
ATOM     77  C   UNL     1       4.504  -1.014  -4.854  1.00  0.00     0.298 C 
ATOM     78  C   UNL     1       4.167  -2.240  -3.981  1.00  0.00     0.115 C 
ATOM     79  N   UNL     1       3.894  -1.052  -6.210  1.00  0.00    -0.323 N 
ATOM     80  C   UNL     1       4.321  -3.477  -4.776  1.00  0.00    -0.006 A 
ATOM     81  C   UNL     1       4.400  -2.173  -7.003  1.00  0.00     0.264 C 
ATOM     82  H   UNL     1       4.111  -0.181  -6.694  1.00  0.00     0.347 HD
ATOM     83  H   UNL     1       2.887  -1.170  -6.101  1.00  0.00     0.347 HD
ATOM     84  C   UNL     1       4.421  -3.421  -6.152  1.00  0.00     0.083 A 
ATOM     85  C   UNL     1       4.429  -4.827  -4.359  1.00  0.00     0.003 A 
ATOM     86  N   UNL     1       4.485  -4.715  -6.596  1.00  0.00    -0.353 N 
ATOM     87  C   UNL     1       4.511  -5.590  -5.525  1.00  0.00     0.046 A 
ATOM     88  C   UNL     1       4.465  -5.477  -3.108  1.00  0.00     0.010 A 
ATOM     89  H   UNL     1       4.508  -4.984  -7.543  1.00  0.00     0.166 HD
ATOM     90  C   UNL     1       4.603  -6.987  -5.494  1.00  0.00     0.026 A 
ATOM     91  C   UNL     1       4.583  -6.870  -3.064  1.00  0.00     0.001 A 
ATOM     92  C   UNL     1       4.643  -7.612  -4.242  1.00  0.00     0.002 A 
BRANCH  81  93
ATOM     93  C   UNL     1       5.725  -1.848  -7.685  1.00  0.00     0.041 A 
ATOM     94  C   UNL     1       6.220  -2.621  -8.727  1.00  0.00     0.093 A 
ATOM     95  C   UNL     1       6.691  -0.763  -7.522  1.00  0.00     0.009 A 
ATOM     96  N   UNL     1       7.414  -2.112  -9.142  1.00  0.00    -0.361 N 
ATOM     97  C   UNL     1       7.740  -0.997  -8.416  1.00  0.00     0.046 A 
ATOM     98  C   UNL     1       6.814   0.406  -6.729  1.00  0.00     0.011 A 
ATOM     99  H   UNL     1       7.965  -2.492  -9.864  1.00  0.00     0.166 HD
ATOM    100  C   UNL     1       8.880  -0.182  -8.506  1.00  0.00     0.026 A 
ATOM    101  C   UNL     1       7.960   1.211  -6.771  1.00  0.00     0.001 A 
ATOM    102  C   UNL     1       8.984   0.915  -7.651  1.00  0.00     0.002 A 
ENDBRANCH  81  93
ENDBRANCH  75  77
ENDBRANCH  74  75
ENDBRANCH  73  74
ENDBRANCH  72  73
ENDBRANCH  71  72
ENDBRANCH   1  71
TORSDOF 18
