REMARK SMILES NC(=O)c1cc(NC(=O)/C=C\C(=O)OCCOCCOC(=O)c2ccc(-c3c4nc(c(-c5cccc(S(=O)(=O)[O-])c5F)c5ccc([nH]5)c(-c5cccc(S(=O)(=O)[O-])c5F)c5nc(c(-c6cccc(S(=O)(=O)[O-])c6F)c6ccc3[nH]6)C=C5)C=C4)cc2)ccc1N1CCOCC1
REMARK SMILES IDX 17 1 16 2 15 3 14 4 12 5 13 6 11 7 10 8 8 9 7 10 9 12 6 13
REMARK SMILES IDX 4 14 5 15 88 16 87 17 86 18 2 19 1 20 3 23 89 24 90 25 94 26
REMARK SMILES IDX 91 27 93 28 92 29 18 30 19 31 20 32 21 33 22 34 23 35 24 36
REMARK SMILES IDX 85 37 25 38 84 39 26 40 27 41 28 42 78 43 29 44 83 45 77 46
REMARK SMILES IDX 79 47 30 48 82 49 76 50 75 51 31 53 63 54 43 55 62 56 44 57
REMARK SMILES IDX 47 58 61 59 80 60 45 61 46 62 60 64 81 65 48 66 32 67 33 68
REMARK SMILES IDX 41 69 34 70 36 71 42 72 35 73 37 74 38 75 39 76 40 77 64 78
REMARK SMILES IDX 65 79 73 80 66 81 68 82 74 83 67 84 69 85 70 86 71 87 72 88
REMARK SMILES IDX 49 89 50 90 58 91 51 92 53 93 59 94 52 95 54 96 55 97 56 98
REMARK SMILES IDX 57 99
REMARK H PARENT 7 11 1 21 1 22 79 52 47 63
REMARK Flexibility Score: inf
ROOT
ATOM      1  O   UNL     1       4.035  -3.110  -0.367  1.00  0.00    -0.374 OA
ENDROOT
BRANCH   1   2
ATOM      2  C   UNL     1       3.839  -4.157   0.554  1.00  0.00     0.202 C 
BRANCH   2   3
ATOM      3  C   UNL     1       2.442  -4.714   0.833  1.00  0.00     0.261 C 
BRANCH   3   4
ATOM      4  O   UNL     1       1.510  -5.035  -0.202  1.00  0.00    -0.460 OA
BRANCH   4   5
ATOM      5  C   UNL     1       0.659  -4.030  -0.500  1.00  0.00     0.331 C 
ATOM      6  O   UNL     1       0.934  -2.841  -0.518  1.00  0.00    -0.247 OA
BRANCH   5   7
ATOM      7  C   UNL     1      -0.699  -4.485  -0.810  1.00  0.00     0.099 C 
ATOM      8  C   UNL     1      -1.470  -5.274  -0.048  1.00  0.00     0.079 C 
BRANCH   8   9
ATOM      9  C   UNL     1      -1.135  -6.021   1.185  1.00  0.00     0.248 C 
ATOM     10  N   UNL     1      -0.662  -5.455   2.332  1.00  0.00    -0.322 N 
ATOM     11  H   UNL     1      -0.515  -6.106   3.056  1.00  0.00     0.170 HD
ATOM     12  O   UNL     1      -1.310  -7.240   1.150  1.00  0.00    -0.270 OA
BRANCH  10  13
ATOM     13  C   UNL     1      -0.342  -4.135   2.696  1.00  0.00     0.042 A 
ATOM     14  C   UNL     1      -0.139  -1.794   2.108  1.00  0.00     0.064 A 
ATOM     15  C   UNL     1      -0.857  -3.008   2.073  1.00  0.00     0.042 A 
ATOM     16  C   UNL     1       1.085  -1.689   2.810  1.00  0.00     0.050 A 
ATOM     17  C   UNL     1       1.421  -2.768   3.646  1.00  0.00     0.029 A 
ATOM     18  C   UNL     1       0.699  -3.973   3.616  1.00  0.00     0.028 A 
BRANCH  14  19
ATOM     19  C   UNL     1      -0.658  -0.754   1.178  1.00  0.00     0.250 C 
ATOM     20  N   UNL     1       0.237  -0.217   0.300  1.00  0.00    -0.366 N 
ATOM     21  H   UNL     1      -0.053   0.475  -0.337  1.00  0.00     0.159 HD
ATOM     22  H   UNL     1       1.173  -0.522   0.304  1.00  0.00     0.159 HD
ATOM     23  O   UNL     1      -1.846  -0.458   1.143  1.00  0.00    -0.269 OA
ENDBRANCH  14  19
BRANCH  16  24
ATOM     24  N   UNL     1       1.973  -0.641   2.629  1.00  0.00    -0.366 N 
ATOM     25  C   UNL     1       1.639   0.705   3.096  1.00  0.00     0.145 C 
ATOM     26  C   UNL     1       3.409  -0.871   2.405  1.00  0.00     0.145 C 
ATOM     27  C   UNL     1       2.300   1.751   2.179  1.00  0.00     0.181 C 
ATOM     28  C   UNL     1       3.972   0.231   1.492  1.00  0.00     0.181 C 
ATOM     29  O   UNL     1       3.717   1.538   2.039  1.00  0.00    -0.378 OA
ENDBRANCH  16  24
ENDBRANCH  10  13
ENDBRANCH   8   9
ENDBRANCH   5   7
ENDBRANCH   4   5
ENDBRANCH   3   4
ENDBRANCH   2   3
ENDBRANCH   1   2
BRANCH   1  30
ATOM     30  C   UNL     1       3.677  -3.297  -1.726  1.00  0.00     0.202 C 
BRANCH  30  31
ATOM     31  C   UNL     1       3.728  -4.654  -2.465  1.00  0.00     0.261 C 
BRANCH  31  32
ATOM     32  O   UNL     1       3.635  -5.856  -1.691  1.00  0.00    -0.460 OA
BRANCH  32  33
ATOM     33  C   UNL     1       4.817  -6.423  -1.343  1.00  0.00     0.338 C 
ATOM     34  O   UNL     1       5.928  -6.010  -1.621  1.00  0.00    -0.246 OA
BRANCH  33  35
ATOM     35  C   UNL     1       4.569  -7.495  -0.349  1.00  0.00     0.060 A 
ATOM     36  C   UNL     1       5.188  -7.401   0.909  1.00  0.00     0.016 A 
ATOM     37  C   UNL     1       3.797  -8.610  -0.672  1.00  0.00     0.016 A 
ATOM     38  C   UNL     1       5.084  -8.444   1.827  1.00  0.00     0.010 A 
ATOM     39  C   UNL     1       3.730  -9.676   0.232  1.00  0.00     0.010 A 
ATOM     40  C   UNL     1       4.416  -9.615   1.460  1.00  0.00    -0.014 A 
BRANCH  40  41
ATOM     41  C   UNL     1       4.683 -10.860   2.220  1.00  0.00     0.031 A 
ATOM     42  C   UNL     1       5.787 -11.756   1.725  1.00  0.00     0.074 A 
ATOM     43  C   UNL     1       3.987 -11.185   3.322  1.00  0.00     0.049 A 
ATOM     44  N   UNL     1       6.175 -12.923   2.167  1.00  0.00    -0.248 NA
ATOM     45  C   UNL     1       6.560 -11.263   0.571  1.00  0.00     0.031 C 
ATOM     46  C   UNL     1       2.931 -10.376   3.926  1.00  0.00     0.029 A 
ATOM     47  N   UNL     1       4.055 -12.303   4.114  1.00  0.00    -0.354 N 
ATOM     48  C   UNL     1       7.207 -13.320   1.325  1.00  0.00     0.074 A 
ATOM     49  C   UNL     1       7.384 -12.274   0.344  1.00  0.00     0.031 C 
ATOM     50  C   UNL     1       2.424 -11.043   4.979  1.00  0.00     0.029 A 
ATOM     51  C   UNL     1       3.096 -12.336   5.098  1.00  0.00     0.049 A 
ATOM     52  H   UNL     1       4.726 -13.013   3.989  1.00  0.00     0.167 HD
ATOM     53  C   UNL     1       7.949 -14.452   1.367  1.00  0.00     0.034 A 
ATOM     54  C   UNL     1       2.781 -13.315   5.971  1.00  0.00     0.034 A 
ATOM     55  C   UNL     1       7.769 -15.490   2.343  1.00  0.00     0.049 A 
ATOM     56  C   UNL     1       3.574 -14.598   5.957  1.00  0.00     0.074 A 
ATOM     57  C   UNL     1       8.479 -16.667   2.489  1.00  0.00     0.029 A 
ATOM     58  N   UNL     1       6.794 -15.484   3.330  1.00  0.00    -0.354 N 
ATOM     59  N   UNL     1       4.601 -14.929   5.211  1.00  0.00    -0.248 NA
ATOM     60  C   UNL     1       3.181 -15.633   6.924  1.00  0.00     0.031 C 
ATOM     61  C   UNL     1       7.908 -17.391   3.542  1.00  0.00     0.029 A 
ATOM     62  C   UNL     1       6.872 -16.644   4.080  1.00  0.00     0.049 A 
ATOM     63  H   UNL     1       6.143 -14.760   3.476  1.00  0.00     0.167 HD
ATOM     64  C   UNL     1       5.003 -16.188   5.646  1.00  0.00     0.074 A 
ATOM     65  C   UNL     1       4.114 -16.556   6.729  1.00  0.00     0.031 C 
ATOM     66  C   UNL     1       6.011 -16.973   5.188  1.00  0.00     0.034 A 
BRANCH  53  67
ATOM     67  C   UNL     1       9.015 -14.619   0.315  1.00  0.00     0.023 A 
ATOM     68  C   UNL     1      10.167 -13.806   0.345  1.00  0.00     0.012 A 
ATOM     69  C   UNL     1       8.880 -15.588  -0.698  1.00  0.00     0.148 A 
ATOM     70  C   UNL     1      11.144 -13.923  -0.643  1.00  0.00     0.002 A 
ATOM     71  C   UNL     1       9.882 -15.732  -1.650  1.00  0.00     0.091 A 
ATOM     72  F   UNL     1       7.767 -16.334  -0.726  1.00  0.00    -0.205 F 
ATOM     73  C   UNL     1      11.006 -14.891  -1.634  1.00  0.00     0.022 A 
BRANCH  71  74
ATOM     74  S   UNL     1       9.833 -17.002  -2.919  1.00  0.00     0.127 S 
ATOM     75  O   UNL     1       9.568 -16.210  -4.119  1.00  0.00    -0.237 OA
ATOM     76  O   UNL     1      11.183 -17.562  -2.845  1.00  0.00    -0.237 OA
ATOM     77  O   UNL     1       8.774 -17.921  -2.527  1.00  0.00    -0.744 OA
ENDBRANCH  71  74
ENDBRANCH  53  67
BRANCH  54  78
ATOM     78  C   UNL     1       1.677 -13.112   6.951  1.00  0.00     0.023 A 
ATOM     79  C   UNL     1       1.980 -12.995   8.322  1.00  0.00     0.012 A 
ATOM     80  C   UNL     1       0.334 -13.016   6.534  1.00  0.00     0.148 A 
ATOM     81  C   UNL     1       0.965 -12.810   9.262  1.00  0.00     0.002 A 
ATOM     82  C   UNL     1      -0.666 -12.777   7.470  1.00  0.00     0.091 A 
ATOM     83  F   UNL     1       0.066 -13.145   5.228  1.00  0.00    -0.205 F 
ATOM     84  C   UNL     1      -0.355 -12.691   8.836  1.00  0.00     0.022 A 
BRANCH  82  85
ATOM     85  S   UNL     1      -2.377 -12.488   7.008  1.00  0.00     0.127 S 
ATOM     86  O   UNL     1      -3.050 -13.630   7.623  1.00  0.00    -0.237 OA
ATOM     87  O   UNL     1      -2.642 -11.199   7.648  1.00  0.00    -0.237 OA
ATOM     88  O   UNL     1      -2.396 -12.458   5.553  1.00  0.00    -0.744 OA
ENDBRANCH  82  85
ENDBRANCH  54  78
BRANCH  66  89
ATOM     89  C   UNL     1       6.253 -18.288   5.885  1.00  0.00     0.023 A 
ATOM     90  C   UNL     1       5.353 -19.358   5.713  1.00  0.00     0.012 A 
ATOM     91  C   UNL     1       7.425 -18.486   6.643  1.00  0.00     0.148 A 
ATOM     92  C   UNL     1       5.600 -20.594   6.310  1.00  0.00     0.002 A 
ATOM     93  C   UNL     1       7.691 -19.735   7.190  1.00  0.00     0.091 A 
ATOM     94  F   UNL     1       8.262 -17.451   6.808  1.00  0.00    -0.205 F 
ATOM     95  C   UNL     1       6.773 -20.786   7.037  1.00  0.00     0.022 A 
BRANCH  93  96
ATOM     96  S   UNL     1       9.222 -20.104   8.055  1.00  0.00     0.127 S 
ATOM     97  O   UNL     1       8.757 -20.255   9.432  1.00  0.00    -0.237 OA
ATOM     98  O   UNL     1       9.646 -21.349   7.414  1.00  0.00    -0.237 OA
ATOM     99  O   UNL     1      10.104 -18.970   7.816  1.00  0.00    -0.744 OA
ENDBRANCH  93  96
ENDBRANCH  66  89
ENDBRANCH  40  41
ENDBRANCH  33  35
ENDBRANCH  32  33
ENDBRANCH  31  32
ENDBRANCH  30  31
ENDBRANCH   1  30
TORSDOF 21
