REMARK SMILES C=CC[N@@H+](CC(=O)OCCOCCOC(=O)c1ccc(-c2c3nc(c(-c4cccc(S(=O)(=O)[O-])c4F)c4ccc([nH]4)c(-c4cccc(S(=O)(=O)[O-])c4F)c4nc(c(-c5cccc(S(=O)(=O)[O-])c5F)c5ccc2[nH]5)C=C4)C=C3)cc1)[C@@H]1CCC[C@H](C(C)(C)C)CC1
REMARK SMILES IDX 9 1 8 2 6 3 7 4 5 5 4 6 3 8 2 9 1 10 80 11 81 12 82 13 90 15
REMARK SMILES IDX 89 16 84 17 83 18 85 20 86 21 87 22 88 23 10 24 11 25 12 26
REMARK SMILES IDX 13 27 14 28 15 29 16 30 17 31 18 32 79 33 19 34 78 35 20 36
REMARK SMILES IDX 21 37 22 38 72 39 23 40 77 41 71 42 73 43 24 44 76 45 70 46
REMARK SMILES IDX 69 47 25 49 57 50 37 51 56 52 38 53 41 54 55 55 74 56 39 57
REMARK SMILES IDX 40 58 54 60 75 61 42 62 26 63 27 64 35 65 28 66 30 67 36 68
REMARK SMILES IDX 29 69 31 70 32 71 33 72 34 73 58 74 59 75 67 76 60 77 62 78
REMARK SMILES IDX 68 79 61 80 63 81 64 82 65 83 66 84 43 85 44 86 52 87 45 88
REMARK SMILES IDX 47 89 53 90 46 91 48 92 49 93 50 94 51 95
REMARK H PARENT 4 7 73 48 41 59
REMARK Flexibility Score: 80.00
ROOT
ATOM      1  C   UNL     1      -4.758  -0.450  -0.852  1.00  0.00     0.261 C 
ENDROOT
BRANCH   1   2
ATOM      2  O   UNL     1      -3.727  -0.318   0.156  1.00  0.00    -0.459 OA
BRANCH   2   3
ATOM      3  C   UNL     1      -4.144   0.109   1.377  1.00  0.00     0.361 C 
ATOM      4  O   UNL     1      -5.334   0.224   1.674  1.00  0.00    -0.245 OA
BRANCH   3   5
ATOM      5  C   UNL     1      -3.070   0.524   2.393  1.00  0.00     0.387 C 
BRANCH   5   6
ATOM      6  N   UNL     1      -1.641   0.279   2.161  1.00  0.00    -0.320 N 
ATOM      7  H   UNL     1      -1.310   0.927   2.875  1.00  0.00     0.349 HD
BRANCH   6   8
ATOM      8  C   UNL     1      -1.105   0.771   0.894  1.00  0.00     0.291 C 
BRANCH   8   9
ATOM      9  C   UNL     1       0.374   1.045   0.901  1.00  0.00     0.025 C 
ATOM     10  C   UNL     1       1.240   0.485   0.044  1.00  0.00     0.010 C 
ENDBRANCH   8   9
ENDBRANCH   6   8
BRANCH   6  11
ATOM     11  C   UNL     1      -0.867  -0.706   2.945  1.00  0.00     0.184 C 
BRANCH  11  12
ATOM     12  C   UNL     1      -0.737  -2.015   2.179  1.00  0.00     0.065 C 
BRANCH  12  13
ATOM     13  C   UNL     1      -0.066  -3.158   2.927  1.00  0.00     0.006 CG0
ATOM     14  G   UNL     1      -1.098  -4.065   3.593  1.00  0.00     0.000 G0
ENDBRANCH  12  13
ENDBRANCH  11  12
BRANCH  11  15
ATOM     15  C   UNL     1      -1.307  -0.948   4.412  1.00  0.00     0.065 C 
BRANCH  15  16
ATOM     16  C   UNL     1      -2.358  -2.046   4.641  1.00  0.00     0.010 C 
BRANCH  16  17
ATOM     17  C   UNL     1      -1.814  -3.492   4.836  1.00  0.00    -0.005 C 
BRANCH  17  18
ATOM     18  C   UNL     1      -1.098  -4.065   3.593  1.00  0.00     0.004 CG0
ATOM     19  G   UNL     1      -0.066  -3.158   2.927  1.00  0.00     0.000 G0
ENDBRANCH  17  18
BRANCH  17  20
ATOM     20  C   UNL     1      -2.944  -4.481   5.364  1.00  0.00    -0.035 C 
ATOM     21  C   UNL     1      -2.493  -5.960   5.318  1.00  0.00     0.011 C 
ATOM     22  C   UNL     1      -3.267  -4.157   6.839  1.00  0.00     0.011 C 
ATOM     23  C   UNL     1      -4.250  -4.375   4.547  1.00  0.00     0.011 C 
ENDBRANCH  17  20
ENDBRANCH  16  17
ENDBRANCH  15  16
ENDBRANCH  11  15
ENDBRANCH   6  11
ENDBRANCH   5   6
ENDBRANCH   3   5
ENDBRANCH   2   3
ENDBRANCH   1   2
BRANCH   1  24
ATOM     24  C   UNL     1      -4.971  -1.866  -1.397  1.00  0.00     0.202 C 
BRANCH  24  25
ATOM     25  O   UNL     1      -5.257  -2.891  -0.458  1.00  0.00    -0.374 OA
BRANCH  25  26
ATOM     26  C   UNL     1      -4.226  -3.312   0.424  1.00  0.00     0.202 C 
BRANCH  26  27
ATOM     27  C   UNL     1      -2.776  -3.295  -0.058  1.00  0.00     0.261 C 
BRANCH  27  28
ATOM     28  O   UNL     1      -2.563  -3.660  -1.416  1.00  0.00    -0.460 OA
BRANCH  28  29
ATOM     29  C   UNL     1      -1.230  -3.708  -1.670  1.00  0.00     0.338 C 
ATOM     30  O   UNL     1      -0.378  -4.167  -0.922  1.00  0.00    -0.246 OA
BRANCH  29  31
ATOM     31  C   UNL     1      -0.910  -2.885  -2.854  1.00  0.00     0.060 A 
ATOM     32  C   UNL     1      -1.776  -2.781  -3.945  1.00  0.00     0.016 A 
ATOM     33  C   UNL     1       0.303  -2.184  -2.844  1.00  0.00     0.016 A 
ATOM     34  C   UNL     1      -1.388  -2.041  -5.062  1.00  0.00     0.010 A 
ATOM     35  C   UNL     1       0.663  -1.400  -3.936  1.00  0.00     0.010 A 
ATOM     36  C   UNL     1      -0.154  -1.375  -5.075  1.00  0.00    -0.014 A 
BRANCH  36  37
ATOM     37  C   UNL     1       0.364  -0.787  -6.332  1.00  0.00     0.031 A 
ATOM     38  C   UNL     1       1.516  -1.468  -7.022  1.00  0.00     0.074 A 
ATOM     39  C   UNL     1      -0.183   0.332  -6.840  1.00  0.00     0.049 A 
ATOM     40  N   UNL     1       2.163  -1.112  -8.099  1.00  0.00    -0.248 NA
ATOM     41  C   UNL     1       2.014  -2.712  -6.408  1.00  0.00     0.031 C 
ATOM     42  C   UNL     1      -1.295   1.073  -6.245  1.00  0.00     0.029 A 
ATOM     43  N   UNL     1       0.138   1.053  -7.962  1.00  0.00    -0.354 N 
ATOM     44  C   UNL     1       3.167  -2.059  -8.266  1.00  0.00     0.074 A 
ATOM     45  C   UNL     1       3.059  -2.994  -7.171  1.00  0.00     0.031 C 
ATOM     46  C   UNL     1      -1.557   2.152  -7.001  1.00  0.00     0.029 A 
ATOM     47  C   UNL     1      -0.608   2.199  -8.110  1.00  0.00     0.049 A 
ATOM     48  H   UNL     1       0.835   0.777  -8.600  1.00  0.00     0.167 HD
ATOM     49  C   UNL     1       4.087  -2.150  -9.254  1.00  0.00     0.034 A 
ATOM     50  C   UNL     1      -0.513   3.185  -9.024  1.00  0.00     0.034 A 
ATOM     51  C   UNL     1       4.161  -1.228 -10.353  1.00  0.00     0.049 A 
ATOM     52  C   UNL     1       0.523   3.065 -10.110  1.00  0.00     0.074 A 
ATOM     53  C   UNL     1       5.013  -1.254 -11.441  1.00  0.00     0.029 A 
ATOM     54  N   UNL     1       3.357  -0.107 -10.494  1.00  0.00    -0.354 N 
ATOM     55  N   UNL     1       1.396   2.107 -10.314  1.00  0.00    -0.248 NA
ATOM     56  C   UNL     1       0.572   4.142 -11.108  1.00  0.00     0.031 C 
ATOM     57  C   UNL     1       4.750  -0.124 -12.221  1.00  0.00     0.029 A 
ATOM     58  C   UNL     1       3.702   0.578 -11.644  1.00  0.00     0.049 A 
ATOM     59  H   UNL     1       2.646   0.161  -9.869  1.00  0.00     0.167 HD
ATOM     60  C   UNL     1       2.068   2.443 -11.482  1.00  0.00     0.074 A 
ATOM     61  C   UNL     1       1.494   3.690 -11.948  1.00  0.00     0.031 C 
ATOM     62  C   UNL     1       3.074   1.787 -12.111  1.00  0.00     0.034 A 
BRANCH  49  63
ATOM     63  C   UNL     1       5.075  -3.285  -9.195  1.00  0.00     0.023 A 
ATOM     64  C   UNL     1       4.646  -4.609  -9.424  1.00  0.00     0.012 A 
ATOM     65  C   UNL     1       6.440  -3.035  -8.951  1.00  0.00     0.148 A 
ATOM     66  C   UNL     1       5.551  -5.668  -9.374  1.00  0.00     0.002 A 
ATOM     67  C   UNL     1       7.344  -4.090  -8.953  1.00  0.00     0.091 A 
ATOM     68  F   UNL     1       6.825  -1.774  -8.713  1.00  0.00    -0.205 F 
ATOM     69  C   UNL     1       6.900  -5.408  -9.149  1.00  0.00     0.022 A 
BRANCH  67  70
ATOM     70  S   UNL     1       9.113  -3.851  -8.753  1.00  0.00     0.127 S 
ATOM     71  O   UNL     1       9.348  -4.467  -7.447  1.00  0.00    -0.237 OA
ATOM     72  O   UNL     1       9.653  -4.600  -9.887  1.00  0.00    -0.237 OA
ATOM     73  O   UNL     1       9.335  -2.413  -8.811  1.00  0.00    -0.744 OA
ENDBRANCH  67  70
ENDBRANCH  49  63
BRANCH  50  74
ATOM     74  C   UNL     1      -1.438   4.352  -8.962  1.00  0.00     0.023 A 
ATOM     75  C   UNL     1      -2.414   4.526  -9.962  1.00  0.00     0.012 A 
ATOM     76  C   UNL     1      -1.373   5.275  -7.900  1.00  0.00     0.148 A 
ATOM     77  C   UNL     1      -3.288   5.614  -9.922  1.00  0.00     0.002 A 
ATOM     78  C   UNL     1      -2.283   6.324  -7.835  1.00  0.00     0.091 A 
ATOM     79  F   UNL     1      -0.430   5.099  -6.963  1.00  0.00    -0.205 F 
ATOM     80  C   UNL     1      -3.229   6.506  -8.854  1.00  0.00     0.022 A 
BRANCH  78  81
ATOM     81  S   UNL     1      -2.365   7.443  -6.432  1.00  0.00     0.127 S 
ATOM     82  O   UNL     1      -1.905   8.697  -7.021  1.00  0.00    -0.237 OA
ATOM     83  O   UNL     1      -3.790   7.403  -6.100  1.00  0.00    -0.237 OA
ATOM     84  O   UNL     1      -1.497   6.865  -5.415  1.00  0.00    -0.744 OA
ENDBRANCH  78  81
ENDBRANCH  50  74
BRANCH  62  85
ATOM     85  C   UNL     1       3.587   2.361 -13.404  1.00  0.00     0.023 A 
ATOM     86  C   UNL     1       4.398   3.512 -13.394  1.00  0.00     0.012 A 
ATOM     87  C   UNL     1       3.356   1.682 -14.617  1.00  0.00     0.148 A 
ATOM     88  C   UNL     1       4.955   3.991 -14.579  1.00  0.00     0.002 A 
ATOM     89  C   UNL     1       3.958   2.134 -15.783  1.00  0.00     0.091 A 
ATOM     90  F   UNL     1       2.568   0.597 -14.601  1.00  0.00    -0.205 F 
ATOM     91  C   UNL     1       4.748   3.295 -15.769  1.00  0.00     0.022 A 
BRANCH  89  92
ATOM     92  S   UNL     1       3.837   1.243 -17.337  1.00  0.00     0.127 S 
ATOM     93  O   UNL     1       3.045   2.166 -18.148  1.00  0.00    -0.237 OA
ATOM     94  O   UNL     1       5.240   1.129 -17.736  1.00  0.00    -0.237 OA
ATOM     95  O   UNL     1       3.188  -0.025 -17.029  1.00  0.00    -0.744 OA
ENDBRANCH  89  92
ENDBRANCH  62  85
ENDBRANCH  36  37
ENDBRANCH  29  31
ENDBRANCH  28  29
ENDBRANCH  27  28
ENDBRANCH  26  27
ENDBRANCH  25  26
ENDBRANCH  24  25
ENDBRANCH   1  24
TORSDOF 22
