REMARK SMILES COC(=O)c1nc(C)cc(N[C@@H]2C=C[C@H](C(=O)OCCOCCOC(=O)c3ccc(-c4c5nc(c(-c6cccc(S(=O)(=O)[O-])c6F)c6ccc([nH]6)c(-c6cccc(S(=O)(=O)[O-])c6F)c6nc(c(-c7cccc(S(=O)(=O)[O-])c7F)c7ccc4[nH]7)C=C6)C=C5)cc3)C2)n1
REMARK SMILES IDX 20 1 19 2 18 3 16 4 17 5 15 6 12 7 13 8 90 9 14 10 11 11
REMARK SMILES IDX 10 13 5 14 6 15 91 16 7 17 8 18 9 19 3 20 4 21 2 22 1 23
REMARK SMILES IDX 21 24 22 25 23 26 24 27 25 28 26 29 27 30 28 31 89 32 29 33
REMARK SMILES IDX 88 34 30 35 31 36 32 37 82 38 33 39 87 40 81 41 83 42 34 43
REMARK SMILES IDX 86 44 80 45 79 46 35 48 67 49 47 50 66 51 48 52 51 53 65 54
REMARK SMILES IDX 84 55 49 56 50 57 64 59 85 60 52 61 36 62 37 63 45 64 38 65
REMARK SMILES IDX 40 66 46 67 39 68 41 69 42 70 43 71 44 72 68 73 69 74 77 75
REMARK SMILES IDX 70 76 72 77 78 78 71 79 73 80 74 81 75 82 76 83 53 84 54 85
REMARK SMILES IDX 62 86 55 87 57 88 63 89 56 90 58 91 59 92 60 93 61 94
REMARK H PARENT 11 12 83 47 51 58
REMARK Flexibility Score: inf
ROOT
ATOM      1  C   UNL     1      -8.192   0.690   0.443  1.00  0.00     0.202 C 
ENDROOT
BRANCH   1   2
ATOM      2  C   UNL     1      -7.261   2.087   0.235  1.00  0.00     0.261 C 
BRANCH   2   3
ATOM      3  O   UNL     1      -6.151   2.215  -0.797  1.00  0.00    -0.463 OA
BRANCH   3   4
ATOM      4  C   UNL     1      -5.033   2.986  -0.569  1.00  0.00     0.312 C 
ATOM      5  O   UNL     1      -4.946   3.691   0.439  1.00  0.00    -0.252 OA
BRANCH   4   6
ATOM      6  C   UNL     1      -3.748   2.863  -1.558  1.00  0.00     0.124 C 
ATOM      7  C   UNL     1      -2.873   2.290  -3.859  1.00  0.00     0.104 C 
ATOM      8  C   UNL     1      -2.455   1.296  -2.829  1.00  0.00    -0.006 C 
ATOM      9  C   UNL     1      -3.835   3.235  -3.061  1.00  0.00     0.048 C 
ATOM     10  C   UNL     1      -2.879   1.628  -1.601  1.00  0.00    -0.014 C 
BRANCH   7  11
ATOM     11  N   UNL     1      -3.429   1.680  -5.069  1.00  0.00    -0.364 N 
ATOM     12  H   UNL     1      -2.937   1.692  -5.921  1.00  0.00     0.162 HD
BRANCH  11  13
ATOM     13  C   UNL     1      -4.671   1.087  -4.965  1.00  0.00     0.131 A 
ATOM     14  C   UNL     1      -5.974   0.341  -3.337  1.00  0.00     0.241 A 
ATOM     15  N   UNL     1      -7.079   0.967  -3.819  1.00  0.00    -0.227 NA
ATOM     16  N   UNL     1      -4.796   0.292  -3.915  1.00  0.00    -0.205 NA
ATOM     17  C   UNL     1      -6.960   1.601  -4.987  1.00  0.00     0.044 A 
ATOM     18  C   UNL     1      -8.149   2.373  -5.466  1.00  0.00     0.067 C 
ATOM     19  C   UNL     1      -5.749   1.651  -5.634  1.00  0.00     0.070 A 
BRANCH  14  20
ATOM     20  C   UNL     1      -6.009   0.004  -1.916  1.00  0.00     0.376 C 
ATOM     21  O   UNL     1      -7.138   0.012  -1.466  1.00  0.00    -0.242 OA
BRANCH  20  22
ATOM     22  O   UNL     1      -4.853  -0.173  -1.210  1.00  0.00    -0.463 OA
ATOM     23  C   UNL     1      -4.775  -0.061   0.243  1.00  0.00     0.282 C 
ENDBRANCH  20  22
ENDBRANCH  14  20
ENDBRANCH  11  13
ENDBRANCH   7  11
ENDBRANCH   4   6
ENDBRANCH   3   4
ENDBRANCH   2   3
ENDBRANCH   1   2
BRANCH   1  24
ATOM     24  O   UNL     1      -7.519  -0.509   0.921  1.00  0.00    -0.374 OA
BRANCH  24  25
ATOM     25  C   UNL     1      -7.484  -1.869   0.385  1.00  0.00     0.202 C 
BRANCH  25  26
ATOM     26  C   UNL     1      -7.069  -2.521  -1.021  1.00  0.00     0.261 C 
BRANCH  26  27
ATOM     27  O   UNL     1      -7.748  -2.163  -2.243  1.00  0.00    -0.460 OA
BRANCH  27  28
ATOM     28  C   UNL     1      -9.077  -2.330  -2.260  1.00  0.00     0.338 C 
ATOM     29  O   UNL     1      -9.717  -3.018  -1.471  1.00  0.00    -0.246 OA
BRANCH  28  30
ATOM     30  C   UNL     1      -9.696  -1.404  -3.240  1.00  0.00     0.060 A 
ATOM     31  C   UNL     1     -10.662  -0.525  -2.740  1.00  0.00     0.016 A 
ATOM     32  C   UNL     1      -9.402  -1.395  -4.606  1.00  0.00     0.016 A 
ATOM     33  C   UNL     1     -11.382   0.321  -3.594  1.00  0.00     0.010 A 
ATOM     34  C   UNL     1     -10.120  -0.533  -5.460  1.00  0.00     0.010 A 
ATOM     35  C   UNL     1     -11.147   0.311  -4.973  1.00  0.00    -0.014 A 
BRANCH  35  36
ATOM     36  C   UNL     1     -12.060   1.046  -5.915  1.00  0.00     0.031 A 
ATOM     37  C   UNL     1     -12.877   0.242  -6.904  1.00  0.00     0.074 A 
ATOM     38  C   UNL     1     -12.191   2.393  -5.933  1.00  0.00     0.049 A 
ATOM     39  N   UNL     1     -13.671   0.652  -7.861  1.00  0.00    -0.248 NA
ATOM     40  C   UNL     1     -12.766  -1.222  -6.808  1.00  0.00     0.031 C 
ATOM     41  C   UNL     1     -11.515   3.333  -5.041  1.00  0.00     0.029 A 
ATOM     42  N   UNL     1     -12.926   3.212  -6.766  1.00  0.00    -0.354 N 
ATOM     43  C   UNL     1     -14.114  -0.499  -8.504  1.00  0.00     0.074 A 
ATOM     44  C   UNL     1     -13.444  -1.615  -7.873  1.00  0.00     0.031 C 
ATOM     45  C   UNL     1     -11.811   4.593  -5.413  1.00  0.00     0.029 A 
ATOM     46  C   UNL     1     -12.721   4.560  -6.556  1.00  0.00     0.049 A 
ATOM     47  H   UNL     1     -13.542   2.865  -7.451  1.00  0.00     0.167 HD
ATOM     48  C   UNL     1     -15.035  -0.640  -9.488  1.00  0.00     0.034 A 
ATOM     49  C   UNL     1     -13.212   5.645  -7.194  1.00  0.00     0.034 A 
ATOM     50  C   UNL     1     -15.774   0.442 -10.074  1.00  0.00     0.049 A 
ATOM     51  C   UNL     1     -14.235   5.469  -8.295  1.00  0.00     0.074 A 
ATOM     52  C   UNL     1     -16.787   0.380 -11.015  1.00  0.00     0.029 A 
ATOM     53  N   UNL     1     -15.586   1.780  -9.777  1.00  0.00    -0.354 N 
ATOM     54  N   UNL     1     -14.742   4.365  -8.785  1.00  0.00    -0.248 NA
ATOM     55  C   UNL     1     -14.802   6.694  -8.887  1.00  0.00     0.031 C 
ATOM     56  C   UNL     1     -17.195   1.685 -11.305  1.00  0.00     0.029 A 
ATOM     57  C   UNL     1     -16.460   2.556 -10.518  1.00  0.00     0.049 A 
ATOM     58  H   UNL     1     -14.928   2.129  -9.133  1.00  0.00     0.167 HD
ATOM     59  C   UNL     1     -15.728   4.761  -9.685  1.00  0.00     0.074 A 
ATOM     60  C   UNL     1     -15.752   6.207  -9.674  1.00  0.00     0.031 C 
ATOM     61  C   UNL     1     -16.540   3.992 -10.452  1.00  0.00     0.034 A 
BRANCH  48  62
ATOM     62  C   UNL     1     -15.327  -2.043  -9.953  1.00  0.00     0.023 A 
ATOM     63  C   UNL     1     -15.981  -2.945  -9.087  1.00  0.00     0.012 A 
ATOM     64  C   UNL     1     -14.950  -2.470 -11.240  1.00  0.00     0.148 A 
ATOM     65  C   UNL     1     -16.188  -4.269  -9.465  1.00  0.00     0.002 A 
ATOM     66  C   UNL     1     -15.213  -3.777 -11.632  1.00  0.00     0.091 A 
ATOM     67  F   UNL     1     -14.325  -1.601 -12.047  1.00  0.00    -0.205 F 
ATOM     68  C   UNL     1     -15.809  -4.684 -10.738  1.00  0.00     0.022 A 
BRANCH  66  69
ATOM     69  S   UNL     1     -14.844  -4.389 -13.278  1.00  0.00     0.127 S 
ATOM     70  O   UNL     1     -13.770  -5.343 -13.005  1.00  0.00    -0.237 OA
ATOM     71  O   UNL     1     -16.116  -4.997 -13.669  1.00  0.00    -0.237 OA
ATOM     72  O   UNL     1     -14.457  -3.226 -14.064  1.00  0.00    -0.744 OA
ENDBRANCH  66  69
ENDBRANCH  48  62
BRANCH  49  73
ATOM     73  C   UNL     1     -12.826   7.027  -6.770  1.00  0.00     0.023 A 
ATOM     74  C   UNL     1     -13.785   7.847  -6.140  1.00  0.00     0.012 A 
ATOM     75  C   UNL     1     -11.548   7.554  -7.039  1.00  0.00     0.148 A 
ATOM     76  C   UNL     1     -13.499   9.180  -5.838  1.00  0.00     0.002 A 
ATOM     77  C   UNL     1     -11.254   8.871  -6.694  1.00  0.00     0.091 A 
ATOM     78  F   UNL     1     -10.649   6.763  -7.643  1.00  0.00    -0.205 F 
ATOM     79  C   UNL     1     -12.234   9.691  -6.113  1.00  0.00     0.022 A 
BRANCH  77  80
ATOM     80  S   UNL     1      -9.628   9.601  -6.925  1.00  0.00     0.127 S 
ATOM     81  O   UNL     1      -9.899  10.630  -7.925  1.00  0.00    -0.237 OA
ATOM     82  O   UNL     1      -9.335  10.107  -5.584  1.00  0.00    -0.237 OA
ATOM     83  O   UNL     1      -8.764   8.512  -7.362  1.00  0.00    -0.744 OA
ENDBRANCH  77  80
ENDBRANCH  49  73
BRANCH  61  84
ATOM     84  C   UNL     1     -17.586   4.668 -11.303  1.00  0.00     0.023 A 
ATOM     85  C   UNL     1     -17.210   5.388 -12.454  1.00  0.00     0.012 A 
ATOM     86  C   UNL     1     -18.956   4.488 -11.020  1.00  0.00     0.148 A 
ATOM     87  C   UNL     1     -18.179   5.938 -13.295  1.00  0.00     0.002 A 
ATOM     88  C   UNL     1     -19.915   4.991 -11.891  1.00  0.00     0.091 A 
ATOM     89  F   UNL     1     -19.296   3.816  -9.911  1.00  0.00    -0.205 F 
ATOM     90  C   UNL     1     -19.529   5.726 -13.023  1.00  0.00     0.022 A 
BRANCH  88  91
ATOM     91  S   UNL     1     -21.672   4.674 -11.682  1.00  0.00     0.127 S 
ATOM     92  O   UNL     1     -22.172   5.997 -11.314  1.00  0.00    -0.237 OA
ATOM     93  O   UNL     1     -22.065   4.223 -13.018  1.00  0.00    -0.237 OA
ATOM     94  O   UNL     1     -21.778   3.657 -10.645  1.00  0.00    -0.744 OA
ENDBRANCH  88  91
ENDBRANCH  61  84
ENDBRANCH  35  36
ENDBRANCH  28  30
ENDBRANCH  27  28
ENDBRANCH  26  27
ENDBRANCH  25  26
ENDBRANCH  24  25
ENDBRANCH   1  24
TORSDOF 21
