REMARK SMILES COc1ccc2c(c1)[C@@](NC=O)(C(=O)OCCOCCOC(=O)c1ccc(-c3c4nc(c(-c5cccc(S(=O)(=O)[O-])c5F)c5ccc([nH]5)c(-c5cccc(S(=O)(=O)[O-])c5F)c5nc(c(-c6cccc(S(=O)(=O)[O-])c6F)c6ccc3[nH]6)C=C5)C=C4)cc1)CCC2
REMARK SMILES IDX 19 1 18 2 17 3 16 4 15 5 13 6 14 7 9 8 3 9 4 10 8 11 5 12
REMARK SMILES IDX 7 13 6 14 89 15 87 16 88 17 2 18 1 19 10 20 11 21 12 23
REMARK SMILES IDX 20 24 21 25 22 26 23 27 24 28 25 29 86 30 26 31 85 32 27 33
REMARK SMILES IDX 28 34 29 35 79 36 30 37 84 38 78 39 80 40 31 41 83 42 77 43
REMARK SMILES IDX 76 44 32 46 64 47 44 48 63 49 45 50 48 51 62 52 81 53 46 54
REMARK SMILES IDX 47 55 61 57 82 58 49 59 33 60 34 61 42 62 35 63 37 64 43 65
REMARK SMILES IDX 36 66 38 67 39 68 40 69 41 70 65 71 66 72 74 73 67 74 69 75
REMARK SMILES IDX 75 76 68 77 70 78 71 79 72 80 73 81 50 82 51 83 59 84 52 85
REMARK SMILES IDX 54 86 60 87 53 88 55 89 56 90 57 91 58 92
REMARK H PARENT 10 22 80 45 48 56
REMARK Flexibility Score: inf
ROOT
ATOM      1  C   UNL     1       4.529  -1.119   4.583  1.00  0.00     0.202 C 
ENDROOT
BRANCH   1   2
ATOM      2  O   UNL     1       5.957  -1.066   4.592  1.00  0.00    -0.374 OA
BRANCH   2   3
ATOM      3  C   UNL     1       6.600  -0.515   3.447  1.00  0.00     0.202 C 
BRANCH   3   4
ATOM      4  C   UNL     1       6.722  -1.393   2.195  1.00  0.00     0.261 C 
BRANCH   4   5
ATOM      5  O   UNL     1       5.522  -2.107   1.862  1.00  0.00    -0.461 OA
BRANCH   5   6
ATOM      6  C   UNL     1       5.487  -3.389   2.325  1.00  0.00     0.336 C 
ATOM      7  O   UNL     1       6.432  -3.904   2.922  1.00  0.00    -0.249 OA
BRANCH   6   8
ATOM      8  C   UNL     1       4.203  -4.188   1.898  1.00  0.00     0.164 C 
ATOM      9  C   UNL     1       1.294  -1.629   1.830  1.00  0.00     0.119 A 
ATOM     10  C   UNL     1       0.326  -2.272   2.590  1.00  0.00     0.047 A 
ATOM     11  C   UNL     1       2.540  -2.232   1.623  1.00  0.00     0.053 A 
ATOM     12  C   UNL     1       0.582  -3.535   3.108  1.00  0.00     0.008 A 
ATOM     13  C   UNL     1       2.848  -3.498   2.178  1.00  0.00    -0.004 A 
ATOM     14  C   UNL     1       1.822  -4.163   2.896  1.00  0.00    -0.042 A 
ATOM     15  C   UNL     1       1.996  -5.540   3.486  1.00  0.00     0.036 C 
ATOM     16  C   UNL     1       4.344  -5.521   2.699  1.00  0.00     0.046 C 
ATOM     17  C   UNL     1       3.079  -6.347   2.795  1.00  0.00     0.008 C 
BRANCH   9  18
ATOM     18  O   UNL     1       0.958  -0.381   1.381  1.00  0.00    -0.497 OA
ATOM     19  C   UNL     1       1.288  -0.150   0.014  1.00  0.00     0.278 C 
ENDBRANCH   9  18
BRANCH   8  20
ATOM     20  N   UNL     1       4.348  -4.444   0.453  1.00  0.00    -0.339 N 
ATOM     21  C   UNL     1       3.438  -5.053  -0.353  1.00  0.00     0.338 C 
ATOM     22  H   UNL     1       5.186  -4.146   0.031  1.00  0.00     0.164 HD
ATOM     23  O   UNL     1       3.677  -5.350  -1.515  1.00  0.00    -0.279 OA
ENDBRANCH   8  20
ENDBRANCH   6   8
ENDBRANCH   5   6
ENDBRANCH   4   5
ENDBRANCH   3   4
ENDBRANCH   2   3
ENDBRANCH   1   2
BRANCH   1  24
ATOM     24  C   UNL     1       3.765   0.206   4.691  1.00  0.00     0.261 C 
BRANCH  24  25
ATOM     25  O   UNL     1       3.909   1.007   3.504  1.00  0.00    -0.460 OA
BRANCH  25  26
ATOM     26  C   UNL     1       4.531   2.195   3.688  1.00  0.00     0.338 C 
ATOM     27  O   UNL     1       4.906   2.676   4.750  1.00  0.00    -0.246 OA
BRANCH  26  28
ATOM     28  C   UNL     1       4.909   2.768   2.384  1.00  0.00     0.060 A 
ATOM     29  C   UNL     1       6.257   3.103   2.191  1.00  0.00     0.016 A 
ATOM     30  C   UNL     1       3.962   3.034   1.394  1.00  0.00     0.016 A 
ATOM     31  C   UNL     1       6.655   3.756   1.028  1.00  0.00     0.010 A 
ATOM     32  C   UNL     1       4.362   3.702   0.232  1.00  0.00     0.010 A 
ATOM     33  C   UNL     1       5.701   4.099   0.062  1.00  0.00    -0.014 A 
BRANCH  33  34
ATOM     34  C   UNL     1       6.082   5.006  -1.047  1.00  0.00     0.031 A 
ATOM     35  C   UNL     1       5.745   6.469  -0.940  1.00  0.00     0.074 A 
ATOM     36  C   UNL     1       6.732   4.539  -2.128  1.00  0.00     0.049 A 
ATOM     37  N   UNL     1       5.967   7.434  -1.792  1.00  0.00    -0.248 NA
ATOM     38  C   UNL     1       5.065   6.899   0.293  1.00  0.00     0.031 C 
ATOM     39  C   UNL     1       7.125   3.147  -2.340  1.00  0.00     0.029 A 
ATOM     40  N   UNL     1       7.158   5.187  -3.260  1.00  0.00    -0.354 N 
ATOM     41  C   UNL     1       5.435   8.580  -1.214  1.00  0.00     0.074 A 
ATOM     42  C   UNL     1       4.866   8.188   0.057  1.00  0.00     0.031 C 
ATOM     43  C   UNL     1       7.712   3.040  -3.545  1.00  0.00     0.029 A 
ATOM     44  C   UNL     1       7.716   4.349  -4.195  1.00  0.00     0.049 A 
ATOM     45  H   UNL     1       7.072   6.159  -3.389  1.00  0.00     0.167 HD
ATOM     46  C   UNL     1       5.435   9.848  -1.688  1.00  0.00     0.034 A 
ATOM     47  C   UNL     1       8.162   4.608  -5.441  1.00  0.00     0.034 A 
ATOM     48  C   UNL     1       6.018  10.240  -2.942  1.00  0.00     0.049 A 
ATOM     49  C   UNL     1       8.122   6.023  -5.959  1.00  0.00     0.074 A 
ATOM     50  C   UNL     1       6.104  11.507  -3.492  1.00  0.00     0.029 A 
ATOM     51  N   UNL     1       6.605   9.370  -3.848  1.00  0.00    -0.354 N 
ATOM     52  N   UNL     1       7.719   7.114  -5.353  1.00  0.00    -0.248 NA
ATOM     53  C   UNL     1       8.628   6.247  -7.321  1.00  0.00     0.031 C 
ATOM     54  C   UNL     1       6.723  11.399  -4.742  1.00  0.00     0.029 A 
ATOM     55  C   UNL     1       7.046  10.069  -4.958  1.00  0.00     0.049 A 
ATOM     56  H   UNL     1       6.695   8.398  -3.720  1.00  0.00     0.167 HD
ATOM     57  C   UNL     1       7.957   8.156  -6.243  1.00  0.00     0.074 A 
ATOM     58  C   UNL     1       8.556   7.567  -7.423  1.00  0.00     0.031 C 
ATOM     59  C   UNL     1       7.692   9.478  -6.102  1.00  0.00     0.034 A 
BRANCH  46  60
ATOM     60  C   UNL     1       4.808  10.914  -0.829  1.00  0.00     0.023 A 
ATOM     61  C   UNL     1       5.476  11.356   0.330  1.00  0.00     0.012 A 
ATOM     62  C   UNL     1       3.587  11.514  -1.195  1.00  0.00     0.148 A 
ATOM     63  C   UNL     1       4.926  12.358   1.128  1.00  0.00     0.002 A 
ATOM     64  C   UNL     1       3.065  12.541  -0.417  1.00  0.00     0.091 A 
ATOM     65  F   UNL     1       2.954  11.062  -2.287  1.00  0.00    -0.205 F 
ATOM     66  C   UNL     1       3.728  12.957   0.750  1.00  0.00     0.022 A 
BRANCH  64  67
ATOM     67  S   UNL     1       1.565  13.424  -0.861  1.00  0.00     0.127 S 
ATOM     68  O   UNL     1       0.622  12.924   0.138  1.00  0.00    -0.237 OA
ATOM     69  O   UNL     1       1.964  14.820  -0.679  1.00  0.00    -0.237 OA
ATOM     70  O   UNL     1       1.274  13.051  -2.239  1.00  0.00    -0.744 OA
ENDBRANCH  64  67
ENDBRANCH  46  60
BRANCH  47  71
ATOM     71  C   UNL     1       8.720   3.507  -6.275  1.00  0.00     0.023 A 
ATOM     72  C   UNL     1      10.098   3.487  -6.568  1.00  0.00     0.012 A 
ATOM     73  C   UNL     1       7.898   2.474  -6.766  1.00  0.00     0.148 A 
ATOM     74  C   UNL     1      10.642   2.473  -7.357  1.00  0.00     0.002 A 
ATOM     75  C   UNL     1       8.456   1.438  -7.505  1.00  0.00     0.091 A 
ATOM     76  F   UNL     1       6.587   2.523  -6.492  1.00  0.00    -0.205 F 
ATOM     77  C   UNL     1       9.824   1.444  -7.816  1.00  0.00     0.022 A 
BRANCH  75  78
ATOM     78  S   UNL     1       7.502   0.008  -8.027  1.00  0.00     0.127 S 
ATOM     79  O   UNL     1       7.412   0.220  -9.470  1.00  0.00    -0.237 OA
ATOM     80  O   UNL     1       8.370  -1.097  -7.619  1.00  0.00    -0.237 OA
ATOM     81  O   UNL     1       6.246   0.088  -7.294  1.00  0.00    -0.744 OA
ENDBRANCH  75  78
ENDBRANCH  47  71
BRANCH  59  82
ATOM     82  C   UNL     1       8.078  10.396  -7.234  1.00  0.00     0.023 A 
ATOM     83  C   UNL     1       7.330  10.389  -8.428  1.00  0.00     0.012 A 
ATOM     84  C   UNL     1       9.130  11.321  -7.083  1.00  0.00     0.148 A 
ATOM     85  C   UNL     1       7.643  11.266  -9.466  1.00  0.00     0.002 A 
ATOM     86  C   UNL     1       9.406  12.224  -8.103  1.00  0.00     0.091 A 
ATOM     87  F   UNL     1       9.842  11.300  -5.947  1.00  0.00    -0.205 F 
ATOM     88  C   UNL     1       8.671  12.190  -9.299  1.00  0.00     0.022 A 
BRANCH  86  89
ATOM     89  S   UNL     1      10.648  13.511  -7.938  1.00  0.00     0.127 S 
ATOM     90  O   UNL     1      11.716  13.008  -8.799  1.00  0.00    -0.237 OA
ATOM     91  O   UNL     1       9.949  14.688  -8.457  1.00  0.00    -0.237 OA
ATOM     92  O   UNL     1      10.968  13.579  -6.518  1.00  0.00    -0.744 OA
ENDBRANCH  86  89
ENDBRANCH  59  82
ENDBRANCH  33  34
ENDBRANCH  26  28
ENDBRANCH  25  26
ENDBRANCH  24  25
ENDBRANCH   1  24
TORSDOF 19
