REMARK SMILES O=C(CCCCCc1cc2c(cc1Br)OCCCO2)OCCOCCOC(=O)c1ccc(-c2c3nc(c(-c4cccc(S(=O)(=O)[O-])c4F)c4ccc([nH]4)c(-c4cccc(S(=O)(=O)[O-])c4F)c4nc(c(-c5cccc(S(=O)(=O)[O-])c5F)c5ccc2[nH]5)C=C4)C=C3)cc1
REMARK SMILES IDX 21 1 20 2 2 3 1 4 3 5 4 6 5 7 6 8 7 9 8 10 9 11 13 12 10 13
REMARK SMILES IDX 12 14 14 15 11 16 19 17 18 18 17 19 15 21 16 22 22 24 23 25
REMARK SMILES IDX 24 26 25 27 26 28 27 29 28 30 29 31 30 32 91 33 31 34 90 35
REMARK SMILES IDX 32 36 33 37 34 38 84 39 35 40 89 41 83 42 85 43 36 44 88 45
REMARK SMILES IDX 82 46 81 47 37 49 69 50 49 51 68 52 50 53 53 54 67 55 86 56
REMARK SMILES IDX 51 57 52 58 66 60 87 61 54 62 38 63 39 64 47 65 40 66 42 67
REMARK SMILES IDX 48 68 41 69 43 70 44 71 45 72 46 73 70 74 71 75 79 76 72 77
REMARK SMILES IDX 74 78 80 79 73 80 75 81 76 82 77 83 78 84 55 85 56 86 64 87
REMARK SMILES IDX 57 88 59 89 65 90 58 91 60 92 61 93 62 94 63 95
REMARK H PARENT 85 48 53 59
REMARK Flexibility Score: 80.00
ROOT
ATOM      1  C   UNL     1       3.596   1.345   0.716  1.00  0.00     0.261 C 
ENDROOT
BRANCH   1   2
ATOM      2  O   UNL     1       2.279   1.238   0.158  1.00  0.00    -0.463 OA
BRANCH   2   3
ATOM      3  C   UNL     1       1.953   0.597  -0.984  1.00  0.00     0.305 C 
ATOM      4  O   UNL     1       0.849   0.803  -1.490  1.00  0.00    -0.252 OA
BRANCH   3   5
ATOM      5  C   UNL     1       2.871  -0.443  -1.589  1.00  0.00     0.123 C 
BRANCH   5   6
ATOM      6  C   UNL     1       3.844   0.004  -2.672  1.00  0.00     0.012 C 
BRANCH   6   7
ATOM      7  C   UNL     1       5.212   0.537  -2.240  1.00  0.00     0.001 C 
BRANCH   7   8
ATOM      8  C   UNL     1       5.992  -0.288  -1.185  1.00  0.00     0.005 C 
BRANCH   8   9
ATOM      9  C   UNL     1       7.158  -1.141  -1.716  1.00  0.00     0.037 C 
BRANCH   9  10
ATOM     10  C   UNL     1       8.090  -0.368  -2.620  1.00  0.00    -0.030 A 
ATOM     11  C   UNL     1       8.427   0.950  -2.261  1.00  0.00     0.055 A 
ATOM     12  C   UNL     1       8.518  -0.852  -3.868  1.00  0.00     0.025 A 
ATOM     13  C   UNL     1       8.924   1.825  -3.215  1.00  0.00     0.161 A 
ATOM     14  C   UNL     1       9.105   0.013  -4.795  1.00  0.00     0.066 A 
ATOM     15  Br  UNL     1       8.277  -2.659  -4.405  1.00  0.00    -0.050 Br
ATOM     16  C   UNL     1       9.232   1.365  -4.491  1.00  0.00     0.162 A 
BRANCH  13  17
ATOM     17  O   UNL     1       9.036   3.140  -2.863  1.00  0.00    -0.490 OA
BRANCH  17  18
ATOM     18  C   UNL     1       8.037   3.917  -3.531  1.00  0.00     0.233 C 
BRANCH  18  19
ATOM     19  C   UNL     1       8.488   4.308  -4.932  1.00  0.00     0.083 CG0
ATOM     20  G   UNL     1       8.599   3.101  -5.857  1.00  0.00     0.000 G0
ENDBRANCH  18  19
ENDBRANCH  17  18
ENDBRANCH  13  17
BRANCH  16  21
ATOM     21  O   UNL     1       9.656   2.209  -5.480  1.00  0.00    -0.490 OA
BRANCH  21  22
ATOM     22  C   UNL     1       8.599   3.101  -5.857  1.00  0.00     0.233 CG0
ATOM     23  G   UNL     1       8.488   4.308  -4.932  1.00  0.00     0.000 G0
ENDBRANCH  21  22
ENDBRANCH  16  21
ENDBRANCH   9  10
ENDBRANCH   8   9
ENDBRANCH   7   8
ENDBRANCH   6   7
ENDBRANCH   5   6
ENDBRANCH   3   5
ENDBRANCH   2   3
ENDBRANCH   1   2
BRANCH   1  24
ATOM     24  C   UNL     1       3.869   0.315   1.796  1.00  0.00     0.202 C 
BRANCH  24  25
ATOM     25  O   UNL     1       3.746  -1.030   1.337  1.00  0.00    -0.374 OA
BRANCH  25  26
ATOM     26  C   UNL     1       2.572  -1.701   1.803  1.00  0.00     0.202 C 
BRANCH  26  27
ATOM     27  C   UNL     1       2.806  -2.432   3.129  1.00  0.00     0.261 C 
BRANCH  27  28
ATOM     28  O   UNL     1       3.223  -1.506   4.142  1.00  0.00    -0.460 OA
BRANCH  28  29
ATOM     29  C   UNL     1       4.567  -1.391   4.317  1.00  0.00     0.338 C 
ATOM     30  O   UNL     1       5.424  -2.145   3.888  1.00  0.00    -0.246 OA
BRANCH  29  31
ATOM     31  C   UNL     1       4.857  -0.066   4.927  1.00  0.00     0.060 A 
ATOM     32  C   UNL     1       3.888   0.628   5.660  1.00  0.00     0.016 A 
ATOM     33  C   UNL     1       6.102   0.531   4.677  1.00  0.00     0.016 A 
ATOM     34  C   UNL     1       4.174   1.899   6.157  1.00  0.00     0.010 A 
ATOM     35  C   UNL     1       6.395   1.798   5.191  1.00  0.00     0.010 A 
ATOM     36  C   UNL     1       5.441   2.478   5.956  1.00  0.00    -0.014 A 
BRANCH  36  37
ATOM     37  C   UNL     1       5.803   3.667   6.763  1.00  0.00     0.031 A 
ATOM     38  C   UNL     1       5.866   5.050   6.196  1.00  0.00     0.074 A 
ATOM     39  C   UNL     1       6.044   3.457   8.072  1.00  0.00     0.049 A 
ATOM     40  N   UNL     1       5.949   6.185   6.840  1.00  0.00    -0.248 NA
ATOM     41  C   UNL     1       5.840   5.187   4.733  1.00  0.00     0.031 C 
ATOM     42  C   UNL     1       6.081   2.138   8.711  1.00  0.00     0.029 A 
ATOM     43  N   UNL     1       6.272   4.333   9.100  1.00  0.00    -0.354 N 
ATOM     44  C   UNL     1       5.993   7.175   5.869  1.00  0.00     0.074 A 
ATOM     45  C   UNL     1       5.941   6.505   4.586  1.00  0.00     0.031 C 
ATOM     46  C   UNL     1       6.261   2.295  10.030  1.00  0.00     0.029 A 
ATOM     47  C   UNL     1       6.368   3.719  10.326  1.00  0.00     0.049 A 
ATOM     48  H   UNL     1       6.359   5.306   8.973  1.00  0.00     0.167 HD
ATOM     49  C   UNL     1       6.053   8.517   6.043  1.00  0.00     0.034 A 
ATOM     50  C   UNL     1       6.494   4.241  11.560  1.00  0.00     0.034 A 
ATOM     51  C   UNL     1       6.091   9.166   7.328  1.00  0.00     0.049 A 
ATOM     52  C   UNL     1       6.513   5.730  11.725  1.00  0.00     0.074 A 
ATOM     53  C   UNL     1       6.067  10.523   7.602  1.00  0.00     0.029 A 
ATOM     54  N   UNL     1       6.180   8.514   8.547  1.00  0.00    -0.354 N 
ATOM     55  N   UNL     1       6.384   6.655  10.807  1.00  0.00    -0.248 NA
ATOM     56  C   UNL     1       6.666   6.249  13.091  1.00  0.00     0.031 C 
ATOM     57  C   UNL     1       6.166  10.691   8.986  1.00  0.00     0.029 A 
ATOM     58  C   UNL     1       6.229   9.439   9.575  1.00  0.00     0.049 A 
ATOM     59  H   UNL     1       6.205   7.537   8.665  1.00  0.00     0.167 HD
ATOM     60  C   UNL     1       6.418   7.867  11.483  1.00  0.00     0.074 A 
ATOM     61  C   UNL     1       6.570   7.559  12.891  1.00  0.00     0.031 C 
ATOM     62  C   UNL     1       6.340   9.120  10.976  1.00  0.00     0.034 A 
BRANCH  49  63
ATOM     63  C   UNL     1       6.024   9.400   4.826  1.00  0.00     0.023 A 
ATOM     64  C   UNL     1       4.792   9.642   4.186  1.00  0.00     0.012 A 
ATOM     65  C   UNL     1       7.175  10.095   4.404  1.00  0.00     0.148 A 
ATOM     66  C   UNL     1       4.706  10.559   3.138  1.00  0.00     0.002 A 
ATOM     67  C   UNL     1       7.076  11.026   3.376  1.00  0.00     0.091 A 
ATOM     68  F   UNL     1       8.335   9.844   5.026  1.00  0.00    -0.205 F 
ATOM     69  C   UNL     1       5.844  11.256   2.741  1.00  0.00     0.022 A 
BRANCH  67  70
ATOM     70  S   UNL     1       8.467  12.018   2.820  1.00  0.00     0.127 S 
ATOM     71  O   UNL     1       8.652  11.523   1.456  1.00  0.00    -0.237 OA
ATOM     72  O   UNL     1       7.931  13.376   2.908  1.00  0.00    -0.237 OA
ATOM     73  O   UNL     1       9.561  11.729   3.736  1.00  0.00    -0.744 OA
ENDBRANCH  67  70
ENDBRANCH  49  63
BRANCH  50  74
ATOM     74  C   UNL     1       6.504   3.324  12.730  1.00  0.00     0.023 A 
ATOM     75  C   UNL     1       5.343   3.202  13.516  1.00  0.00     0.012 A 
ATOM     76  C   UNL     1       7.615   2.503  12.999  1.00  0.00     0.148 A 
ATOM     77  C   UNL     1       5.290   2.277  14.558  1.00  0.00     0.002 A 
ATOM     78  C   UNL     1       7.542   1.558  14.014  1.00  0.00     0.091 A 
ATOM     79  F   UNL     1       8.701   2.637  12.226  1.00  0.00    -0.205 F 
ATOM     80  C   UNL     1       6.383   1.449  14.800  1.00  0.00     0.022 A 
BRANCH  78  81
ATOM     81  S   UNL     1       8.856   0.377  14.334  1.00  0.00     0.127 S 
ATOM     82  O   UNL     1       9.261   0.744  15.689  1.00  0.00    -0.237 OA
ATOM     83  O   UNL     1       8.144  -0.897  14.226  1.00  0.00    -0.237 OA
ATOM     84  O   UNL     1       9.855   0.604  13.300  1.00  0.00    -0.744 OA
ENDBRANCH  78  81
ENDBRANCH  50  74
BRANCH  62  85
ATOM     85  C   UNL     1       6.407  10.277  11.932  1.00  0.00     0.023 A 
ATOM     86  C   UNL     1       7.657  10.692  12.429  1.00  0.00     0.012 A 
ATOM     87  C   UNL     1       5.255  11.037  12.216  1.00  0.00     0.148 A 
ATOM     88  C   UNL     1       7.761  11.851  13.197  1.00  0.00     0.002 A 
ATOM     89  C   UNL     1       5.372  12.210  12.951  1.00  0.00     0.091 A 
ATOM     90  F   UNL     1       4.078  10.613  11.735  1.00  0.00    -0.205 F 
ATOM     91  C   UNL     1       6.623  12.616  13.445  1.00  0.00     0.022 A 
BRANCH  89  92
ATOM     92  S   UNL     1       3.981  13.305  13.258  1.00  0.00     0.127 S 
ATOM     93  O   UNL     1       3.864  13.236  14.714  1.00  0.00    -0.237 OA
ATOM     94  O   UNL     1       4.476  14.581  12.743  1.00  0.00    -0.237 OA
ATOM     95  O   UNL     1       2.854  12.745  12.523  1.00  0.00    -0.744 OA
ENDBRANCH  89  92
ENDBRANCH  62  85
ENDBRANCH  36  37
ENDBRANCH  29  31
ENDBRANCH  28  29
ENDBRANCH  27  28
ENDBRANCH  26  27
ENDBRANCH  25  26
ENDBRANCH  24  25
ENDBRANCH   1  24
TORSDOF 22
