REMARK SMILES C[C@@H](Oc1ccc(-c2ccccc2)cc1)C(=O)N1CCC[C@H](C(=O)OCCOCCOC(=O)c2ccc(-c3c4nc(c(-c5cccc(S(=O)(=O)[O-])c5F)c5ccc([nH]5)c(-c5cccc(S(=O)(=O)[O-])c5F)c5nc(c(-c6cccc(S(=O)(=O)[O-])c6F)c6ccc3[nH]6)C=C5)C=C4)cc2)C1
REMARK SMILES IDX 27 1 26 2 25 3 23 4 24 5 22 6 18 7 19 8 97 9 20 10 21 11
REMARK SMILES IDX 16 12 17 13 2 14 1 15 3 16 4 17 5 18 15 19 6 20 14 21 7 22
REMARK SMILES IDX 8 23 9 24 13 25 10 26 12 27 11 28 28 29 29 30 30 31 31 32
REMARK SMILES IDX 32 33 33 34 34 35 35 36 96 37 36 38 95 39 37 40 38 41 39 42
REMARK SMILES IDX 89 43 40 44 94 45 88 46 90 47 41 48 93 49 87 50 86 51 42 53
REMARK SMILES IDX 74 54 54 55 73 56 55 57 58 58 72 59 91 60 56 61 57 62 71 64
REMARK SMILES IDX 92 65 59 66 43 67 44 68 52 69 45 70 47 71 53 72 46 73 48 74
REMARK SMILES IDX 49 75 50 76 51 77 75 78 76 79 84 80 77 81 79 82 85 83 78 84
REMARK SMILES IDX 80 85 81 86 82 87 83 88 60 89 61 90 69 91 62 92 64 93 70 94
REMARK SMILES IDX 63 95 65 96 66 97 67 98 68 99
REMARK H PARENT 90 52 58 63
REMARK Flexibility Score: inf
ROOT
ATOM      1  C   UNL     1      -3.791  -2.973   1.079  1.00  0.00     0.202 C 
ENDROOT
BRANCH   1   2
ATOM      2  C   UNL     1      -2.446  -2.278   0.848  1.00  0.00     0.261 C 
BRANCH   2   3
ATOM      3  O   UNL     1      -2.605  -1.167  -0.053  1.00  0.00    -0.463 OA
BRANCH   3   4
ATOM      4  C   UNL     1      -1.844  -1.149  -1.173  1.00  0.00     0.310 C 
ATOM      5  O   UNL     1      -0.991  -1.982  -1.458  1.00  0.00    -0.252 OA
BRANCH   4   6
ATOM      6  C   UNL     1      -2.122   0.060  -2.052  1.00  0.00     0.119 C 
ATOM      7  N   UNL     1      -1.528   1.817  -0.453  1.00  0.00    -0.339 N 
ATOM      8  C   UNL     1      -2.847   2.441  -0.487  1.00  0.00     0.119 C 
ATOM      9  C   UNL     1      -1.128   1.162  -1.696  1.00  0.00     0.134 C 
ATOM     10  C   UNL     1      -3.931   1.425  -0.824  1.00  0.00     0.022 C 
ATOM     11  C   UNL     1      -3.567   0.586  -2.053  1.00  0.00     0.019 C 
BRANCH   7  12
ATOM     12  C   UNL     1      -0.837   1.761   0.753  1.00  0.00     0.263 C 
ATOM     13  O   UNL     1      -1.417   1.946   1.826  1.00  0.00    -0.271 OA
BRANCH  12  14
ATOM     14  C   UNL     1       0.676   1.458   0.753  1.00  0.00     0.259 C 
ATOM     15  C   UNL     1       0.941  -0.045   0.762  1.00  0.00     0.064 C 
BRANCH  14  16
ATOM     16  O   UNL     1       1.254   2.107  -0.386  1.00  0.00    -0.481 OA
BRANCH  16  17
ATOM     17  C   UNL     1       2.578   2.390  -0.248  1.00  0.00     0.120 A 
ATOM     18  C   UNL     1       2.972   3.644   0.203  1.00  0.00     0.047 A 
ATOM     19  C   UNL     1       3.510   1.483  -0.734  1.00  0.00     0.047 A 
ATOM     20  C   UNL     1       4.325   3.996   0.163  1.00  0.00     0.012 A 
ATOM     21  C   UNL     1       4.858   1.832  -0.762  1.00  0.00     0.012 A 
ATOM     22  C   UNL     1       5.288   3.103  -0.339  1.00  0.00    -0.018 A 
BRANCH  22  23
ATOM     23  C   UNL     1       6.702   3.486  -0.474  1.00  0.00    -0.018 A 
ATOM     24  C   UNL     1       7.426   4.024   0.600  1.00  0.00     0.009 A 
ATOM     25  C   UNL     1       7.372   3.307  -1.699  1.00  0.00     0.009 A 
ATOM     26  C   UNL     1       8.777   4.354   0.459  1.00  0.00     0.001 A 
ATOM     27  C   UNL     1       8.721   3.635  -1.841  1.00  0.00     0.001 A 
ATOM     28  C   UNL     1       9.424   4.156  -0.759  1.00  0.00     0.000 A 
ENDBRANCH  22  23
ENDBRANCH  16  17
ENDBRANCH  14  16
ENDBRANCH  12  14
ENDBRANCH   7  12
ENDBRANCH   4   6
ENDBRANCH   3   4
ENDBRANCH   2   3
ENDBRANCH   1   2
BRANCH   1  29
ATOM     29  O   UNL     1      -4.271  -3.764  -0.013  1.00  0.00    -0.374 OA
BRANCH  29  30
ATOM     30  C   UNL     1      -4.768  -3.064  -1.150  1.00  0.00     0.202 C 
BRANCH  30  31
ATOM     31  C   UNL     1      -6.200  -2.525  -1.047  1.00  0.00     0.261 C 
BRANCH  31  32
ATOM     32  O   UNL     1      -6.375  -1.601   0.038  1.00  0.00    -0.460 OA
BRANCH  32  33
ATOM     33  C   UNL     1      -7.116  -2.086   1.065  1.00  0.00     0.338 C 
ATOM     34  O   UNL     1      -7.692  -3.171   1.100  1.00  0.00    -0.246 OA
BRANCH  33  35
ATOM     35  C   UNL     1      -7.049  -1.208   2.246  1.00  0.00     0.060 A 
ATOM     36  C   UNL     1      -6.769  -1.820   3.472  1.00  0.00     0.016 A 
ATOM     37  C   UNL     1      -7.361   0.153   2.191  1.00  0.00     0.016 A 
ATOM     38  C   UNL     1      -6.878  -1.096   4.656  1.00  0.00     0.010 A 
ATOM     39  C   UNL     1      -7.469   0.882   3.385  1.00  0.00     0.010 A 
ATOM     40  C   UNL     1      -7.277   0.247   4.625  1.00  0.00    -0.014 A 
BRANCH  40  41
ATOM     41  C   UNL     1      -7.619   0.912   5.909  1.00  0.00     0.031 A 
ATOM     42  C   UNL     1      -9.064   1.039   6.315  1.00  0.00     0.074 A 
ATOM     43  C   UNL     1      -6.650   1.330   6.743  1.00  0.00     0.049 A 
ATOM     44  N   UNL     1      -9.571   1.460   7.446  1.00  0.00    -0.248 NA
ATOM     45  C   UNL     1     -10.072   0.638   5.320  1.00  0.00     0.031 C 
ATOM     46  C   UNL     1      -5.216   1.281   6.461  1.00  0.00     0.029 A 
ATOM     47  N   UNL     1      -6.729   1.879   7.998  1.00  0.00    -0.354 N 
ATOM     48  C   UNL     1     -10.951   1.387   7.296  1.00  0.00     0.074 A 
ATOM     49  C   UNL     1     -11.204   0.905   5.955  1.00  0.00     0.031 C 
ATOM     50  C   UNL     1      -4.549   1.785   7.514  1.00  0.00     0.029 A 
ATOM     51  C   UNL     1      -5.506   2.194   8.540  1.00  0.00     0.049 A 
ATOM     52  H   UNL     1      -7.581   2.032   8.467  1.00  0.00     0.167 HD
ATOM     53  C   UNL     1     -11.922   1.668   8.198  1.00  0.00     0.034 A 
ATOM     54  C   UNL     1      -5.193   2.743   9.731  1.00  0.00     0.034 A 
ATOM     55  C   UNL     1     -11.674   2.122   9.541  1.00  0.00     0.049 A 
ATOM     56  C   UNL     1      -6.290   3.034  10.722  1.00  0.00     0.074 A 
ATOM     57  C   UNL     1     -12.591   2.384  10.544  1.00  0.00     0.029 A 
ATOM     58  N   UNL     1     -10.420   2.389  10.067  1.00  0.00    -0.354 N 
ATOM     59  N   UNL     1      -7.579   2.818  10.616  1.00  0.00    -0.248 NA
ATOM     60  C   UNL     1      -5.883   3.602  12.016  1.00  0.00     0.031 C 
ATOM     61  C   UNL     1     -11.890   2.826  11.673  1.00  0.00     0.029 A 
ATOM     62  C   UNL     1     -10.537   2.821  11.377  1.00  0.00     0.049 A 
ATOM     63  H   UNL     1      -9.570   2.287   9.580  1.00  0.00     0.167 HD
ATOM     64  C   UNL     1      -8.132   3.193  11.837  1.00  0.00     0.074 A 
ATOM     65  C   UNL     1      -7.033   3.624  12.676  1.00  0.00     0.031 C 
ATOM     66  C   UNL     1      -9.433   3.198  12.222  1.00  0.00     0.034 A 
BRANCH  53  67
ATOM     67  C   UNL     1     -13.351   1.448   7.777  1.00  0.00     0.023 A 
ATOM     68  C   UNL     1     -13.848   0.132   7.677  1.00  0.00     0.012 A 
ATOM     69  C   UNL     1     -14.216   2.533   7.537  1.00  0.00     0.148 A 
ATOM     70  C   UNL     1     -15.175  -0.102   7.319  1.00  0.00     0.002 A 
ATOM     71  C   UNL     1     -15.548   2.293   7.218  1.00  0.00     0.091 A 
ATOM     72  F   UNL     1     -13.719   3.776   7.613  1.00  0.00    -0.205 F 
ATOM     73  C   UNL     1     -16.026   0.978   7.100  1.00  0.00     0.022 A 
BRANCH  71  74
ATOM     74  S   UNL     1     -16.739   3.618   6.988  1.00  0.00     0.127 S 
ATOM     75  O   UNL     1     -16.922   3.602   5.537  1.00  0.00    -0.237 OA
ATOM     76  O   UNL     1     -17.891   3.137   7.752  1.00  0.00    -0.237 OA
ATOM     77  O   UNL     1     -16.113   4.817   7.528  1.00  0.00    -0.744 OA
ENDBRANCH  71  74
ENDBRANCH  53  67
BRANCH  54  78
ATOM     78  C   UNL     1      -3.765   2.990  10.081  1.00  0.00     0.023 A 
ATOM     79  C   UNL     1      -3.147   2.206  11.074  1.00  0.00     0.012 A 
ATOM     80  C   UNL     1      -3.015   3.984   9.424  1.00  0.00     0.148 A 
ATOM     81  C   UNL     1      -1.814   2.425  11.425  1.00  0.00     0.002 A 
ATOM     82  C   UNL     1      -1.674   4.163   9.742  1.00  0.00     0.091 A 
ATOM     83  F   UNL     1      -3.629   4.735   8.498  1.00  0.00    -0.205 F 
ATOM     84  C   UNL     1      -1.075   3.395  10.752  1.00  0.00     0.022 A 
BRANCH  82  85
ATOM     85  S   UNL     1      -0.618   5.306   8.845  1.00  0.00     0.127 S 
ATOM     86  O   UNL     1      -0.446   6.381   9.818  1.00  0.00    -0.237 OA
ATOM     87  O   UNL     1       0.577   4.494   8.607  1.00  0.00    -0.237 OA
ATOM     88  O   UNL     1      -1.356   5.655   7.638  1.00  0.00    -0.744 OA
ENDBRANCH  82  85
ENDBRANCH  54  78
BRANCH  66  89
ATOM     89  C   UNL     1      -9.745   3.666  13.621  1.00  0.00     0.023 A 
ATOM     90  C   UNL     1      -9.639   5.035  13.938  1.00  0.00     0.012 A 
ATOM     91  C   UNL     1     -10.198   2.764  14.604  1.00  0.00     0.148 A 
ATOM     92  C   UNL     1      -9.941   5.493  15.220  1.00  0.00     0.002 A 
ATOM     93  C   UNL     1     -10.542   3.235  15.867  1.00  0.00     0.091 A 
ATOM     94  F   UNL     1     -10.275   1.461  14.294  1.00  0.00    -0.205 F 
ATOM     95  C   UNL     1     -10.403   4.596  16.180  1.00  0.00     0.022 A 
BRANCH  93  96
ATOM     96  S   UNL     1     -11.232   2.158  17.129  1.00  0.00     0.127 S 
ATOM     97  O   UNL     1     -10.064   1.890  17.966  1.00  0.00    -0.237 OA
ATOM     98  O   UNL     1     -12.246   3.010  17.753  1.00  0.00    -0.237 OA
ATOM     99  O   UNL     1     -11.774   1.010  16.413  1.00  0.00    -0.744 OA
ENDBRANCH  93  96
ENDBRANCH  66  89
ENDBRANCH  40  41
ENDBRANCH  33  35
ENDBRANCH  32  33
ENDBRANCH  31  32
ENDBRANCH  30  31
ENDBRANCH  29  30
ENDBRANCH   1  29
TORSDOF 22
