REMARK SMILES CC/C(=C/C(=O)[C@H](Cc1ccc(Cl)cc1Cl)C(=O)OCCOCCOC(=O)c1ccc(-c2c3nc(c(-c4cccc(S(=O)(=O)[O-])c4F)c4ccc([nH]4)c(-c4cccc(S(=O)(=O)[O-])c4F)c4nc(c(-c5cccc(S(=O)(=O)[O-])c5F)c5ccc2[nH]5)C=C4)C=C3)cc1)N(C)C
REMARK SMILES IDX 22 1 21 2 20 3 19 4 17 5 18 6 7 7 5 8 6 9 4 10 3 11 2 12
REMARK SMILES IDX 1 13 91 14 92 15 93 16 8 17 9 18 10 19 15 20 11 21 14 22
REMARK SMILES IDX 16 23 12 24 13 25 23 26 24 27 25 28 26 29 27 30 28 31 29 32
REMARK SMILES IDX 90 33 30 34 89 35 31 36 32 37 33 38 83 39 34 40 88 41 82 42
REMARK SMILES IDX 84 43 35 44 87 45 81 46 80 47 36 49 68 50 48 51 67 52 49 53
REMARK SMILES IDX 52 54 66 55 85 56 50 57 51 58 65 60 86 61 53 62 37 63 38 64
REMARK SMILES IDX 46 65 39 66 41 67 47 68 40 69 42 70 43 71 44 72 45 73 69 74
REMARK SMILES IDX 70 75 78 76 71 77 73 78 79 79 72 80 74 81 75 82 76 83 77 84
REMARK SMILES IDX 54 85 55 86 63 87 56 88 58 89 64 90 57 91 59 92 60 93 61 94
REMARK SMILES IDX 62 95
REMARK H PARENT 84 48 52 59
REMARK Flexibility Score: inf
ROOT
ATOM      1  O   UNL     1       2.832   4.826   3.871  1.00  0.00    -0.374 OA
ENDROOT
BRANCH   1   2
ATOM      2  C   UNL     1       3.676   3.970   3.098  1.00  0.00     0.202 C 
BRANCH   2   3
ATOM      3  C   UNL     1       4.435   2.905   3.910  1.00  0.00     0.261 C 
BRANCH   3   4
ATOM      4  O   UNL     1       3.702   1.665   4.046  1.00  0.00    -0.463 OA
BRANCH   4   5
ATOM      5  C   UNL     1       3.126   1.331   5.216  1.00  0.00     0.317 C 
ATOM      6  O   UNL     1       3.080   2.080   6.189  1.00  0.00    -0.251 OA
BRANCH   5   7
ATOM      7  C   UNL     1       2.536  -0.065   5.236  1.00  0.00     0.175 C 
BRANCH   7   8
ATOM      8  C   UNL     1       3.345  -1.177   4.606  1.00  0.00     0.171 C 
ATOM      9  O   UNL     1       3.662  -2.126   5.347  1.00  0.00    -0.294 OA
BRANCH   8  10
ATOM     10  C   UNL     1       3.852  -1.285   3.195  1.00  0.00     0.069 C 
ATOM     11  C   UNL     1       3.880  -0.690   1.977  1.00  0.00     0.016 C 
BRANCH  11  12
ATOM     12  C   UNL     1       4.695  -1.458   0.916  1.00  0.00     0.050 C 
ATOM     13  C   UNL     1       3.819  -2.007  -0.204  1.00  0.00     0.010 C 
ENDBRANCH  11  12
BRANCH  11  14
ATOM     14  N   UNL     1       3.270   0.492   1.527  1.00  0.00    -0.381 N 
ATOM     15  C   UNL     1       3.668   1.226   0.325  1.00  0.00     0.143 C 
ATOM     16  C   UNL     1       1.936   0.867   1.942  1.00  0.00     0.143 C 
ENDBRANCH  11  14
ENDBRANCH   8  10
ENDBRANCH   7   8
BRANCH   7  17
ATOM     17  C   UNL     1       0.986  -0.241   5.368  1.00  0.00     0.060 C 
BRANCH  17  18
ATOM     18  C   UNL     1       0.042  -0.442   4.187  1.00  0.00    -0.028 A 
ATOM     19  C   UNL     1      -0.878   0.582   3.872  1.00  0.00     0.007 A 
ATOM     20  C   UNL     1       0.037  -1.589   3.362  1.00  0.00     0.045 A 
ATOM     21  C   UNL     1      -1.678   0.510   2.724  1.00  0.00     0.021 A 
ATOM     22  C   UNL     1      -0.713  -1.629   2.179  1.00  0.00     0.041 A 
ATOM     23  Cl  UNL     1       0.916  -3.015   3.762  1.00  0.00    -0.084 Cl
ATOM     24  C   UNL     1      -1.561  -0.575   1.862  1.00  0.00     0.042 A 
ATOM     25  Cl  UNL     1      -2.480  -0.618   0.411  1.00  0.00    -0.084 Cl
ENDBRANCH  17  18
ENDBRANCH   7  17
ENDBRANCH   5   7
ENDBRANCH   4   5
ENDBRANCH   3   4
ENDBRANCH   2   3
ENDBRANCH   1   2
BRANCH   1  26
ATOM     26  C   UNL     1       1.632   4.237   4.358  1.00  0.00     0.202 C 
BRANCH  26  27
ATOM     27  C   UNL     1       0.382   4.518   3.520  1.00  0.00     0.261 C 
BRANCH  27  28
ATOM     28  O   UNL     1       0.350   3.782   2.280  1.00  0.00    -0.460 OA
BRANCH  28  29
ATOM     29  C   UNL     1       0.616   4.495   1.156  1.00  0.00     0.338 C 
ATOM     30  O   UNL     1       0.959   5.661   1.095  1.00  0.00    -0.246 OA
BRANCH  29  31
ATOM     31  C   UNL     1       0.486   3.626  -0.039  1.00  0.00     0.060 A 
ATOM     32  C   UNL     1       1.505   3.636  -0.998  1.00  0.00     0.016 A 
ATOM     33  C   UNL     1      -0.661   2.861  -0.259  1.00  0.00     0.016 A 
ATOM     34  C   UNL     1       1.383   2.879  -2.174  1.00  0.00     0.010 A 
ATOM     35  C   UNL     1      -0.781   2.107  -1.436  1.00  0.00     0.010 A 
ATOM     36  C   UNL     1       0.230   2.118  -2.415  1.00  0.00    -0.014 A 
BRANCH  36  37
ATOM     37  C   UNL     1       0.003   1.441  -3.729  1.00  0.00     0.031 A 
ATOM     38  C   UNL     1      -1.042   1.991  -4.666  1.00  0.00     0.074 A 
ATOM     39  C   UNL     1       0.668   0.323  -4.085  1.00  0.00     0.049 A 
ATOM     40  N   UNL     1      -1.469   1.513  -5.807  1.00  0.00    -0.248 NA
ATOM     41  C   UNL     1      -1.709   3.235  -4.250  1.00  0.00     0.031 C 
ATOM     42  C   UNL     1       1.687  -0.345  -3.281  1.00  0.00     0.029 A 
ATOM     43  N   UNL     1       0.562  -0.468  -5.207  1.00  0.00    -0.354 N 
ATOM     44  C   UNL     1      -2.486   2.365  -6.220  1.00  0.00     0.074 A 
ATOM     45  C   UNL     1      -2.625   3.379  -5.196  1.00  0.00     0.031 C 
ATOM     46  C   UNL     1       2.105  -1.450  -3.924  1.00  0.00     0.029 A 
ATOM     47  C   UNL     1       1.363  -1.589  -5.176  1.00  0.00     0.049 A 
ATOM     48  H   UNL     1      -0.031  -0.253  -5.962  1.00  0.00     0.167 HD
ATOM     49  C   UNL     1      -3.225   2.331  -7.354  1.00  0.00     0.034 A 
ATOM     50  C   UNL     1       1.474  -2.619  -6.043  1.00  0.00     0.034 A 
ATOM     51  C   UNL     1      -3.065   1.361  -8.403  1.00  0.00     0.049 A 
ATOM     52  C   UNL     1       0.643  -2.634  -7.304  1.00  0.00     0.074 A 
ATOM     53  C   UNL     1      -3.722   1.298  -9.620  1.00  0.00     0.029 A 
ATOM     54  N   UNL     1      -2.195   0.285  -8.363  1.00  0.00    -0.354 N 
ATOM     55  N   UNL     1      -0.219  -1.746  -7.736  1.00  0.00    -0.248 NA
ATOM     56  C   UNL     1       0.821  -3.779  -8.214  1.00  0.00     0.031 C 
ATOM     57  C   UNL     1      -3.268   0.169 -10.305  1.00  0.00     0.029 A 
ATOM     58  C   UNL     1      -2.301  -0.450  -9.531  1.00  0.00     0.049 A 
ATOM     59  H   UNL     1      -1.591   0.073  -7.614  1.00  0.00     0.167 HD
ATOM     60  C   UNL     1      -0.643  -2.197  -8.983  1.00  0.00     0.074 A 
ATOM     61  C   UNL     1       0.059  -3.434  -9.244  1.00  0.00     0.031 C 
ATOM     62  C   UNL     1      -1.542  -1.637  -9.828  1.00  0.00     0.034 A 
BRANCH  49  63
ATOM     63  C   UNL     1      -4.261   3.408  -7.541  1.00  0.00     0.023 A 
ATOM     64  C   UNL     1      -3.851   4.732  -7.800  1.00  0.00     0.012 A 
ATOM     65  C   UNL     1      -5.636   3.102  -7.509  1.00  0.00     0.148 A 
ATOM     66  C   UNL     1      -4.792   5.744  -7.975  1.00  0.00     0.002 A 
ATOM     67  C   UNL     1      -6.567   4.108  -7.735  1.00  0.00     0.091 A 
ATOM     68  F   UNL     1      -6.005   1.840  -7.249  1.00  0.00    -0.205 F 
ATOM     69  C   UNL     1      -6.148   5.431  -7.952  1.00  0.00     0.022 A 
BRANCH  67  70
ATOM     70  S   UNL     1      -8.334   3.792  -7.812  1.00  0.00     0.127 S 
ATOM     71  O   UNL     1      -8.800   4.431  -6.582  1.00  0.00    -0.237 OA
ATOM     72  O   UNL     1      -8.716   4.486  -9.042  1.00  0.00    -0.237 OA
ATOM     73  O   UNL     1      -8.482   2.345  -7.859  1.00  0.00    -0.744 OA
ENDBRANCH  67  70
ENDBRANCH  49  63
BRANCH  50  74
ATOM     74  C   UNL     1       2.447  -3.724  -5.786  1.00  0.00     0.023 A 
ATOM     75  C   UNL     1       3.568  -3.866  -6.630  1.00  0.00     0.012 A 
ATOM     76  C   UNL     1       2.259  -4.644  -4.737  1.00  0.00     0.148 A 
ATOM     77  C   UNL     1       4.457  -4.929  -6.462  1.00  0.00     0.002 A 
ATOM     78  C   UNL     1       3.179  -5.668  -4.541  1.00  0.00     0.091 A 
ATOM     79  F   UNL     1       1.182  -4.500  -3.953  1.00  0.00    -0.205 F 
ATOM     80  C   UNL     1       4.267  -5.825  -5.414  1.00  0.00     0.022 A 
BRANCH  78  81
ATOM     81  S   UNL     1       3.085  -6.802  -3.152  1.00  0.00     0.127 S 
ATOM     82  O   UNL     1       2.795  -8.069  -3.819  1.00  0.00    -0.237 OA
ATOM     83  O   UNL     1       4.432  -6.695  -2.589  1.00  0.00    -0.237 OA
ATOM     84  O   UNL     1       2.029  -6.285  -2.292  1.00  0.00    -0.744 OA
ENDBRANCH  78  81
ENDBRANCH  50  74
BRANCH  62  85
ATOM     85  C   UNL     1      -1.787  -2.292 -11.164  1.00  0.00     0.023 A 
ATOM     86  C   UNL     1      -2.540  -3.479 -11.245  1.00  0.00     0.012 A 
ATOM     87  C   UNL     1      -1.380  -1.650 -12.353  1.00  0.00     0.148 A 
ATOM     88  C   UNL     1      -2.873  -4.024 -12.486  1.00  0.00     0.002 A 
ATOM     89  C   UNL     1      -1.759  -2.170 -13.585  1.00  0.00     0.091 A 
ATOM     90  F   UNL     1      -0.650  -0.529 -12.254  1.00  0.00    -0.205 F 
ATOM     91  C   UNL     1      -2.497  -3.362 -13.653  1.00  0.00     0.022 A 
BRANCH  89  92
ATOM     92  S   UNL     1      -1.411  -1.334 -15.137  1.00  0.00     0.127 S 
ATOM     93  O   UNL     1      -0.470  -2.257 -15.769  1.00  0.00    -0.237 OA
ATOM     94  O   UNL     1      -2.733  -1.286 -15.763  1.00  0.00    -0.237 OA
ATOM     95  O   UNL     1      -0.860  -0.033 -14.782  1.00  0.00    -0.744 OA
ENDBRANCH  89  92
ENDBRANCH  62  85
ENDBRANCH  36  37
ENDBRANCH  29  31
ENDBRANCH  28  29
ENDBRANCH  27  28
ENDBRANCH  26  27
ENDBRANCH   1  26
TORSDOF 23
