REMARK SMILES Cc1ccc(S(=O)(=O)n2cc(C(=O)C(=O)NCC(=O)OCCOCCOC(=O)c3ccc(-c4c5nc(c(-c6cccc(S(=O)(=O)[O-])c6F)c6ccc([nH]6)c(-c6cccc(S(=O)(=O)[O-])c6F)c6nc(c(-c7cccc(S(=O)(=O)[O-])c7F)c7ccc4[nH]7)C=C6)C=C5)cc3)c3ccccc32)cc1
REMARK SMILES IDX 22 1 21 2 20 3 18 4 19 5 17 6 16 7 14 8 15 9 12 11 13 12
REMARK SMILES IDX 11 13 9 14 10 15 97 16 92 17 96 18 93 19 95 20 94 21 6 22
REMARK SMILES IDX 7 23 8 24 5 25 1 26 2 27 3 28 99 29 4 30 98 31 23 32 24 33
REMARK SMILES IDX 25 34 26 35 27 36 28 37 29 38 30 39 91 40 31 41 90 42 32 43
REMARK SMILES IDX 33 44 34 45 84 46 35 47 89 48 83 49 85 50 36 51 88 52 82 53
REMARK SMILES IDX 81 54 37 56 69 57 49 58 68 59 50 60 53 61 67 62 86 63 51 64
REMARK SMILES IDX 52 65 66 67 87 68 54 69 38 70 39 71 47 72 40 73 42 74 48 75
REMARK SMILES IDX 41 76 43 77 44 78 45 79 46 80 70 81 71 82 79 83 72 84 74 85
REMARK SMILES IDX 80 86 73 87 75 88 76 89 77 90 78 91 55 92 56 93 64 94 57 95
REMARK SMILES IDX 59 96 65 97 58 98 60 99 61 100 62 101 63 102
REMARK H PARENT 16 10 85 55 53 66
REMARK Flexibility Score: inf
ROOT
ATOM      1  C   UNL     1     -10.173   4.193   3.363  1.00  0.00     0.202 C 
ENDROOT
BRANCH   1   2
ATOM      2  C   UNL     1      -9.820   4.733   2.003  1.00  0.00     0.261 C 
BRANCH   2   3
ATOM      3  O   UNL     1      -8.470   5.242   2.022  1.00  0.00    -0.462 OA
BRANCH   3   4
ATOM      4  C   UNL     1      -8.198   6.430   2.652  1.00  0.00     0.325 C 
ATOM      5  O   UNL     1      -8.914   7.415   2.692  1.00  0.00    -0.250 OA
BRANCH   4   6
ATOM      6  C   UNL     1      -6.832   6.396   3.323  1.00  0.00     0.239 C 
BRANCH   6   7
ATOM      7  N   UNL     1      -6.481   5.024   3.675  1.00  0.00    -0.338 N 
ATOM      8  C   UNL     1      -6.115   4.020   2.807  1.00  0.00     0.292 C 
ATOM      9  O   UNL     1      -6.144   2.861   3.209  1.00  0.00    -0.265 OA
ATOM     10  H   UNL     1      -6.508   4.793   4.632  1.00  0.00     0.164 HD
BRANCH   8  11
ATOM     11  C   UNL     1      -5.692   4.368   1.350  1.00  0.00     0.252 C 
ATOM     12  O   UNL     1      -5.864   5.509   0.934  1.00  0.00    -0.283 OA
BRANCH  11  13
ATOM     13  C   UNL     1      -5.033   3.380   0.498  1.00  0.00     0.054 A 
ATOM     14  N   UNL     1      -4.126   1.498  -0.267  1.00  0.00    -0.240 N 
ATOM     15  C   UNL     1      -4.822   2.044   0.775  1.00  0.00     0.117 A 
ATOM     16  C   UNL     1      -3.864   2.435  -1.242  1.00  0.00     0.065 A 
ATOM     17  C   UNL     1      -4.435   3.630  -0.786  1.00  0.00     0.012 A 
ATOM     18  C   UNL     1      -3.154   2.372  -2.455  1.00  0.00     0.028 A 
ATOM     19  C   UNL     1      -4.304   4.790  -1.583  1.00  0.00     0.011 A 
ATOM     20  C   UNL     1      -3.015   3.545  -3.204  1.00  0.00     0.002 A 
ATOM     21  C   UNL     1      -3.586   4.737  -2.779  1.00  0.00     0.001 A 
BRANCH  14  22
ATOM     22  S   UNL     1      -3.521  -0.088  -0.232  1.00  0.00     0.268 S 
ATOM     23  O   UNL     1      -3.790  -0.634  -1.554  1.00  0.00    -0.201 OA
ATOM     24  O   UNL     1      -4.043  -0.700   0.970  1.00  0.00    -0.201 OA
BRANCH  22  25
ATOM     25  C   UNL     1      -1.761   0.006  -0.044  1.00  0.00     0.088 A 
ATOM     26  C   UNL     1       2.535  -0.033   0.033  1.00  0.00     0.044 C 
ATOM     27  C   UNL     1       1.035  -0.013   0.042  1.00  0.00    -0.051 A 
ATOM     28  C   UNL     1       0.325  -1.216  -0.043  1.00  0.00     0.005 A 
ATOM     29  C   UNL     1       0.331   1.194   0.128  1.00  0.00     0.005 A 
ATOM     30  C   UNL     1      -1.068  -1.208  -0.091  1.00  0.00     0.022 A 
ATOM     31  C   UNL     1      -1.066   1.208   0.099  1.00  0.00     0.022 A 
ENDBRANCH  22  25
ENDBRANCH  14  22
ENDBRANCH  11  13
ENDBRANCH   8  11
ENDBRANCH   6   7
ENDBRANCH   4   6
ENDBRANCH   3   4
ENDBRANCH   2   3
ENDBRANCH   1   2
BRANCH   1  32
ATOM     32  O   UNL     1     -10.121   5.311   4.238  1.00  0.00    -0.374 OA
BRANCH  32  33
ATOM     33  C   UNL     1     -10.186   5.056   5.622  1.00  0.00     0.202 C 
BRANCH  33  34
ATOM     34  C   UNL     1     -11.423   4.261   6.048  1.00  0.00     0.261 C 
BRANCH  34  35
ATOM     35  O   UNL     1     -12.611   5.059   5.878  1.00  0.00    -0.460 OA
BRANCH  35  36
ATOM     36  C   UNL     1     -13.351   4.772   4.766  1.00  0.00     0.338 C 
ATOM     37  O   UNL     1     -13.836   3.677   4.535  1.00  0.00    -0.246 OA
BRANCH  36  38
ATOM     38  C   UNL     1     -13.258   5.902   3.794  1.00  0.00     0.060 A 
ATOM     39  C   UNL     1     -13.659   5.731   2.458  1.00  0.00     0.016 A 
ATOM     40  C   UNL     1     -12.489   7.008   4.145  1.00  0.00     0.016 A 
ATOM     41  C   UNL     1     -13.143   6.566   1.454  1.00  0.00     0.010 A 
ATOM     42  C   UNL     1     -11.891   7.740   3.143  1.00  0.00     0.010 A 
ATOM     43  C   UNL     1     -12.180   7.506   1.786  1.00  0.00    -0.014 A 
BRANCH  43  44
ATOM     44  C   UNL     1     -11.430   8.368   0.864  1.00  0.00     0.031 A 
ATOM     45  C   UNL     1     -11.681   9.824   0.999  1.00  0.00     0.074 A 
ATOM     46  C   UNL     1     -10.317   7.941   0.211  1.00  0.00     0.049 A 
ATOM     47  N   UNL     1     -11.052  10.731   0.345  1.00  0.00    -0.248 NA
ATOM     48  C   UNL     1     -12.687  10.382   1.902  1.00  0.00     0.031 C 
ATOM     49  C   UNL     1      -9.113   8.735  -0.071  1.00  0.00     0.029 A 
ATOM     50  N   UNL     1      -9.962   6.680  -0.294  1.00  0.00    -0.354 N 
ATOM     51  C   UNL     1     -11.324  11.947   0.927  1.00  0.00     0.074 A 
ATOM     52  C   UNL     1     -12.411  11.687   1.833  1.00  0.00     0.031 C 
ATOM     53  C   UNL     1      -8.304   8.057  -0.901  1.00  0.00     0.029 A 
ATOM     54  C   UNL     1      -9.041   6.890  -1.337  1.00  0.00     0.049 A 
ATOM     55  H   UNL     1     -10.296   5.810   0.022  1.00  0.00     0.167 HD
ATOM     56  C   UNL     1     -10.493  12.984   0.632  1.00  0.00     0.034 A 
ATOM     57  C   UNL     1      -9.309   6.516  -2.618  1.00  0.00     0.034 A 
ATOM     58  C   UNL     1      -9.550  12.586  -0.435  1.00  0.00     0.049 A 
ATOM     59  C   UNL     1      -9.306   7.717  -3.526  1.00  0.00     0.074 A 
ATOM     60  C   UNL     1      -8.218  12.206  -0.447  1.00  0.00     0.029 A 
ATOM     61  N   UNL     1     -10.065  12.233  -1.682  1.00  0.00    -0.354 N 
ATOM     62  N   UNL     1      -9.276   8.940  -3.073  1.00  0.00    -0.248 NA
ATOM     63  C   UNL     1      -9.278   7.678  -4.981  1.00  0.00     0.031 C 
ATOM     64  C   UNL     1      -7.954  11.576  -1.699  1.00  0.00     0.029 A 
ATOM     65  C   UNL     1      -9.110  11.604  -2.465  1.00  0.00     0.049 A 
ATOM     66  H   UNL     1     -10.990  12.409  -1.970  1.00  0.00     0.167 HD
ATOM     67  C   UNL     1      -9.310   9.838  -4.090  1.00  0.00     0.074 A 
ATOM     68  C   UNL     1      -9.259   8.993  -5.275  1.00  0.00     0.031 C 
ATOM     69  C   UNL     1      -9.427  11.179  -3.834  1.00  0.00     0.034 A 
BRANCH  56  70
ATOM     70  C   UNL     1     -10.366  14.300   1.390  1.00  0.00     0.023 A 
ATOM     71  C   UNL     1      -9.257  15.113   1.057  1.00  0.00     0.012 A 
ATOM     72  C   UNL     1     -11.193  14.796   2.428  1.00  0.00     0.148 A 
ATOM     73  C   UNL     1      -8.961  16.308   1.724  1.00  0.00     0.002 A 
ATOM     74  C   UNL     1     -10.901  15.990   3.099  1.00  0.00     0.091 A 
ATOM     75  F   UNL     1     -12.292  14.138   2.787  1.00  0.00    -0.205 F 
ATOM     76  C   UNL     1      -9.780  16.745   2.752  1.00  0.00     0.022 A 
BRANCH  74  77
ATOM     77  S   UNL     1     -11.907  16.623   4.459  1.00  0.00     0.127 S 
ATOM     78  O   UNL     1     -10.922  16.750   5.535  1.00  0.00    -0.237 OA
ATOM     79  O   UNL     1     -12.388  17.897   3.928  1.00  0.00    -0.237 OA
ATOM     80  O   UNL     1     -12.943  15.629   4.711  1.00  0.00    -0.744 OA
ENDBRANCH  74  77
ENDBRANCH  56  70
BRANCH  57  81
ATOM     81  C   UNL     1     -10.170   5.292  -2.667  1.00  0.00     0.023 A 
ATOM     82  C   UNL     1      -9.579   4.097  -2.174  1.00  0.00     0.012 A 
ATOM     83  C   UNL     1     -11.572   5.396  -2.675  1.00  0.00     0.148 A 
ATOM     84  C   UNL     1     -10.354   3.114  -1.551  1.00  0.00     0.002 A 
ATOM     85  C   UNL     1     -12.337   4.414  -2.040  1.00  0.00     0.091 A 
ATOM     86  F   UNL     1     -12.130   6.479  -3.231  1.00  0.00    -0.205 F 
ATOM     87  C   UNL     1     -11.726   3.299  -1.440  1.00  0.00     0.022 A 
BRANCH  85  88
ATOM     88  S   UNL     1     -14.114   4.590  -1.820  1.00  0.00     0.127 S 
ATOM     89  O   UNL     1     -14.630   3.785  -2.923  1.00  0.00    -0.237 OA
ATOM     90  O   UNL     1     -14.329   4.011  -0.491  1.00  0.00    -0.237 OA
ATOM     91  O   UNL     1     -14.373   6.020  -1.895  1.00  0.00    -0.744 OA
ENDBRANCH  85  88
ENDBRANCH  57  81
BRANCH  69  92
ATOM     92  C   UNL     1      -9.861  12.219  -4.851  1.00  0.00     0.023 A 
ATOM     93  C   UNL     1     -10.386  11.866  -6.108  1.00  0.00     0.012 A 
ATOM     94  C   UNL     1      -9.905  13.598  -4.518  1.00  0.00     0.148 A 
ATOM     95  C   UNL     1     -10.870  12.818  -7.009  1.00  0.00     0.002 A 
ATOM     96  C   UNL     1     -10.512  14.523  -5.360  1.00  0.00     0.091 A 
ATOM     97  F   UNL     1      -9.335  14.042  -3.389  1.00  0.00    -0.205 F 
ATOM     98  C   UNL     1     -10.961  14.145  -6.624  1.00  0.00     0.022 A 
BRANCH  96  99
ATOM     99  S   UNL     1     -10.890  16.189  -4.799  1.00  0.00     0.127 S 
ATOM    100  O   UNL     1      -9.801  16.958  -5.395  1.00  0.00    -0.237 OA
ATOM    101  O   UNL     1     -12.204  16.423  -5.400  1.00  0.00    -0.237 OA
ATOM    102  O   UNL     1     -10.903  16.113  -3.345  1.00  0.00    -0.744 OA
ENDBRANCH  96  99
ENDBRANCH  69  92
ENDBRANCH  43  44
ENDBRANCH  36  38
ENDBRANCH  35  36
ENDBRANCH  34  35
ENDBRANCH  33  34
ENDBRANCH  32  33
ENDBRANCH   1  32
TORSDOF 22
