REMARK SMILES COc1ccc(C2=NO[C@](C)(C(=O)OCCOCCOC(=O)c3ccc(-c4c5nc(c(-c6cccc(S(=O)(=O)[O-])c6F)c6ccc([nH]6)c(-c6cccc(S(=O)(=O)[O-])c6F)c6nc(c(-c7cccc(S(=O)(=O)[O-])c7F)c7ccc4[nH]7)C=C6)C=C5)cc3)C2)c(OC)c1OC
REMARK SMILES IDX 18 1 17 2 16 3 15 4 14 5 12 6 13 7 10 8 7 9 8 10 86 11 9 12
REMARK SMILES IDX 11 13 6 14 3 15 4 16 90 17 5 18 87 19 2 20 1 21 91 22 92 23
REMARK SMILES IDX 88 24 89 25 19 26 20 27 21 28 22 29 23 30 24 31 85 32 25 33
REMARK SMILES IDX 84 34 26 35 27 36 28 37 78 38 29 39 83 40 77 41 79 42 30 43
REMARK SMILES IDX 82 44 76 45 75 46 31 48 63 49 43 50 62 51 44 52 47 53 61 54
REMARK SMILES IDX 80 55 45 56 46 57 60 59 81 60 48 61 32 62 33 63 41 64 34 65
REMARK SMILES IDX 36 66 42 67 35 68 37 69 38 70 39 71 40 72 64 73 65 74 73 75
REMARK SMILES IDX 66 76 68 77 74 78 67 79 69 80 70 81 71 82 72 83 49 84 50 85
REMARK SMILES IDX 58 86 51 87 53 88 59 89 52 90 54 91 55 92 56 93 57 94
REMARK H PARENT 79 47 47 58
REMARK Flexibility Score: inf
ROOT
ATOM      1  C   UNL     1       4.548   9.738  -3.019  1.00  0.00     0.202 C 
ENDROOT
BRANCH   1   2
ATOM      2  O   UNL     1       4.117  11.094  -2.910  1.00  0.00    -0.374 OA
BRANCH   2   3
ATOM      3  C   UNL     1       2.999  11.377  -2.073  1.00  0.00     0.202 C 
BRANCH   3   4
ATOM      4  C   UNL     1       1.615  10.917  -2.542  1.00  0.00     0.261 C 
BRANCH   4   5
ATOM      5  O   UNL     1       1.522   9.490  -2.697  1.00  0.00    -0.460 OA
BRANCH   5   6
ATOM      6  C   UNL     1       1.355   9.048  -3.976  1.00  0.00     0.353 C 
ATOM      7  O   UNL     1       1.241   9.794  -4.945  1.00  0.00    -0.247 OA
BRANCH   6   8
ATOM      8  C   UNL     1       1.377   7.519  -4.098  1.00  0.00     0.236 C 
ATOM      9  C   UNL     1       1.959   5.528  -3.173  1.00  0.00     0.096 C 
ATOM     10  N   UNL     1       2.887   5.775  -4.045  1.00  0.00    -0.089 NA
ATOM     11  C   UNL     1       1.112   6.720  -2.836  1.00  0.00     0.124 C 
ATOM     12  O   UNL     1       2.714   7.122  -4.457  1.00  0.00    -0.377 OA
ATOM     13  C   UNL     1       0.431   7.128  -5.243  1.00  0.00     0.073 C 
BRANCH   9  14
ATOM     14  C   UNL     1       1.702   4.184  -2.593  1.00  0.00     0.046 A 
ATOM     15  C   UNL     1       1.081   1.609  -1.701  1.00  0.00     0.164 A 
ATOM     16  C   UNL     1       0.061   2.475  -2.101  1.00  0.00     0.051 A 
ATOM     17  C   UNL     1       2.433   2.004  -1.765  1.00  0.00     0.203 A 
ATOM     18  C   UNL     1       0.369   3.755  -2.547  1.00  0.00     0.018 A 
ATOM     19  C   UNL     1       2.749   3.317  -2.196  1.00  0.00     0.173 A 
BRANCH  15  20
ATOM     20  O   UNL     1       0.736   0.326  -1.356  1.00  0.00    -0.493 OA
ATOM     21  C   UNL     1      -0.030   0.287  -0.147  1.00  0.00     0.278 C 
ENDBRANCH  15  20
BRANCH  17  22
ATOM     22  O   UNL     1       3.472   1.136  -1.533  1.00  0.00    -0.490 OA
ATOM     23  C   UNL     1       3.324   0.205  -0.467  1.00  0.00     0.278 C 
ENDBRANCH  17  22
BRANCH  19  24
ATOM     24  O   UNL     1       4.005   3.870  -2.264  1.00  0.00    -0.492 OA
ATOM     25  C   UNL     1       5.108   3.203  -1.673  1.00  0.00     0.278 C 
ENDBRANCH  19  24
ENDBRANCH   9  14
ENDBRANCH   6   8
ENDBRANCH   5   6
ENDBRANCH   4   5
ENDBRANCH   3   4
ENDBRANCH   2   3
ENDBRANCH   1   2
BRANCH   1  26
ATOM     26  C   UNL     1       5.253   9.102  -1.814  1.00  0.00     0.261 C 
BRANCH  26  27
ATOM     27  O   UNL     1       4.431   9.041  -0.637  1.00  0.00    -0.460 OA
BRANCH  27  28
ATOM     28  C   UNL     1       4.787   9.901   0.350  1.00  0.00     0.338 C 
ATOM     29  O   UNL     1       5.713  10.694   0.343  1.00  0.00    -0.246 OA
BRANCH  28  30
ATOM     30  C   UNL     1       3.768   9.879   1.415  1.00  0.00     0.060 A 
ATOM     31  C   UNL     1       3.170  11.094   1.782  1.00  0.00     0.016 A 
ATOM     32  C   UNL     1       3.467   8.701   2.098  1.00  0.00     0.016 A 
ATOM     33  C   UNL     1       2.297  11.142   2.867  1.00  0.00     0.010 A 
ATOM     34  C   UNL     1       2.604   8.755   3.193  1.00  0.00     0.010 A 
ATOM     35  C   UNL     1       2.043   9.979   3.603  1.00  0.00    -0.014 A 
BRANCH  35  36
ATOM     36  C   UNL     1       1.336  10.047   4.903  1.00  0.00     0.031 A 
ATOM     37  C   UNL     1       2.155   9.997   6.163  1.00  0.00     0.074 A 
ATOM     38  C   UNL     1      -0.007  10.095   4.960  1.00  0.00     0.049 A 
ATOM     39  N   UNL     1       1.763   9.852   7.401  1.00  0.00    -0.248 NA
ATOM     40  C   UNL     1       3.615  10.116   6.003  1.00  0.00     0.031 C 
ATOM     41  C   UNL     1      -0.901  10.172   3.806  1.00  0.00     0.029 A 
ATOM     42  N   UNL     1      -0.853  10.036   6.040  1.00  0.00    -0.354 N 
ATOM     43  C   UNL     1       2.925   9.828   8.163  1.00  0.00     0.074 A 
ATOM     44  C   UNL     1       4.038   9.967   7.250  1.00  0.00     0.031 C 
ATOM     45  C   UNL     1      -2.173  10.099   4.236  1.00  0.00     0.029 A 
ATOM     46  C   UNL     1      -2.179   9.933   5.688  1.00  0.00     0.049 A 
ATOM     47  H   UNL     1      -0.542  10.065   6.974  1.00  0.00     0.167 HD
ATOM     48  C   UNL     1       3.052   9.713   9.505  1.00  0.00     0.034 A 
ATOM     49  C   UNL     1      -3.264   9.686   6.449  1.00  0.00     0.034 A 
ATOM     50  C   UNL     1       1.940   9.589  10.407  1.00  0.00     0.049 A 
ATOM     51  C   UNL     1      -3.094   9.523   7.939  1.00  0.00     0.074 A 
ATOM     52  C   UNL     1       1.959   9.471  11.785  1.00  0.00     0.029 A 
ATOM     53  N   UNL     1       0.610   9.572  10.019  1.00  0.00    -0.354 N 
ATOM     54  N   UNL     1      -1.996   9.573   8.655  1.00  0.00    -0.248 NA
ATOM     55  C   UNL     1      -4.313   9.300   8.732  1.00  0.00     0.031 C 
ATOM     56  C   UNL     1       0.638   9.367  12.230  1.00  0.00     0.029 A 
ATOM     57  C   UNL     1      -0.203   9.452  11.131  1.00  0.00     0.049 A 
ATOM     58  H   UNL     1       0.291   9.635   9.090  1.00  0.00     0.167 HD
ATOM     59  C   UNL     1      -2.397   9.441   9.980  1.00  0.00     0.074 A 
ATOM     60  C   UNL     1      -3.839   9.314   9.970  1.00  0.00     0.031 C 
ATOM     61  C   UNL     1      -1.641   9.415  11.104  1.00  0.00     0.034 A 
BRANCH  48  62
ATOM     62  C   UNL     1       4.439   9.747  10.088  1.00  0.00     0.023 A 
ATOM     63  C   UNL     1       5.138  10.970  10.138  1.00  0.00     0.012 A 
ATOM     64  C   UNL     1       5.018   8.593  10.650  1.00  0.00     0.148 A 
ATOM     65  C   UNL     1       6.404  11.039  10.719  1.00  0.00     0.002 A 
ATOM     66  C   UNL     1       6.261   8.679  11.266  1.00  0.00     0.091 A 
ATOM     67  F   UNL     1       4.343   7.438  10.574  1.00  0.00    -0.205 F 
ATOM     68  C   UNL     1       6.959   9.898  11.293  1.00  0.00     0.022 A 
BRANCH  66  69
ATOM     69  S   UNL     1       7.030   7.287  12.101  1.00  0.00     0.127 S 
ATOM     70  O   UNL     1       8.185   7.030  11.242  1.00  0.00    -0.237 OA
ATOM     71  O   UNL     1       7.357   7.856  13.408  1.00  0.00    -0.237 OA
ATOM     72  O   UNL     1       6.030   6.230  12.128  1.00  0.00    -0.744 OA
ENDBRANCH  66  69
ENDBRANCH  48  62
BRANCH  49  73
ATOM     73  C   UNL     1      -4.613   9.576   5.823  1.00  0.00     0.023 A 
ATOM     74  C   UNL     1      -5.591  10.552   6.099  1.00  0.00     0.012 A 
ATOM     75  C   UNL     1      -4.937   8.506   4.967  1.00  0.00     0.148 A 
ATOM     76  C   UNL     1      -6.878  10.439   5.570  1.00  0.00     0.002 A 
ATOM     77  C   UNL     1      -6.202   8.431   4.396  1.00  0.00     0.091 A 
ATOM     78  F   UNL     1      -4.002   7.575   4.729  1.00  0.00    -0.205 F 
ATOM     79  C   UNL     1      -7.181   9.385   4.712  1.00  0.00     0.022 A 
BRANCH  77  80
ATOM     80  S   UNL     1      -6.628   7.178   3.180  1.00  0.00     0.127 S 
ATOM     81  O   UNL     1      -7.450   6.263   3.966  1.00  0.00    -0.237 OA
ATOM     82  O   UNL     1      -7.356   7.958   2.179  1.00  0.00    -0.237 OA
ATOM     83  O   UNL     1      -5.355   6.647   2.708  1.00  0.00    -0.744 OA
ENDBRANCH  77  80
ENDBRANCH  49  73
BRANCH  61  84
ATOM     84  C   UNL     1      -2.345   9.328  12.432  1.00  0.00     0.023 A 
ATOM     85  C   UNL     1      -2.902   8.108  12.859  1.00  0.00     0.012 A 
ATOM     86  C   UNL     1      -2.343  10.434  13.306  1.00  0.00     0.148 A 
ATOM     87  C   UNL     1      -3.466   7.995  14.129  1.00  0.00     0.002 A 
ATOM     88  C   UNL     1      -2.861  10.301  14.587  1.00  0.00     0.091 A 
ATOM     89  F   UNL     1      -1.819  11.590  12.871  1.00  0.00    -0.205 F 
ATOM     90  C   UNL     1      -3.432   9.085  14.997  1.00  0.00     0.022 A 
BRANCH  88  91
ATOM     91  S   UNL     1      -2.772  11.617  15.806  1.00  0.00     0.127 S 
ATOM     92  O   UNL     1      -4.179  11.991  15.943  1.00  0.00    -0.237 OA
ATOM     93  O   UNL     1      -2.209  10.924  16.966  1.00  0.00    -0.237 OA
ATOM     94  O   UNL     1      -1.909  12.641  15.234  1.00  0.00    -0.744 OA
ENDBRANCH  88  91
ENDBRANCH  61  84
ENDBRANCH  35  36
ENDBRANCH  28  30
ENDBRANCH  27  28
ENDBRANCH  26  27
ENDBRANCH   1  26
TORSDOF 21
