REMARK SMILES COc1ccc(C(=O)Nc2cc(C(=O)OCCOCCOC(=O)c3ccc(-c4c5nc(c(-c6cccc(S(=O)(=O)[O-])c6F)c6ccc([nH]6)c(-c6cccc(S(=O)(=O)[O-])c6F)c6nc(c(-c7cccc(S(=O)(=O)[O-])c7F)c7ccc4[nH]7)C=C6)C=C5)cc3)c(Cl)cc2Cl)cc1Cl
REMARK SMILES IDX 18 1 17 2 16 3 15 4 13 5 14 6 12 7 10 8 11 9 90 10 89 11
REMARK SMILES IDX 91 12 87 13 88 14 9 15 7 16 8 17 6 19 3 20 4 21 93 22 5 23
REMARK SMILES IDX 92 24 94 25 2 26 1 27 19 28 20 29 21 30 22 31 23 32 24 33
REMARK SMILES IDX 25 34 86 35 26 36 85 37 27 38 28 39 29 40 79 41 30 42 84 43
REMARK SMILES IDX 78 44 80 45 31 46 83 47 77 48 76 49 32 51 64 52 44 53 63 54
REMARK SMILES IDX 45 55 48 56 62 57 81 58 46 59 47 60 61 62 82 63 49 64 33 65
REMARK SMILES IDX 34 66 42 67 35 68 37 69 43 70 36 71 38 72 39 73 40 74 41 75
REMARK SMILES IDX 65 76 66 77 74 78 67 79 69 80 75 81 68 82 70 83 71 84 72 85
REMARK SMILES IDX 73 86 50 87 51 88 59 89 52 90 54 91 60 92 53 93 55 94 56 95
REMARK SMILES IDX 57 96 58 97
REMARK H PARENT 9 18 80 50 48 61
REMARK Flexibility Score: inf
ROOT
ATOM      1  O   UNL     1       4.340  -0.349  -3.519  1.00  0.00    -0.374 OA
ENDROOT
BRANCH   1   2
ATOM      2  C   UNL     1       5.720  -0.680  -3.390  1.00  0.00     0.202 C 
BRANCH   2   3
ATOM      3  C   UNL     1       6.760   0.444  -3.430  1.00  0.00     0.261 C 
BRANCH   3   4
ATOM      4  O   UNL     1       6.534   1.458  -2.436  1.00  0.00    -0.460 OA
BRANCH   4   5
ATOM      5  C   UNL     1       6.430   2.718  -2.915  1.00  0.00     0.339 C 
ATOM      6  O   UNL     1       6.463   3.073  -4.083  1.00  0.00    -0.246 OA
BRANCH   5   7
ATOM      7  C   UNL     1       6.058   3.661  -1.846  1.00  0.00     0.080 A 
ATOM      8  C   UNL     1       4.591   5.493  -1.208  1.00  0.00     0.061 A 
ATOM      9  C   UNL     1       4.904   4.438  -2.068  1.00  0.00     0.045 A 
ATOM     10  C   UNL     1       5.456   5.785  -0.143  1.00  0.00     0.066 A 
ATOM     11  C   UNL     1       6.556   4.965   0.123  1.00  0.00     0.044 A 
ATOM     12  Cl  UNL     1       5.144   7.117   0.913  1.00  0.00    -0.082 Cl
ATOM     13  C   UNL     1       6.860   3.898  -0.728  1.00  0.00     0.057 A 
ATOM     14  Cl  UNL     1       8.264   2.966  -0.368  1.00  0.00    -0.083 Cl
BRANCH   8  15
ATOM     15  N   UNL     1       3.465   6.305  -1.440  1.00  0.00    -0.321 N 
ATOM     16  C   UNL     1       2.208   5.950  -1.877  1.00  0.00     0.255 C 
ATOM     17  O   UNL     1       1.478   6.782  -2.412  1.00  0.00    -0.269 OA
ATOM     18  H   UNL     1       3.594   7.265  -1.263  1.00  0.00     0.170 HD
BRANCH  16  19
ATOM     19  C   UNL     1       1.647   4.609  -1.540  1.00  0.00     0.041 A 
ATOM     20  C   UNL     1       0.360   2.194  -0.798  1.00  0.00     0.137 A 
ATOM     21  C   UNL     1       0.024   2.874  -1.982  1.00  0.00     0.049 A 
ATOM     22  C   UNL     1       1.328   2.764   0.036  1.00  0.00     0.083 A 
ATOM     23  C   UNL     1       0.649   4.070  -2.350  1.00  0.00     0.018 A 
ATOM     24  C   UNL     1       1.962   3.963  -0.338  1.00  0.00     0.038 A 
ATOM     25  Cl  UNL     1       1.800   2.144   1.579  1.00  0.00    -0.080 Cl
BRANCH  20  26
ATOM     26  O   UNL     1      -0.387   1.061  -0.642  1.00  0.00    -0.495 OA
ATOM     27  C   UNL     1      -0.022   0.069   0.304  1.00  0.00     0.278 C 
ENDBRANCH  20  26
ENDBRANCH  16  19
ENDBRANCH   8  15
ENDBRANCH   5   7
ENDBRANCH   4   5
ENDBRANCH   3   4
ENDBRANCH   2   3
ENDBRANCH   1   2
BRANCH   1  28
ATOM     28  C   UNL     1       3.780   0.598  -2.625  1.00  0.00     0.202 C 
BRANCH  28  29
ATOM     29  C   UNL     1       3.789   0.329  -1.111  1.00  0.00     0.261 C 
BRANCH  29  30
ATOM     30  O   UNL     1       4.833  -0.504  -0.609  1.00  0.00    -0.460 OA
BRANCH  30  31
ATOM     31  C   UNL     1       4.462  -1.779  -0.342  1.00  0.00     0.338 C 
ATOM     32  O   UNL     1       3.358  -2.284  -0.494  1.00  0.00    -0.246 OA
BRANCH  31  33
ATOM     33  C   UNL     1       5.641  -2.529   0.105  1.00  0.00     0.060 A 
ATOM     34  C   UNL     1       6.195  -3.485  -0.753  1.00  0.00     0.016 A 
ATOM     35  C   UNL     1       6.168  -2.318   1.382  1.00  0.00     0.016 A 
ATOM     36  C   UNL     1       7.285  -4.242  -0.328  1.00  0.00     0.010 A 
ATOM     37  C   UNL     1       7.258  -3.081   1.805  1.00  0.00     0.010 A 
ATOM     38  C   UNL     1       7.810  -4.058   0.959  1.00  0.00    -0.014 A 
BRANCH  38  39
ATOM     39  C   UNL     1       8.910  -4.929   1.433  1.00  0.00     0.031 A 
ATOM     40  C   UNL     1       8.615  -6.058   2.378  1.00  0.00     0.074 A 
ATOM     41  C   UNL     1      10.171  -4.694   1.026  1.00  0.00     0.049 A 
ATOM     42  N   UNL     1       9.429  -6.950   2.877  1.00  0.00    -0.248 NA
ATOM     43  C   UNL     1       7.220  -6.198   2.826  1.00  0.00     0.031 C 
ATOM     44  C   UNL     1      10.578  -3.599   0.146  1.00  0.00     0.029 A 
ATOM     45  N   UNL     1      11.341  -5.345   1.320  1.00  0.00    -0.354 N 
ATOM     46  C   UNL     1       8.656  -7.742   3.717  1.00  0.00     0.074 A 
ATOM     47  C   UNL     1       7.309  -7.215   3.671  1.00  0.00     0.031 C 
ATOM     48  C   UNL     1      11.911  -3.640  -0.012  1.00  0.00     0.029 A 
ATOM     49  C   UNL     1      12.451  -4.753   0.766  1.00  0.00     0.049 A 
ATOM     50  H   UNL     1      11.383  -6.158   1.873  1.00  0.00     0.167 HD
ATOM     51  C   UNL     1       9.033  -8.819   4.447  1.00  0.00     0.034 A 
ATOM     52  C   UNL     1      13.756  -5.066   0.883  1.00  0.00     0.034 A 
ATOM     53  C   UNL     1      10.372  -9.343   4.475  1.00  0.00     0.049 A 
ATOM     54  C   UNL     1      14.147  -6.279   1.683  1.00  0.00     0.074 A 
ATOM     55  C   UNL     1      10.840 -10.476   5.116  1.00  0.00     0.029 A 
ATOM     56  N   UNL     1      11.464  -8.758   3.851  1.00  0.00    -0.354 N 
ATOM     57  N   UNL     1      13.379  -7.118   2.337  1.00  0.00    -0.248 NA
ATOM     58  C   UNL     1      15.577  -6.614   1.729  1.00  0.00     0.031 C 
ATOM     59  C   UNL     1      12.222 -10.557   4.906  1.00  0.00     0.029 A 
ATOM     60  C   UNL     1      12.609  -9.492   4.109  1.00  0.00     0.049 A 
ATOM     61  H   UNL     1      11.430  -7.939   3.305  1.00  0.00     0.167 HD
ATOM     62  C   UNL     1      14.227  -8.092   2.852  1.00  0.00     0.074 A 
ATOM     63  C   UNL     1      15.565  -7.753   2.410  1.00  0.00     0.031 C 
ATOM     64  C   UNL     1      13.929  -9.161   3.633  1.00  0.00     0.034 A 
BRANCH  51  65
ATOM     65  C   UNL     1       7.972  -9.516   5.260  1.00  0.00     0.023 A 
ATOM     66  C   UNL     1       6.982 -10.280   4.609  1.00  0.00     0.012 A 
ATOM     67  C   UNL     1       7.979  -9.450   6.667  1.00  0.00     0.148 A 
ATOM     68  C   UNL     1       5.995 -10.938   5.342  1.00  0.00     0.002 A 
ATOM     69  C   UNL     1       7.018 -10.144   7.393  1.00  0.00     0.091 A 
ATOM     70  F   UNL     1       8.913  -8.700   7.268  1.00  0.00    -0.205 F 
ATOM     71  C   UNL     1       6.019 -10.878   6.733  1.00  0.00     0.022 A 
BRANCH  69  72
ATOM     72  S   UNL     1       7.009 -10.187   9.189  1.00  0.00     0.127 S 
ATOM     73  O   UNL     1       5.869  -9.326   9.499  1.00  0.00    -0.237 OA
ATOM     74  O   UNL     1       6.791 -11.608   9.462  1.00  0.00    -0.237 OA
ATOM     75  O   UNL     1       8.309  -9.683   9.607  1.00  0.00    -0.744 OA
ENDBRANCH  69  72
ENDBRANCH  51  65
BRANCH  52  76
ATOM     76  C   UNL     1      14.777  -4.237   0.183  1.00  0.00     0.023 A 
ATOM     77  C   UNL     1      15.460  -4.761  -0.930  1.00  0.00     0.012 A 
ATOM     78  C   UNL     1      15.031  -2.910   0.584  1.00  0.00     0.148 A 
ATOM     79  C   UNL     1      16.394  -3.987  -1.619  1.00  0.00     0.002 A 
ATOM     80  C   UNL     1      15.920  -2.126  -0.141  1.00  0.00     0.091 A 
ATOM     81  F   UNL     1      14.380  -2.435   1.655  1.00  0.00    -0.205 F 
ATOM     82  C   UNL     1      16.614  -2.667  -1.233  1.00  0.00     0.022 A 
BRANCH  80  83
ATOM     83  S   UNL     1      16.160  -0.378   0.198  1.00  0.00     0.127 S 
ATOM     84  O   UNL     1      17.523  -0.360   0.723  1.00  0.00    -0.237 OA
ATOM     85  O   UNL     1      16.003   0.210  -1.133  1.00  0.00    -0.237 OA
ATOM     86  O   UNL     1      15.114  -0.012   1.143  1.00  0.00    -0.744 OA
ENDBRANCH  80  83
ENDBRANCH  52  76
BRANCH  64  87
ATOM     87  C   UNL     1      15.068 -10.054   4.053  1.00  0.00     0.023 A 
ATOM     88  C   UNL     1      15.995  -9.600   5.012  1.00  0.00     0.012 A 
ATOM     89  C   UNL     1      15.182 -11.364   3.549  1.00  0.00     0.148 A 
ATOM     90  C   UNL     1      17.038 -10.423   5.437  1.00  0.00     0.002 A 
ATOM     91  C   UNL     1      16.195 -12.196   4.013  1.00  0.00     0.091 A 
ATOM     92  F   UNL     1      14.303 -11.773   2.622  1.00  0.00    -0.205 F 
ATOM     93  C   UNL     1      17.131 -11.723   4.947  1.00  0.00     0.022 A 
BRANCH  91  94
ATOM     94  S   UNL     1      16.332 -13.915   3.509  1.00  0.00     0.127 S 
ATOM     95  O   UNL     1      17.474 -13.868   2.597  1.00  0.00    -0.237 OA
ATOM     96  O   UNL     1      16.593 -14.593   4.779  1.00  0.00    -0.237 OA
ATOM     97  O   UNL     1      15.054 -14.255   2.897  1.00  0.00    -0.744 OA
ENDBRANCH  91  94
ENDBRANCH  64  87
ENDBRANCH  38  39
ENDBRANCH  31  33
ENDBRANCH  30  31
ENDBRANCH  29  30
ENDBRANCH  28  29
ENDBRANCH   1  28
TORSDOF 20
