REMARK SMILES Cc1nccn1CCC[NH+]1CCC2(CC1)[C@@H](C(=O)OCCOCCOC(=O)c1ccc(-c3c4nc(c(-c5cccc(S(=O)(=O)[O-])c5F)c5ccc([nH]5)c(-c5cccc(S(=O)(=O)[O-])c5F)c5nc(c(-c6cccc(S(=O)(=O)[O-])c6F)c6ccc3[nH]6)C=C5)C=C4)cc1)CC(=O)N2C
REMARK SMILES IDX 21 1 20 2 19 3 17 4 18 5 16 6 10 7 11 8 15 9 12 11 14 12
REMARK SMILES IDX 13 13 94 14 91 15 92 16 95 17 93 18 9 19 8 20 7 21 6 22 1 23
REMARK SMILES IDX 2 24 3 25 4 26 5 27 22 28 23 29 24 30 25 31 26 32 27 33
REMARK SMILES IDX 28 34 29 35 90 36 30 37 89 38 31 39 32 40 33 41 83 42 34 43
REMARK SMILES IDX 88 44 82 45 84 46 35 47 87 48 81 49 80 50 36 52 68 53 48 54
REMARK SMILES IDX 67 55 49 56 52 57 66 58 85 59 50 60 51 61 65 63 86 64 53 65
REMARK SMILES IDX 37 66 38 67 46 68 39 69 41 70 47 71 40 72 42 73 43 74 44 75
REMARK SMILES IDX 45 76 69 77 70 78 78 79 71 80 73 81 79 82 72 83 74 84 75 85
REMARK SMILES IDX 76 86 77 87 54 88 55 89 63 90 56 91 58 92 64 93 57 94 59 95
REMARK SMILES IDX 60 96 61 97 62 98
REMARK H PARENT 10 10 84 51 52 62
REMARK Flexibility Score: inf
ROOT
ATOM      1  C   UNL     1      -0.526   3.940  -2.118  1.00  0.00     0.202 C 
ENDROOT
BRANCH   1   2
ATOM      2  C   UNL     1      -0.059   2.583  -1.597  1.00  0.00     0.261 C 
BRANCH   2   3
ATOM      3  O   UNL     1      -1.113   1.592  -1.622  1.00  0.00    -0.463 OA
BRANCH   3   4
ATOM      4  C   UNL     1      -1.463   1.004  -0.459  1.00  0.00     0.311 C 
ATOM      5  O   UNL     1      -0.963   1.321   0.618  1.00  0.00    -0.252 OA
BRANCH   4   6
ATOM      6  C   UNL     1      -2.554  -0.067  -0.524  1.00  0.00     0.134 C 
ATOM      7  N   UNL     1      -2.237  -1.990  -4.275  1.00  0.00    -0.335 N 
ATOM      8  C   UNL     1      -2.767  -2.855  -3.252  1.00  0.00     0.264 C 
ATOM      9  C   UNL     1      -2.963  -0.756  -4.434  1.00  0.00     0.264 C 
ATOM     10  H   UNL     1      -2.458  -2.480  -5.142  1.00  0.00     0.348 HD
ATOM     11  C   UNL     1      -2.744  -2.195  -1.881  1.00  0.00     0.091 C 
ATOM     12  C   UNL     1      -2.986   0.056  -3.136  1.00  0.00     0.091 C 
ATOM     13  C   UNL     1      -3.209  -0.709  -1.815  1.00  0.00     0.067 C 
ATOM     14  N   UNL     1      -4.654  -0.680  -1.462  1.00  0.00    -0.339 N 
ATOM     15  C   UNL     1      -3.701   0.433   0.354  1.00  0.00     0.118 C 
ATOM     16  C   UNL     1      -4.940  -0.158  -0.218  1.00  0.00     0.223 C 
ATOM     17  C   UNL     1      -5.737  -1.164  -2.301  1.00  0.00     0.147 C 
ATOM     18  O   UNL     1      -6.030  -0.118   0.330  1.00  0.00    -0.275 OA
BRANCH   7  19
ATOM     19  C   UNL     1      -0.867  -2.124  -4.727  1.00  0.00     0.264 C 
BRANCH  19  20
ATOM     20  C   UNL     1       0.225  -1.161  -4.234  1.00  0.00     0.083 C 
BRANCH  20  21
ATOM     21  C   UNL     1       0.454  -0.954  -2.737  1.00  0.00     0.129 C 
BRANCH  21  22
ATOM     22  N   UNL     1       0.920  -1.992  -1.846  1.00  0.00    -0.335 N 
ATOM     23  C   UNL     1       1.661  -0.452   0.067  1.00  0.00     0.087 C 
ATOM     24  C   UNL     1       1.378  -1.775  -0.551  1.00  0.00     0.105 A 
ATOM     25  N   UNL     1       1.497  -2.917   0.097  1.00  0.00    -0.242 NA
ATOM     26  C   UNL     1       1.106  -3.887  -0.776  1.00  0.00     0.131 A 
ATOM     27  C   UNL     1       0.772  -3.342  -1.991  1.00  0.00     0.107 A 
ENDBRANCH  21  22
ENDBRANCH  20  21
ENDBRANCH  19  20
ENDBRANCH   7  19
ENDBRANCH   4   6
ENDBRANCH   3   4
ENDBRANCH   2   3
ENDBRANCH   1   2
BRANCH   1  28
ATOM     28  O   UNL     1      -1.434   4.661  -1.286  1.00  0.00    -0.374 OA
BRANCH  28  29
ATOM     29  C   UNL     1      -2.725   4.111  -1.051  1.00  0.00     0.202 C 
BRANCH  29  30
ATOM     30  C   UNL     1      -3.717   4.153  -2.200  1.00  0.00     0.261 C 
BRANCH  30  31
ATOM     31  O   UNL     1      -3.234   3.472  -3.347  1.00  0.00    -0.460 OA
BRANCH  31  32
ATOM     32  C   UNL     1      -2.829   4.290  -4.350  1.00  0.00     0.338 C 
ATOM     33  O   UNL     1      -2.449   5.438  -4.256  1.00  0.00    -0.246 OA
BRANCH  32  34
ATOM     34  C   UNL     1      -3.088   3.602  -5.618  1.00  0.00     0.060 A 
ATOM     35  C   UNL     1      -2.825   4.301  -6.791  1.00  0.00     0.016 A 
ATOM     36  C   UNL     1      -3.860   2.432  -5.614  1.00  0.00     0.016 A 
ATOM     37  C   UNL     1      -3.547   3.950  -7.908  1.00  0.00     0.010 A 
ATOM     38  C   UNL     1      -4.525   2.038  -6.736  1.00  0.00     0.010 A 
ATOM     39  C   UNL     1      -4.458   2.887  -7.820  1.00  0.00    -0.014 A 
BRANCH  39  40
ATOM     40  C   UNL     1      -5.323   2.619  -8.936  1.00  0.00     0.031 A 
ATOM     41  C   UNL     1      -4.552   2.119 -10.084  1.00  0.00     0.074 A 
ATOM     42  C   UNL     1      -6.660   2.752  -8.863  1.00  0.00     0.049 A 
ATOM     43  N   UNL     1      -4.199   2.804 -11.117  1.00  0.00    -0.248 NA
ATOM     44  C   UNL     1      -3.858   0.829  -9.945  1.00  0.00     0.031 C 
ATOM     45  C   UNL     1      -7.506   2.951  -7.681  1.00  0.00     0.029 A 
ATOM     46  N   UNL     1      -7.568   2.602  -9.856  1.00  0.00    -0.354 N 
ATOM     47  C   UNL     1      -3.485   1.912 -11.902  1.00  0.00     0.074 A 
ATOM     48  C   UNL     1      -3.078   0.845 -11.028  1.00  0.00     0.031 C 
ATOM     49  C   UNL     1      -8.784   2.635  -7.997  1.00  0.00     0.029 A 
ATOM     50  C   UNL     1      -8.861   2.346  -9.419  1.00  0.00     0.049 A 
ATOM     51  H   UNL     1      -7.331   2.668 -10.809  1.00  0.00     0.167 HD
ATOM     52  C   UNL     1      -3.594   1.967 -13.255  1.00  0.00     0.034 A 
ATOM     53  C   UNL     1      -9.866   1.834 -10.175  1.00  0.00     0.034 A 
ATOM     54  C   UNL     1      -4.148   3.233 -13.678  1.00  0.00     0.049 A 
ATOM     55  C   UNL     1      -9.502   2.068 -11.598  1.00  0.00     0.074 A 
ATOM     56  C   UNL     1      -3.803   4.556 -13.476  1.00  0.00     0.029 A 
ATOM     57  N   UNL     1      -5.474   3.241 -14.047  1.00  0.00    -0.354 N 
ATOM     58  N   UNL     1      -9.413   3.261 -12.122  1.00  0.00    -0.248 NA
ATOM     59  C   UNL     1      -8.748   1.026 -12.280  1.00  0.00     0.031 C 
ATOM     60  C   UNL     1      -5.042   5.229 -13.259  1.00  0.00     0.029 A 
ATOM     61  C   UNL     1      -6.075   4.306 -13.430  1.00  0.00     0.049 A 
ATOM     62  H   UNL     1      -5.913   2.595 -14.647  1.00  0.00     0.167 HD
ATOM     63  C   UNL     1      -8.246   3.217 -12.876  1.00  0.00     0.074 A 
ATOM     64  C   UNL     1      -7.929   1.793 -13.007  1.00  0.00     0.031 C 
ATOM     65  C   UNL     1      -7.472   4.329 -13.051  1.00  0.00     0.034 A 
BRANCH  52  66
ATOM     66  C   UNL     1      -3.619   0.749 -14.146  1.00  0.00     0.023 A 
ATOM     67  C   UNL     1      -3.634   0.984 -15.537  1.00  0.00     0.012 A 
ATOM     68  C   UNL     1      -3.910  -0.568 -13.715  1.00  0.00     0.148 A 
ATOM     69  C   UNL     1      -3.992  -0.018 -16.443  1.00  0.00     0.002 A 
ATOM     70  C   UNL     1      -4.187  -1.579 -14.623  1.00  0.00     0.091 A 
ATOM     71  F   UNL     1      -4.060  -0.841 -12.419  1.00  0.00    -0.205 F 
ATOM     72  C   UNL     1      -4.264  -1.302 -15.988  1.00  0.00     0.022 A 
BRANCH  70  73
ATOM     73  S   UNL     1      -4.506  -3.265 -14.084  1.00  0.00     0.127 S 
ATOM     74  O   UNL     1      -5.936  -3.390 -14.353  1.00  0.00    -0.237 OA
ATOM     75  O   UNL     1      -3.635  -4.029 -14.976  1.00  0.00    -0.237 OA
ATOM     76  O   UNL     1      -4.114  -3.314 -12.681  1.00  0.00    -0.744 OA
ENDBRANCH  70  73
ENDBRANCH  52  66
BRANCH  53  77
ATOM     77  C   UNL     1     -10.918   0.862  -9.780  1.00  0.00     0.023 A 
ATOM     78  C   UNL     1     -12.044   0.665 -10.606  1.00  0.00     0.012 A 
ATOM     79  C   UNL     1     -10.691  -0.072  -8.744  1.00  0.00     0.148 A 
ATOM     80  C   UNL     1     -12.898  -0.432 -10.420  1.00  0.00     0.002 A 
ATOM     81  C   UNL     1     -11.547  -1.154  -8.554  1.00  0.00     0.091 A 
ATOM     82  F   UNL     1      -9.582   0.040  -8.003  1.00  0.00    -0.205 F 
ATOM     83  C   UNL     1     -12.647  -1.344  -9.398  1.00  0.00     0.022 A 
BRANCH  81  84
ATOM     84  S   UNL     1     -11.264  -2.376  -7.264  1.00  0.00     0.127 S 
ATOM     85  O   UNL     1     -12.585  -2.470  -6.642  1.00  0.00    -0.237 OA
ATOM     86  O   UNL     1     -10.865  -3.547  -8.039  1.00  0.00    -0.237 OA
ATOM     87  O   UNL     1     -10.234  -1.811  -6.400  1.00  0.00    -0.744 OA
ENDBRANCH  81  84
ENDBRANCH  53  77
BRANCH  65  88
ATOM     88  C   UNL     1      -8.018   5.665 -12.611  1.00  0.00     0.023 A 
ATOM     89  C   UNL     1      -8.316   5.968 -11.264  1.00  0.00     0.012 A 
ATOM     90  C   UNL     1      -8.050   6.700 -13.559  1.00  0.00     0.148 A 
ATOM     91  C   UNL     1      -8.653   7.271 -10.881  1.00  0.00     0.002 A 
ATOM     92  C   UNL     1      -8.339   8.000 -13.168  1.00  0.00     0.091 A 
ATOM     93  F   UNL     1      -7.760   6.396 -14.834  1.00  0.00    -0.205 F 
ATOM     94  C   UNL     1      -8.650   8.290 -11.830  1.00  0.00     0.022 A 
BRANCH  92  95
ATOM     95  S   UNL     1      -8.227   9.369 -14.321  1.00  0.00     0.127 S 
ATOM     96  O   UNL     1      -9.634   9.689 -14.551  1.00  0.00    -0.237 OA
ATOM     97  O   UNL     1      -7.489  10.370 -13.550  1.00  0.00    -0.237 OA
ATOM     98  O   UNL     1      -7.503   8.860 -15.480  1.00  0.00    -0.744 OA
ENDBRANCH  92  95
ENDBRANCH  65  88
ENDBRANCH  39  40
ENDBRANCH  32  34
ENDBRANCH  31  32
ENDBRANCH  30  31
ENDBRANCH  29  30
ENDBRANCH  28  29
ENDBRANCH   1  28
TORSDOF 21
