REMARK SMILES Cc1cc(C(=O)N[C@H]2C=C[C@H](C(=O)OCCOCCOC(=O)c3ccc(-c4c5nc(c(-c6cccc(S(=O)(=O)[O-])c6F)c6ccc([nH]6)c(-c6cccc(S(=O)(=O)[O-])c6F)c6nc(c(-c7cccc(S(=O)(=O)[O-])c7F)c7ccc4[nH]7)C=C6)C=C5)cc3)C2)ccc1F
REMARK SMILES IDX 18 1 17 2 16 3 15 4 14 5 12 6 13 7 11 8 8 9 9 10 86 11 10 12
REMARK SMILES IDX 7 13 5 14 6 15 4 17 1 18 2 19 3 20 89 21 88 22 90 23 87 24
REMARK SMILES IDX 19 25 20 26 21 27 22 28 23 29 24 30 85 31 25 32 84 33 26 34
REMARK SMILES IDX 27 35 28 36 78 37 29 38 83 39 77 40 79 41 30 42 82 43 76 44
REMARK SMILES IDX 75 45 31 47 63 48 43 49 62 50 44 51 47 52 61 53 80 54 45 55
REMARK SMILES IDX 46 56 60 58 81 59 48 60 32 61 33 62 41 63 34 64 36 65 42 66
REMARK SMILES IDX 35 67 37 68 38 69 39 70 40 71 64 72 65 73 73 74 66 75 68 76
REMARK SMILES IDX 74 77 67 78 69 79 70 80 71 81 72 82 49 83 50 84 58 85 51 86
REMARK SMILES IDX 53 87 59 88 52 89 54 90 55 91 56 92 57 93
REMARK H PARENT 7 16 79 46 47 57
REMARK Flexibility Score: inf
ROOT
ATOM      1  C   UNL     1       1.545   3.534   2.960  1.00  0.00     0.202 C 
ENDROOT
BRANCH   1   2
ATOM      2  O   UNL     1       1.859   3.386   1.575  1.00  0.00    -0.374 OA
BRANCH   2   3
ATOM      3  C   UNL     1       2.836   4.194   0.940  1.00  0.00     0.202 C 
BRANCH   3   4
ATOM      4  C   UNL     1       2.191   5.287   0.054  1.00  0.00     0.261 C 
BRANCH   4   5
ATOM      5  O   UNL     1       0.884   5.676   0.524  1.00  0.00    -0.463 OA
BRANCH   5   6
ATOM      6  C   UNL     1      -0.086   4.793   0.183  1.00  0.00     0.312 C 
ATOM      7  O   UNL     1       0.029   4.007  -0.752  1.00  0.00    -0.252 OA
BRANCH   6   8
ATOM      8  C   UNL     1      -1.315   4.866   1.102  1.00  0.00     0.124 C 
ATOM      9  C   UNL     1      -2.712   3.347  -0.098  1.00  0.00     0.106 C 
ATOM     10  C   UNL     1      -3.296   4.726  -0.165  1.00  0.00    -0.006 C 
ATOM     11  C   UNL     1      -1.926   3.458   1.210  1.00  0.00     0.048 C 
ATOM     12  C   UNL     1      -2.473   5.588   0.458  1.00  0.00    -0.014 C 
BRANCH   9  13
ATOM     13  N   UNL     1      -3.664   2.283  -0.157  1.00  0.00    -0.346 N 
ATOM     14  C   UNL     1      -3.438   0.934  -0.353  1.00  0.00     0.251 C 
ATOM     15  O   UNL     1      -4.428   0.214  -0.506  1.00  0.00    -0.269 OA
ATOM     16  H   UNL     1      -4.606   2.546  -0.043  1.00  0.00     0.164 HD
BRANCH  14  17
ATOM     17  C   UNL     1      -2.080   0.282  -0.321  1.00  0.00     0.040 A 
ATOM     18  C   UNL     1       1.670   0.933  -0.726  1.00  0.00     0.047 C 
ATOM     19  C   UNL     1       0.369   0.215  -0.516  1.00  0.00    -0.015 A 
ATOM     20  C   UNL     1      -0.864   0.873  -0.694  1.00  0.00     0.020 A 
ATOM     21  C   UNL     1       0.365  -1.094  -0.046  1.00  0.00     0.126 A 
ATOM     22  C   UNL     1      -0.828  -1.740   0.245  1.00  0.00     0.040 A 
ATOM     23  F   UNL     1       1.522  -1.751   0.124  1.00  0.00    -0.207 F 
ATOM     24  C   UNL     1      -2.040  -1.052   0.120  1.00  0.00     0.017 A 
ENDBRANCH  14  17
ENDBRANCH   9  13
ENDBRANCH   6   8
ENDBRANCH   5   6
ENDBRANCH   4   5
ENDBRANCH   3   4
ENDBRANCH   2   3
ENDBRANCH   1   2
BRANCH   1  25
ATOM     25  C   UNL     1       1.606   4.846   3.748  1.00  0.00     0.261 C 
BRANCH  25  26
ATOM     26  O   UNL     1       1.392   6.032   3.000  1.00  0.00    -0.460 OA
BRANCH  26  27
ATOM     27  C   UNL     1       2.540   6.697   2.728  1.00  0.00     0.338 C 
ATOM     28  O   UNL     1       3.679   6.269   2.793  1.00  0.00    -0.246 OA
BRANCH  27  29
ATOM     29  C   UNL     1       2.289   8.125   2.492  1.00  0.00     0.060 A 
ATOM     30  C   UNL     1       3.483   8.851   2.362  1.00  0.00     0.016 A 
ATOM     31  C   UNL     1       1.156   8.643   3.119  1.00  0.00     0.016 A 
ATOM     32  C   UNL     1       3.688   9.888   3.240  1.00  0.00     0.010 A 
ATOM     33  C   UNL     1       1.361   9.677   3.990  1.00  0.00     0.010 A 
ATOM     34  C   UNL     1       2.648  10.207   4.113  1.00  0.00    -0.014 A 
BRANCH  34  35
ATOM     35  C   UNL     1       2.817  11.177   5.162  1.00  0.00     0.031 A 
ATOM     36  C   UNL     1       2.848  12.576   4.728  1.00  0.00     0.074 A 
ATOM     37  C   UNL     1       2.970  10.787   6.443  1.00  0.00     0.049 A 
ATOM     38  N   UNL     1       3.561  13.492   5.274  1.00  0.00    -0.248 NA
ATOM     39  C   UNL     1       2.142  13.026   3.527  1.00  0.00     0.031 C 
ATOM     40  C   UNL     1       2.944  11.641   7.622  1.00  0.00     0.029 A 
ATOM     41  N   UNL     1       3.302   9.550   6.962  1.00  0.00    -0.354 N 
ATOM     42  C   UNL     1       3.134  14.687   4.746  1.00  0.00     0.074 A 
ATOM     43  C   UNL     1       2.375  14.340   3.567  1.00  0.00     0.031 C 
ATOM     44  C   UNL     1       3.496  10.976   8.654  1.00  0.00     0.029 A 
ATOM     45  C   UNL     1       4.031   9.727   8.138  1.00  0.00     0.049 A 
ATOM     46  H   UNL     1       3.063   8.682   6.564  1.00  0.00     0.167 HD
ATOM     47  C   UNL     1       3.300  15.825   5.476  1.00  0.00     0.034 A 
ATOM     48  C   UNL     1       5.335   9.334   8.272  1.00  0.00     0.034 A 
ATOM     49  C   UNL     1       3.980  15.525   6.730  1.00  0.00     0.049 A 
ATOM     50  C   UNL     1       6.268  10.512   8.445  1.00  0.00     0.074 A 
ATOM     51  C   UNL     1       3.486  15.240   7.993  1.00  0.00     0.029 A 
ATOM     52  N   UNL     1       5.296  15.080   6.712  1.00  0.00    -0.354 N 
ATOM     53  N   UNL     1       5.982  11.720   8.040  1.00  0.00    -0.248 NA
ATOM     54  C   UNL     1       7.582  10.428   9.075  1.00  0.00     0.031 C 
ATOM     55  C   UNL     1       4.493  14.552   8.713  1.00  0.00     0.029 A 
ATOM     56  C   UNL     1       5.607  14.445   7.899  1.00  0.00     0.049 A 
ATOM     57  H   UNL     1       5.919  15.201   5.960  1.00  0.00     0.167 HD
ATOM     58  C   UNL     1       7.001  12.569   8.385  1.00  0.00     0.074 A 
ATOM     59  C   UNL     1       7.983  11.710   9.023  1.00  0.00     0.031 C 
ATOM     60  C   UNL     1       6.942  13.910   8.134  1.00  0.00     0.034 A 
BRANCH  47  61
ATOM     61  C   UNL     1       2.524  17.088   5.194  1.00  0.00     0.023 A 
ATOM     62  C   UNL     1       2.136  17.463   3.889  1.00  0.00     0.012 A 
ATOM     63  C   UNL     1       2.104  17.939   6.238  1.00  0.00     0.148 A 
ATOM     64  C   UNL     1       1.268  18.536   3.645  1.00  0.00     0.002 A 
ATOM     65  C   UNL     1       1.277  19.034   5.990  1.00  0.00     0.091 A 
ATOM     66  F   UNL     1       2.488  17.701   7.498  1.00  0.00    -0.205 F 
ATOM     67  C   UNL     1       0.829  19.321   4.700  1.00  0.00     0.022 A 
BRANCH  65  68
ATOM     68  S   UNL     1       0.795  20.087   7.362  1.00  0.00     0.127 S 
ATOM     69  O   UNL     1       0.016  19.187   8.205  1.00  0.00    -0.237 OA
ATOM     70  O   UNL     1       2.076  20.544   7.891  1.00  0.00    -0.237 OA
ATOM     71  O   UNL     1       0.007  21.138   6.715  1.00  0.00    -0.744 OA
ENDBRANCH  65  68
ENDBRANCH  47  61
BRANCH  48  72
ATOM     72  C   UNL     1       5.663   8.097   7.511  1.00  0.00     0.023 A 
ATOM     73  C   UNL     1       6.101   8.193   6.178  1.00  0.00     0.012 A 
ATOM     74  C   UNL     1       5.059   6.901   7.954  1.00  0.00     0.148 A 
ATOM     75  C   UNL     1       5.808   7.166   5.274  1.00  0.00     0.002 A 
ATOM     76  C   UNL     1       4.723   5.913   7.036  1.00  0.00     0.091 A 
ATOM     77  F   UNL     1       4.682   6.807   9.239  1.00  0.00    -0.205 F 
ATOM     78  C   UNL     1       5.091   6.043   5.694  1.00  0.00     0.022 A 
BRANCH  76  79
ATOM     79  S   UNL     1       3.564   4.632   7.536  1.00  0.00     0.127 S 
ATOM     80  O   UNL     1       4.244   3.970   8.643  1.00  0.00    -0.237 OA
ATOM     81  O   UNL     1       2.369   5.405   7.866  1.00  0.00    -0.237 OA
ATOM     82  O   UNL     1       3.414   3.805   6.338  1.00  0.00    -0.744 OA
ENDBRANCH  76  79
ENDBRANCH  48  72
BRANCH  60  83
ATOM     83  C   UNL     1       8.085  14.892   8.236  1.00  0.00     0.023 A 
ATOM     84  C   UNL     1       7.779  16.278   8.273  1.00  0.00     0.012 A 
ATOM     85  C   UNL     1       9.443  14.553   8.210  1.00  0.00     0.148 A 
ATOM     86  C   UNL     1       8.764  17.267   8.285  1.00  0.00     0.002 A 
ATOM     87  C   UNL     1      10.421  15.536   8.355  1.00  0.00     0.091 A 
ATOM     88  F   UNL     1       9.823  13.289   7.984  1.00  0.00    -0.205 F 
ATOM     89  C   UNL     1      10.095  16.894   8.359  1.00  0.00     0.022 A 
BRANCH  87  90
ATOM     90  S   UNL     1      12.100  15.013   8.702  1.00  0.00     0.127 S 
ATOM     91  O   UNL     1      11.939  14.238   9.930  1.00  0.00    -0.237 OA
ATOM     92  O   UNL     1      12.477  14.265   7.508  1.00  0.00    -0.237 OA
ATOM     93  O   UNL     1      12.819  16.276   8.878  1.00  0.00    -0.744 OA
ENDBRANCH  87  90
ENDBRANCH  60  83
ENDBRANCH  34  35
ENDBRANCH  27  29
ENDBRANCH  26  27
ENDBRANCH  25  26
ENDBRANCH   1  25
TORSDOF 19
