REMARK SMILES O=C(OCCOCCOC(=O)[C@@H](Cc1c[nH]c2ccccc12)NC(=O)c1ccc(F)cc1F)c1ccc(-c2c3nc(c(-c4cccc(S(=O)(=O)[O-])c4F)c4ccc([nH]4)c(-c4cccc(S(=O)(=O)[O-])c4F)c4nc(c(-c5cccc(S(=O)(=O)[O-])c5F)c5ccc2[nH]5)C=C4)C=C3)cc1
REMARK SMILES IDX 5 1 4 2 3 3 2 4 1 5 34 6 35 7 96 8 36 9 95 10 37 11 38 12
REMARK SMILES IDX 39 13 89 14 40 15 94 16 88 17 90 18 41 19 93 20 87 21 86 22
REMARK SMILES IDX 42 24 74 25 54 26 73 27 55 28 58 29 72 30 91 31 56 32 57 33
REMARK SMILES IDX 71 35 92 36 59 37 43 38 44 39 52 40 45 41 47 42 53 43 46 44
REMARK SMILES IDX 48 45 49 46 50 47 51 48 75 49 76 50 84 51 77 52 79 53 85 54
REMARK SMILES IDX 78 55 80 56 81 57 82 58 83 59 60 60 61 61 69 62 62 63 64 64
REMARK SMILES IDX 70 65 63 66 65 67 66 68 67 69 68 70 6 71 7 72 8 73 9 74
REMARK SMILES IDX 10 75 11 76 12 77 13 78 14 79 15 80 22 81 16 82 17 83 21 84
REMARK SMILES IDX 18 86 20 87 19 88 23 89 24 90 25 92 26 93 27 94 32 95 28 96
REMARK SMILES IDX 31 97 33 98 29 99 30 100
REMARK H PARENT 90 23 58 34 16 85 23 91
REMARK Flexibility Score: inf
ROOT
ATOM      1  C   UNL     1       4.958  -1.310  -0.140  1.00  0.00     0.202 C 
ENDROOT
BRANCH   1   2
ATOM      2  C   UNL     1       4.651  -0.104   0.767  1.00  0.00     0.261 C 
BRANCH   2   3
ATOM      3  O   UNL     1       3.236   0.104   0.931  1.00  0.00    -0.460 OA
BRANCH   3   4
ATOM      4  C   UNL     1       2.425   0.983   0.293  1.00  0.00     0.338 C 
ATOM      5  O   UNL     1       1.228   1.027   0.553  1.00  0.00    -0.246 OA
BRANCH   4   6
ATOM      6  C   UNL     1       2.967   1.943  -0.689  1.00  0.00     0.060 A 
ATOM      7  C   UNL     1       4.069   1.668  -1.493  1.00  0.00     0.016 A 
ATOM      8  C   UNL     1       2.307   3.170  -0.830  1.00  0.00     0.016 A 
ATOM      9  C   UNL     1       4.615   2.616  -2.310  1.00  0.00     0.010 A 
ATOM     10  C   UNL     1       2.801   4.118  -1.716  1.00  0.00     0.010 A 
ATOM     11  C   UNL     1       3.974   3.837  -2.422  1.00  0.00    -0.014 A 
BRANCH  11  12
ATOM     12  C   UNL     1       4.652   4.829  -3.238  1.00  0.00     0.031 A 
ATOM     13  C   UNL     1       5.395   5.901  -2.527  1.00  0.00     0.074 A 
ATOM     14  C   UNL     1       4.677   4.628  -4.563  1.00  0.00     0.049 A 
ATOM     15  N   UNL     1       5.988   6.945  -3.019  1.00  0.00    -0.248 NA
ATOM     16  C   UNL     1       5.487   5.782  -1.058  1.00  0.00     0.031 C 
ATOM     17  C   UNL     1       4.068   3.482  -5.252  1.00  0.00     0.029 A 
ATOM     18  N   UNL     1       5.237   5.362  -5.563  1.00  0.00    -0.354 N 
ATOM     19  C   UNL     1       6.446   7.657  -1.921  1.00  0.00     0.074 A 
ATOM     20  C   UNL     1       6.112   6.904  -0.737  1.00  0.00     0.031 C 
ATOM     21  C   UNL     1       4.273   3.603  -6.570  1.00  0.00     0.029 A 
ATOM     22  C   UNL     1       4.941   4.872  -6.811  1.00  0.00     0.049 A 
ATOM     23  H   UNL     1       5.794   6.158  -5.408  1.00  0.00     0.167 HD
ATOM     24  C   UNL     1       7.060   8.859  -1.934  1.00  0.00     0.034 A 
ATOM     25  C   UNL     1       5.131   5.447  -8.010  1.00  0.00     0.034 A 
ATOM     26  C   UNL     1       7.345   9.542  -3.163  1.00  0.00     0.049 A 
ATOM     27  C   UNL     1       5.794   6.794  -8.001  1.00  0.00     0.074 A 
ATOM     28  C   UNL     1       7.908  10.785  -3.359  1.00  0.00     0.029 A 
ATOM     29  N   UNL     1       7.066   9.016  -4.424  1.00  0.00    -0.354 N 
ATOM     30  N   UNL     1       6.206   7.493  -6.966  1.00  0.00    -0.248 NA
ATOM     31  C   UNL     1       6.032   7.430  -9.296  1.00  0.00     0.031 C 
ATOM     32  C   UNL     1       7.945  11.019  -4.739  1.00  0.00     0.029 A 
ATOM     33  C   UNL     1       7.441   9.907  -5.406  1.00  0.00     0.049 A 
ATOM     34  H   UNL     1       6.659   8.135  -4.588  1.00  0.00     0.167 HD
ATOM     35  C   UNL     1       6.776   8.644  -7.480  1.00  0.00     0.074 A 
ATOM     36  C   UNL     1       6.663   8.539  -8.927  1.00  0.00     0.031 C 
ATOM     37  C   UNL     1       7.332   9.698  -6.832  1.00  0.00     0.034 A 
BRANCH  24  38
ATOM     38  C   UNL     1       7.353   9.488  -0.601  1.00  0.00     0.023 A 
ATOM     39  C   UNL     1       8.356   8.957   0.235  1.00  0.00     0.012 A 
ATOM     40  C   UNL     1       6.567  10.560  -0.136  1.00  0.00     0.148 A 
ATOM     41  C   UNL     1       8.539   9.450   1.529  1.00  0.00     0.002 A 
ATOM     42  C   UNL     1       6.782  11.073   1.138  1.00  0.00     0.091 A 
ATOM     43  F   UNL     1       5.588  11.025  -0.925  1.00  0.00    -0.205 F 
ATOM     44  C   UNL     1       7.756  10.510   1.978  1.00  0.00     0.022 A 
BRANCH  42  45
ATOM     45  S   UNL     1       5.852  12.467   1.785  1.00  0.00     0.127 S 
ATOM     46  O   UNL     1       4.977  11.812   2.757  1.00  0.00    -0.237 OA
ATOM     47  O   UNL     1       6.907  13.293   2.375  1.00  0.00    -0.237 OA
ATOM     48  O   UNL     1       5.182  13.067   0.641  1.00  0.00    -0.744 OA
ENDBRANCH  42  45
ENDBRANCH  24  38
BRANCH  25  49
ATOM     49  C   UNL     1       4.669   4.749  -9.240  1.00  0.00     0.023 A 
ATOM     50  C   UNL     1       5.611   4.212 -10.135  1.00  0.00     0.012 A 
ATOM     51  C   UNL     1       3.296   4.500  -9.459  1.00  0.00     0.148 A 
ATOM     52  C   UNL     1       5.196   3.446 -11.227  1.00  0.00     0.002 A 
ATOM     53  C   UNL     1       2.894   3.690 -10.515  1.00  0.00     0.091 A 
ATOM     54  F   UNL     1       2.411   5.023  -8.599  1.00  0.00    -0.205 F 
ATOM     55  C   UNL     1       3.842   3.173 -11.409  1.00  0.00     0.022 A 
BRANCH  53  56
ATOM     56  S   UNL     1       1.188   3.166 -10.733  1.00  0.00     0.127 S 
ATOM     57  O   UNL     1       0.796   3.913 -11.926  1.00  0.00    -0.237 OA
ATOM     58  O   UNL     1       1.336   1.723 -10.932  1.00  0.00    -0.237 OA
ATOM     59  O   UNL     1       0.501   3.533  -9.503  1.00  0.00    -0.744 OA
ENDBRANCH  53  56
ENDBRANCH  25  49
BRANCH  37  60
ATOM     60  C   UNL     1       7.903  10.786  -7.689  1.00  0.00     0.023 A 
ATOM     61  C   UNL     1       7.047  11.733  -8.280  1.00  0.00     0.012 A 
ATOM     62  C   UNL     1       9.298  10.938  -7.779  1.00  0.00     0.148 A 
ATOM     63  C   UNL     1       7.580  12.822  -8.962  1.00  0.00     0.002 A 
ATOM     64  C   UNL     1       9.820  12.053  -8.413  1.00  0.00     0.091 A 
ATOM     65  F   UNL     1      10.080  10.003  -7.221  1.00  0.00    -0.205 F 
ATOM     66  C   UNL     1       8.963  12.992  -9.013  1.00  0.00     0.022 A 
BRANCH  64  67
ATOM     67  S   UNL     1      11.578  12.410  -8.418  1.00  0.00     0.127 S 
ATOM     68  O   UNL     1      11.924  12.168  -9.817  1.00  0.00    -0.237 OA
ATOM     69  O   UNL     1      11.608  13.815  -8.014  1.00  0.00    -0.237 OA
ATOM     70  O   UNL     1      12.178  11.492  -7.459  1.00  0.00    -0.744 OA
ENDBRANCH  64  67
ENDBRANCH  37  60
ENDBRANCH  11  12
ENDBRANCH   4   6
ENDBRANCH   3   4
ENDBRANCH   2   3
ENDBRANCH   1   2
BRANCH   1  71
ATOM     71  O   UNL     1       4.416  -1.339  -1.461  1.00  0.00    -0.374 OA
BRANCH  71  72
ATOM     72  C   UNL     1       3.005  -1.563  -1.595  1.00  0.00     0.202 C 
BRANCH  72  73
ATOM     73  C   UNL     1       2.716  -2.928  -2.207  1.00  0.00     0.261 C 
BRANCH  73  74
ATOM     74  O   UNL     1       2.974  -3.903  -1.187  1.00  0.00    -0.462 OA
BRANCH  74  75
ATOM     75  C   UNL     1       4.249  -4.336  -1.112  1.00  0.00     0.329 C 
ATOM     76  O   UNL     1       5.051  -4.313  -2.040  1.00  0.00    -0.250 OA
BRANCH  75  77
ATOM     77  C   UNL     1       4.606  -4.932   0.257  1.00  0.00     0.197 C 
BRANCH  77  78
ATOM     78  C   UNL     1       3.874  -4.498   1.549  1.00  0.00     0.074 C 
BRANCH  78  79
ATOM     79  C   UNL     1       2.383  -4.373   1.536  1.00  0.00    -0.020 A 
ATOM     80  C   UNL     1       1.472  -5.309   1.088  1.00  0.00     0.087 A 
ATOM     81  C   UNL     1       1.613  -3.243   1.992  1.00  0.00     0.003 A 
ATOM     82  N   UNL     1       0.224  -4.747   1.124  1.00  0.00    -0.361 N 
ATOM     83  C   UNL     1       0.282  -3.479   1.647  1.00  0.00     0.046 A 
ATOM     84  C   UNL     1       1.920  -2.019   2.623  1.00  0.00     0.010 A 
ATOM     85  H   UNL     1      -0.600  -5.190   0.818  1.00  0.00     0.166 HD
ATOM     86  C   UNL     1      -0.735  -2.531   1.824  1.00  0.00     0.026 A 
ATOM     87  C   UNL     1       0.911  -1.066   2.825  1.00  0.00     0.001 A 
ATOM     88  C   UNL     1      -0.391  -1.310   2.406  1.00  0.00     0.002 A 
ENDBRANCH  78  79
ENDBRANCH  77  78
BRANCH  77  89
ATOM     89  N   UNL     1       4.683  -6.384   0.087  1.00  0.00    -0.338 N 
ATOM     90  C   UNL     1       5.724  -7.115  -0.436  1.00  0.00     0.254 C 
ATOM     91  H   UNL     1       3.896  -6.897   0.382  1.00  0.00     0.164 HD
ATOM     92  O   UNL     1       5.537  -8.278  -0.774  1.00  0.00    -0.269 OA
BRANCH  90  93
ATOM     93  C   UNL     1       7.077  -6.527  -0.533  1.00  0.00     0.075 A 
ATOM     94  C   UNL     1       7.694  -5.981   0.602  1.00  0.00     0.020 A 
ATOM     95  C   UNL     1       7.780  -6.595  -1.738  1.00  0.00     0.138 A 
ATOM     96  C   UNL     1       8.992  -5.476   0.511  1.00  0.00     0.040 A 
ATOM     97  C   UNL     1       9.080  -6.104  -1.828  1.00  0.00     0.079 A 
ATOM     98  F   UNL     1       7.224  -7.130  -2.834  1.00  0.00    -0.206 F 
ATOM     99  C   UNL     1       9.673  -5.547  -0.702  1.00  0.00     0.126 A 
ATOM    100  F   UNL     1      10.928  -5.086  -0.774  1.00  0.00    -0.207 F 
ENDBRANCH  90  93
ENDBRANCH  77  89
ENDBRANCH  75  77
ENDBRANCH  74  75
ENDBRANCH  73  74
ENDBRANCH  72  73
ENDBRANCH  71  72
ENDBRANCH   1  71
TORSDOF 21
