REMARK SMILES CS(=O)(=O)c1ccc(/C=C(/C(=O)OCCOCCOC(=O)c2ccc(-c3c4nc(c(-c5cccc(S(=O)(=O)[O-])c5F)c5ccc([nH]5)c(-c5cccc(S(=O)(=O)[O-])c5F)c5nc(c(-c6cccc(S(=O)(=O)[O-])c6F)c6ccc3[nH]6)C=C5)C=C4)cc2)c2ccc(-c3ccc(F)cc3F)cc2)cc1
REMARK SMILES IDX 17 1 16 2 15 3 14 4 13 5 11 6 12 7 10 8 9 9 8 10 5 11 6 12
REMARK SMILES IDX 100 13 7 14 99 15 2 16 1 17 3 18 4 19 85 20 86 21 98 22
REMARK SMILES IDX 87 23 97 24 88 25 89 26 90 27 95 28 91 29 94 30 96 31 92 32
REMARK SMILES IDX 93 33 18 34 19 35 20 36 21 37 22 38 23 39 84 40 24 41 83 42
REMARK SMILES IDX 25 43 26 44 27 45 77 46 28 47 82 48 76 49 78 50 29 51 81 52
REMARK SMILES IDX 75 53 74 54 30 56 62 57 42 58 61 59 43 60 46 61 60 62 79 63
REMARK SMILES IDX 44 64 45 65 59 67 80 68 47 69 31 70 32 71 40 72 33 73 35 74
REMARK SMILES IDX 41 75 34 76 36 77 37 78 38 79 39 80 63 81 64 82 72 83 65 84
REMARK SMILES IDX 67 85 73 86 66 87 68 88 69 89 70 90 71 91 48 92 49 93 57 94
REMARK SMILES IDX 50 95 52 96 58 97 51 98 53 99 54 100 55 101 56 102
REMARK H PARENT 78 55 46 66
REMARK Flexibility Score: inf
ROOT
ATOM      1  C   UNL     1       1.085 -10.393   3.199  1.00  0.00     0.202 C 
ENDROOT
BRANCH   1   2
ATOM      2  O   UNL     1       1.899 -11.448   2.699  1.00  0.00    -0.374 OA
BRANCH   2   3
ATOM      3  C   UNL     1       3.305 -11.208   2.610  1.00  0.00     0.202 C 
BRANCH   3   4
ATOM      4  C   UNL     1       3.796 -10.243   1.524  1.00  0.00     0.261 C 
BRANCH   4   5
ATOM      5  O   UNL     1       3.290  -8.910   1.724  1.00  0.00    -0.460 OA
BRANCH   5   6
ATOM      6  C   UNL     1       2.534  -8.435   0.701  1.00  0.00     0.338 C 
ATOM      7  O   UNL     1       2.380  -8.981  -0.384  1.00  0.00    -0.246 OA
BRANCH   6   8
ATOM      8  C   UNL     1       1.762  -7.210   1.087  1.00  0.00     0.067 C 
ATOM      9  C   UNL     1       2.323  -6.242   1.851  1.00  0.00     0.024 C 
BRANCH   9  10
ATOM     10  C   UNL     1       1.812  -4.867   2.104  1.00  0.00    -0.025 A 
ATOM     11  C   UNL     1       1.008  -2.171   2.087  1.00  0.00     0.067 A 
ATOM     12  C   UNL     1       0.049  -3.177   2.072  1.00  0.00     0.021 A 
ATOM     13  C   UNL     1       2.357  -2.488   2.244  1.00  0.00     0.021 A 
ATOM     14  C   UNL     1       0.455  -4.513   2.122  1.00  0.00     0.009 A 
ATOM     15  C   UNL     1       2.753  -3.833   2.245  1.00  0.00     0.009 A 
BRANCH  11  16
ATOM     16  S   UNL     1       0.518  -0.480   1.860  1.00  0.00     0.175 S 
ATOM     17  C   UNL     1       1.141  -0.082   0.245  1.00  0.00     0.163 C 
ATOM     18  O   UNL     1       1.230   0.318   2.838  1.00  0.00    -0.224 OA
ATOM     19  O   UNL     1      -0.932  -0.443   1.782  1.00  0.00    -0.224 OA
ENDBRANCH  11  16
ENDBRANCH   9  10
BRANCH   8  20
ATOM     20  C   UNL     1       0.411  -7.106   0.505  1.00  0.00    -0.011 A 
ATOM     21  C   UNL     1      -0.658  -7.766   1.125  1.00  0.00     0.009 A 
ATOM     22  C   UNL     1       0.166  -6.324  -0.623  1.00  0.00     0.009 A 
ATOM     23  C   UNL     1      -1.958  -7.622   0.641  1.00  0.00     0.009 A 
ATOM     24  C   UNL     1      -1.141  -6.166  -1.091  1.00  0.00     0.009 A 
ATOM     25  C   UNL     1      -2.229  -6.803  -0.466  1.00  0.00    -0.015 A 
BRANCH  25  26
ATOM     26  C   UNL     1      -3.613  -6.609  -0.938  1.00  0.00     0.018 A 
ATOM     27  C   UNL     1      -4.666  -6.410  -0.021  1.00  0.00     0.015 A 
ATOM     28  C   UNL     1      -3.940  -6.612  -2.305  1.00  0.00     0.133 A 
ATOM     29  C   UNL     1      -5.981  -6.232  -0.460  1.00  0.00     0.040 A 
ATOM     30  C   UNL     1      -5.245  -6.429  -2.751  1.00  0.00     0.079 A 
ATOM     31  F   UNL     1      -2.988  -6.805  -3.231  1.00  0.00    -0.206 F 
ATOM     32  C   UNL     1      -6.255  -6.243  -1.821  1.00  0.00     0.126 A 
ATOM     33  F   UNL     1      -7.515  -6.070  -2.241  1.00  0.00    -0.207 F 
ENDBRANCH  25  26
ENDBRANCH   8  20
ENDBRANCH   6   8
ENDBRANCH   5   6
ENDBRANCH   4   5
ENDBRANCH   3   4
ENDBRANCH   2   3
ENDBRANCH   1   2
BRANCH   1  34
ATOM     34  C   UNL     1       1.067 -10.136   4.711  1.00  0.00     0.261 C 
BRANCH  34  35
ATOM     35  O   UNL     1       2.370  -9.904   5.258  1.00  0.00    -0.460 OA
BRANCH  35  36
ATOM     36  C   UNL     1       2.880 -10.955   5.941  1.00  0.00     0.338 C 
ATOM     37  O   UNL     1       2.317 -12.014   6.197  1.00  0.00    -0.246 OA
BRANCH  36  38
ATOM     38  C   UNL     1       4.313 -10.739   6.191  1.00  0.00     0.060 A 
ATOM     39  C   UNL     1       5.200 -11.736   5.764  1.00  0.00     0.016 A 
ATOM     40  C   UNL     1       4.779  -9.610   6.868  1.00  0.00     0.016 A 
ATOM     41  C   UNL     1       6.555 -11.632   6.056  1.00  0.00     0.010 A 
ATOM     42  C   UNL     1       6.139  -9.513   7.169  1.00  0.00     0.010 A 
ATOM     43  C   UNL     1       7.025 -10.541   6.797  1.00  0.00    -0.014 A 
BRANCH  43  44
ATOM     44  C   UNL     1       8.415 -10.553   7.306  1.00  0.00     0.031 A 
ATOM     45  C   UNL     1       8.662 -10.928   8.740  1.00  0.00     0.074 A 
ATOM     46  C   UNL     1       9.441 -10.235   6.499  1.00  0.00     0.049 A 
ATOM     47  N   UNL     1       9.790 -10.990   9.396  1.00  0.00    -0.248 NA
ATOM     48  C   UNL     1       7.477 -11.274   9.542  1.00  0.00     0.031 C 
ATOM     49  C   UNL     1       9.321  -9.853   5.093  1.00  0.00     0.029 A 
ATOM     50  N   UNL     1      10.786 -10.158   6.759  1.00  0.00    -0.354 N 
ATOM     51  C   UNL     1       9.451 -11.348  10.695  1.00  0.00     0.074 A 
ATOM     52  C   UNL     1       8.011 -11.478  10.737  1.00  0.00     0.031 C 
ATOM     53  C   UNL     1      10.542  -9.551   4.620  1.00  0.00     0.029 A 
ATOM     54  C   UNL     1      11.522  -9.696   5.695  1.00  0.00     0.049 A 
ATOM     55  H   UNL     1      11.184 -10.410   7.623  1.00  0.00     0.167 HD
ATOM     56  C   UNL     1      10.267 -11.563  11.754  1.00  0.00     0.034 A 
ATOM     57  C   UNL     1      12.834  -9.400   5.607  1.00  0.00     0.034 A 
ATOM     58  C   UNL     1      11.699 -11.447  11.701  1.00  0.00     0.049 A 
ATOM     59  C   UNL     1      13.721  -9.633   6.801  1.00  0.00     0.074 A 
ATOM     60  C   UNL     1      12.620 -11.705  12.700  1.00  0.00     0.029 A 
ATOM     61  N   UNL     1      12.418 -11.020  10.595  1.00  0.00    -0.354 N 
ATOM     62  N   UNL     1      13.406 -10.099   7.986  1.00  0.00    -0.248 NA
ATOM     63  C   UNL     1      15.151  -9.335   6.636  1.00  0.00     0.031 C 
ATOM     64  C   UNL     1      13.894 -11.399  12.208  1.00  0.00     0.029 A 
ATOM     65  C   UNL     1      13.769 -10.987  10.891  1.00  0.00     0.049 A 
ATOM     66  H   UNL     1      12.024 -10.777   9.726  1.00  0.00     0.167 HD
ATOM     67  C   UNL     1      14.598 -10.180   8.697  1.00  0.00     0.074 A 
ATOM     68  C   UNL     1      15.646  -9.732   7.801  1.00  0.00     0.031 C 
ATOM     69  C   UNL     1      14.807 -10.579   9.977  1.00  0.00     0.034 A 
BRANCH  56  70
ATOM     70  C   UNL     1       9.623 -11.955  13.058  1.00  0.00     0.023 A 
ATOM     71  C   UNL     1       9.048 -13.234  13.202  1.00  0.00     0.012 A 
ATOM     72  C   UNL     1       9.612 -11.067  14.151  1.00  0.00     0.148 A 
ATOM     73  C   UNL     1       8.436 -13.608  14.398  1.00  0.00     0.002 A 
ATOM     74  C   UNL     1       9.042 -11.464  15.355  1.00  0.00     0.091 A 
ATOM     75  F   UNL     1      10.139  -9.845  13.989  1.00  0.00    -0.205 F 
ATOM     76  C   UNL     1       8.442 -12.728  15.476  1.00  0.00     0.022 A 
BRANCH  74  77
ATOM     77  S   UNL     1       9.071 -10.429  16.823  1.00  0.00     0.127 S 
ATOM     78  O   UNL     1       7.680  -9.986  16.899  1.00  0.00    -0.237 OA
ATOM     79  O   UNL     1       9.467 -11.379  17.863  1.00  0.00    -0.237 OA
ATOM     80  O   UNL     1      10.049  -9.384  16.555  1.00  0.00    -0.744 OA
ENDBRANCH  74  77
ENDBRANCH  56  70
BRANCH  57  81
ATOM     81  C   UNL     1      13.385  -8.881   4.325  1.00  0.00     0.023 A 
ATOM     82  C   UNL     1      14.231  -9.695   3.548  1.00  0.00     0.012 A 
ATOM     83  C   UNL     1      13.033  -7.602   3.850  1.00  0.00     0.148 A 
ATOM     84  C   UNL     1      14.734  -9.236   2.330  1.00  0.00     0.002 A 
ATOM     85  C   UNL     1      13.491  -7.174   2.610  1.00  0.00     0.091 A 
ATOM     86  F   UNL     1      12.235  -6.840   4.612  1.00  0.00    -0.205 F 
ATOM     87  C   UNL     1      14.355  -7.983   1.856  1.00  0.00     0.022 A 
BRANCH  85  88
ATOM     88  S   UNL     1      12.947  -5.636   1.858  1.00  0.00     0.127 S 
ATOM     89  O   UNL     1      14.181  -4.856   1.845  1.00  0.00    -0.237 OA
ATOM     90  O   UNL     1      12.489  -6.091   0.545  1.00  0.00    -0.237 OA
ATOM     91  O   UNL     1      11.888  -5.126   2.719  1.00  0.00    -0.744 OA
ENDBRANCH  85  88
ENDBRANCH  57  81
BRANCH  69  92
ATOM     92  C   UNL     1      16.225 -10.584  10.487  1.00  0.00     0.023 A 
ATOM     93  C   UNL     1      16.878  -9.366  10.762  1.00  0.00     0.012 A 
ATOM     94  C   UNL     1      16.882 -11.798  10.770  1.00  0.00     0.148 A 
ATOM     95  C   UNL     1      18.174  -9.357  11.278  1.00  0.00     0.002 A 
ATOM     96  C   UNL     1      18.152 -11.781  11.332  1.00  0.00     0.091 A 
ATOM     97  F   UNL     1      16.251 -12.947  10.486  1.00  0.00    -0.205 F 
ATOM     98  C   UNL     1      18.805 -10.562  11.575  1.00  0.00     0.022 A 
BRANCH  96  99
ATOM     99  S   UNL     1      19.002 -13.282  11.837  1.00  0.00     0.127 S 
ATOM    100  O   UNL     1      20.050 -13.386  10.823  1.00  0.00    -0.237 OA
ATOM    101  O   UNL     1      19.480 -12.932  13.175  1.00  0.00    -0.237 OA
ATOM    102  O   UNL     1      18.000 -14.339  11.811  1.00  0.00    -0.744 OA
ENDBRANCH  96  99
ENDBRANCH  69  92
ENDBRANCH  43  44
ENDBRANCH  36  38
ENDBRANCH  35  36
ENDBRANCH  34  35
ENDBRANCH   1  34
TORSDOF 21
