REMARK SMILES Cn1cc(C(=O)OCCOCCOC(=O)c2ccc(-c3c4nc(c(-c5cccc(S(=O)(=O)[O-])c5F)c5ccc([nH]5)c(-c5cccc(S(=O)(=O)[O-])c5F)c5nc(c(-c6cccc(S(=O)(=O)[O-])c6F)c6ccc3[nH]6)C=C5)C=C4)cc2)c(C(=O)Nc2ccc(-n3cncn3)cc2)n1
REMARK SMILES IDX 10 1 9 2 8 3 7 4 5 5 6 6 4 7 1 8 2 9 3 10 94 11 79 12 80 13
REMARK SMILES IDX 81 14 82 15 83 17 84 18 93 19 85 20 92 21 86 22 87 23 88 24
REMARK SMILES IDX 91 25 89 26 90 27 11 28 12 29 13 30 14 31 15 32 16 33 17 34
REMARK SMILES IDX 78 35 18 36 77 37 19 38 20 39 21 40 71 41 22 42 76 43 70 44
REMARK SMILES IDX 72 45 23 46 75 47 69 48 68 49 24 51 56 52 36 53 55 54 37 55
REMARK SMILES IDX 40 56 54 57 73 58 38 59 39 60 53 62 74 63 41 64 25 65 26 66
REMARK SMILES IDX 34 67 27 68 29 69 35 70 28 71 30 72 31 73 32 74 33 75 57 76
REMARK SMILES IDX 58 77 66 78 59 79 61 80 67 81 60 82 62 83 63 84 64 85 65 86
REMARK SMILES IDX 42 87 43 88 51 89 44 90 46 91 52 92 45 93 47 94 48 95 49 96
REMARK SMILES IDX 50 97
REMARK H PARENT 82 16 72 50 40 61
REMARK Flexibility Score: inf
ROOT
ATOM      1  O   UNL     1       3.568  -2.681  -2.285  1.00  0.00    -0.374 OA
ENDROOT
BRANCH   1   2
ATOM      2  C   UNL     1       3.105  -3.895  -1.672  1.00  0.00     0.202 C 
BRANCH   2   3
ATOM      3  C   UNL     1       2.819  -3.772  -0.176  1.00  0.00     0.261 C 
BRANCH   3   4
ATOM      4  O   UNL     1       1.851  -2.740  -0.012  1.00  0.00    -0.460 OA
BRANCH   4   5
ATOM      5  C   UNL     1       2.086  -1.792   0.933  1.00  0.00     0.342 C 
ATOM      6  O   UNL     1       2.863  -1.888   1.868  1.00  0.00    -0.246 OA
BRANCH   5   7
ATOM      7  C   UNL     1       1.251  -0.650   0.661  1.00  0.00     0.111 A 
ATOM      8  C   UNL     1      -1.978   0.719  -0.135  1.00  0.00     0.173 C 
ATOM      9  N   UNL     1      -0.599   0.401   0.146  1.00  0.00    -0.274 N 
ATOM     10  C   UNL     1      -0.086  -0.828   0.335  1.00  0.00     0.125 A 
ATOM     11  N   UNL     1       0.310   1.372   0.248  1.00  0.00    -0.167 NA
ATOM     12  C   UNL     1       1.473   0.766   0.617  1.00  0.00     0.165 A 
BRANCH  12  13
ATOM     13  C   UNL     1       2.613   1.680   0.926  1.00  0.00     0.277 C 
ATOM     14  O   UNL     1       2.444   2.909   0.940  1.00  0.00    -0.267 OA
ATOM     15  N   UNL     1       3.847   1.291   1.391  1.00  0.00    -0.321 N 
ATOM     16  H   UNL     1       4.211   1.911   2.063  1.00  0.00     0.170 HD
BRANCH  15  17
ATOM     17  C   UNL     1       4.702   0.223   1.131  1.00  0.00     0.041 A 
ATOM     18  C   UNL     1       5.559  -0.167   2.168  1.00  0.00     0.028 A 
ATOM     19  C   UNL     1       4.766  -0.429  -0.095  1.00  0.00     0.028 A 
ATOM     20  C   UNL     1       6.278  -1.359   2.070  1.00  0.00     0.030 A 
ATOM     21  C   UNL     1       5.581  -1.559  -0.236  1.00  0.00     0.030 A 
ATOM     22  C   UNL     1       6.228  -2.094   0.885  1.00  0.00     0.067 A 
BRANCH  22  23
ATOM     23  N   UNL     1       6.611  -3.459   0.889  1.00  0.00    -0.221 N 
ATOM     24  C   UNL     1       6.762  -4.313  -0.177  1.00  0.00     0.225 A 
ATOM     25  N   UNL     1       6.597  -4.187   2.035  1.00  0.00    -0.155 NA
ATOM     26  N   UNL     1       6.651  -5.561   0.218  1.00  0.00    -0.223 NA
ATOM     27  C   UNL     1       6.500  -5.433   1.567  1.00  0.00     0.246 A 
ENDBRANCH  22  23
ENDBRANCH  15  17
ENDBRANCH  12  13
ENDBRANCH   5   7
ENDBRANCH   4   5
ENDBRANCH   3   4
ENDBRANCH   2   3
ENDBRANCH   1   2
BRANCH   1  28
ATOM     28  C   UNL     1       2.558  -1.921  -2.965  1.00  0.00     0.202 C 
BRANCH  28  29
ATOM     29  C   UNL     1       2.435  -2.269  -4.455  1.00  0.00     0.261 C 
BRANCH  29  30
ATOM     30  O   UNL     1       2.049  -3.641  -4.600  1.00  0.00    -0.460 OA
BRANCH  30  31
ATOM     31  C   UNL     1       3.064  -4.487  -4.908  1.00  0.00     0.338 C 
ATOM     32  O   UNL     1       4.148  -4.193  -5.384  1.00  0.00    -0.246 OA
BRANCH  31  33
ATOM     33  C   UNL     1       2.753  -5.807  -4.318  1.00  0.00     0.060 A 
ATOM     34  C   UNL     1       3.809  -6.503  -3.712  1.00  0.00     0.016 A 
ATOM     35  C   UNL     1       1.446  -6.304  -4.253  1.00  0.00     0.016 A 
ATOM     36  C   UNL     1       3.570  -7.710  -3.062  1.00  0.00     0.010 A 
ATOM     37  C   UNL     1       1.210  -7.526  -3.625  1.00  0.00     0.010 A 
ATOM     38  C   UNL     1       2.279  -8.249  -3.067  1.00  0.00    -0.014 A 
BRANCH  38  39
ATOM     39  C   UNL     1       2.105  -9.693  -2.808  1.00  0.00     0.031 A 
ATOM     40  C   UNL     1       2.184 -10.600  -4.005  1.00  0.00     0.074 A 
ATOM     41  C   UNL     1       1.874 -10.181  -1.578  1.00  0.00     0.049 A 
ATOM     42  N   UNL     1       1.969 -11.883  -4.092  1.00  0.00    -0.248 NA
ATOM     43  C   UNL     1       2.549  -9.963  -5.286  1.00  0.00     0.031 C 
ATOM     44  C   UNL     1       1.810  -9.394  -0.349  1.00  0.00     0.029 A 
ATOM     45  N   UNL     1       1.621 -11.466  -1.172  1.00  0.00    -0.354 N 
ATOM     46  C   UNL     1       2.135 -12.197  -5.436  1.00  0.00     0.074 A 
ATOM     47  C   UNL     1       2.467 -10.976  -6.130  1.00  0.00     0.031 C 
ATOM     48  C   UNL     1       1.503 -10.213   0.675  1.00  0.00     0.029 A 
ATOM     49  C   UNL     1       1.319 -11.571   0.165  1.00  0.00     0.049 A 
ATOM     50  H   UNL     1       1.654 -12.240  -1.780  1.00  0.00     0.167 HD
ATOM     51  C   UNL     1       2.028 -13.400  -6.040  1.00  0.00     0.034 A 
ATOM     52  C   UNL     1       0.914 -12.642   0.878  1.00  0.00     0.034 A 
ATOM     53  C   UNL     1       1.707 -14.610  -5.344  1.00  0.00     0.049 A 
ATOM     54  C   UNL     1       0.772 -13.970   0.174  1.00  0.00     0.074 A 
ATOM     55  C   UNL     1       1.580 -15.889  -5.851  1.00  0.00     0.029 A 
ATOM     56  N   UNL     1       1.454 -14.685  -3.983  1.00  0.00    -0.354 N 
ATOM     57  N   UNL     1       1.013 -14.273  -1.080  1.00  0.00    -0.248 NA
ATOM     58  C   UNL     1       0.321 -15.110   0.987  1.00  0.00     0.031 C 
ATOM     59  C   UNL     1       1.232 -16.737  -4.795  1.00  0.00     0.029 A 
ATOM     60  C   UNL     1       1.165 -15.989  -3.629  1.00  0.00     0.049 A 
ATOM     61  H   UNL     1       1.478 -13.923  -3.360  1.00  0.00     0.167 HD
ATOM     62  C   UNL     1       0.773 -15.638  -1.200  1.00  0.00     0.074 A 
ATOM     63  C   UNL     1       0.389 -16.108   0.115  1.00  0.00     0.031 C 
ATOM     64  C   UNL     1       0.843 -16.432  -2.297  1.00  0.00     0.034 A 
BRANCH  51  65
ATOM     65  C   UNL     1       2.267 -13.447  -7.523  1.00  0.00     0.023 A 
ATOM     66  C   UNL     1       3.580 -13.326  -8.022  1.00  0.00     0.012 A 
ATOM     67  C   UNL     1       1.195 -13.608  -8.420  1.00  0.00     0.148 A 
ATOM     68  C   UNL     1       3.818 -13.333  -9.396  1.00  0.00     0.002 A 
ATOM     69  C   UNL     1       1.445 -13.655  -9.786  1.00  0.00     0.091 A 
ATOM     70  F   UNL     1      -0.048 -13.683  -7.924  1.00  0.00    -0.205 F 
ATOM     71  C   UNL     1       2.753 -13.507 -10.275  1.00  0.00     0.022 A 
BRANCH  69  72
ATOM     72  S   UNL     1       0.149 -13.934 -10.997  1.00  0.00     0.127 S 
ATOM     73  O   UNL     1       0.066 -12.626 -11.646  1.00  0.00    -0.237 OA
ATOM     74  O   UNL     1       0.727 -14.991 -11.826  1.00  0.00    -0.237 OA
ATOM     75  O   UNL     1      -1.030 -14.330 -10.240  1.00  0.00    -0.744 OA
ENDBRANCH  69  72
ENDBRANCH  51  65
BRANCH  52  76
ATOM     76  C   UNL     1       0.625 -12.514   2.336  1.00  0.00     0.023 A 
ATOM     77  C   UNL     1       1.459 -13.160   3.270  1.00  0.00     0.012 A 
ATOM     78  C   UNL     1      -0.467 -11.757   2.805  1.00  0.00     0.148 A 
ATOM     79  C   UNL     1       1.194 -13.079   4.638  1.00  0.00     0.002 A 
ATOM     80  C   UNL     1      -0.693 -11.636   4.172  1.00  0.00     0.091 A 
ATOM     81  F   UNL     1      -1.267 -11.170   1.903  1.00  0.00    -0.205 F 
ATOM     82  C   UNL     1       0.126 -12.310   5.090  1.00  0.00     0.022 A 
BRANCH  80  83
ATOM     83  S   UNL     1      -1.971 -10.563   4.839  1.00  0.00     0.127 S 
ATOM     84  O   UNL     1      -2.978 -11.528   5.270  1.00  0.00    -0.237 OA
ATOM     85  O   UNL     1      -1.263  -9.884   5.925  1.00  0.00    -0.237 OA
ATOM     86  O   UNL     1      -2.356  -9.687   3.740  1.00  0.00    -0.744 OA
ENDBRANCH  80  83
ENDBRANCH  52  76
BRANCH  64  87
ATOM     87  C   UNL     1       0.528 -17.894  -2.127  1.00  0.00     0.023 A 
ATOM     88  C   UNL     1      -0.809 -18.305  -1.972  1.00  0.00     0.012 A 
ATOM     89  C   UNL     1       1.546 -18.862  -2.229  1.00  0.00     0.148 A 
ATOM     90  C   UNL     1      -1.128 -19.659  -1.897  1.00  0.00     0.002 A 
ATOM     91  C   UNL     1       1.216 -20.211  -2.202  1.00  0.00     0.091 A 
ATOM     92  F   UNL     1       2.814 -18.446  -2.360  1.00  0.00    -0.205 F 
ATOM     93  C   UNL     1      -0.118 -20.611  -2.026  1.00  0.00     0.022 A 
BRANCH  91  94
ATOM     94  S   UNL     1       2.438 -21.501  -2.463  1.00  0.00     0.127 S 
ATOM     95  O   UNL     1       2.611 -22.026  -1.109  1.00  0.00    -0.237 OA
ATOM     96  O   UNL     1       1.747 -22.404  -3.384  1.00  0.00    -0.237 OA
ATOM     97  O   UNL     1       3.603 -20.838  -3.032  1.00  0.00    -0.744 OA
ENDBRANCH  91  94
ENDBRANCH  64  87
ENDBRANCH  38  39
ENDBRANCH  31  33
ENDBRANCH  30  31
ENDBRANCH  29  30
ENDBRANCH  28  29
ENDBRANCH   1  28
TORSDOF 20
