REMARK SMILES [NH3+][C@@]1(C(=O)OCCOCCOC(=O)c2ccc(-c3c4nc(c(-c5cccc(S(=O)(=O)[O-])c5F)c5ccc([nH]5)c(-c5cccc(S(=O)(=O)[O-])c5F)c5nc(c(-c6cccc(S(=O)(=O)[O-])c6F)c6ccc3[nH]6)C=C5)C=C4)cc2)CC[C@H](Sc2cccs2)C1
REMARK SMILES IDX 9 1 8 2 7 3 6 4 5 5 3 6 4 7 2 8 77 9 86 10 78 11 79 12 1 13
REMARK SMILES IDX 80 17 81 18 82 19 85 20 83 21 84 22 10 23 11 24 12 25 13 26
REMARK SMILES IDX 14 27 15 28 76 29 16 30 75 31 17 32 18 33 19 34 69 35 20 36
REMARK SMILES IDX 74 37 68 38 70 39 21 40 73 41 67 42 66 43 22 45 54 46 34 47
REMARK SMILES IDX 53 48 35 49 38 50 52 51 71 52 36 53 37 54 51 56 72 57 39 58
REMARK SMILES IDX 23 59 24 60 32 61 25 62 27 63 33 64 26 65 28 66 29 67 30 68
REMARK SMILES IDX 31 69 55 70 56 71 64 72 57 73 59 74 65 75 58 76 60 77 61 78
REMARK SMILES IDX 62 79 63 80 40 81 41 82 49 83 42 84 44 85 50 86 43 87 45 88
REMARK SMILES IDX 46 89 47 90 48 91
REMARK H PARENT 1 14 1 15 1 16 70 44 38 55
REMARK Flexibility Score: inf
ROOT
ATOM      1  C   UNL     1       1.657   0.671  -3.428  1.00  0.00     0.202 C 
ENDROOT
BRANCH   1   2
ATOM      2  O   UNL     1       0.560   0.422  -4.304  1.00  0.00    -0.374 OA
BRANCH   2   3
ATOM      3  C   UNL     1      -0.479   1.404  -4.345  1.00  0.00     0.202 C 
BRANCH   3   4
ATOM      4  C   UNL     1      -1.482   1.378  -3.188  1.00  0.00     0.261 C 
BRANCH   4   5
ATOM      5  O   UNL     1      -0.854   1.773  -1.956  1.00  0.00    -0.459 OA
BRANCH   5   6
ATOM      6  C   UNL     1      -0.756   0.817  -1.002  1.00  0.00     0.368 C 
ATOM      7  O   UNL     1      -1.249  -0.306  -1.075  1.00  0.00    -0.245 OA
BRANCH   6   8
ATOM      8  C   UNL     1       0.115   1.255   0.212  1.00  0.00     0.193 C 
ATOM      9  C   UNL     1      -0.806   1.726   1.335  1.00  0.00     0.082 C 
ATOM     10  C   UNL     1       1.056   2.450  -0.007  1.00  0.00     0.095 C 
ATOM     11  C   UNL     1      -1.058   3.188   0.981  1.00  0.00     0.022 C 
ATOM     12  C   UNL     1       0.300   3.700   0.490  1.00  0.00     0.059 C 
BRANCH   8  13
ATOM     13  N   UNL     1       0.905   0.068   0.633  1.00  0.00    -0.343 N 
ATOM     14  H   UNL     1       0.279  -0.723   0.778  1.00  0.00     0.345 HD
ATOM     15  H   UNL     1       1.396   0.278   1.502  1.00  0.00     0.345 HD
ATOM     16  H   UNL     1       1.583  -0.163  -0.093  1.00  0.00     0.345 HD
ENDBRANCH   8  13
BRANCH  12  17
ATOM     17  S   UNL     1       0.217   4.934  -0.837  1.00  0.00    -0.112 SA
BRANCH  17  18
ATOM     18  C   UNL     1      -0.571   6.329  -0.119  1.00  0.00     0.060 A 
ATOM     19  C   UNL     1      -0.868   6.586   1.204  1.00  0.00     0.027 A 
ATOM     20  S   UNL     1      -1.073   7.623  -1.129  1.00  0.00    -0.137 S 
ATOM     21  C   UNL     1      -1.579   7.812   1.374  1.00  0.00     0.013 A 
ATOM     22  C   UNL     1      -1.767   8.470   0.181  1.00  0.00     0.066 A 
ENDBRANCH  17  18
ENDBRANCH  12  17
ENDBRANCH   6   8
ENDBRANCH   5   6
ENDBRANCH   4   5
ENDBRANCH   3   4
ENDBRANCH   2   3
ENDBRANCH   1   2
BRANCH   1  23
ATOM     23  C   UNL     1       2.705   1.691  -3.894  1.00  0.00     0.261 C 
BRANCH  23  24
ATOM     24  O   UNL     1       2.161   3.012  -4.048  1.00  0.00    -0.460 OA
BRANCH  24  25
ATOM     25  C   UNL     1       2.082   3.446  -5.329  1.00  0.00     0.338 C 
ATOM     26  O   UNL     1       2.505   2.871  -6.327  1.00  0.00    -0.246 OA
BRANCH  25  27
ATOM     27  C   UNL     1       1.232   4.647  -5.417  1.00  0.00     0.060 A 
ATOM     28  C   UNL     1       0.158   4.608  -6.316  1.00  0.00     0.016 A 
ATOM     29  C   UNL     1       1.503   5.807  -4.688  1.00  0.00     0.016 A 
ATOM     30  C   UNL     1      -0.623   5.742  -6.523  1.00  0.00     0.010 A 
ATOM     31  C   UNL     1       0.723   6.949  -4.906  1.00  0.00     0.010 A 
ATOM     32  C   UNL     1      -0.324   6.931  -5.845  1.00  0.00    -0.014 A 
BRANCH  32  33
ATOM     33  C   UNL     1      -1.053   8.174  -6.197  1.00  0.00     0.031 A 
ATOM     34  C   UNL     1      -0.414   9.174  -7.120  1.00  0.00     0.074 A 
ATOM     35  C   UNL     1      -2.283   8.403  -5.704  1.00  0.00     0.049 A 
ATOM     36  N   UNL     1      -0.881  10.316  -7.553  1.00  0.00    -0.248 NA
ATOM     37  C   UNL     1       0.929   8.844  -7.625  1.00  0.00     0.031 C 
ATOM     38  C   UNL     1      -3.006   7.513  -4.797  1.00  0.00     0.029 A 
ATOM     39  N   UNL     1      -3.131   9.468  -5.881  1.00  0.00    -0.354 N 
ATOM     40  C   UNL     1       0.115  10.854  -8.359  1.00  0.00     0.074 A 
ATOM     41  C   UNL     1       1.217   9.916  -8.350  1.00  0.00     0.031 C 
ATOM     42  C   UNL     1      -4.178   8.083  -4.471  1.00  0.00     0.029 A 
ATOM     43  C   UNL     1      -4.278   9.386  -5.128  1.00  0.00     0.049 A 
ATOM     44  H   UNL     1      -2.936  10.218  -6.488  1.00  0.00     0.167 HD
ATOM     45  C   UNL     1       0.108  12.017  -9.054  1.00  0.00     0.034 A 
ATOM     46  C   UNL     1      -5.282  10.271  -4.969  1.00  0.00     0.034 A 
ATOM     47  C   UNL     1      -0.994  12.941  -9.077  1.00  0.00     0.049 A 
ATOM     48  C   UNL     1      -5.256  11.566  -5.737  1.00  0.00     0.074 A 
ATOM     49  C   UNL     1      -1.116  14.115  -9.799  1.00  0.00     0.029 A 
ATOM     50  N   UNL     1      -2.157  12.807  -8.335  1.00  0.00    -0.354 N 
ATOM     51  N   UNL     1      -4.369  11.996  -6.602  1.00  0.00    -0.248 NA
ATOM     52  C   UNL     1      -6.385  12.486  -5.530  1.00  0.00     0.031 C 
ATOM     53  C   UNL     1      -2.341  14.706  -9.471  1.00  0.00     0.029 A 
ATOM     54  C   UNL     1      -2.993  13.886  -8.565  1.00  0.00     0.049 A 
ATOM     55  H   UNL     1      -2.358  12.055  -7.733  1.00  0.00     0.167 HD
ATOM     56  C   UNL     1      -4.845  13.220  -7.061  1.00  0.00     0.074 A 
ATOM     57  C   UNL     1      -6.112  13.451  -6.399  1.00  0.00     0.031 C 
ATOM     58  C   UNL     1      -4.275  14.085  -7.937  1.00  0.00     0.034 A 
BRANCH  45  59
ATOM     59  C   UNL     1       1.324  12.349  -9.877  1.00  0.00     0.023 A 
ATOM     60  C   UNL     1       1.556  11.659 -11.084  1.00  0.00     0.012 A 
ATOM     61  C   UNL     1       2.194  13.389  -9.496  1.00  0.00     0.148 A 
ATOM     62  C   UNL     1       2.649  11.982 -11.887  1.00  0.00     0.002 A 
ATOM     63  C   UNL     1       3.258  13.733 -10.322  1.00  0.00     0.091 A 
ATOM     64  F   UNL     1       1.968  14.018  -8.334  1.00  0.00    -0.205 F 
ATOM     65  C   UNL     1       3.493  13.025 -11.512  1.00  0.00     0.022 A 
BRANCH  63  66
ATOM     66  S   UNL     1       4.357  15.108  -9.963  1.00  0.00     0.127 S 
ATOM     67  O   UNL     1       5.593  14.414  -9.607  1.00  0.00    -0.237 OA
ATOM     68  O   UNL     1       4.401  15.810 -11.247  1.00  0.00    -0.237 OA
ATOM     69  O   UNL     1       3.726  15.856  -8.885  1.00  0.00    -0.744 OA
ENDBRANCH  63  66
ENDBRANCH  45  59
BRANCH  46  70
ATOM     70  C   UNL     1      -6.413   9.949  -4.054  1.00  0.00     0.023 A 
ATOM     71  C   UNL     1      -7.693   9.704  -4.587  1.00  0.00     0.012 A 
ATOM     72  C   UNL     1      -6.221   9.870  -2.661  1.00  0.00     0.148 A 
ATOM     73  C   UNL     1      -8.768   9.412  -3.746  1.00  0.00     0.002 A 
ATOM     74  C   UNL     1      -7.283   9.525  -1.834  1.00  0.00     0.091 A 
ATOM     75  F   UNL     1      -5.000  10.128  -2.172  1.00  0.00    -0.205 F 
ATOM     76  C   UNL     1      -8.561   9.312  -2.373  1.00  0.00     0.022 A 
BRANCH  74  77
ATOM     77  S   UNL     1      -7.078   9.254  -0.070  1.00  0.00     0.127 S 
ATOM     78  O   UNL     1      -7.784  10.402   0.493  1.00  0.00    -0.237 OA
ATOM     79  O   UNL     1      -7.746   7.966   0.117  1.00  0.00    -0.237 OA
ATOM     80  O   UNL     1      -5.639   9.224   0.162  1.00  0.00    -0.744 OA
ENDBRANCH  74  77
ENDBRANCH  46  70
BRANCH  58  81
ATOM     81  C   UNL     1      -5.020  15.357  -8.253  1.00  0.00     0.023 A 
ATOM     82  C   UNL     1      -5.087  16.383  -7.289  1.00  0.00     0.012 A 
ATOM     83  C   UNL     1      -5.589  15.566  -9.525  1.00  0.00     0.148 A 
ATOM     84  C   UNL     1      -5.735  17.584  -7.574  1.00  0.00     0.002 A 
ATOM     85  C   UNL     1      -6.193  16.784  -9.818  1.00  0.00     0.091 A 
ATOM     86  F   UNL     1      -5.531  14.573 -10.424  1.00  0.00    -0.205 F 
ATOM     87  C   UNL     1      -6.278  17.788  -8.841  1.00  0.00     0.022 A 
BRANCH  85  88
ATOM     88  S   UNL     1      -6.838  17.172 -11.450  1.00  0.00     0.127 S 
ATOM     89  O   UNL     1      -8.280  17.108 -11.224  1.00  0.00    -0.237 OA
ATOM     90  O   UNL     1      -6.315  18.520 -11.679  1.00  0.00    -0.237 OA
ATOM     91  O   UNL     1      -6.299  16.156 -12.345  1.00  0.00    -0.744 OA
ENDBRANCH  85  88
ENDBRANCH  58  81
ENDBRANCH  32  33
ENDBRANCH  25  27
ENDBRANCH  24  25
ENDBRANCH  23  24
ENDBRANCH   1  23
TORSDOF 20
