REMARK SMILES CC[C@]1(C(=O)OCCOCCOC(=O)c2ccc(-c3c4nc(c(-c5cccc(S(=O)(=O)[O-])c5F)c5ccc([nH]5)c(-c5cccc(S(=O)(=O)[O-])c5F)c5nc(c(-c6cccc(S(=O)(=O)[O-])c6F)c6ccc3[nH]6)C=C5)C=C4)cc2)CCC[N@@H+]([C@@H]2CCC[C@H](S(C)(=O)=O)C2)C1
REMARK SMILES IDX 10 1 9 2 8 3 7 4 6 5 4 6 5 7 3 8 78 9 92 10 79 11 81 12
REMARK SMILES IDX 80 13 2 15 1 16 82 17 83 18 91 19 84 20 86 21 85 22 87 23
REMARK SMILES IDX 88 24 89 25 90 26 11 27 12 28 13 29 14 30 15 31 16 32 77 33
REMARK SMILES IDX 17 34 76 35 18 36 19 37 20 38 70 39 21 40 75 41 69 42 71 43
REMARK SMILES IDX 22 44 74 45 68 46 67 47 23 49 55 50 35 51 54 52 36 53 39 54
REMARK SMILES IDX 53 55 72 56 37 57 38 58 52 60 73 61 40 62 24 63 25 64 33 65
REMARK SMILES IDX 26 66 28 67 34 68 27 69 29 70 30 71 31 72 32 73 56 74 57 75
REMARK SMILES IDX 65 76 58 77 60 78 66 79 59 80 61 81 62 82 63 83 64 84 41 85
REMARK SMILES IDX 42 86 50 87 43 88 45 89 51 90 44 91 46 92 47 93 48 94 49 95
REMARK H PARENT 81 14 71 48 39 59
REMARK Flexibility Score: inf
ROOT
ATOM      1  C   UNL     1       2.777   0.089  -2.500  1.00  0.00     0.202 C 
ENDROOT
BRANCH   1   2
ATOM      2  O   UNL     1       2.146   0.138  -3.777  1.00  0.00    -0.374 OA
BRANCH   2   3
ATOM      3  C   UNL     1       1.958   1.406  -4.397  1.00  0.00     0.202 C 
BRANCH   3   4
ATOM      4  C   UNL     1       0.919   2.360  -3.803  1.00  0.00     0.261 C 
BRANCH   4   5
ATOM      5  O   UNL     1       1.117   2.606  -2.406  1.00  0.00    -0.463 OA
BRANCH   5   6
ATOM      6  C   UNL     1       0.209   2.012  -1.583  1.00  0.00     0.317 C 
ATOM      7  O   UNL     1      -0.729   1.325  -1.974  1.00  0.00    -0.251 OA
BRANCH   6   8
ATOM      8  C   UNL     1       0.434   2.373  -0.112  1.00  0.00     0.117 C 
ATOM      9  C   UNL     1       1.905   2.627   0.287  1.00  0.00     0.030 C 
ATOM     10  C   UNL     1      -0.328   3.707   0.017  1.00  0.00     0.281 C 
ATOM     11  C   UNL     1       1.996   3.271   1.673  1.00  0.00     0.063 C 
ATOM     12  N   UNL     1      -0.234   4.358   1.334  1.00  0.00    -0.332 N 
ATOM     13  C   UNL     1       1.167   4.557   1.742  1.00  0.00     0.262 C 
ATOM     14  H   UNL     1      -0.628   3.748   2.050  1.00  0.00     0.348 HD
BRANCH   8  15
ATOM     15  C   UNL     1      -0.205   1.257   0.769  1.00  0.00     0.021 C 
ATOM     16  C   UNL     1       0.427  -0.127   0.601  1.00  0.00     0.005 C 
ENDBRANCH   8  15
BRANCH  12  17
ATOM     17  C   UNL     1      -1.040   5.607   1.322  1.00  0.00     0.185 C 
ATOM     18  C   UNL     1      -0.440   6.779   0.514  1.00  0.00     0.065 C 
ATOM     19  C   UNL     1      -1.389   6.056   2.749  1.00  0.00     0.084 C 
ATOM     20  C   UNL     1      -1.377   7.980   0.500  1.00  0.00     0.007 C 
ATOM     21  C   UNL     1      -2.316   7.281   2.736  1.00  0.00     0.114 C 
ATOM     22  C   UNL     1      -1.719   8.427   1.916  1.00  0.00     0.020 C 
BRANCH  21  23
ATOM     23  S   UNL     1      -2.689   7.773   4.428  1.00  0.00     0.150 S 
ATOM     24  C   UNL     1      -3.695   9.229   4.266  1.00  0.00     0.158 C 
ATOM     25  O   UNL     1      -3.538   6.746   5.006  1.00  0.00    -0.229 OA
ATOM     26  O   UNL     1      -1.459   8.163   5.089  1.00  0.00    -0.229 OA
ENDBRANCH  21  23
ENDBRANCH  12  17
ENDBRANCH   6   8
ENDBRANCH   5   6
ENDBRANCH   4   5
ENDBRANCH   3   4
ENDBRANCH   2   3
ENDBRANCH   1   2
BRANCH   1  27
ATOM     27  C   UNL     1       4.262   0.457  -2.391  1.00  0.00     0.261 C 
BRANCH  27  28
ATOM     28  O   UNL     1       4.545   1.813  -2.767  1.00  0.00    -0.460 OA
BRANCH  28  29
ATOM     29  C   UNL     1       5.235   1.940  -3.926  1.00  0.00     0.338 C 
ATOM     30  O   UNL     1       5.635   1.036  -4.649  1.00  0.00    -0.246 OA
BRANCH  29  31
ATOM     31  C   UNL     1       5.297   3.353  -4.329  1.00  0.00     0.060 A 
ATOM     32  C   UNL     1       4.821   3.692  -5.604  1.00  0.00     0.016 A 
ATOM     33  C   UNL     1       5.913   4.307  -3.519  1.00  0.00     0.016 A 
ATOM     34  C   UNL     1       5.014   4.977  -6.101  1.00  0.00     0.010 A 
ATOM     35  C   UNL     1       6.118   5.592  -4.024  1.00  0.00     0.010 A 
ATOM     36  C   UNL     1       5.711   5.916  -5.332  1.00  0.00    -0.014 A 
BRANCH  36  37
ATOM     37  C   UNL     1       6.194   7.168  -5.955  1.00  0.00     0.031 A 
ATOM     38  C   UNL     1       7.624   7.229  -6.416  1.00  0.00     0.074 A 
ATOM     39  C   UNL     1       5.386   8.235  -6.078  1.00  0.00     0.049 A 
ATOM     40  N   UNL     1       8.303   8.244  -6.877  1.00  0.00    -0.248 NA
ATOM     41  C   UNL     1       8.394   5.975  -6.335  1.00  0.00     0.031 C 
ATOM     42  C   UNL     1       3.978   8.277  -5.686  1.00  0.00     0.029 A 
ATOM     43  N   UNL     1       5.649   9.501  -6.535  1.00  0.00    -0.354 N 
ATOM     44  C   UNL     1       9.589   7.766  -7.102  1.00  0.00     0.074 A 
ATOM     45  C   UNL     1       9.597   6.369  -6.726  1.00  0.00     0.031 C 
ATOM     46  C   UNL     1       3.511   9.522  -5.879  1.00  0.00     0.029 A 
ATOM     47  C   UNL     1       4.594  10.368  -6.378  1.00  0.00     0.049 A 
ATOM     48  H   UNL     1       6.509   9.762  -6.937  1.00  0.00     0.167 HD
ATOM     49  C   UNL     1      10.664   8.429  -7.586  1.00  0.00     0.034 A 
ATOM     50  C   UNL     1       4.526  11.699  -6.582  1.00  0.00     0.034 A 
ATOM     51  C   UNL     1      10.639   9.811  -7.978  1.00  0.00     0.049 A 
ATOM     52  C   UNL     1       5.743  12.419  -7.105  1.00  0.00     0.074 A 
ATOM     53  C   UNL     1      11.662  10.572  -8.514  1.00  0.00     0.029 A 
ATOM     54  N   UNL     1       9.534  10.641  -7.867  1.00  0.00    -0.354 N 
ATOM     55  N   UNL     1       6.925  11.935  -7.404  1.00  0.00    -0.248 NA
ATOM     56  C   UNL     1       5.609  13.863  -7.350  1.00  0.00     0.031 C 
ATOM     57  C   UNL     1      11.179  11.870  -8.710  1.00  0.00     0.029 A 
ATOM     58  C   UNL     1       9.849  11.909  -8.322  1.00  0.00     0.049 A 
ATOM     59  H   UNL     1       8.656  10.368  -7.517  1.00  0.00     0.167 HD
ATOM     60  C   UNL     1       7.658  13.001  -7.915  1.00  0.00     0.074 A 
ATOM     61  C   UNL     1       6.784  14.156  -7.891  1.00  0.00     0.031 C 
ATOM     62  C   UNL     1       8.940  13.026  -8.355  1.00  0.00     0.034 A 
BRANCH  49  63
ATOM     63  C   UNL     1      11.951   7.663  -7.735  1.00  0.00     0.023 A 
ATOM     64  C   UNL     1      12.081   6.707  -8.762  1.00  0.00     0.012 A 
ATOM     65  C   UNL     1      13.047   7.923  -6.889  1.00  0.00     0.148 A 
ATOM     66  C   UNL     1      13.271   5.998  -8.926  1.00  0.00     0.002 A 
ATOM     67  C   UNL     1      14.244   7.245  -7.086  1.00  0.00     0.091 A 
ATOM     68  F   UNL     1      12.896   8.817  -5.902  1.00  0.00    -0.205 F 
ATOM     69  C   UNL     1      14.355   6.275  -8.096  1.00  0.00     0.022 A 
BRANCH  67  70
ATOM     70  S   UNL     1      15.719   7.584  -6.118  1.00  0.00     0.127 S 
ATOM     71  O   UNL     1      15.813   6.381  -5.293  1.00  0.00    -0.237 OA
ATOM     72  O   UNL     1      16.748   7.696  -7.153  1.00  0.00    -0.237 OA
ATOM     73  O   UNL     1      15.448   8.819  -5.396  1.00  0.00    -0.744 OA
ENDBRANCH  67  70
ENDBRANCH  49  63
BRANCH  50  74
ATOM     74  C   UNL     1       3.252  12.427  -6.322  1.00  0.00     0.023 A 
ATOM     75  C   UNL     1       2.522  12.954  -7.405  1.00  0.00     0.012 A 
ATOM     76  C   UNL     1       2.747  12.579  -5.016  1.00  0.00     0.148 A 
ATOM     77  C   UNL     1       1.329  13.644  -7.190  1.00  0.00     0.002 A 
ATOM     78  C   UNL     1       1.528  13.217  -4.813  1.00  0.00     0.091 A 
ATOM     79  F   UNL     1       3.463  12.085  -3.996  1.00  0.00    -0.205 F 
ATOM     80  C   UNL     1       0.827  13.766  -5.897  1.00  0.00     0.022 A 
BRANCH  78  81
ATOM     81  S   UNL     1       0.742  13.301  -3.200  1.00  0.00     0.127 S 
ATOM     82  O   UNL     1       0.887  14.716  -2.868  1.00  0.00    -0.237 OA
ATOM     83  O   UNL     1      -0.625  12.877  -3.506  1.00  0.00    -0.237 OA
ATOM     84  O   UNL     1       1.478  12.372  -2.353  1.00  0.00    -0.744 OA
ENDBRANCH  78  81
ENDBRANCH  50  74
BRANCH  62  85
ATOM     85  C   UNL     1       9.471  14.322  -8.909  1.00  0.00     0.023 A 
ATOM     86  C   UNL     1       9.801  15.378  -8.039  1.00  0.00     0.012 A 
ATOM     87  C   UNL     1       9.741  14.446 -10.287  1.00  0.00     0.148 A 
ATOM     88  C   UNL     1      10.371  16.550  -8.536  1.00  0.00     0.002 A 
ATOM     89  C   UNL     1      10.353  15.597 -10.768  1.00  0.00     0.091 A 
ATOM     90  F   UNL     1       9.402  13.434 -11.099  1.00  0.00    -0.205 F 
ATOM     91  C   UNL     1      10.659  16.654  -9.895  1.00  0.00     0.022 A 
BRANCH  89  92
ATOM     92  S   UNL     1      10.852  15.775 -12.484  1.00  0.00     0.127 S 
ATOM     93  O   UNL     1       9.880  16.750 -12.976  1.00  0.00    -0.237 OA
ATOM     94  O   UNL     1      12.218  16.286 -12.358  1.00  0.00    -0.237 OA
ATOM     95  O   UNL     1      10.756  14.446 -13.071  1.00  0.00    -0.744 OA
ENDBRANCH  89  92
ENDBRANCH  62  85
ENDBRANCH  36  37
ENDBRANCH  29  31
ENDBRANCH  28  29
ENDBRANCH  27  28
ENDBRANCH   1  27
TORSDOF 20
