REMARK SMILES Cc1cc(C(=O)N[C@H]2C=C[C@@H](C(=O)OCCOCCOC(=O)c3ccc(-c4c5nc(c(-c6cccc(S(=O)(=O)[O-])c6F)c6ccc([nH]6)c(-c6cccc(S(=O)(=O)[O-])c6F)c6nc(c(-c7cccc(S(=O)(=O)[O-])c7F)c7ccc4[nH]7)C=C6)C=C5)cc3)C2)no1
REMARK SMILES IDX 18 1 17 2 16 3 15 4 14 5 12 6 13 7 11 8 8 9 9 10 86 11 10 12
REMARK SMILES IDX 7 13 5 14 6 15 4 17 1 18 2 19 3 20 88 21 87 22 19 23 20 24
REMARK SMILES IDX 21 25 22 26 23 27 24 28 85 29 25 30 84 31 26 32 27 33 28 34
REMARK SMILES IDX 78 35 29 36 83 37 77 38 79 39 30 40 82 41 76 42 75 43 31 45
REMARK SMILES IDX 63 46 43 47 62 48 44 49 47 50 61 51 80 52 45 53 46 54 60 56
REMARK SMILES IDX 81 57 48 58 32 59 33 60 41 61 34 62 36 63 42 64 35 65 37 66
REMARK SMILES IDX 38 67 39 68 40 69 64 70 65 71 73 72 66 73 68 74 74 75 67 76
REMARK SMILES IDX 69 77 70 78 71 79 72 80 49 81 50 82 58 83 51 84 53 85 59 86
REMARK SMILES IDX 52 87 54 88 55 89 56 90 57 91
REMARK H PARENT 7 16 79 44 47 55
REMARK Flexibility Score: inf
ROOT
ATOM      1  C   UNL     1      -0.804  -8.536   2.019  1.00  0.00     0.202 C 
ENDROOT
BRANCH   1   2
ATOM      2  O   UNL     1      -0.606  -8.935   3.375  1.00  0.00    -0.374 OA
BRANCH   2   3
ATOM      3  C   UNL     1      -1.314  -8.228   4.392  1.00  0.00     0.202 C 
BRANCH   3   4
ATOM      4  C   UNL     1      -0.761  -6.859   4.788  1.00  0.00     0.261 C 
BRANCH   4   5
ATOM      5  O   UNL     1      -0.770  -5.957   3.675  1.00  0.00    -0.463 OA
BRANCH   5   6
ATOM      6  C   UNL     1       0.448  -5.654   3.162  1.00  0.00     0.312 C 
ATOM      7  O   UNL     1       1.524  -6.021   3.623  1.00  0.00    -0.252 OA
BRANCH   6   8
ATOM      8  C   UNL     1       0.361  -4.773   1.934  1.00  0.00     0.124 C 
ATOM      9  C   UNL     1      -0.934  -3.294   0.554  1.00  0.00     0.106 C 
ATOM     10  C   UNL     1      -0.240  -2.539   1.643  1.00  0.00    -0.006 C 
ATOM     11  C   UNL     1      -0.964  -4.705   1.152  1.00  0.00     0.048 C 
ATOM     12  C   UNL     1       0.540  -3.350   2.364  1.00  0.00    -0.014 C 
BRANCH   9  13
ATOM     13  N   UNL     1      -2.207  -2.725   0.203  1.00  0.00    -0.344 N 
ATOM     14  C   UNL     1      -2.450  -1.500  -0.402  1.00  0.00     0.273 C 
ATOM     15  O   UNL     1      -3.592  -1.240  -0.775  1.00  0.00    -0.267 OA
ATOM     16  H   UNL     1      -3.000  -3.269   0.417  1.00  0.00     0.164 HD
BRANCH  14  17
ATOM     17  C   UNL     1      -1.337  -0.549  -0.519  1.00  0.00     0.171 A 
ATOM     18  C   UNL     1       2.147   0.556  -0.381  1.00  0.00     0.091 C 
ATOM     19  C   UNL     1       0.705   0.285  -0.512  1.00  0.00     0.134 A 
ATOM     20  C   UNL     1      -0.024  -0.756  -1.027  1.00  0.00     0.082 A 
ATOM     21  O   UNL     1      -0.141   1.179   0.059  1.00  0.00    -0.361 OA
ATOM     22  N   UNL     1      -1.428   0.675   0.029  1.00  0.00    -0.074 NA
ENDBRANCH  14  17
ENDBRANCH   9  13
ENDBRANCH   6   8
ENDBRANCH   5   6
ENDBRANCH   4   5
ENDBRANCH   3   4
ENDBRANCH   2   3
ENDBRANCH   1   2
BRANCH   1  23
ATOM     23  C   UNL     1      -2.143  -8.896   1.363  1.00  0.00     0.261 C 
BRANCH  23  24
ATOM     24  O   UNL     1      -3.250  -8.185   1.944  1.00  0.00    -0.460 OA
BRANCH  24  25
ATOM     25  C   UNL     1      -4.128  -8.967   2.617  1.00  0.00     0.338 C 
ATOM     26  O   UNL     1      -4.098 -10.188   2.716  1.00  0.00    -0.246 OA
BRANCH  25  27
ATOM     27  C   UNL     1      -5.061  -8.142   3.405  1.00  0.00     0.060 A 
ATOM     28  C   UNL     1      -5.143  -8.400   4.779  1.00  0.00     0.016 A 
ATOM     29  C   UNL     1      -5.907  -7.207   2.805  1.00  0.00     0.016 A 
ATOM     30  C   UNL     1      -6.112  -7.766   5.552  1.00  0.00     0.010 A 
ATOM     31  C   UNL     1      -6.885  -6.577   3.583  1.00  0.00     0.010 A 
ATOM     32  C   UNL     1      -7.019  -6.885   4.950  1.00  0.00    -0.014 A 
BRANCH  32  33
ATOM     33  C   UNL     1      -8.184  -6.401   5.729  1.00  0.00     0.031 A 
ATOM     34  C   UNL     1      -9.526  -7.052   5.525  1.00  0.00     0.074 A 
ATOM     35  C   UNL     1      -8.046  -5.403   6.620  1.00  0.00     0.049 A 
ATOM     36  N   UNL     1     -10.667  -6.792   6.106  1.00  0.00    -0.248 NA
ATOM     37  C   UNL     1      -9.592  -8.139   4.532  1.00  0.00     0.031 C 
ATOM     38  C   UNL     1      -6.802  -4.687   6.898  1.00  0.00     0.029 A 
ATOM     39  N   UNL     1      -8.971  -4.802   7.436  1.00  0.00    -0.354 N 
ATOM     40  C   UNL     1     -11.593  -7.653   5.529  1.00  0.00     0.074 A 
ATOM     41  C   UNL     1     -10.882  -8.444   4.549  1.00  0.00     0.031 C 
ATOM     42  C   UNL     1      -7.049  -3.718   7.796  1.00  0.00     0.029 A 
ATOM     43  C   UNL     1      -8.469  -3.735   8.142  1.00  0.00     0.049 A 
ATOM     44  H   UNL     1      -9.905  -5.106   7.508  1.00  0.00     0.167 HD
ATOM     45  C   UNL     1     -12.913  -7.783   5.801  1.00  0.00     0.034 A 
ATOM     46  C   UNL     1      -9.090  -2.857   8.956  1.00  0.00     0.034 A 
ATOM     47  C   UNL     1     -13.611  -7.021   6.801  1.00  0.00     0.049 A 
ATOM     48  C   UNL     1     -10.559  -3.031   9.244  1.00  0.00     0.074 A 
ATOM     49  C   UNL     1     -14.930  -7.139   7.204  1.00  0.00     0.029 A 
ATOM     50  N   UNL     1     -13.057  -5.990   7.541  1.00  0.00    -0.354 N 
ATOM     51  N   UNL     1     -11.383  -3.952   8.808  1.00  0.00    -0.248 NA
ATOM     52  C   UNL     1     -11.175  -2.067  10.168  1.00  0.00     0.031 C 
ATOM     53  C   UNL     1     -15.181  -6.159   8.169  1.00  0.00     0.029 A 
ATOM     54  C   UNL     1     -14.011  -5.449   8.386  1.00  0.00     0.049 A 
ATOM     55  H   UNL     1     -12.123  -5.686   7.476  1.00  0.00     0.167 HD
ATOM     56  C   UNL     1     -12.603  -3.699   9.427  1.00  0.00     0.074 A 
ATOM     57  C   UNL     1     -12.402  -2.553  10.289  1.00  0.00     0.031 C 
ATOM     58  C   UNL     1     -13.786  -4.345   9.282  1.00  0.00     0.034 A 
BRANCH  45  59
ATOM     59  C   UNL     1     -13.696  -8.807   5.025  1.00  0.00     0.023 A 
ATOM     60  C   UNL     1     -13.541 -10.177   5.320  1.00  0.00     0.012 A 
ATOM     61  C   UNL     1     -14.646  -8.408   4.064  1.00  0.00     0.148 A 
ATOM     62  C   UNL     1     -14.306 -11.135   4.656  1.00  0.00     0.002 A 
ATOM     63  C   UNL     1     -15.433  -9.366   3.436  1.00  0.00     0.091 A 
ATOM     64  F   UNL     1     -14.759  -7.103   3.783  1.00  0.00    -0.205 F 
ATOM     65  C   UNL     1     -15.258 -10.730   3.725  1.00  0.00     0.022 A 
BRANCH  63  66
ATOM     66  S   UNL     1     -16.739  -8.940   2.279  1.00  0.00     0.127 S 
ATOM     67  O   UNL     1     -16.186  -9.430   1.017  1.00  0.00    -0.237 OA
ATOM     68  O   UNL     1     -17.868  -9.717   2.792  1.00  0.00    -0.237 OA
ATOM     69  O   UNL     1     -16.903  -7.496   2.370  1.00  0.00    -0.744 OA
ENDBRANCH  63  66
ENDBRANCH  45  59
BRANCH  46  70
ATOM     70  C   UNL     1      -8.319  -1.745   9.578  1.00  0.00     0.023 A 
ATOM     71  C   UNL     1      -8.093  -1.740  10.968  1.00  0.00     0.012 A 
ATOM     72  C   UNL     1      -7.803  -0.694   8.796  1.00  0.00     0.148 A 
ATOM     73  C   UNL     1      -7.398  -0.691  11.572  1.00  0.00     0.002 A 
ATOM     74  C   UNL     1      -7.061   0.317   9.395  1.00  0.00     0.091 A 
ATOM     75  F   UNL     1      -8.047  -0.703   7.477  1.00  0.00    -0.205 F 
ATOM     76  C   UNL     1      -6.873   0.331  10.785  1.00  0.00     0.022 A 
BRANCH  74  77
ATOM     77  S   UNL     1      -6.238   1.595   8.438  1.00  0.00     0.127 S 
ATOM     78  O   UNL     1      -7.088   2.754   8.693  1.00  0.00    -0.237 OA
ATOM     79  O   UNL     1      -4.919   1.645   9.072  1.00  0.00    -0.237 OA
ATOM     80  O   UNL     1      -6.222   1.101   7.068  1.00  0.00    -0.744 OA
ENDBRANCH  74  77
ENDBRANCH  46  70
BRANCH  58  81
ATOM     81  C   UNL     1     -14.957  -3.857  10.097  1.00  0.00     0.023 A 
ATOM     82  C   UNL     1     -15.583  -2.640   9.763  1.00  0.00     0.012 A 
ATOM     83  C   UNL     1     -15.482  -4.641  11.144  1.00  0.00     0.148 A 
ATOM     84  C   UNL     1     -16.693  -2.194  10.480  1.00  0.00     0.002 A 
ATOM     85  C   UNL     1     -16.617  -4.213  11.822  1.00  0.00     0.091 A 
ATOM     86  F   UNL     1     -14.861  -5.787  11.459  1.00  0.00    -0.205 F 
ATOM     87  C   UNL     1     -17.217  -2.985  11.500  1.00  0.00     0.022 A 
BRANCH  85  88
ATOM     88  S   UNL     1     -17.416  -5.214  13.083  1.00  0.00     0.127 S 
ATOM     89  O   UNL     1     -17.024  -4.519  14.307  1.00  0.00    -0.237 OA
ATOM     90  O   UNL     1     -18.831  -5.086  12.734  1.00  0.00    -0.237 OA
ATOM     91  O   UNL     1     -16.877  -6.559  12.925  1.00  0.00    -0.744 OA
ENDBRANCH  85  88
ENDBRANCH  58  81
ENDBRANCH  32  33
ENDBRANCH  25  27
ENDBRANCH  24  25
ENDBRANCH  23  24
ENDBRANCH   1  23
TORSDOF 19
