REMARK SMILES Cc1ccc([C@@]23C[C@@H]4C[C@@H](C[C@@](C(=O)N5CCC(C(=O)OCCOCCOC(=O)c6ccc(-c7c8nc(c(-c9cccc(S(=O)(=O)[O-])c9F)c9ccc([nH]9)c(-c9cccc(S(=O)(=O)[O-])c9F)c9nc(c(-c%10cccc(S(=O)(=O)[O-])c%10F)c%10ccc7[nH]%10)C=C9)C=C8)cc6)CC5)(C4)C2)C3)cc1
REMARK SMILES IDX 25 1 24 2 23 3 22 4 21 5 19 6 20 7 18 8 13 9 14 10 15 11
REMARK SMILES IDX 16 12 94 13 17 14 93 15 12 16 6 17 7 18 96 19 97 20 8 21
REMARK SMILES IDX 10 22 9 23 95 24 11 25 5 26 1 27 2 28 3 29 99 30 4 31 98 32
REMARK SMILES IDX 26 33 27 34 28 35 29 36 30 37 31 38 92 39 32 40 91 41 33 42
REMARK SMILES IDX 34 43 35 44 85 45 36 46 90 47 84 48 86 49 37 50 89 51 83 52
REMARK SMILES IDX 82 53 38 55 70 56 50 57 69 58 51 59 54 60 68 61 87 62 52 63
REMARK SMILES IDX 53 64 67 66 88 67 55 68 39 69 40 70 48 71 41 72 43 73 49 74
REMARK SMILES IDX 42 75 44 76 45 77 46 78 47 79 71 80 72 81 80 82 73 83 75 84
REMARK SMILES IDX 81 85 74 86 76 87 77 88 78 89 79 90 56 91 57 92 65 93 58 94
REMARK SMILES IDX 60 95 66 96 59 97 61 98 62 99 63 100 64 101
REMARK H PARENT 86 54 54 65
REMARK Flexibility Score: inf
ROOT
ATOM      1  C   UNL     1      -5.676  -2.454  -7.561  1.00  0.00     0.202 C 
ENDROOT
BRANCH   1   2
ATOM      2  O   UNL     1      -6.575  -3.047  -6.661  1.00  0.00    -0.374 OA
BRANCH   2   3
ATOM      3  C   UNL     1      -7.540  -2.207  -6.057  1.00  0.00     0.202 C 
BRANCH   3   4
ATOM      4  C   UNL     1      -8.258  -3.098  -5.097  1.00  0.00     0.261 C 
BRANCH   4   5
ATOM      5  O   UNL     1      -7.366  -3.583  -4.065  1.00  0.00    -0.463 OA
BRANCH   5   6
ATOM      6  C   UNL     1      -6.431  -4.556  -4.338  1.00  0.00     0.309 C 
ATOM      7  O   UNL     1      -6.422  -5.358  -5.239  1.00  0.00    -0.252 OA
BRANCH   6   8
ATOM      8  C   UNL     1      -5.304  -4.458  -3.349  1.00  0.00     0.103 C 
ATOM      9  C   UNL     1      -5.603  -2.382  -0.045  1.00  0.00     0.228 C 
ATOM     10  O   UNL     1      -6.468  -2.889   0.670  1.00  0.00    -0.274 OA
ATOM     11  N   UNL     1      -4.797  -3.144  -0.910  1.00  0.00    -0.342 N 
ATOM     12  C   UNL     1      -4.875  -4.592  -0.849  1.00  0.00     0.120 C 
ATOM     13  C   UNL     1      -4.068  -2.683  -2.104  1.00  0.00     0.120 C 
ATOM     14  C   UNL     1      -5.726  -5.068  -2.006  1.00  0.00     0.037 C 
ATOM     15  C   UNL     1      -4.900  -2.983  -3.313  1.00  0.00     0.037 C 
BRANCH   9  16
ATOM     16  C   UNL     1      -5.286  -0.882   0.070  1.00  0.00     0.051 C 
ATOM     17  C   UNL     1      -3.163   0.551   0.226  1.00  0.00    -0.003 C 
ATOM     18  C   UNL     1      -3.661   1.222  -1.092  1.00  0.00     0.015 C 
ATOM     19  C   UNL     1      -3.776  -0.838   0.325  1.00  0.00     0.028 C 
ATOM     20  C   UNL     1      -3.762   1.310   1.436  1.00  0.00     0.015 C 
ATOM     21  C   UNL     1      -5.198   1.318  -1.144  1.00  0.00    -0.009 C 
ATOM     22  C   UNL     1      -5.316   1.303   1.363  1.00  0.00    -0.009 C 
ATOM     23  C   UNL     1      -5.725   2.062   0.090  1.00  0.00     0.007 C 
ATOM     24  C   UNL     1      -5.790  -0.092  -1.155  1.00  0.00     0.020 C 
ATOM     25  C   UNL     1      -5.885  -0.150   1.300  1.00  0.00     0.020 C 
BRANCH  17  26
ATOM     26  C   UNL     1      -1.625   0.432   0.228  1.00  0.00    -0.042 A 
ATOM     27  C   UNL     1       2.698   0.089  -0.033  1.00  0.00     0.044 C 
ATOM     28  C   UNL     1       1.210   0.228   0.055  1.00  0.00    -0.051 A 
ATOM     29  C   UNL     1       0.431  -0.919   0.130  1.00  0.00     0.004 A 
ATOM     30  C   UNL     1       0.575   1.475   0.067  1.00  0.00     0.004 A 
ATOM     31  C   UNL     1      -0.954  -0.814   0.232  1.00  0.00     0.004 A 
ATOM     32  C   UNL     1      -0.823   1.576   0.149  1.00  0.00     0.004 A 
ENDBRANCH  17  26
ENDBRANCH   9  16
ENDBRANCH   6   8
ENDBRANCH   5   6
ENDBRANCH   4   5
ENDBRANCH   3   4
ENDBRANCH   2   3
ENDBRANCH   1   2
BRANCH   1  33
ATOM     33  C   UNL     1      -6.383  -1.793  -8.742  1.00  0.00     0.261 C 
BRANCH  33  34
ATOM     34  O   UNL     1      -7.047  -2.808  -9.522  1.00  0.00    -0.460 OA
BRANCH  34  35
ATOM     35  C   UNL     1      -8.405  -2.855  -9.383  1.00  0.00     0.338 C 
ATOM     36  O   UNL     1      -9.139  -1.899  -9.567  1.00  0.00    -0.246 OA
BRANCH  35  37
ATOM     37  C   UNL     1      -8.811  -4.154  -8.765  1.00  0.00     0.060 A 
ATOM     38  C   UNL     1     -10.110  -4.314  -8.251  1.00  0.00     0.016 A 
ATOM     39  C   UNL     1      -7.830  -5.090  -8.449  1.00  0.00     0.016 A 
ATOM     40  C   UNL     1     -10.370  -5.281  -7.268  1.00  0.00     0.010 A 
ATOM     41  C   UNL     1      -8.080  -6.004  -7.444  1.00  0.00     0.010 A 
ATOM     42  C   UNL     1      -9.323  -6.048  -6.785  1.00  0.00    -0.014 A 
BRANCH  42  43
ATOM     43  C   UNL     1      -9.376  -6.943  -5.627  1.00  0.00     0.031 A 
ATOM     44  C   UNL     1      -9.272  -8.382  -5.923  1.00  0.00     0.074 A 
ATOM     45  C   UNL     1      -9.172  -6.510  -4.354  1.00  0.00     0.049 A 
ATOM     46  N   UNL     1      -9.298  -9.299  -5.023  1.00  0.00    -0.248 NA
ATOM     47  C   UNL     1      -9.165  -8.921  -7.281  1.00  0.00     0.031 C 
ATOM     48  C   UNL     1      -8.460  -7.212  -3.282  1.00  0.00     0.029 A 
ATOM     49  N   UNL     1      -9.518  -5.303  -3.739  1.00  0.00    -0.354 N 
ATOM     50  C   UNL     1      -8.780 -10.420  -5.613  1.00  0.00     0.074 A 
ATOM     51  C   UNL     1      -8.925 -10.210  -7.027  1.00  0.00     0.031 C 
ATOM     52  C   UNL     1      -8.626  -6.561  -2.119  1.00  0.00     0.029 A 
ATOM     53  C   UNL     1      -9.575  -5.488  -2.354  1.00  0.00     0.049 A 
ATOM     54  H   UNL     1      -9.695  -4.455  -4.208  1.00  0.00     0.167 HD
ATOM     55  C   UNL     1      -8.098 -11.292  -4.827  1.00  0.00     0.034 A 
ATOM     56  C   UNL     1     -10.695  -5.191  -1.646  1.00  0.00     0.034 A 
ATOM     57  C   UNL     1      -8.310 -10.985  -3.391  1.00  0.00     0.049 A 
ATOM     58  C   UNL     1     -11.237  -6.480  -1.094  1.00  0.00     0.074 A 
ATOM     59  C   UNL     1      -7.492 -10.559  -2.358  1.00  0.00     0.029 A 
ATOM     60  N   UNL     1      -9.623 -10.818  -2.921  1.00  0.00    -0.354 N 
ATOM     61  N   UNL     1     -10.749  -7.637  -1.449  1.00  0.00    -0.248 NA
ATOM     62  C   UNL     1     -12.258  -6.614  -0.070  1.00  0.00     0.031 C 
ATOM     63  C   UNL     1      -8.331 -10.036  -1.317  1.00  0.00     0.029 A 
ATOM     64  C   UNL     1      -9.663 -10.191  -1.682  1.00  0.00     0.049 A 
ATOM     65  H   UNL     1     -10.423 -11.111  -3.413  1.00  0.00     0.167 HD
ATOM     66  C   UNL     1     -11.309  -8.647  -0.753  1.00  0.00     0.074 A 
ATOM     67  C   UNL     1     -12.253  -7.950   0.117  1.00  0.00     0.031 C 
ATOM     68  C   UNL     1     -10.951  -9.946  -0.999  1.00  0.00     0.034 A 
BRANCH  55  69
ATOM     69  C   UNL     1      -7.120 -12.323  -5.372  1.00  0.00     0.023 A 
ATOM     70  C   UNL     1      -6.647 -13.300  -4.474  1.00  0.00     0.012 A 
ATOM     71  C   UNL     1      -6.580 -12.381  -6.691  1.00  0.00     0.148 A 
ATOM     72  C   UNL     1      -5.738 -14.295  -4.863  1.00  0.00     0.002 A 
ATOM     73  C   UNL     1      -5.746 -13.427  -7.102  1.00  0.00     0.091 A 
ATOM     74  F   UNL     1      -6.768 -11.368  -7.543  1.00  0.00    -0.205 F 
ATOM     75  C   UNL     1      -5.313 -14.381  -6.183  1.00  0.00     0.022 A 
BRANCH  73  76
ATOM     76  S   UNL     1      -5.223 -13.645  -8.818  1.00  0.00     0.127 S 
ATOM     77  O   UNL     1      -3.790 -13.363  -8.745  1.00  0.00    -0.237 OA
ATOM     78  O   UNL     1      -5.551 -15.049  -9.070  1.00  0.00    -0.237 OA
ATOM     79  O   UNL     1      -6.003 -12.699  -9.606  1.00  0.00    -0.744 OA
ENDBRANCH  73  76
ENDBRANCH  55  69
BRANCH  56  80
ATOM     80  C   UNL     1     -11.400  -3.985  -2.185  1.00  0.00     0.023 A 
ATOM     81  C   UNL     1     -10.735  -2.736  -2.016  1.00  0.00     0.012 A 
ATOM     82  C   UNL     1     -12.339  -4.103  -3.223  1.00  0.00     0.148 A 
ATOM     83  C   UNL     1     -10.906  -1.689  -2.930  1.00  0.00     0.002 A 
ATOM     84  C   UNL     1     -12.460  -3.076  -4.164  1.00  0.00     0.091 A 
ATOM     85  F   UNL     1     -13.038  -5.240  -3.323  1.00  0.00    -0.205 F 
ATOM     86  C   UNL     1     -11.728  -1.882  -4.034  1.00  0.00     0.022 A 
BRANCH  84  87
ATOM     87  S   UNL     1     -13.377  -3.299  -5.696  1.00  0.00     0.127 S 
ATOM     88  O   UNL     1     -14.604  -2.559  -5.420  1.00  0.00    -0.237 OA
ATOM     89  O   UNL     1     -12.494  -2.669  -6.679  1.00  0.00    -0.237 OA
ATOM     90  O   UNL     1     -13.524  -4.738  -5.858  1.00  0.00    -0.744 OA
ENDBRANCH  84  87
ENDBRANCH  56  80
BRANCH  68  91
ATOM     91  C   UNL     1     -11.823 -11.118  -0.612  1.00  0.00     0.023 A 
ATOM     92  C   UNL     1     -13.159 -10.951  -0.198  1.00  0.00     0.012 A 
ATOM     93  C   UNL     1     -11.385 -12.448  -0.817  1.00  0.00     0.148 A 
ATOM     94  C   UNL     1     -13.995 -12.032   0.075  1.00  0.00     0.002 A 
ATOM     95  C   UNL     1     -12.264 -13.514  -0.684  1.00  0.00     0.091 A 
ATOM     96  F   UNL     1     -10.108 -12.700  -1.132  1.00  0.00    -0.205 F 
ATOM     97  C   UNL     1     -13.557 -13.315  -0.196  1.00  0.00     0.022 A 
BRANCH  95  98
ATOM     98  S   UNL     1     -11.842 -15.154  -1.280  1.00  0.00     0.127 S 
ATOM     99  O   UNL     1     -11.554 -15.856  -0.031  1.00  0.00    -0.237 OA
ATOM    100  O   UNL     1     -13.082 -15.565  -1.941  1.00  0.00    -0.237 OA
ATOM    101  O   UNL     1     -10.716 -14.971  -2.183  1.00  0.00    -0.744 OA
ENDBRANCH  95  98
ENDBRANCH  68  91
ENDBRANCH  42  43
ENDBRANCH  35  37
ENDBRANCH  34  35
ENDBRANCH  33  34
ENDBRANCH   1  33
TORSDOF 19
