REMARK SMILES CCCCCn1c(SCC(=O)OCCOCCOC(=O)c2ccc(-c3c4nc(c(-c5cccc(S(=O)(=O)[O-])c5F)c5ccc([nH]5)c(-c5cccc(S(=O)(=O)[O-])c5F)c5nc(c(-c6cccc(S(=O)(=O)[O-])c6F)c6ccc3[nH]6)C=C5)C=C4)cc2)nc2ccccc2c1=O
REMARK SMILES IDX 13 1 12 2 10 3 11 4 9 5 8 6 7 7 6 8 91 9 84 10 90 11 92 12
REMARK SMILES IDX 85 13 89 14 86 15 88 16 87 17 5 18 4 19 3 20 2 21 1 22 14 23
REMARK SMILES IDX 15 24 16 25 17 26 18 27 19 28 20 29 21 30 22 31 83 32 23 33
REMARK SMILES IDX 82 34 24 35 25 36 26 37 76 38 27 39 81 40 75 41 77 42 28 43
REMARK SMILES IDX 80 44 74 45 73 46 29 48 61 49 41 50 60 51 42 52 45 53 59 54
REMARK SMILES IDX 78 55 43 56 44 57 58 59 79 60 46 61 30 62 31 63 39 64 32 65
REMARK SMILES IDX 34 66 40 67 33 68 35 69 36 70 37 71 38 72 62 73 63 74 71 75
REMARK SMILES IDX 64 76 66 77 72 78 65 79 67 80 68 81 69 82 70 83 47 84 48 85
REMARK SMILES IDX 56 86 49 87 51 88 57 89 50 90 52 91 53 92 54 93 55 94
REMARK H PARENT 77 47 45 58
REMARK Flexibility Score: inf
ROOT
ATOM      1  C   UNL     1      -0.313   2.621   5.859  1.00  0.00     0.261 C 
ENDROOT
BRANCH   1   2
ATOM      2  O   UNL     1      -1.553   2.006   5.432  1.00  0.00    -0.463 OA
BRANCH   2   3
ATOM      3  C   UNL     1      -1.783   1.961   4.088  1.00  0.00     0.316 C 
ATOM      4  O   UNL     1      -1.048   2.461   3.242  1.00  0.00    -0.251 OA
BRANCH   3   5
ATOM      5  C   UNL     1      -3.076   1.256   3.709  1.00  0.00     0.200 C 
BRANCH   5   6
ATOM      6  S   UNL     1      -3.352  -0.334   4.458  1.00  0.00    -0.076 SA
BRANCH   6   7
ATOM      7  C   UNL     1      -2.738  -1.756   3.632  1.00  0.00     0.171 A 
ATOM      8  N   UNL     1      -1.808  -1.841   2.594  1.00  0.00    -0.287 N 
ATOM      9  C   UNL     1      -1.534  -3.104   2.056  1.00  0.00     0.262 A 
ATOM     10  N   UNL     1      -3.228  -2.817   4.204  1.00  0.00    -0.224 NA
ATOM     11  C   UNL     1      -1.770  -4.256   2.918  1.00  0.00     0.066 A 
ATOM     12  O   UNL     1      -1.134  -3.313   0.913  1.00  0.00    -0.269 OA
ATOM     13  C   UNL     1      -2.707  -4.080   3.917  1.00  0.00     0.079 A 
ATOM     14  C   UNL     1      -1.063  -5.453   2.764  1.00  0.00     0.016 A 
ATOM     15  C   UNL     1      -3.034  -5.177   4.717  1.00  0.00     0.029 A 
ATOM     16  C   UNL     1      -1.351  -6.524   3.606  1.00  0.00     0.001 A 
ATOM     17  C   UNL     1      -2.362  -6.397   4.559  1.00  0.00     0.002 A 
BRANCH   8  18
ATOM     18  C   UNL     1      -1.124  -0.763   1.875  1.00  0.00     0.128 C 
BRANCH  18  19
ATOM     19  C   UNL     1       0.421  -0.794   1.997  1.00  0.00     0.022 C 
BRANCH  19  20
ATOM     20  C   UNL     1       1.239  -1.569   0.957  1.00  0.00     0.002 C 
BRANCH  20  21
ATOM     21  C   UNL     1       0.933  -1.244  -0.501  1.00  0.00    -0.003 C 
ATOM     22  C   UNL     1       1.142   0.224  -0.830  1.00  0.00     0.004 C 
ENDBRANCH  20  21
ENDBRANCH  19  20
ENDBRANCH  18  19
ENDBRANCH   8  18
ENDBRANCH   6   7
ENDBRANCH   5   6
ENDBRANCH   3   5
ENDBRANCH   2   3
ENDBRANCH   1   2
BRANCH   1  23
ATOM     23  C   UNL     1       0.709   1.617   6.426  1.00  0.00     0.202 C 
BRANCH  23  24
ATOM     24  O   UNL     1       1.037   0.500   5.594  1.00  0.00    -0.374 OA
BRANCH  24  25
ATOM     25  C   UNL     1      -0.055  -0.397   5.411  1.00  0.00     0.202 C 
BRANCH  25  26
ATOM     26  C   UNL     1       0.355  -1.870   5.409  1.00  0.00     0.261 C 
BRANCH  26  27
ATOM     27  O   UNL     1       0.219  -2.368   6.735  1.00  0.00    -0.460 OA
BRANCH  27  28
ATOM     28  C   UNL     1       1.276  -2.037   7.503  1.00  0.00     0.338 C 
ATOM     29  O   UNL     1       2.446  -2.019   7.152  1.00  0.00    -0.246 OA
BRANCH  28  30
ATOM     30  C   UNL     1       0.757  -1.442   8.748  1.00  0.00     0.060 A 
ATOM     31  C   UNL     1      -0.534  -1.711   9.225  1.00  0.00     0.016 A 
ATOM     32  C   UNL     1       1.586  -0.527   9.403  1.00  0.00     0.016 A 
ATOM     33  C   UNL     1      -0.971  -1.098  10.393  1.00  0.00     0.010 A 
ATOM     34  C   UNL     1       1.161   0.063  10.584  1.00  0.00     0.010 A 
ATOM     35  C   UNL     1      -0.103  -0.249  11.099  1.00  0.00    -0.014 A 
BRANCH  35  36
ATOM     36  C   UNL     1      -0.432   0.137  12.482  1.00  0.00     0.031 A 
ATOM     37  C   UNL     1      -0.786   1.541  12.838  1.00  0.00     0.074 A 
ATOM     38  C   UNL     1      -0.330  -0.826  13.418  1.00  0.00     0.049 A 
ATOM     39  N   UNL     1      -1.132   2.016  14.003  1.00  0.00    -0.248 NA
ATOM     40  C   UNL     1      -0.738   2.545  11.764  1.00  0.00     0.031 C 
ATOM     41  C   UNL     1       0.087  -2.208  13.155  1.00  0.00     0.029 A 
ATOM     42  N   UNL     1      -0.558  -0.800  14.766  1.00  0.00    -0.354 N 
ATOM     43  C   UNL     1      -1.322   3.376  13.814  1.00  0.00     0.074 A 
ATOM     44  C   UNL     1      -1.048   3.656  12.422  1.00  0.00     0.031 C 
ATOM     45  C   UNL     1       0.052  -2.904  14.298  1.00  0.00     0.029 A 
ATOM     46  C   UNL     1      -0.353  -2.013  15.377  1.00  0.00     0.049 A 
ATOM     47  H   UNL     1      -0.842   0.009  15.251  1.00  0.00     0.167 HD
ATOM     48  C   UNL     1      -1.703   4.293  14.730  1.00  0.00     0.034 A 
ATOM     49  C   UNL     1      -0.479  -2.370  16.668  1.00  0.00     0.034 A 
ATOM     50  C   UNL     1      -1.983   3.979  16.105  1.00  0.00     0.049 A 
ATOM     51  C   UNL     1      -0.932  -1.337  17.652  1.00  0.00     0.074 A 
ATOM     52  C   UNL     1      -2.457   4.821  17.094  1.00  0.00     0.029 A 
ATOM     53  N   UNL     1      -1.794   2.735  16.687  1.00  0.00    -0.354 N 
ATOM     54  N   UNL     1      -1.247  -0.084  17.430  1.00  0.00    -0.248 NA
ATOM     55  C   UNL     1      -1.067  -1.758  19.051  1.00  0.00     0.031 C 
ATOM     56  C   UNL     1      -2.525   4.092  18.284  1.00  0.00     0.029 A 
ATOM     57  C   UNL     1      -2.122   2.790  18.029  1.00  0.00     0.049 A 
ATOM     58  H   UNL     1      -1.475   1.932  16.215  1.00  0.00     0.167 HD
ATOM     59  C   UNL     1      -1.634   0.433  18.657  1.00  0.00     0.074 A 
ATOM     60  C   UNL     1      -1.524  -0.647  19.618  1.00  0.00     0.031 C 
ATOM     61  C   UNL     1      -2.034   1.691  18.957  1.00  0.00     0.034 A 
BRANCH  48  62
ATOM     62  C   UNL     1      -1.880   5.716  14.285  1.00  0.00     0.023 A 
ATOM     63  C   UNL     1      -3.036   6.079  13.567  1.00  0.00     0.012 A 
ATOM     64  C   UNL     1      -0.964   6.711  14.678  1.00  0.00     0.148 A 
ATOM     65  C   UNL     1      -3.278   7.413  13.243  1.00  0.00     0.002 A 
ATOM     66  C   UNL     1      -1.225   8.041  14.376  1.00  0.00     0.091 A 
ATOM     67  F   UNL     1       0.135   6.336  15.349  1.00  0.00    -0.205 F 
ATOM     68  C   UNL     1      -2.380   8.394  13.657  1.00  0.00     0.022 A 
BRANCH  66  69
ATOM     69  S   UNL     1      -0.157   9.386  14.900  1.00  0.00     0.127 S 
ATOM     70  O   UNL     1       0.301   9.914  13.615  1.00  0.00    -0.237 OA
ATOM     71  O   UNL     1      -1.089  10.254  15.619  1.00  0.00    -0.237 OA
ATOM     72  O   UNL     1       0.882   8.782  15.722  1.00  0.00    -0.744 OA
ENDBRANCH  66  69
ENDBRANCH  48  62
BRANCH  49  73
ATOM     73  C   UNL     1      -0.243  -3.787  17.045  1.00  0.00     0.023 A 
ATOM     74  C   UNL     1      -1.348  -4.632  17.259  1.00  0.00     0.012 A 
ATOM     75  C   UNL     1       1.057  -4.329  17.055  1.00  0.00     0.148 A 
ATOM     76  C   UNL     1      -1.162  -5.997  17.477  1.00  0.00     0.002 A 
ATOM     77  C   UNL     1       1.233  -5.695  17.237  1.00  0.00     0.091 A 
ATOM     78  F   UNL     1       2.087  -3.502  16.830  1.00  0.00    -0.205 F 
ATOM     79  C   UNL     1       0.125  -6.530  17.455  1.00  0.00     0.022 A 
BRANCH  77  80
ATOM     80  S   UNL     1       2.839  -6.490  17.127  1.00  0.00     0.127 S 
ATOM     81  O   UNL     1       2.988  -7.047  18.470  1.00  0.00    -0.237 OA
ATOM     82  O   UNL     1       2.611  -7.478  16.072  1.00  0.00    -0.237 OA
ATOM     83  O   UNL     1       3.783  -5.437  16.782  1.00  0.00    -0.744 OA
ENDBRANCH  77  80
ENDBRANCH  49  73
BRANCH  61  84
ATOM     84  C   UNL     1      -2.395   1.994  20.382  1.00  0.00     0.023 A 
ATOM     85  C   UNL     1      -1.371   2.249  21.313  1.00  0.00     0.012 A 
ATOM     86  C   UNL     1      -3.741   2.193  20.746  1.00  0.00     0.148 A 
ATOM     87  C   UNL     1      -1.683   2.708  22.591  1.00  0.00     0.002 A 
ATOM     88  C   UNL     1      -4.042   2.683  22.009  1.00  0.00     0.091 A 
ATOM     89  F   UNL     1      -4.691   1.939  19.835  1.00  0.00    -0.205 F 
ATOM     90  C   UNL     1      -3.014   2.939  22.933  1.00  0.00     0.022 A 
BRANCH  88  91
ATOM     91  S   UNL     1      -5.716   3.087  22.516  1.00  0.00     0.127 S 
ATOM     92  O   UNL     1      -5.922   2.157  23.626  1.00  0.00    -0.237 OA
ATOM     93  O   UNL     1      -5.588   4.489  22.910  1.00  0.00    -0.237 OA
ATOM     94  O   UNL     1      -6.561   2.852  21.353  1.00  0.00    -0.744 OA
ENDBRANCH  88  91
ENDBRANCH  61  84
ENDBRANCH  35  36
ENDBRANCH  28  30
ENDBRANCH  27  28
ENDBRANCH  26  27
ENDBRANCH  25  26
ENDBRANCH  24  25
ENDBRANCH  23  24
ENDBRANCH   1  23
TORSDOF 23
