REMARK SMILES O=C(OCCOCCOC(=O)[C@@]1(c2ccccc2)CCCC[NH2+]1)c1ccc(-c2c3nc(c(-c4cccc(S(=O)(=O)[O-])c4F)c4ccc([nH]4)c(-c4cccc(S(=O)(=O)[O-])c4F)c4nc(c(-c5cccc(S(=O)(=O)[O-])c5F)c5ccc2[nH]5)C=C4)C=C3)cc1
REMARK SMILES IDX 5 1 4 2 3 3 2 4 1 5 24 6 25 7 86 8 26 9 85 10 27 11 28 12
REMARK SMILES IDX 29 13 79 14 30 15 84 16 78 17 80 18 31 19 83 20 77 21 76 22
REMARK SMILES IDX 32 24 64 25 44 26 63 27 45 28 48 29 62 30 81 31 46 32 47 33
REMARK SMILES IDX 61 35 82 36 49 37 33 38 34 39 42 40 35 41 37 42 43 43 36 44
REMARK SMILES IDX 38 45 39 46 40 47 41 48 65 49 66 50 74 51 67 52 69 53 75 54
REMARK SMILES IDX 68 55 70 56 71 57 72 58 73 59 50 60 51 61 59 62 52 63 54 64
REMARK SMILES IDX 60 65 53 66 55 67 56 68 57 69 58 70 6 71 7 72 8 73 9 74
REMARK SMILES IDX 10 75 11 76 12 77 19 78 23 79 20 80 22 81 21 84 13 85 14 86
REMARK SMILES IDX 18 87 15 88 17 89 16 90
REMARK H PARENT 80 23 48 34 23 82 23 83
REMARK Flexibility Score: inf
ROOT
ATOM      1  C   UNL     1       6.668  -4.175   2.614  1.00  0.00     0.202 C 
ENDROOT
BRANCH   1   2
ATOM      2  C   UNL     1       7.103  -4.287   4.074  1.00  0.00     0.261 C 
BRANCH   2   3
ATOM      3  O   UNL     1       7.538  -2.997   4.554  1.00  0.00    -0.460 OA
BRANCH   3   4
ATOM      4  C   UNL     1       8.824  -2.589   4.724  1.00  0.00     0.338 C 
ATOM      5  O   UNL     1       9.075  -1.448   5.082  1.00  0.00    -0.246 OA
BRANCH   4   6
ATOM      6  C   UNL     1       9.921  -3.559   4.526  1.00  0.00     0.060 A 
ATOM      7  C   UNL     1       9.992  -4.339   3.380  1.00  0.00     0.016 A 
ATOM      8  C   UNL     1      10.924  -3.681   5.482  1.00  0.00     0.016 A 
ATOM      9  C   UNL     1      10.882  -5.361   3.234  1.00  0.00     0.010 A 
ATOM     10  C   UNL     1      11.937  -4.619   5.280  1.00  0.00     0.010 A 
ATOM     11  C   UNL     1      11.893  -5.465   4.159  1.00  0.00    -0.014 A 
BRANCH  11  12
ATOM     12  C   UNL     1      12.845  -6.544   3.931  1.00  0.00     0.031 A 
ATOM     13  C   UNL     1      12.827  -7.668   4.895  1.00  0.00     0.074 A 
ATOM     14  C   UNL     1      13.606  -6.518   2.824  1.00  0.00     0.049 A 
ATOM     15  N   UNL     1      13.724  -8.581   5.098  1.00  0.00    -0.248 NA
ATOM     16  C   UNL     1      11.641  -7.764   5.768  1.00  0.00     0.031 C 
ATOM     17  C   UNL     1      13.510  -5.522   1.746  1.00  0.00     0.029 A 
ATOM     18  N   UNL     1      14.616  -7.342   2.423  1.00  0.00    -0.354 N 
ATOM     19  C   UNL     1      13.280  -9.282   6.206  1.00  0.00     0.074 A 
ATOM     20  C   UNL     1      11.999  -8.736   6.590  1.00  0.00     0.031 C 
ATOM     21  C   UNL     1      14.443  -5.780   0.822  1.00  0.00     0.029 A 
ATOM     22  C   UNL     1      15.274  -6.864   1.314  1.00  0.00     0.049 A 
ATOM     23  H   UNL     1      14.848  -8.184   2.877  1.00  0.00     0.167 HD
ATOM     24  C   UNL     1      13.944 -10.259   6.857  1.00  0.00     0.034 A 
ATOM     25  C   UNL     1      16.482  -7.200   0.833  1.00  0.00     0.034 A 
ATOM     26  C   UNL     1      15.217 -10.734   6.395  1.00  0.00     0.049 A 
ATOM     27  C   UNL     1      17.227  -8.260   1.589  1.00  0.00     0.074 A 
ATOM     28  C   UNL     1      16.044 -11.688   6.947  1.00  0.00     0.029 A 
ATOM     29  N   UNL     1      15.850 -10.259   5.247  1.00  0.00    -0.354 N 
ATOM     30  N   UNL     1      16.857  -8.899   2.676  1.00  0.00    -0.248 NA
ATOM     31  C   UNL     1      18.537  -8.653   1.069  1.00  0.00     0.031 C 
ATOM     32  C   UNL     1      17.192 -11.764   6.150  1.00  0.00     0.029 A 
ATOM     33  C   UNL     1      17.059 -10.895   5.072  1.00  0.00     0.049 A 
ATOM     34  H   UNL     1      15.485  -9.568   4.648  1.00  0.00     0.167 HD
ATOM     35  C   UNL     1      17.870  -9.799   2.957  1.00  0.00     0.074 A 
ATOM     36  C   UNL     1      18.872  -9.618   1.918  1.00  0.00     0.031 C 
ATOM     37  C   UNL     1      17.977 -10.690   3.974  1.00  0.00     0.034 A 
BRANCH  24  38
ATOM     38  C   UNL     1      13.345 -10.745   8.146  1.00  0.00     0.023 A 
ATOM     39  C   UNL     1      12.137 -11.472   8.152  1.00  0.00     0.012 A 
ATOM     40  C   UNL     1      13.942 -10.391   9.372  1.00  0.00     0.148 A 
ATOM     41  C   UNL     1      11.502 -11.784   9.356  1.00  0.00     0.002 A 
ATOM     42  C   UNL     1      13.331 -10.750  10.567  1.00  0.00     0.091 A 
ATOM     43  F   UNL     1      15.067  -9.663   9.350  1.00  0.00    -0.205 F 
ATOM     44  C   UNL     1      12.101 -11.428  10.561  1.00  0.00     0.022 A 
BRANCH  42  45
ATOM     45  S   UNL     1      14.058 -10.391  12.168  1.00  0.00     0.127 S 
ATOM     46  O   UNL     1      13.158  -9.358  12.677  1.00  0.00    -0.237 OA
ATOM     47  O   UNL     1      13.950 -11.683  12.848  1.00  0.00    -0.237 OA
ATOM     48  O   UNL     1      15.422  -9.958  11.903  1.00  0.00    -0.744 OA
ENDBRANCH  42  45
ENDBRANCH  24  38
BRANCH  25  49
ATOM     49  C   UNL     1      17.034  -6.488  -0.353  1.00  0.00     0.023 A 
ATOM     50  C   UNL     1      17.154  -7.169  -1.577  1.00  0.00     0.012 A 
ATOM     51  C   UNL     1      17.340  -5.109  -0.303  1.00  0.00     0.148 A 
ATOM     52  C   UNL     1      17.582  -6.498  -2.725  1.00  0.00     0.002 A 
ATOM     53  C   UNL     1      17.714  -4.436  -1.460  1.00  0.00     0.091 A 
ATOM     54  F   UNL     1      17.218  -4.475   0.872  1.00  0.00    -0.205 F 
ATOM     55  C   UNL     1      17.850  -5.132  -2.670  1.00  0.00     0.022 A 
BRANCH  53  56
ATOM     56  S   UNL     1      17.948  -2.654  -1.516  1.00  0.00     0.127 S 
ATOM     57  O   UNL     1      19.378  -2.549  -1.791  1.00  0.00    -0.237 OA
ATOM     58  O   UNL     1      17.077  -2.271  -2.628  1.00  0.00    -0.237 OA
ATOM     59  O   UNL     1      17.520  -2.155  -0.216  1.00  0.00    -0.744 OA
ENDBRANCH  53  56
ENDBRANCH  25  49
BRANCH  37  60
ATOM     60  C   UNL     1      19.176 -11.588   3.961  1.00  0.00     0.023 A 
ATOM     61  C   UNL     1      20.426 -11.105   4.385  1.00  0.00     0.012 A 
ATOM     62  C   UNL     1      19.005 -12.954   3.671  1.00  0.00     0.148 A 
ATOM     63  C   UNL     1      21.501 -11.980   4.515  1.00  0.00     0.002 A 
ATOM     64  C   UNL     1      20.062 -13.827   3.861  1.00  0.00     0.091 A 
ATOM     65  F   UNL     1      17.802 -13.372   3.249  1.00  0.00    -0.205 F 
ATOM     66  C   UNL     1      21.314 -13.341   4.274  1.00  0.00     0.022 A 
BRANCH  64  67
ATOM     67  S   UNL     1      19.873 -15.603   3.700  1.00  0.00     0.127 S 
ATOM     68  O   UNL     1      20.687 -15.882   2.518  1.00  0.00    -0.237 OA
ATOM     69  O   UNL     1      20.438 -16.086   4.960  1.00  0.00    -0.237 OA
ATOM     70  O   UNL     1      18.446 -15.847   3.542  1.00  0.00    -0.744 OA
ENDBRANCH  64  67
ENDBRANCH  37  60
ENDBRANCH  11  12
ENDBRANCH   4   6
ENDBRANCH   3   4
ENDBRANCH   2   3
ENDBRANCH   1   2
BRANCH   1  71
ATOM     71  O   UNL     1       7.683  -3.831   1.684  1.00  0.00    -0.374 OA
BRANCH  71  72
ATOM     72  C   UNL     1       7.943  -2.429   1.533  1.00  0.00     0.202 C 
BRANCH  72  73
ATOM     73  C   UNL     1       7.466  -2.010   0.164  1.00  0.00     0.261 C 
BRANCH  73  74
ATOM     74  O   UNL     1       6.073  -2.339   0.089  1.00  0.00    -0.458 OA
BRANCH  74  75
ATOM     75  C   UNL     1       5.797  -3.577  -0.446  1.00  0.00     0.373 C 
ATOM     76  O   UNL     1       6.635  -4.360  -0.878  1.00  0.00    -0.244 OA
BRANCH  75  77
ATOM     77  C   UNL     1       4.258  -3.742  -0.610  1.00  0.00     0.219 C 
ATOM     78  C   UNL     1       3.954  -5.197  -1.027  1.00  0.00     0.087 C 
ATOM     79  N   UNL     1       3.540  -3.394   0.654  1.00  0.00    -0.328 N 
ATOM     80  C   UNL     1       4.225  -6.184   0.109  1.00  0.00     0.013 C 
ATOM     81  C   UNL     1       3.381  -4.392   1.699  1.00  0.00     0.261 C 
ATOM     82  H   UNL     1       2.602  -3.095   0.387  1.00  0.00     0.347 HD
ATOM     83  H   UNL     1       4.149  -2.699   1.085  1.00  0.00     0.347 HD
ATOM     84  C   UNL     1       3.335  -5.860   1.294  1.00  0.00     0.062 C 
BRANCH  77  85
ATOM     85  C   UNL     1       3.794  -2.738  -1.702  1.00  0.00     0.024 A 
ATOM     86  C   UNL     1       2.426  -2.487  -1.887  1.00  0.00     0.011 A 
ATOM     87  C   UNL     1       4.705  -1.975  -2.468  1.00  0.00     0.011 A 
ATOM     88  C   UNL     1       1.993  -1.481  -2.753  1.00  0.00     0.001 A 
ATOM     89  C   UNL     1       4.274  -0.949  -3.307  1.00  0.00     0.001 A 
ATOM     90  C   UNL     1       2.916  -0.700  -3.446  1.00  0.00     0.000 A 
ENDBRANCH  77  85
ENDBRANCH  75  77
ENDBRANCH  74  75
ENDBRANCH  73  74
ENDBRANCH  72  73
ENDBRANCH  71  72
ENDBRANCH   1  71
TORSDOF 18
