REMARK SMILES O=C(OCCOCCOC(=O)c1ccc(-c2c3nc(c(-c4cccc(S(=O)(=O)[O-])c4F)c4ccc([nH]4)c(-c4cccc(S(=O)(=O)[O-])c4F)c4nc(c(-c5cccc(S(=O)(=O)[O-])c5F)c5ccc2[nH]5)C=C4)C=C3)cc1)C1=Cc2c(cc(Cl)c(Cl)c2Cl)O[C@H]1C(F)(F)F
REMARK SMILES IDX 7 1 6 2 5 3 4 4 3 5 2 6 1 7 75 8 76 9 87 10 77 11 86 12
REMARK SMILES IDX 78 13 84 14 79 15 82 16 85 17 80 18 83 19 81 20 88 21 89 22
REMARK SMILES IDX 90 23 91 24 8 25 9 26 10 27 11 28 12 29 13 30 74 31 14 32
REMARK SMILES IDX 73 33 15 34 16 35 17 36 67 37 18 38 72 39 66 40 68 41 19 42
REMARK SMILES IDX 71 43 65 44 64 45 20 47 52 48 32 49 51 50 33 51 36 52 50 53
REMARK SMILES IDX 69 54 34 55 35 56 49 58 70 59 37 60 21 61 22 62 30 63 23 64
REMARK SMILES IDX 25 65 31 66 24 67 26 68 27 69 28 70 29 71 53 72 54 73 62 74
REMARK SMILES IDX 55 75 57 76 63 77 56 78 58 79 59 80 60 81 61 82 38 83 39 84
REMARK SMILES IDX 47 85 40 86 42 87 48 88 41 89 43 90 44 91 45 92 46 93
REMARK H PARENT 68 46 36 57
REMARK Flexibility Score: inf
ROOT
ATOM      1  C   UNL     1       1.446  -2.397   2.096  1.00  0.00     0.202 C 
ENDROOT
BRANCH   1   2
ATOM      2  O   UNL     1       2.161  -1.449   1.314  1.00  0.00    -0.374 OA
BRANCH   2   3
ATOM      3  C   UNL     1       2.081  -0.113   1.819  1.00  0.00     0.202 C 
BRANCH   3   4
ATOM      4  C   UNL     1       1.781   0.877   0.689  1.00  0.00     0.261 C 
BRANCH   4   5
ATOM      5  O   UNL     1       1.448   0.220  -0.555  1.00  0.00    -0.460 OA
BRANCH   5   6
ATOM      6  C   UNL     1       2.304  -0.332  -1.450  1.00  0.00     0.338 C 
ATOM      7  O   UNL     1       1.861  -0.803  -2.496  1.00  0.00    -0.246 OA
BRANCH   6   8
ATOM      8  C   UNL     1       3.773  -0.172  -1.316  1.00  0.00     0.087 C 
ATOM      9  C   UNL     1       4.464  -0.012  -0.187  1.00  0.00     0.029 C 
ATOM     10  C   UNL     1       4.596  -0.556  -2.538  1.00  0.00     0.316 C 
ATOM     11  C   UNL     1       5.707   0.723  -0.260  1.00  0.00     0.038 A 
ATOM     12  O   UNL     1       6.040  -0.285  -2.426  1.00  0.00    -0.475 OA
ATOM     13  C   UNL     1       6.468   0.509  -1.398  1.00  0.00     0.131 A 
ATOM     14  C   UNL     1       6.106   1.677   0.705  1.00  0.00     0.072 A 
ATOM     15  C   UNL     1       7.709   1.122  -1.511  1.00  0.00     0.069 A 
ATOM     16  C   UNL     1       7.336   2.332   0.573  1.00  0.00     0.079 A 
ATOM     17  Cl  UNL     1       5.017   2.124   1.987  1.00  0.00    -0.082 Cl
ATOM     18  C   UNL     1       8.146   2.023  -0.528  1.00  0.00     0.064 A 
ATOM     19  Cl  UNL     1       7.842   3.514   1.742  1.00  0.00    -0.081 Cl
ATOM     20  Cl  UNL     1       9.699   2.745  -0.759  1.00  0.00    -0.083 Cl
BRANCH  10  21
ATOM     21  C   UNL     1       4.401  -2.078  -2.846  1.00  0.00     0.430 C 
ATOM     22  F   UNL     1       3.772  -2.752  -1.852  1.00  0.00    -0.167 F 
ATOM     23  F   UNL     1       3.692  -2.272  -3.984  1.00  0.00    -0.167 F 
ATOM     24  F   UNL     1       5.589  -2.712  -3.027  1.00  0.00    -0.167 F 
ENDBRANCH  10  21
ENDBRANCH   6   8
ENDBRANCH   5   6
ENDBRANCH   4   5
ENDBRANCH   3   4
ENDBRANCH   2   3
ENDBRANCH   1   2
BRANCH   1  25
ATOM     25  C   UNL     1       2.269  -2.962   3.255  1.00  0.00     0.261 C 
BRANCH  25  26
ATOM     26  O   UNL     1       2.892  -1.923   4.033  1.00  0.00    -0.460 OA
BRANCH  26  27
ATOM     27  C   UNL     1       4.230  -1.759   3.825  1.00  0.00     0.338 C 
ATOM     28  O   UNL     1       4.927  -2.424   3.086  1.00  0.00    -0.246 OA
BRANCH  27  29
ATOM     29  C   UNL     1       4.751  -0.586   4.589  1.00  0.00     0.060 A 
ATOM     30  C   UNL     1       6.080  -0.195   4.364  1.00  0.00     0.016 A 
ATOM     31  C   UNL     1       3.976   0.124   5.513  1.00  0.00     0.016 A 
ATOM     32  C   UNL     1       6.644   0.862   5.087  1.00  0.00     0.010 A 
ATOM     33  C   UNL     1       4.538   1.188   6.232  1.00  0.00     0.010 A 
ATOM     34  C   UNL     1       5.889   1.535   6.055  1.00  0.00    -0.014 A 
BRANCH  34  35
ATOM     35  C   UNL     1       6.572   2.416   7.040  1.00  0.00     0.031 A 
ATOM     36  C   UNL     1       6.980   1.812   8.360  1.00  0.00     0.074 A 
ATOM     37  C   UNL     1       6.841   3.711   6.791  1.00  0.00     0.049 A 
ATOM     38  N   UNL     1       7.647   2.346   9.350  1.00  0.00    -0.248 NA
ATOM     39  C   UNL     1       6.575   0.415   8.594  1.00  0.00     0.031 C 
ATOM     40  C   UNL     1       6.494   4.432   5.569  1.00  0.00     0.029 A 
ATOM     41  N   UNL     1       7.466   4.654   7.572  1.00  0.00    -0.354 N 
ATOM     42  C   UNL     1       7.728   1.361  10.326  1.00  0.00     0.074 A 
ATOM     43  C   UNL     1       7.021   0.205   9.822  1.00  0.00     0.031 C 
ATOM     44  C   UNL     1       6.903   5.710   5.686  1.00  0.00     0.029 A 
ATOM     45  C   UNL     1       7.533   5.901   6.993  1.00  0.00     0.049 A 
ATOM     46  H   UNL     1       7.832   4.456   8.465  1.00  0.00     0.167 HD
ATOM     47  C   UNL     1       8.345   1.400  11.530  1.00  0.00     0.034 A 
ATOM     48  C   UNL     1       8.044   7.058   7.465  1.00  0.00     0.034 A 
ATOM     49  C   UNL     1       9.036   2.547  12.050  1.00  0.00     0.049 A 
ATOM     50  C   UNL     1       8.707   7.083   8.824  1.00  0.00     0.074 A 
ATOM     51  C   UNL     1       9.719   2.669  13.246  1.00  0.00     0.029 A 
ATOM     52  N   UNL     1       9.107   3.778  11.420  1.00  0.00    -0.354 N 
ATOM     53  N   UNL     1       8.899   6.102   9.673  1.00  0.00    -0.248 NA
ATOM     54  C   UNL     1       9.261   8.372   9.271  1.00  0.00     0.031 C 
ATOM     55  C   UNL     1      10.164   3.990  13.361  1.00  0.00     0.029 A 
ATOM     56  C   UNL     1       9.808   4.673  12.210  1.00  0.00     0.049 A 
ATOM     57  H   UNL     1       8.716   3.987  10.541  1.00  0.00     0.167 HD
ATOM     58  C   UNL     1       9.640   6.642  10.722  1.00  0.00     0.074 A 
ATOM     59  C   UNL     1       9.872   8.033  10.398  1.00  0.00     0.031 C 
ATOM     60  C   UNL     1      10.086   6.040  11.854  1.00  0.00     0.034 A 
BRANCH  47  61
ATOM     61  C   UNL     1       8.291   0.152  12.372  1.00  0.00     0.023 A 
ATOM     62  C   UNL     1       9.024  -0.989  11.986  1.00  0.00     0.012 A 
ATOM     63  C   UNL     1       7.529   0.119  13.555  1.00  0.00     0.148 A 
ATOM     64  C   UNL     1       8.963  -2.159  12.741  1.00  0.00     0.002 A 
ATOM     65  C   UNL     1       7.513  -1.035  14.328  1.00  0.00     0.091 A 
ATOM     66  F   UNL     1       6.822   1.207  13.891  1.00  0.00    -0.205 F 
ATOM     67  C   UNL     1       8.216  -2.179  13.915  1.00  0.00     0.022 A 
BRANCH  65  68
ATOM     68  S   UNL     1       6.643  -1.136  15.895  1.00  0.00     0.127 S 
ATOM     69  O   UNL     1       5.567  -2.072  15.574  1.00  0.00    -0.237 OA
ATOM     70  O   UNL     1       7.675  -1.673  16.782  1.00  0.00    -0.237 OA
ATOM     71  O   UNL     1       6.216   0.220  16.208  1.00  0.00    -0.744 OA
ENDBRANCH  65  68
ENDBRANCH  47  61
BRANCH  48  72
ATOM     72  C   UNL     1       8.006   8.300   6.635  1.00  0.00     0.023 A 
ATOM     73  C   UNL     1       9.211   8.856   6.157  1.00  0.00     0.012 A 
ATOM     74  C   UNL     1       6.792   8.953   6.349  1.00  0.00     0.148 A 
ATOM     75  C   UNL     1       9.212  10.062   5.454  1.00  0.00     0.002 A 
ATOM     76  C   UNL     1       6.795  10.124   5.599  1.00  0.00     0.091 A 
ATOM     77  F   UNL     1       5.658   8.420   6.824  1.00  0.00    -0.205 F 
ATOM     78  C   UNL     1       8.005  10.692   5.169  1.00  0.00     0.022 A 
BRANCH  76  79
ATOM     79  S   UNL     1       5.284  10.950   5.088  1.00  0.00     0.127 S 
ATOM     80  O   UNL     1       5.363  12.207   5.828  1.00  0.00    -0.237 OA
ATOM     81  O   UNL     1       5.484  11.071   3.644  1.00  0.00    -0.237 OA
ATOM     82  O   UNL     1       4.197  10.061   5.474  1.00  0.00    -0.744 OA
ENDBRANCH  76  79
ENDBRANCH  48  72
BRANCH  60  83
ATOM     83  C   UNL     1      10.937   6.849  12.803  1.00  0.00     0.023 A 
ATOM     84  C   UNL     1      10.374   7.899  13.556  1.00  0.00     0.012 A 
ATOM     85  C   UNL     1      12.293   6.512  13.001  1.00  0.00     0.148 A 
ATOM     86  C   UNL     1      11.155   8.627  14.454  1.00  0.00     0.002 A 
ATOM     87  C   UNL     1      13.049   7.204  13.939  1.00  0.00     0.091 A 
ATOM     88  F   UNL     1      12.819   5.521  12.267  1.00  0.00    -0.205 F 
ATOM     89  C   UNL     1      12.488   8.273  14.654  1.00  0.00     0.022 A 
BRANCH  87  90
ATOM     90  S   UNL     1      14.740   6.744  14.338  1.00  0.00     0.127 S 
ATOM     91  O   UNL     1      15.499   7.820  13.703  1.00  0.00    -0.237 OA
ATOM     92  O   UNL     1      14.735   6.782  15.801  1.00  0.00    -0.237 OA
ATOM     93  O   UNL     1      14.939   5.417  13.770  1.00  0.00    -0.744 OA
ENDBRANCH  87  90
ENDBRANCH  60  83
ENDBRANCH  34  35
ENDBRANCH  27  29
ENDBRANCH  26  27
ENDBRANCH  25  26
ENDBRANCH   1  25
TORSDOF 18
