REMARK SMILES CC1(C)CC2=NC(=O)[C@H](C(=O)OCCOCCOC(=O)c3ccc(-c4c5nc(c(-c6cccc(S(=O)(=O)[O-])c6F)c6ccc([nH]6)c(-c6cccc(S(=O)(=O)[O-])c6F)c6nc(c(-c7cccc(S(=O)(=O)[O-])c7F)c7ccc4[nH]7)C=C6)C=C5)cc3)C=C2CS1
REMARK SMILES IDX 16 1 15 2 14 3 13 4 12 5 10 6 11 7 9 8 1 9 2 10 3 11 4 12
REMARK SMILES IDX 87 13 5 14 86 15 6 16 85 17 7 18 84 19 8 20 17 21 18 22
REMARK SMILES IDX 19 23 20 24 21 25 22 26 83 27 23 28 82 29 24 30 25 31 26 32
REMARK SMILES IDX 76 33 27 34 81 35 75 36 77 37 28 38 80 39 74 40 73 41 29 43
REMARK SMILES IDX 61 44 41 45 60 46 42 47 45 48 59 49 78 50 43 51 44 52 58 54
REMARK SMILES IDX 79 55 46 56 30 57 31 58 39 59 32 60 34 61 40 62 33 63 35 64
REMARK SMILES IDX 36 65 37 66 38 67 62 68 63 69 71 70 64 71 66 72 72 73 65 74
REMARK SMILES IDX 67 75 68 76 69 77 70 78 47 79 48 80 56 81 49 82 51 83 57 84
REMARK SMILES IDX 50 85 52 86 53 87 54 88 55 89
REMARK H PARENT 77 42 45 53
REMARK Flexibility Score: inf
ROOT
ATOM      1  C   UNL     1      -0.765   5.185  -8.148  1.00  0.00     0.202 C 
ENDROOT
BRANCH   1   2
ATOM      2  O   UNL     1      -2.132   4.870  -8.424  1.00  0.00    -0.374 OA
BRANCH   2   3
ATOM      3  C   UNL     1      -3.074   5.040  -7.363  1.00  0.00     0.202 C 
BRANCH   3   4
ATOM      4  C   UNL     1      -3.124   3.932  -6.308  1.00  0.00     0.261 C 
BRANCH   4   5
ATOM      5  O   UNL     1      -1.856   3.788  -5.650  1.00  0.00    -0.462 OA
BRANCH   5   6
ATOM      6  C   UNL     1      -1.155   2.672  -5.964  1.00  0.00     0.322 C 
ATOM      7  O   UNL     1      -1.598   1.746  -6.642  1.00  0.00    -0.251 OA
BRANCH   6   8
ATOM      8  C   UNL     1       0.287   2.712  -5.493  1.00  0.00     0.213 C 
ATOM      9  C   UNL     1       0.821   0.075   0.570  1.00  0.00     0.023 C 
ATOM     10  C   UNL     1       0.444   0.315  -0.899  1.00  0.00     0.016 C 
ATOM     11  C   UNL     1      -1.081   0.203  -1.046  1.00  0.00     0.023 C 
ATOM     12  C   UNL     1       0.952   1.683  -1.346  1.00  0.00     0.074 C 
ATOM     13  S   UNL     1       1.339  -0.961  -1.865  1.00  0.00    -0.150 SA
ATOM     14  C   UNL     1       0.755   2.013  -2.819  1.00  0.00     0.049 C 
ATOM     15  C   UNL     1       0.771  -0.539  -3.509  1.00  0.00     0.107 C 
ATOM     16  N   UNL     1       0.662   3.275  -3.096  1.00  0.00    -0.217 NA
ATOM     17  C   UNL     1       0.776   0.918  -3.830  1.00  0.00    -0.019 C 
ATOM     18  C   UNL     1       0.576   3.714  -4.396  1.00  0.00     0.264 C 
ATOM     19  C   UNL     1       0.641   1.311  -5.103  1.00  0.00     0.004 C 
ATOM     20  O   UNL     1       0.752   4.896  -4.688  1.00  0.00    -0.271 OA
ENDBRANCH   6   8
ENDBRANCH   5   6
ENDBRANCH   4   5
ENDBRANCH   3   4
ENDBRANCH   2   3
ENDBRANCH   1   2
BRANCH   1  21
ATOM     21  C   UNL     1      -0.375   6.665  -8.071  1.00  0.00     0.261 C 
BRANCH  21  22
ATOM     22  O   UNL     1      -0.989   7.330  -6.957  1.00  0.00    -0.460 OA
BRANCH  22  23
ATOM     23  C   UNL     1      -1.941   8.234  -7.292  1.00  0.00     0.338 C 
ATOM     24  O   UNL     1      -2.260   8.582  -8.415  1.00  0.00    -0.246 OA
BRANCH  23  25
ATOM     25  C   UNL     1      -2.712   8.618  -6.093  1.00  0.00     0.060 A 
ATOM     26  C   UNL     1      -4.107   8.530  -6.179  1.00  0.00     0.016 A 
ATOM     27  C   UNL     1      -2.099   9.113  -4.941  1.00  0.00     0.016 A 
ATOM     28  C   UNL     1      -4.899   9.000  -5.137  1.00  0.00     0.010 A 
ATOM     29  C   UNL     1      -2.898   9.595  -3.898  1.00  0.00     0.010 A 
ATOM     30  C   UNL     1      -4.300   9.579  -4.012  1.00  0.00    -0.014 A 
BRANCH  30  31
ATOM     31  C   UNL     1      -5.149  10.303  -3.037  1.00  0.00     0.031 A 
ATOM     32  C   UNL     1      -5.253  11.801  -3.133  1.00  0.00     0.074 A 
ATOM     33  C   UNL     1      -5.843   9.632  -2.101  1.00  0.00     0.049 A 
ATOM     34  N   UNL     1      -5.958  12.629  -2.408  1.00  0.00    -0.248 NA
ATOM     35  C   UNL     1      -4.458  12.452  -4.188  1.00  0.00     0.031 C 
ATOM     36  C   UNL     1      -5.821   8.183  -1.912  1.00  0.00     0.029 A 
ATOM     37  N   UNL     1      -6.688  10.089  -1.121  1.00  0.00    -0.354 N 
ATOM     38  C   UNL     1      -5.677  13.897  -2.901  1.00  0.00     0.074 A 
ATOM     39  C   UNL     1      -4.725  13.732  -3.978  1.00  0.00     0.031 C 
ATOM     40  C   UNL     1      -6.599   7.870  -0.861  1.00  0.00     0.029 A 
ATOM     41  C   UNL     1      -7.158   9.096  -0.295  1.00  0.00     0.049 A 
ATOM     42  H   UNL     1      -6.934  11.037  -1.020  1.00  0.00     0.167 HD
ATOM     43  C   UNL     1      -6.181  15.091  -2.508  1.00  0.00     0.034 A 
ATOM     44  C   UNL     1      -7.938   9.173   0.801  1.00  0.00     0.034 A 
ATOM     45  C   UNL     1      -7.141  15.250  -1.449  1.00  0.00     0.049 A 
ATOM     46  C   UNL     1      -8.472  10.515   1.230  1.00  0.00     0.074 A 
ATOM     47  C   UNL     1      -7.748  16.411  -1.005  1.00  0.00     0.029 A 
ATOM     48  N   UNL     1      -7.626  14.218  -0.660  1.00  0.00    -0.354 N 
ATOM     49  N   UNL     1      -8.301  11.690   0.671  1.00  0.00    -0.248 NA
ATOM     50  C   UNL     1      -9.337  10.538   2.418  1.00  0.00     0.031 C 
ATOM     51  C   UNL     1      -8.583  16.084   0.069  1.00  0.00     0.029 A 
ATOM     52  C   UNL     1      -8.515  14.716   0.277  1.00  0.00     0.049 A 
ATOM     53  H   UNL     1      -7.374  13.271  -0.752  1.00  0.00     0.167 HD
ATOM     54  C   UNL     1      -9.061  12.584   1.418  1.00  0.00     0.074 A 
ATOM     55  C   UNL     1      -9.712  11.810   2.456  1.00  0.00     0.031 C 
ATOM     56  C   UNL     1      -9.196  13.925   1.270  1.00  0.00     0.034 A 
BRANCH  43  57
ATOM     57  C   UNL     1      -5.726  16.319  -3.250  1.00  0.00     0.023 A 
ATOM     58  C   UNL     1      -6.199  16.556  -4.557  1.00  0.00     0.012 A 
ATOM     59  C   UNL     1      -4.877  17.262  -2.640  1.00  0.00     0.148 A 
ATOM     60  C   UNL     1      -5.811  17.698  -5.256  1.00  0.00     0.002 A 
ATOM     61  C   UNL     1      -4.527  18.418  -3.328  1.00  0.00     0.091 A 
ATOM     62  F   UNL     1      -4.418  17.006  -1.407  1.00  0.00    -0.205 F 
ATOM     63  C   UNL     1      -4.984  18.633  -4.638  1.00  0.00     0.022 A 
BRANCH  61  64
ATOM     64  S   UNL     1      -3.527  19.717  -2.591  1.00  0.00     0.127 S 
ATOM     65  O   UNL     1      -2.264  19.561  -3.311  1.00  0.00    -0.237 OA
ATOM     66  O   UNL     1      -4.282  20.921  -2.939  1.00  0.00    -0.237 OA
ATOM     67  O   UNL     1      -3.477  19.424  -1.166  1.00  0.00    -0.744 OA
ENDBRANCH  61  64
ENDBRANCH  43  57
BRANCH  44  68
ATOM     68  C   UNL     1      -8.297   7.933   1.545  1.00  0.00     0.023 A 
ATOM     69  C   UNL     1      -9.624   7.464   1.518  1.00  0.00     0.012 A 
ATOM     70  C   UNL     1      -7.325   7.204   2.260  1.00  0.00     0.148 A 
ATOM     71  C   UNL     1      -9.985   6.309   2.213  1.00  0.00     0.002 A 
ATOM     72  C   UNL     1      -7.679   6.024   2.903  1.00  0.00     0.091 A 
ATOM     73  F   UNL     1      -6.071   7.676   2.289  1.00  0.00    -0.205 F 
ATOM     74  C   UNL     1      -9.011   5.583   2.896  1.00  0.00     0.022 A 
BRANCH  72  75
ATOM     75  S   UNL     1      -6.467   4.958   3.692  1.00  0.00     0.127 S 
ATOM     76  O   UNL     1      -6.770   5.157   5.107  1.00  0.00    -0.237 OA
ATOM     77  O   UNL     1      -6.830   3.643   3.163  1.00  0.00    -0.237 OA
ATOM     78  O   UNL     1      -5.168   5.443   3.247  1.00  0.00    -0.744 OA
ENDBRANCH  72  75
ENDBRANCH  44  68
BRANCH  56  79
ATOM     79  C   UNL     1     -10.105  14.647   2.231  1.00  0.00     0.023 A 
ATOM     80  C   UNL     1      -9.697  14.843   3.566  1.00  0.00     0.012 A 
ATOM     81  C   UNL     1     -11.327  15.197   1.795  1.00  0.00     0.148 A 
ATOM     82  C   UNL     1     -10.505  15.546   4.459  1.00  0.00     0.002 A 
ATOM     83  C   UNL     1     -12.105  15.936   2.678  1.00  0.00     0.091 A 
ATOM     84  F   UNL     1     -11.708  14.985   0.526  1.00  0.00    -0.205 F 
ATOM     85  C   UNL     1     -11.702  16.102   4.013  1.00  0.00     0.022 A 
BRANCH  83  86
ATOM     86  S   UNL     1     -13.614  16.767   2.165  1.00  0.00     0.127 S 
ATOM     87  O   UNL     1     -14.641  15.909   2.753  1.00  0.00    -0.237 OA
ATOM     88  O   UNL     1     -13.479  18.079   2.799  1.00  0.00    -0.237 OA
ATOM     89  O   UNL     1     -13.578  16.796   0.709  1.00  0.00    -0.744 OA
ENDBRANCH  83  86
ENDBRANCH  56  79
ENDBRANCH  30  31
ENDBRANCH  23  25
ENDBRANCH  22  23
ENDBRANCH  21  22
ENDBRANCH   1  21
TORSDOF 17
