REMARK SMILES O=C(N[C@@H](Cc1ccc(O)cc1)C(=O)N[C@@H](Cc1c[nH]c2ccccc12)C(=O)N[C@@H](CO)C(=O)OCCOCCOC(=O)c1ccc(-c2c3nc(c(-c4cccc(S(=O)(=O)[O-])c4F)c4ccc([nH]4)c(-c4cccc(S(=O)(=O)[O-])c4F)c4nc(c(-c5cccc(S(=O)(=O)[O-])c5F)c5ccc2[nH]5)C=C4)C=C3)cc1)c1ccc(F)cc1
REMARK SMILES IDX 36 1 35 2 33 3 34 4 30 5 29 6 27 7 28 8 16 10 15 11 13 12
REMARK SMILES IDX 14 13 4 15 3 16 1 17 2 18 107 20 108 21 113 22 109 23 112 24
REMARK SMILES IDX 110 25 111 26 5 27 6 28 7 29 12 30 8 31 11 32 9 33 10 34
REMARK SMILES IDX 17 36 18 37 19 38 26 39 20 40 21 41 25 42 22 44 24 45 23 46
REMARK SMILES IDX 31 47 32 48 37 50 38 51 39 52 40 53 41 54 42 55 43 56 44 57
REMARK SMILES IDX 45 58 106 59 46 60 105 61 47 62 48 63 49 64 99 65 50 66
REMARK SMILES IDX 104 67 98 68 100 69 51 70 103 71 97 72 96 73 52 75 84 76
REMARK SMILES IDX 64 77 83 78 65 79 68 80 82 81 101 82 66 83 67 84 81 86
REMARK SMILES IDX 102 87 69 88 53 89 54 90 62 91 55 92 57 93 63 94 56 95 58 96
REMARK SMILES IDX 59 97 60 98 61 99 85 100 86 101 94 102 87 103 89 104 95 105
REMARK SMILES IDX 88 106 90 107 91 108 92 109 93 110 70 111 71 112 79 113
REMARK SMILES IDX 72 114 74 115 80 116 73 117 75 118 76 119 77 120 78 121
REMARK H PARENT 29 9 15 14 3 19 10 35 20 43 32 49 100 74 68 85
REMARK Flexibility Score: inf
ROOT
ATOM      1  C   UNL     1       4.248  -9.853   2.614  1.00  0.00     0.261 C 
ENDROOT
BRANCH   1   2
ATOM      2  O   UNL     1       4.742  -8.519   2.419  1.00  0.00    -0.462 OA
BRANCH   2   3
ATOM      3  C   UNL     1       5.080  -8.180   1.146  1.00  0.00     0.331 C 
ATOM      4  O   UNL     1       5.135  -8.952   0.195  1.00  0.00    -0.250 OA
BRANCH   3   5
ATOM      5  C   UNL     1       5.457  -6.688   1.062  1.00  0.00     0.218 C 
BRANCH   5   6
ATOM      6  N   UNL     1       4.951  -5.930   2.219  1.00  0.00    -0.339 N 
ATOM      7  C   UNL     1       3.903  -5.068   2.324  1.00  0.00     0.243 C 
ATOM      8  O   UNL     1       3.293  -5.052   3.398  1.00  0.00    -0.273 OA
ATOM      9  H   UNL     1       5.454  -6.069   3.054  1.00  0.00     0.164 HD
BRANCH   7  10
ATOM     10  C   UNL     1       3.390  -4.159   1.195  1.00  0.00     0.175 C 
BRANCH  10  11
ATOM     11  N   UNL     1       4.400  -3.711   0.240  1.00  0.00    -0.342 N 
ATOM     12  C   UNL     1       5.061  -2.521   0.166  1.00  0.00     0.243 C 
ATOM     13  O   UNL     1       6.140  -2.534  -0.438  1.00  0.00    -0.273 OA
ATOM     14  H   UNL     1       4.639  -4.366  -0.455  1.00  0.00     0.164 HD
BRANCH  12  15
ATOM     15  C   UNL     1       4.568  -1.207   0.830  1.00  0.00     0.176 C 
BRANCH  15  16
ATOM     16  N   UNL     1       3.116  -0.992   0.778  1.00  0.00    -0.340 N 
ATOM     17  O   UNL     1       1.152  -0.090   0.174  1.00  0.00    -0.269 OA
ATOM     18  C   UNL     1       2.376  -0.081   0.068  1.00  0.00     0.251 C 
ATOM     19  H   UNL     1       2.588  -1.600   1.344  1.00  0.00     0.164 HD
BRANCH  18  20
ATOM     20  C   UNL     1       3.019   0.982  -0.736  1.00  0.00     0.040 A 
ATOM     21  C   UNL     1       3.968   0.714  -1.730  1.00  0.00     0.017 A 
ATOM     22  C   UNL     1       2.624   2.304  -0.482  1.00  0.00     0.017 A 
ATOM     23  C   UNL     1       4.582   1.774  -2.403  1.00  0.00     0.040 A 
ATOM     24  C   UNL     1       3.226   3.358  -1.170  1.00  0.00     0.040 A 
ATOM     25  C   UNL     1       4.211   3.084  -2.112  1.00  0.00     0.123 A 
ATOM     26  F   UNL     1       4.807   4.096  -2.754  1.00  0.00    -0.207 F 
ENDBRANCH  18  20
ENDBRANCH  15  16
BRANCH  15  27
ATOM     27  C   UNL     1       5.209  -0.853   2.183  1.00  0.00     0.070 C 
BRANCH  27  28
ATOM     28  C   UNL     1       5.085  -1.819   3.330  1.00  0.00    -0.045 A 
ATOM     29  C   UNL     1       3.995  -1.764   4.211  1.00  0.00     0.007 A 
ATOM     30  C   UNL     1       6.115  -2.740   3.578  1.00  0.00     0.007 A 
ATOM     31  C   UNL     1       3.929  -2.627   5.310  1.00  0.00     0.046 A 
ATOM     32  C   UNL     1       6.054  -3.592   4.682  1.00  0.00     0.046 A 
ATOM     33  C   UNL     1       4.955  -3.542   5.528  1.00  0.00     0.115 A 
BRANCH  33  34
ATOM     34  O   UNL     1       4.908  -4.434   6.557  1.00  0.00    -0.508 OA
ATOM     35  H   UNL     1       4.182  -4.430   7.149  1.00  0.00     0.293 HD
ENDBRANCH  33  34
ENDBRANCH  27  28
ENDBRANCH  15  27
ENDBRANCH  12  15
ENDBRANCH  10  11
BRANCH  10  36
ATOM     36  C   UNL     1       2.061  -4.631   0.569  1.00  0.00     0.072 C 
BRANCH  36  37
ATOM     37  C   UNL     1       2.022  -6.038   0.056  1.00  0.00    -0.020 A 
ATOM     38  C   UNL     1       2.725  -6.556  -1.014  1.00  0.00     0.087 A 
ATOM     39  C   UNL     1       1.211  -7.112   0.566  1.00  0.00     0.003 A 
ATOM     40  N   UNL     1       2.512  -7.910  -1.054  1.00  0.00    -0.361 N 
ATOM     41  C   UNL     1       1.597  -8.276  -0.098  1.00  0.00     0.046 A 
ATOM     42  C   UNL     1       0.218  -7.217   1.565  1.00  0.00     0.010 A 
ATOM     43  H   UNL     1       2.952  -8.531  -1.679  1.00  0.00     0.166 HD
ATOM     44  C   UNL     1       1.102  -9.543   0.234  1.00  0.00     0.026 A 
ATOM     45  C   UNL     1      -0.299  -8.475   1.900  1.00  0.00     0.001 A 
ATOM     46  C   UNL     1       0.153  -9.622   1.256  1.00  0.00     0.002 A 
ENDBRANCH  36  37
ENDBRANCH  10  36
ENDBRANCH   7  10
ENDBRANCH   5   6
BRANCH   5  47
ATOM     47  C   UNL     1       6.978  -6.585   0.942  1.00  0.00     0.193 C 
BRANCH  47  48
ATOM     48  O   UNL     1       7.644  -7.106   2.088  1.00  0.00    -0.394 OA
ATOM     49  H   UNL     1       7.385  -6.596   2.872  1.00  0.00     0.210 HD
ENDBRANCH  47  48
ENDBRANCH   5  47
ENDBRANCH   3   5
ENDBRANCH   2   3
ENDBRANCH   1   2
BRANCH   1  50
ATOM     50  C   UNL     1       3.512  -9.932   3.955  1.00  0.00     0.202 C 
BRANCH  50  51
ATOM     51  O   UNL     1       2.341  -9.111   4.032  1.00  0.00    -0.374 OA
BRANCH  51  52
ATOM     52  C   UNL     1       2.621  -7.711   4.127  1.00  0.00     0.202 C 
BRANCH  52  53
ATOM     53  C   UNL     1       1.771  -7.040   5.205  1.00  0.00     0.261 C 
BRANCH  53  54
ATOM     54  O   UNL     1       2.259  -7.506   6.470  1.00  0.00    -0.460 OA
BRANCH  54  55
ATOM     55  C   UNL     1       1.669  -8.664   6.853  1.00  0.00     0.338 C 
ATOM     56  O   UNL     1       0.511  -8.982   6.660  1.00  0.00    -0.246 OA
BRANCH  55  57
ATOM     57  C   UNL     1       2.705  -9.578   7.389  1.00  0.00     0.060 A 
ATOM     58  C   UNL     1       2.440 -10.948   7.301  1.00  0.00     0.016 A 
ATOM     59  C   UNL     1       3.918  -9.126   7.928  1.00  0.00     0.016 A 
ATOM     60  C   UNL     1       3.335 -11.863   7.840  1.00  0.00     0.010 A 
ATOM     61  C   UNL     1       4.825 -10.046   8.456  1.00  0.00     0.010 A 
ATOM     62  C   UNL     1       4.502 -11.411   8.469  1.00  0.00    -0.014 A 
BRANCH  62  63
ATOM     63  C   UNL     1       5.250 -12.367   9.312  1.00  0.00     0.031 A 
ATOM     64  C   UNL     1       4.969 -12.381  10.788  1.00  0.00     0.074 A 
ATOM     65  C   UNL     1       6.084 -13.262   8.758  1.00  0.00     0.049 A 
ATOM     66  N   UNL     1       5.343 -13.245  11.693  1.00  0.00    -0.248 NA
ATOM     67  C   UNL     1       4.149 -11.276  11.315  1.00  0.00     0.031 C 
ATOM     68  C   UNL     1       6.440 -13.322   7.342  1.00  0.00     0.029 A 
ATOM     69  N   UNL     1       6.772 -14.302   9.326  1.00  0.00    -0.354 N 
ATOM     70  C   UNL     1       4.804 -12.792  12.891  1.00  0.00     0.074 A 
ATOM     71  C   UNL     1       4.112 -11.555  12.608  1.00  0.00     0.031 C 
ATOM     72  C   UNL     1       7.278 -14.355   7.148  1.00  0.00     0.029 A 
ATOM     73  C   UNL     1       7.512 -15.028   8.425  1.00  0.00     0.049 A 
ATOM     74  H   UNL     1       6.740 -14.509  10.288  1.00  0.00     0.167 HD
ATOM     75  C   UNL     1       4.853 -13.370  14.113  1.00  0.00     0.034 A 
ATOM     76  C   UNL     1       8.273 -16.124   8.612  1.00  0.00     0.034 A 
ATOM     77  C   UNL     1       5.542 -14.601  14.384  1.00  0.00     0.049 A 
ATOM     78  C   UNL     1       8.315 -16.750   9.982  1.00  0.00     0.074 A 
ATOM     79  C   UNL     1       5.637 -15.295  15.575  1.00  0.00     0.029 A 
ATOM     80  N   UNL     1       6.269 -15.316  13.443  1.00  0.00    -0.354 N 
ATOM     81  N   UNL     1       7.687 -16.389  11.076  1.00  0.00    -0.248 NA
ATOM     82  C   UNL     1       9.134 -17.960  10.130  1.00  0.00     0.031 C 
ATOM     83  C   UNL     1       6.442 -16.421  15.359  1.00  0.00     0.029 A 
ATOM     84  C   UNL     1       6.827 -16.439  14.027  1.00  0.00     0.049 A 
ATOM     85  H   UNL     1       6.373 -15.062  12.498  1.00  0.00     0.167 HD
ATOM     86  C   UNL     1       8.011 -17.341  12.036  1.00  0.00     0.074 A 
ATOM     87  C   UNL     1       8.869 -18.311  11.382  1.00  0.00     0.031 C 
ATOM     88  C   UNL     1       7.650 -17.405  13.343  1.00  0.00     0.034 A 
BRANCH  75  89
ATOM     89  C   UNL     1       4.112 -12.681  15.229  1.00  0.00     0.023 A 
ATOM     90  C   UNL     1       2.701 -12.698  15.240  1.00  0.00     0.012 A 
ATOM     91  C   UNL     1       4.801 -12.015  16.259  1.00  0.00     0.148 A 
ATOM     92  C   UNL     1       1.989 -12.031  16.236  1.00  0.00     0.002 A 
ATOM     93  C   UNL     1       4.085 -11.387  17.272  1.00  0.00     0.091 A 
ATOM     94  F   UNL     1       6.141 -11.979  16.215  1.00  0.00    -0.205 F 
ATOM     95  C   UNL     1       2.680 -11.383  17.256  1.00  0.00     0.022 A 
BRANCH  93  96
ATOM     96  S   UNL     1       4.888 -10.582  18.662  1.00  0.00     0.127 S 
ATOM     97  O   UNL     1       4.726  -9.169  18.320  1.00  0.00    -0.237 OA
ATOM     98  O   UNL     1       4.076 -11.032  19.793  1.00  0.00    -0.237 OA
ATOM     99  O   UNL     1       6.258 -11.075  18.668  1.00  0.00    -0.744 OA
ENDBRANCH  93  96
ENDBRANCH  75  89
BRANCH  76 100
ATOM    100  C   UNL     1       8.977 -16.742   7.454  1.00  0.00     0.023 A 
ATOM    101  C   UNL     1       8.538 -17.983   6.953  1.00  0.00     0.012 A 
ATOM    102  C   UNL     1      10.049 -16.086   6.819  1.00  0.00     0.148 A 
ATOM    103  C   UNL     1       9.167 -18.570   5.854  1.00  0.00     0.002 A 
ATOM    104  C   UNL     1      10.637 -16.650   5.692  1.00  0.00     0.091 A 
ATOM    105  F   UNL     1      10.463 -14.914   7.321  1.00  0.00    -0.205 F 
ATOM    106  C   UNL     1      10.208 -17.899   5.217  1.00  0.00     0.022 A 
BRANCH 104 107
ATOM    107  S   UNL     1      11.894 -15.798   4.731  1.00  0.00     0.127 S 
ATOM    108  O   UNL     1      13.081 -16.600   5.014  1.00  0.00    -0.237 OA
ATOM    109  O   UNL     1      11.371 -15.928   3.371  1.00  0.00    -0.237 OA
ATOM    110  O   UNL     1      11.917 -14.433   5.238  1.00  0.00    -0.744 OA
ENDBRANCH 104 107
ENDBRANCH  76 100
BRANCH  88 111
ATOM    111  C   UNL     1       8.177 -18.566  14.146  1.00  0.00     0.023 A 
ATOM    112  C   UNL     1       9.541 -18.605  14.499  1.00  0.00     0.012 A 
ATOM    113  C   UNL     1       7.318 -19.588  14.593  1.00  0.00     0.148 A 
ATOM    114  C   UNL     1      10.050 -19.666  15.247  1.00  0.00     0.002 A 
ATOM    115  C   UNL     1       7.822 -20.617  15.379  1.00  0.00     0.091 A 
ATOM    116  F   UNL     1       6.027 -19.546  14.232  1.00  0.00    -0.205 F 
ATOM    117  C   UNL     1       9.189 -20.666  15.695  1.00  0.00     0.022 A 
BRANCH 115 118
ATOM    118  S   UNL     1       6.759 -21.887  16.075  1.00  0.00     0.127 S 
ATOM    119  O   UNL     1       6.958 -22.991  15.138  1.00  0.00    -0.237 OA
ATOM    120  O   UNL     1       7.345 -22.099  17.400  1.00  0.00    -0.237 OA
ATOM    121  O   UNL     1       5.422 -21.308  16.099  1.00  0.00    -0.744 OA
ENDBRANCH 115 118
ENDBRANCH  88 111
ENDBRANCH  62  63
ENDBRANCH  55  57
ENDBRANCH  54  55
ENDBRANCH  53  54
ENDBRANCH  52  53
ENDBRANCH  51  52
ENDBRANCH  50  51
ENDBRANCH   1  50
TORSDOF 30
