REMARK SMILES Cc1nc2cc(SCC(=O)OCCOCCOC(=O)c3ccc(-c4c5nc(c(-c6cccc(S(=O)(=O)[O-])c6F)c6ccc([nH]6)c(-c6cccc(S(=O)(=O)[O-])c6F)c6nc(c(-c7cccc(S(=O)(=O)[O-])c7F)c7ccc4[nH]7)C=C6)C=C5)cc3)ccc2s1
REMARK SMILES IDX 15 1 14 2 13 3 12 4 11 5 9 6 10 7 8 8 7 9 6 10 1 11 2 12
REMARK SMILES IDX 3 13 86 14 4 15 85 16 5 17 84 18 83 19 16 20 17 21 18 22
REMARK SMILES IDX 19 23 20 24 21 25 82 26 22 27 81 28 23 29 24 30 25 31 75 32
REMARK SMILES IDX 26 33 80 34 74 35 76 36 27 37 79 38 73 39 72 40 28 42 60 43
REMARK SMILES IDX 40 44 59 45 41 46 44 47 58 48 77 49 42 50 43 51 57 53 78 54
REMARK SMILES IDX 45 55 29 56 30 57 38 58 31 59 33 60 39 61 32 62 34 63 35 64
REMARK SMILES IDX 36 65 37 66 61 67 62 68 70 69 63 70 65 71 71 72 64 73 66 74
REMARK SMILES IDX 67 75 68 76 69 77 46 78 47 79 55 80 48 81 50 82 56 83 49 84
REMARK SMILES IDX 51 85 52 86 53 87 54 88
REMARK H PARENT 76 41 44 52
REMARK Flexibility Score: inf
ROOT
ATOM      1  C   UNL     1       3.657  -2.028   1.925  1.00  0.00     0.202 C 
ENDROOT
BRANCH   1   2
ATOM      2  O   UNL     1       4.566  -2.516   2.909  1.00  0.00    -0.374 OA
BRANCH   2   3
ATOM      3  C   UNL     1       5.280  -1.542   3.672  1.00  0.00     0.202 C 
BRANCH   3   4
ATOM      4  C   UNL     1       6.384  -0.765   2.943  1.00  0.00     0.261 C 
BRANCH   4   5
ATOM      5  O   UNL     1       5.897   0.086   1.886  1.00  0.00    -0.463 OA
BRANCH   5   6
ATOM      6  C   UNL     1       6.296  -0.227   0.624  1.00  0.00     0.316 C 
ATOM      7  O   UNL     1       6.988  -1.202   0.339  1.00  0.00    -0.251 OA
BRANCH   6   8
ATOM      8  C   UNL     1       5.882   0.763  -0.443  1.00  0.00     0.197 C 
BRANCH   8   9
ATOM      9  S   UNL     1       4.468   1.838  -0.063  1.00  0.00    -0.114 SA
BRANCH   9  10
ATOM     10  C   UNL     1       2.994   0.927  -0.515  1.00  0.00     0.010 A 
ATOM     11  C   UNL     1      -3.077   0.760  -0.028  1.00  0.00     0.079 C 
ATOM     12  C   UNL     1      -1.635   0.557  -0.340  1.00  0.00     0.091 A 
ATOM     13  N   UNL     1      -0.701   1.451  -0.108  1.00  0.00    -0.241 NA
ATOM     14  S   UNL     1      -1.089  -0.923  -1.020  1.00  0.00    -0.119 S 
ATOM     15  C   UNL     1       0.543   0.933  -0.422  1.00  0.00     0.083 A 
ATOM     16  C   UNL     1       0.536  -0.356  -0.953  1.00  0.00     0.055 A 
ATOM     17  C   UNL     1       1.781   1.576  -0.221  1.00  0.00     0.045 A 
ATOM     18  C   UNL     1       1.728  -1.005  -1.316  1.00  0.00     0.022 A 
ATOM     19  C   UNL     1       2.949  -0.346  -1.086  1.00  0.00     0.016 A 
ENDBRANCH   9  10
ENDBRANCH   8   9
ENDBRANCH   6   8
ENDBRANCH   5   6
ENDBRANCH   4   5
ENDBRANCH   3   4
ENDBRANCH   2   3
ENDBRANCH   1   2
BRANCH   1  20
ATOM     20  C   UNL     1       2.343  -1.437   2.441  1.00  0.00     0.261 C 
BRANCH  20  21
ATOM     21  O   UNL     1       2.550  -0.328   3.324  1.00  0.00    -0.460 OA
BRANCH  21  22
ATOM     22  C   UNL     1       1.908  -0.446   4.506  1.00  0.00     0.338 C 
ATOM     23  O   UNL     1       1.091  -1.302   4.825  1.00  0.00    -0.246 OA
BRANCH  22  24
ATOM     24  C   UNL     1       2.452   0.510   5.478  1.00  0.00     0.060 A 
ATOM     25  C   UNL     1       3.003  -0.021   6.649  1.00  0.00     0.016 A 
ATOM     26  C   UNL     1       2.324   1.890   5.303  1.00  0.00     0.016 A 
ATOM     27  C   UNL     1       3.359   0.829   7.689  1.00  0.00     0.010 A 
ATOM     28  C   UNL     1       2.683   2.743   6.352  1.00  0.00     0.010 A 
ATOM     29  C   UNL     1       3.154   2.210   7.565  1.00  0.00    -0.014 A 
BRANCH  29  30
ATOM     30  C   UNL     1       3.302   3.056   8.771  1.00  0.00     0.031 A 
ATOM     31  C   UNL     1       2.075   3.431   9.556  1.00  0.00     0.074 A 
ATOM     32  C   UNL     1       4.524   3.428   9.190  1.00  0.00     0.049 A 
ATOM     33  N   UNL     1       1.986   4.060  10.698  1.00  0.00    -0.248 NA
ATOM     34  C   UNL     1       0.776   3.043   8.981  1.00  0.00     0.031 C 
ATOM     35  C   UNL     1       5.777   3.131   8.496  1.00  0.00     0.029 A 
ATOM     36  N   UNL     1       4.910   4.138  10.297  1.00  0.00    -0.354 N 
ATOM     37  C   UNL     1       0.627   4.155  10.974  1.00  0.00     0.074 A 
ATOM     38  C   UNL     1      -0.074   3.539   9.869  1.00  0.00     0.031 C 
ATOM     39  C   UNL     1       6.796   3.667   9.190  1.00  0.00     0.029 A 
ATOM     40  C   UNL     1       6.266   4.345  10.371  1.00  0.00     0.049 A 
ATOM     41  H   UNL     1       4.276   4.468  10.974  1.00  0.00     0.167 HD
ATOM     42  C   UNL     1       0.019   4.684  12.062  1.00  0.00     0.034 A 
ATOM     43  C   UNL     1       6.995   5.006  11.292  1.00  0.00     0.034 A 
ATOM     44  C   UNL     1       0.726   5.278  13.164  1.00  0.00     0.049 A 
ATOM     45  C   UNL     1       6.295   5.584  12.494  1.00  0.00     0.074 A 
ATOM     46  C   UNL     1       0.212   5.799  14.338  1.00  0.00     0.029 A 
ATOM     47  N   UNL     1       2.102   5.439  13.223  1.00  0.00    -0.354 N 
ATOM     48  N   UNL     1       5.022   5.535  12.811  1.00  0.00    -0.248 NA
ATOM     49  C   UNL     1       7.134   6.270  13.486  1.00  0.00     0.031 C 
ATOM     50  C   UNL     1       1.278   6.293  15.098  1.00  0.00     0.029 A 
ATOM     51  C   UNL     1       2.457   6.064  14.406  1.00  0.00     0.049 A 
ATOM     52  H   UNL     1       2.734   5.152  12.525  1.00  0.00     0.167 HD
ATOM     53  C   UNL     1       4.912   6.160  14.048  1.00  0.00     0.074 A 
ATOM     54  C   UNL     1       6.252   6.554  14.435  1.00  0.00     0.031 C 
ATOM     55  C   UNL     1       3.803   6.406  14.790  1.00  0.00     0.034 A 
BRANCH  42  56
ATOM     56  C   UNL     1      -1.483   4.608  12.127  1.00  0.00     0.023 A 
ATOM     57  C   UNL     1      -2.103   3.370  12.395  1.00  0.00     0.012 A 
ATOM     58  C   UNL     1      -2.279   5.758  11.966  1.00  0.00     0.148 A 
ATOM     59  C   UNL     1      -3.492   3.272  12.473  1.00  0.00     0.002 A 
ATOM     60  C   UNL     1      -3.662   5.660  12.082  1.00  0.00     0.091 A 
ATOM     61  F   UNL     1      -1.674   6.921  11.686  1.00  0.00    -0.205 F 
ATOM     62  C   UNL     1      -4.269   4.417  12.326  1.00  0.00     0.022 A 
BRANCH  60  63
ATOM     63  S   UNL     1      -4.746   7.088  11.973  1.00  0.00     0.127 S 
ATOM     64  O   UNL     1      -5.376   6.882  10.670  1.00  0.00    -0.237 OA
ATOM     65  O   UNL     1      -5.636   6.889  13.118  1.00  0.00    -0.237 OA
ATOM     66  O   UNL     1      -3.882   8.256  12.074  1.00  0.00    -0.744 OA
ENDBRANCH  60  63
ENDBRANCH  42  56
BRANCH  43  67
ATOM     67  C   UNL     1       8.474   5.099  11.140  1.00  0.00     0.023 A 
ATOM     68  C   UNL     1       9.311   4.388  12.020  1.00  0.00     0.012 A 
ATOM     69  C   UNL     1       9.053   5.858  10.104  1.00  0.00     0.148 A 
ATOM     70  C   UNL     1      10.700   4.450  11.887  1.00  0.00     0.002 A 
ATOM     71  C   UNL     1      10.434   5.871   9.943  1.00  0.00     0.091 A 
ATOM     72  F   UNL     1       8.241   6.545   9.288  1.00  0.00    -0.205 F 
ATOM     73  C   UNL     1      11.260   5.181  10.842  1.00  0.00     0.022 A 
BRANCH  71  74
ATOM     74  S   UNL     1      11.226   6.676   8.546  1.00  0.00     0.127 S 
ATOM     75  O   UNL     1      11.791   7.870   9.168  1.00  0.00    -0.237 OA
ATOM     76  O   UNL     1      12.209   5.673   8.132  1.00  0.00    -0.237 OA
ATOM     77  O   UNL     1      10.164   6.905   7.575  1.00  0.00    -0.744 OA
ENDBRANCH  71  74
ENDBRANCH  43  67
BRANCH  55  78
ATOM     78  C   UNL     1       3.990   7.126  16.099  1.00  0.00     0.023 A 
ATOM     79  C   UNL     1       4.284   8.504  16.096  1.00  0.00     0.012 A 
ATOM     80  C   UNL     1       3.807   6.459  17.326  1.00  0.00     0.148 A 
ATOM     81  C   UNL     1       4.425   9.201  17.295  1.00  0.00     0.002 A 
ATOM     82  C   UNL     1       3.904   7.170  18.516  1.00  0.00     0.091 A 
ATOM     83  F   UNL     1       3.549   5.143  17.308  1.00  0.00    -0.205 F 
ATOM     84  C   UNL     1       4.223   8.537  18.504  1.00  0.00     0.022 A 
BRANCH  82  85
ATOM     85  S   UNL     1       3.568   6.413  20.110  1.00  0.00     0.127 S 
ATOM     86  O   UNL     1       4.917   6.203  20.632  1.00  0.00    -0.237 OA
ATOM     87  O   UNL     1       2.803   7.455  20.798  1.00  0.00    -0.237 OA
ATOM     88  O   UNL     1       2.808   5.204  19.822  1.00  0.00    -0.744 OA
ENDBRANCH  82  85
ENDBRANCH  55  78
ENDBRANCH  29  30
ENDBRANCH  22  24
ENDBRANCH  21  22
ENDBRANCH  20  21
ENDBRANCH   1  20
TORSDOF 19
