REMARK SMILES COc1ccc2c(CC(=O)OCCOCCOC(=O)c3ccc(-c4c5nc(c(-c6cccc(S(=O)(=O)[O-])c6F)c6ccc([nH]6)c(-c6cccc(S(=O)(=O)[O-])c6F)c6nc(c(-c7cccc(S(=O)(=O)[O-])c7F)c7ccc4[nH]7)C=C6)C=C5)cc3)c(C(=O)c3cc(C)ccn3)[nH]c2c1
REMARK SMILES IDX 14 1 13 2 12 3 11 4 9 5 10 6 8 7 7 8 3 9 4 10 95 11 5 12
REMARK SMILES IDX 94 13 6 14 93 15 83 16 2 18 1 19 84 20 85 21 86 22 87 23
REMARK SMILES IDX 92 24 88 25 91 26 89 27 90 28 15 29 16 30 17 31 18 32 19 33
REMARK SMILES IDX 20 34 21 35 82 36 22 37 81 38 23 39 24 40 25 41 75 42 26 43
REMARK SMILES IDX 80 44 74 45 76 46 27 47 79 48 73 49 72 50 28 52 60 53 40 54
REMARK SMILES IDX 59 55 41 56 44 57 58 58 77 59 42 60 43 61 57 63 78 64 45 65
REMARK SMILES IDX 29 66 30 67 38 68 31 69 33 70 39 71 32 72 34 73 35 74 36 75
REMARK SMILES IDX 37 76 61 77 62 78 70 79 63 80 65 81 71 82 64 83 66 84 67 85
REMARK SMILES IDX 68 86 69 87 46 88 47 89 55 90 48 91 50 92 56 93 49 94 51 95
REMARK SMILES IDX 52 96 53 97 54 98
REMARK H PARENT 93 17 76 51 44 62
REMARK Flexibility Score: inf
ROOT
ATOM      1  O   UNL     1       2.962  -2.647 -10.685  1.00  0.00    -0.374 OA
ENDROOT
BRANCH   1   2
ATOM      2  C   UNL     1       3.628  -3.434  -9.698  1.00  0.00     0.202 C 
BRANCH   2   3
ATOM      3  C   UNL     1       4.280  -2.696  -8.518  1.00  0.00     0.261 C 
BRANCH   3   4
ATOM      4  O   UNL     1       3.387  -1.811  -7.806  1.00  0.00    -0.463 OA
BRANCH   4   5
ATOM      5  C   UNL     1       3.883  -0.568  -7.555  1.00  0.00     0.310 C 
ATOM      6  O   UNL     1       5.035  -0.222  -7.819  1.00  0.00    -0.252 OA
BRANCH   5   7
ATOM      7  C   UNL     1       2.885   0.443  -7.029  1.00  0.00     0.161 C 
BRANCH   7   8
ATOM      8  C   UNL     1       1.658  -0.048  -6.309  1.00  0.00     0.000 A 
ATOM      9  C   UNL     1       0.892  -0.990  -2.278  1.00  0.00     0.120 A 
ATOM     10  C   UNL     1       2.235  -0.802  -2.596  1.00  0.00     0.047 A 
ATOM     11  C   UNL     1      -0.084  -1.008  -3.279  1.00  0.00     0.073 A 
ATOM     12  C   UNL     1       2.622  -0.535  -3.918  1.00  0.00     0.014 A 
ATOM     13  C   UNL     1       0.318  -0.706  -4.586  1.00  0.00     0.050 A 
ATOM     14  C   UNL     1       1.640  -0.442  -4.927  1.00  0.00     0.004 A 
ATOM     15  N   UNL     1      -0.421  -0.596  -5.737  1.00  0.00    -0.351 N 
ATOM     16  C   UNL     1       0.325  -0.018  -6.746  1.00  0.00     0.093 A 
ATOM     17  H   UNL     1      -1.356  -0.889  -5.832  1.00  0.00     0.167 HD
BRANCH   9  18
ATOM     18  O   UNL     1       0.444  -1.208  -1.001  1.00  0.00    -0.497 OA
ATOM     19  C   UNL     1       0.981  -0.289  -0.051  1.00  0.00     0.278 C 
ENDBRANCH   9  18
BRANCH  16  20
ATOM     20  C   UNL     1      -0.231   0.513  -7.993  1.00  0.00     0.227 C 
ATOM     21  O   UNL     1       0.416   1.196  -8.785  1.00  0.00    -0.285 OA
BRANCH  20  22
ATOM     22  C   UNL     1      -1.645   0.197  -8.364  1.00  0.00     0.113 A 
ATOM     23  C   UNL     1      -2.720   0.781  -7.708  1.00  0.00     0.036 A 
ATOM     24  N   UNL     1      -1.786  -0.699  -9.373  1.00  0.00    -0.253 NA
ATOM     25  C   UNL     1      -4.011   0.396  -8.093  1.00  0.00    -0.047 A 
ATOM     26  C   UNL     1      -3.033  -1.075  -9.708  1.00  0.00     0.112 A 
ATOM     27  C   UNL     1      -5.232   0.990  -7.460  1.00  0.00     0.044 C 
ATOM     28  C   UNL     1      -4.162  -0.561  -9.102  1.00  0.00     0.023 A 
ENDBRANCH  20  22
ENDBRANCH  16  20
ENDBRANCH   7   8
ENDBRANCH   5   7
ENDBRANCH   4   5
ENDBRANCH   3   4
ENDBRANCH   2   3
ENDBRANCH   1   2
BRANCH   1  29
ATOM     29  C   UNL     1       1.864  -1.854 -10.248  1.00  0.00     0.202 C 
BRANCH  29  30
ATOM     30  C   UNL     1       0.642  -2.585  -9.688  1.00  0.00     0.261 C 
BRANCH  30  31
ATOM     31  O   UNL     1       0.924  -3.676  -8.813  1.00  0.00    -0.460 OA
BRANCH  31  32
ATOM     32  C   UNL     1       0.209  -4.790  -9.063  1.00  0.00     0.338 C 
ATOM     33  O   UNL     1      -0.677  -4.954  -9.894  1.00  0.00    -0.246 OA
BRANCH  32  34
ATOM     34  C   UNL     1       0.715  -5.870  -8.219  1.00  0.00     0.060 A 
ATOM     35  C   UNL     1       1.472  -6.876  -8.825  1.00  0.00     0.016 A 
ATOM     36  C   UNL     1       0.346  -5.944  -6.874  1.00  0.00     0.016 A 
ATOM     37  C   UNL     1       1.807  -8.008  -8.092  1.00  0.00     0.010 A 
ATOM     38  C   UNL     1       0.691  -7.078  -6.140  1.00  0.00     0.010 A 
ATOM     39  C   UNL     1       1.378  -8.134  -6.763  1.00  0.00    -0.014 A 
BRANCH  39  40
ATOM     40  C   UNL     1       1.537  -9.437  -6.082  1.00  0.00     0.031 A 
ATOM     41  C   UNL     1       0.360 -10.369  -6.006  1.00  0.00     0.074 A 
ATOM     42  C   UNL     1       2.732  -9.790  -5.579  1.00  0.00     0.049 A 
ATOM     43  N   UNL     1       0.303 -11.589  -5.542  1.00  0.00    -0.248 NA
ATOM     44  C   UNL     1      -0.924  -9.862  -6.520  1.00  0.00     0.031 C 
ATOM     45  C   UNL     1       3.927  -8.946  -5.581  1.00  0.00     0.029 A 
ATOM     46  N   UNL     1       3.135 -10.946  -4.965  1.00  0.00    -0.354 N 
ATOM     47  C   UNL     1      -1.019 -11.990  -5.693  1.00  0.00     0.074 A 
ATOM     48  C   UNL     1      -1.738 -10.877  -6.270  1.00  0.00     0.031 C 
ATOM     49  C   UNL     1       4.931  -9.613  -4.986  1.00  0.00     0.029 A 
ATOM     50  C   UNL     1       4.447 -10.923  -4.558  1.00  0.00     0.049 A 
ATOM     51  H   UNL     1       2.541 -11.720  -4.829  1.00  0.00     0.167 HD
ATOM     52  C   UNL     1      -1.577 -13.189  -5.399  1.00  0.00     0.034 A 
ATOM     53  C   UNL     1       5.172 -11.860  -3.917  1.00  0.00     0.034 A 
ATOM     54  C   UNL     1      -0.844 -14.295  -4.846  1.00  0.00     0.049 A 
ATOM     55  C   UNL     1       4.535 -13.192  -3.624  1.00  0.00     0.074 A 
ATOM     56  C   UNL     1      -1.297 -15.567  -4.549  1.00  0.00     0.029 A 
ATOM     57  N   UNL     1       0.499 -14.255  -4.500  1.00  0.00    -0.354 N 
ATOM     58  N   UNL     1       3.320 -13.603  -3.897  1.00  0.00    -0.248 NA
ATOM     59  C   UNL     1       5.380 -14.205  -2.977  1.00  0.00     0.031 C 
ATOM     60  C   UNL     1      -0.230 -16.293  -4.009  1.00  0.00     0.029 A 
ATOM     61  C   UNL     1       0.892 -15.479  -3.989  1.00  0.00     0.049 A 
ATOM     62  H   UNL     1       1.086 -13.472  -4.603  1.00  0.00     0.167 HD
ATOM     63  C   UNL     1       3.263 -14.931  -3.489  1.00  0.00     0.074 A 
ATOM     64  C   UNL     1       4.575 -15.260  -2.968  1.00  0.00     0.031 C 
ATOM     65  C   UNL     1       2.220 -15.796  -3.527  1.00  0.00     0.034 A 
BRANCH  52  66
ATOM     66  C   UNL     1      -3.039 -13.375  -5.709  1.00  0.00     0.023 A 
ATOM     67  C   UNL     1      -3.451 -13.517  -7.050  1.00  0.00     0.012 A 
ATOM     68  C   UNL     1      -3.997 -13.457  -4.680  1.00  0.00     0.148 A 
ATOM     69  C   UNL     1      -4.796 -13.709  -7.364  1.00  0.00     0.002 A 
ATOM     70  C   UNL     1      -5.331 -13.686  -4.998  1.00  0.00     0.091 A 
ATOM     71  F   UNL     1      -3.590 -13.293  -3.413  1.00  0.00    -0.205 F 
ATOM     72  C   UNL     1      -5.734 -13.803  -6.339  1.00  0.00     0.022 A 
BRANCH  70  73
ATOM     73  S   UNL     1      -6.603 -13.889  -3.746  1.00  0.00     0.127 S 
ATOM     74  O   UNL     1      -7.342 -12.633  -3.869  1.00  0.00    -0.237 OA
ATOM     75  O   UNL     1      -7.324 -15.069  -4.225  1.00  0.00    -0.237 OA
ATOM     76  O   UNL     1      -5.898 -14.081  -2.486  1.00  0.00    -0.744 OA
ENDBRANCH  70  73
ENDBRANCH  52  66
BRANCH  53  77
ATOM     77  C   UNL     1       6.598 -11.588  -3.583  1.00  0.00     0.023 A 
ATOM     78  C   UNL     1       7.618 -12.268  -4.277  1.00  0.00     0.012 A 
ATOM     79  C   UNL     1       6.949 -10.627  -2.616  1.00  0.00     0.148 A 
ATOM     80  C   UNL     1       8.961 -12.011  -3.996  1.00  0.00     0.002 A 
ATOM     81  C   UNL     1       8.288 -10.337  -2.379  1.00  0.00     0.091 A 
ATOM     82  F   UNL     1       5.965 -10.003  -1.952  1.00  0.00    -0.205 F 
ATOM     83  C   UNL     1       9.296 -11.039  -3.057  1.00  0.00     0.022 A 
BRANCH  81  84
ATOM     84  S   UNL     1       8.801  -9.006  -1.287  1.00  0.00     0.127 S 
ATOM     85  O   UNL     1       9.266  -9.743  -0.115  1.00  0.00    -0.237 OA
ATOM     86  O   UNL     1       9.856  -8.359  -2.067  1.00  0.00    -0.237 OA
ATOM     87  O   UNL     1       7.614  -8.184  -1.093  1.00  0.00    -0.744 OA
ENDBRANCH  81  84
ENDBRANCH  53  77
BRANCH  65  88
ATOM     88  C   UNL     1       2.458 -17.193  -3.020  1.00  0.00     0.023 A 
ATOM     89  C   UNL     1       2.570 -17.423  -1.634  1.00  0.00     0.012 A 
ATOM     90  C   UNL     1       2.492 -18.285  -3.909  1.00  0.00     0.148 A 
ATOM     91  C   UNL     1       2.743 -18.716  -1.143  1.00  0.00     0.002 A 
ATOM     92  C   UNL     1       2.618 -19.576  -3.409  1.00  0.00     0.091 A 
ATOM     93  F   UNL     1       2.404 -18.043  -5.225  1.00  0.00    -0.205 F 
ATOM     94  C   UNL     1       2.755 -19.792  -2.028  1.00  0.00     0.022 A 
BRANCH  92  95
ATOM     95  S   UNL     1       2.545 -21.022  -4.472  1.00  0.00     0.127 S 
ATOM     96  O   UNL     1       3.956 -21.392  -4.569  1.00  0.00    -0.237 OA
ATOM     97  O   UNL     1       1.724 -21.946  -3.689  1.00  0.00    -0.237 OA
ATOM     98  O   UNL     1       1.925 -20.572  -5.711  1.00  0.00    -0.744 OA
ENDBRANCH  92  95
ENDBRANCH  65  88
ENDBRANCH  39  40
ENDBRANCH  32  34
ENDBRANCH  31  32
ENDBRANCH  30  31
ENDBRANCH  29  30
ENDBRANCH   1  29
TORSDOF 21
