REMARK SMILES CCC[NH+]1CCN(c2ccc(C(=O)OCCOCCOC(=O)c3ccc(-c4c5nc(c(-c6cccc(S(=O)(=O)[O-])c6F)c6ccc([nH]6)c(-c6cccc(S(=O)(=O)[O-])c6F)c6nc(c(-c7cccc(S(=O)(=O)[O-])c7F)c7ccc4[nH]7)C=C6)C=C5)cc3)cc2NS(=O)(=O)CC)CC1
REMARK SMILES IDX 17 1 16 2 15 3 14 4 12 5 13 6 11 7 8 8 9 9 87 10 10 11 86 12
REMARK SMILES IDX 7 13 4 14 5 15 95 16 6 18 94 19 3 20 2 21 1 22 88 23 89 25
REMARK SMILES IDX 90 26 91 27 92 28 93 29 18 30 19 31 20 32 21 33 22 34 23 35
REMARK SMILES IDX 24 36 85 37 25 38 84 39 26 40 27 41 28 42 78 43 29 44 83 45
REMARK SMILES IDX 77 46 79 47 30 48 82 49 76 50 75 51 31 53 63 54 43 55 62 56
REMARK SMILES IDX 44 57 47 58 61 59 80 60 45 61 46 62 60 64 81 65 48 66 32 67
REMARK SMILES IDX 33 68 41 69 34 70 36 71 42 72 35 73 37 74 38 75 39 76 40 77
REMARK SMILES IDX 64 78 65 79 73 80 66 81 68 82 74 83 67 84 69 85 70 86 71 87
REMARK SMILES IDX 72 88 49 89 50 90 58 91 51 92 53 93 59 94 52 95 54 96 55 97
REMARK SMILES IDX 56 98 57 99
REMARK H PARENT 4 17 88 24 79 52 47 63
REMARK Flexibility Score: inf
ROOT
ATOM      1  O   UNL     1      -7.644   9.575   1.114  1.00  0.00    -0.374 OA
ENDROOT
BRANCH   1   2
ATOM      2  C   UNL     1      -7.032  10.721   0.521  1.00  0.00     0.202 C 
BRANCH   2   3
ATOM      3  C   UNL     1      -5.739  11.199   1.187  1.00  0.00     0.261 C 
BRANCH   3   4
ATOM      4  O   UNL     1      -4.712  10.201   1.095  1.00  0.00    -0.460 OA
BRANCH   4   5
ATOM      5  C   UNL     1      -4.457   9.499   2.226  1.00  0.00     0.338 C 
ATOM      6  O   UNL     1      -4.942   9.682   3.332  1.00  0.00    -0.246 OA
BRANCH   5   7
ATOM      7  C   UNL     1      -3.596   8.336   1.896  1.00  0.00     0.062 A 
ATOM      8  C   UNL     1      -2.113   6.038   1.249  1.00  0.00     0.062 A 
ATOM      9  C   UNL     1      -2.938   6.050   2.376  1.00  0.00     0.029 A 
ATOM     10  C   UNL     1      -2.110   7.174   0.400  1.00  0.00     0.073 A 
ATOM     11  C   UNL     1      -3.691   7.186   2.689  1.00  0.00     0.018 A 
ATOM     12  C   UNL     1      -2.792   8.332   0.755  1.00  0.00     0.044 A 
BRANCH   8  13
ATOM     13  N   UNL     1      -1.298   4.962   0.926  1.00  0.00    -0.359 N 
ATOM     14  N   UNL     1       0.503   2.821   0.068  1.00  0.00    -0.332 N 
ATOM     15  C   UNL     1      -0.974   2.756  -0.054  1.00  0.00     0.283 C 
ATOM     16  C   UNL     1       0.921   4.248   0.077  1.00  0.00     0.283 C 
ATOM     17  H   UNL     1       0.895   2.337  -0.740  1.00  0.00     0.348 HD
ATOM     18  C   UNL     1      -1.760   3.580   0.993  1.00  0.00     0.178 C 
ATOM     19  C   UNL     1       0.159   5.157   1.074  1.00  0.00     0.178 C 
BRANCH  14  20
ATOM     20  C   UNL     1       1.040   2.107   1.233  1.00  0.00     0.262 C 
BRANCH  20  21
ATOM     21  C   UNL     1       0.712   0.607   1.272  1.00  0.00     0.058 C 
ATOM     22  C   UNL     1       1.148  -0.144   0.022  1.00  0.00     0.010 C 
ENDBRANCH  20  21
ENDBRANCH  14  20
ENDBRANCH   8  13
BRANCH  10  23
ATOM     23  N   UNL     1      -1.689   6.922  -0.946  1.00  0.00    -0.281 N 
ATOM     24  H   UNL     1      -1.817   6.010  -1.294  1.00  0.00     0.180 HD
BRANCH  23  25
ATOM     25  S   UNL     1      -1.006   8.034  -1.966  1.00  0.00     0.232 S 
ATOM     26  O   UNL     1      -0.106   8.848  -1.180  1.00  0.00    -0.207 OA
ATOM     27  O   UNL     1      -0.524   7.239  -3.078  1.00  0.00    -0.207 OA
BRANCH  25  28
ATOM     28  C   UNL     1      -2.377   9.039  -2.555  1.00  0.00     0.156 C 
ATOM     29  C   UNL     1      -3.693   8.300  -2.709  1.00  0.00     0.023 C 
ENDBRANCH  25  28
ENDBRANCH  23  25
ENDBRANCH  10  23
ENDBRANCH   5   7
ENDBRANCH   4   5
ENDBRANCH   3   4
ENDBRANCH   2   3
ENDBRANCH   1   2
BRANCH   1  30
ATOM     30  C   UNL     1      -7.188   8.304   0.646  1.00  0.00     0.202 C 
BRANCH  30  31
ATOM     31  C   UNL     1      -7.825   7.803  -0.657  1.00  0.00     0.261 C 
BRANCH  31  32
ATOM     32  O   UNL     1      -7.384   8.561  -1.796  1.00  0.00    -0.460 OA
BRANCH  32  33
ATOM     33  C   UNL     1      -8.278   9.463  -2.270  1.00  0.00     0.338 C 
ATOM     34  O   UNL     1      -9.416   9.655  -1.873  1.00  0.00    -0.246 OA
BRANCH  33  35
ATOM     35  C   UNL     1      -7.608  10.339  -3.249  1.00  0.00     0.060 A 
ATOM     36  C   UNL     1      -7.711  11.726  -3.073  1.00  0.00     0.016 A 
ATOM     37  C   UNL     1      -6.921   9.811  -4.342  1.00  0.00     0.016 A 
ATOM     38  C   UNL     1      -7.157  12.593  -4.014  1.00  0.00     0.010 A 
ATOM     39  C   UNL     1      -6.368  10.680  -5.284  1.00  0.00     0.010 A 
ATOM     40  C   UNL     1      -6.513  12.073  -5.143  1.00  0.00    -0.014 A 
BRANCH  40  41
ATOM     41  C   UNL     1      -6.107  12.954  -6.265  1.00  0.00     0.031 A 
ATOM     42  C   UNL     1      -6.931  12.939  -7.522  1.00  0.00     0.074 A 
ATOM     43  C   UNL     1      -4.988  13.696  -6.194  1.00  0.00     0.049 A 
ATOM     44  N   UNL     1      -6.678  13.476  -8.685  1.00  0.00    -0.248 NA
ATOM     45  C   UNL     1      -8.208  12.206  -7.461  1.00  0.00     0.031 C 
ATOM     46  C   UNL     1      -4.119  13.808  -5.023  1.00  0.00     0.029 A 
ATOM     47  N   UNL     1      -4.367  14.461  -7.150  1.00  0.00    -0.354 N 
ATOM     48  C   UNL     1      -7.734  13.105  -9.509  1.00  0.00     0.074 A 
ATOM     49  C   UNL     1      -8.633  12.300  -8.713  1.00  0.00     0.031 C 
ATOM     50  C   UNL     1      -3.051  14.557  -5.345  1.00  0.00     0.029 A 
ATOM     51  C   UNL     1      -3.140  14.939  -6.753  1.00  0.00     0.049 A 
ATOM     52  H   UNL     1      -4.761  14.648  -8.033  1.00  0.00     0.167 HD
ATOM     53  C   UNL     1      -7.936  13.411 -10.812  1.00  0.00     0.034 A 
ATOM     54  C   UNL     1      -2.179  15.570  -7.459  1.00  0.00     0.034 A 
ATOM     55  C   UNL     1      -7.047  14.229 -11.591  1.00  0.00     0.049 A 
ATOM     56  C   UNL     1      -2.410  15.866  -8.919  1.00  0.00     0.074 A 
ATOM     57  C   UNL     1      -7.191  14.642 -12.903  1.00  0.00     0.029 A 
ATOM     58  N   UNL     1      -5.843  14.742 -11.137  1.00  0.00    -0.354 N 
ATOM     59  N   UNL     1      -3.456  15.594  -9.661  1.00  0.00    -0.248 NA
ATOM     60  C   UNL     1      -1.338  16.575  -9.635  1.00  0.00     0.031 C 
ATOM     61  C   UNL     1      -6.052  15.370 -13.257  1.00  0.00     0.029 A 
ATOM     62  C   UNL     1      -5.224  15.455 -12.148  1.00  0.00     0.049 A 
ATOM     63  H   UNL     1      -5.482  14.618 -10.230  1.00  0.00     0.167 HD
ATOM     64  C   UNL     1      -3.191  16.142 -10.912  1.00  0.00     0.074 A 
ATOM     65  C   UNL     1      -1.886  16.764 -10.829  1.00  0.00     0.031 C 
ATOM     66  C   UNL     1      -3.956  16.127 -12.030  1.00  0.00     0.034 A 
BRANCH  53  67
ATOM     67  C   UNL     1      -9.167  12.864 -11.483  1.00  0.00     0.023 A 
ATOM     68  C   UNL     1     -10.437  13.379 -11.154  1.00  0.00     0.012 A 
ATOM     69  C   UNL     1      -9.057  11.885 -12.491  1.00  0.00     0.148 A 
ATOM     70  C   UNL     1     -11.581  12.906 -11.796  1.00  0.00     0.002 A 
ATOM     71  C   UNL     1     -10.196  11.454 -13.159  1.00  0.00     0.091 A 
ATOM     72  F   UNL     1      -7.842  11.393 -12.774  1.00  0.00    -0.205 F 
ATOM     73  C   UNL     1     -11.459  11.954 -12.805  1.00  0.00     0.022 A 
BRANCH  71  74
ATOM     74  S   UNL     1     -10.135  10.294 -14.529  1.00  0.00     0.127 S 
ATOM     75  O   UNL     1     -10.784   9.119 -13.948  1.00  0.00    -0.237 OA
ATOM     76  O   UNL     1     -10.924  10.985 -15.550  1.00  0.00    -0.237 OA
ATOM     77  O   UNL     1      -8.726  10.129 -14.856  1.00  0.00    -0.744 OA
ENDBRANCH  71  74
ENDBRANCH  53  67
BRANCH  54  78
ATOM     78  C   UNL     1      -0.905  15.970  -6.797  1.00  0.00     0.023 A 
ATOM     79  C   UNL     1      -0.614  17.335  -6.613  1.00  0.00     0.012 A 
ATOM     80  C   UNL     1       0.017  15.005  -6.348  1.00  0.00     0.148 A 
ATOM     81  C   UNL     1       0.588  17.733  -6.027  1.00  0.00     0.002 A 
ATOM     82  C   UNL     1       1.185  15.407  -5.712  1.00  0.00     0.091 A 
ATOM     83  F   UNL     1      -0.273  13.710  -6.544  1.00  0.00    -0.205 F 
ATOM     84  C   UNL     1       1.482  16.770  -5.568  1.00  0.00     0.022 A 
BRANCH  82  85
ATOM     85  S   UNL     1       2.332  14.239  -4.975  1.00  0.00     0.127 S 
ATOM     86  O   UNL     1       3.500  14.381  -5.841  1.00  0.00    -0.237 OA
ATOM     87  O   UNL     1       2.491  14.788  -3.628  1.00  0.00    -0.237 OA
ATOM     88  O   UNL     1       1.661  12.947  -5.024  1.00  0.00    -0.744 OA
ENDBRANCH  82  85
ENDBRANCH  54  78
BRANCH  66  89
ATOM     89  C   UNL     1      -3.459  16.865 -13.246  1.00  0.00     0.023 A 
ATOM     90  C   UNL     1      -2.410  16.335 -14.021  1.00  0.00     0.012 A 
ATOM     91  C   UNL     1      -4.127  18.027 -13.685  1.00  0.00     0.148 A 
ATOM     92  C   UNL     1      -2.021  16.961 -15.205  1.00  0.00     0.002 A 
ATOM     93  C   UNL     1      -3.769  18.614 -14.891  1.00  0.00     0.091 A 
ATOM     94  F   UNL     1      -5.114  18.520 -12.923  1.00  0.00    -0.205 F 
ATOM     95  C   UNL     1      -2.709  18.090 -15.647  1.00  0.00     0.022 A 
BRANCH  93  96
ATOM     96  S   UNL     1      -4.666  20.004 -15.592  1.00  0.00     0.127 S 
ATOM     97  O   UNL     1      -3.660  21.064 -15.539  1.00  0.00    -0.237 OA
ATOM     98  O   UNL     1      -4.975  19.523 -16.938  1.00  0.00    -0.237 OA
ATOM     99  O   UNL     1      -5.828  20.210 -14.738  1.00  0.00    -0.744 OA
ENDBRANCH  93  96
ENDBRANCH  66  89
ENDBRANCH  40  41
ENDBRANCH  33  35
ENDBRANCH  32  33
ENDBRANCH  31  32
ENDBRANCH  30  31
ENDBRANCH   1  30
TORSDOF 23
