REMARK SMILES COc1cccc(NC(=O)[C@@H]2[C@@H](C(=O)OCCOCCOC(=O)c3ccc(-c4c5nc(c(-c6cccc(S(=O)(=O)[O-])c6F)c6ccc([nH]6)c(-c6cccc(S(=O)(=O)[O-])c6F)c6nc(c(-c7cccc(S(=O)(=O)[O-])c7F)c7ccc4[nH]7)C=C6)C=C5)cc3)[C@H]3C=C[C@@H]2C3)c1
REMARK SMILES IDX 18 1 17 2 16 3 15 4 13 5 14 6 12 7 11 8 90 9 87 10 89 11
REMARK SMILES IDX 91 12 88 13 9 14 8 15 10 17 7 18 3 19 4 20 92 21 5 22 6 23
REMARK SMILES IDX 2 24 1 25 19 26 20 27 21 28 22 29 23 30 24 31 25 32 86 33
REMARK SMILES IDX 26 34 85 35 27 36 28 37 29 38 79 39 30 40 84 41 78 42 80 43
REMARK SMILES IDX 31 44 83 45 77 46 76 47 32 49 64 50 44 51 63 52 45 53 48 54
REMARK SMILES IDX 62 55 81 56 46 57 47 58 61 60 82 61 49 62 33 63 34 64 42 65
REMARK SMILES IDX 35 66 37 67 43 68 36 69 38 70 39 71 40 72 41 73 65 74 66 75
REMARK SMILES IDX 74 76 67 77 69 78 75 79 68 80 70 81 71 82 72 83 73 84 50 85
REMARK SMILES IDX 51 86 59 87 52 88 54 89 60 90 53 91 55 92 56 93 57 94 58 95
REMARK H PARENT 8 16 80 48 48 59
REMARK Flexibility Score: inf
ROOT
ATOM      1  O   UNL     1      -1.034   0.442   6.653  1.00  0.00    -0.374 OA
ENDROOT
BRANCH   1   2
ATOM      2  C   UNL     1      -0.778   1.632   7.371  1.00  0.00     0.202 C 
BRANCH   2   3
ATOM      3  C   UNL     1       0.318   1.624   8.434  1.00  0.00     0.261 C 
BRANCH   3   4
ATOM      4  O   UNL     1       1.604   1.179   7.967  1.00  0.00    -0.463 OA
BRANCH   4   5
ATOM      5  C   UNL     1       1.889  -0.124   8.243  1.00  0.00     0.310 C 
ATOM      6  O   UNL     1       1.093  -0.899   8.759  1.00  0.00    -0.252 OA
BRANCH   5   7
ATOM      7  C   UNL     1       3.305  -0.496   7.812  1.00  0.00     0.119 C 
ATOM      8  C   UNL     1       3.389  -1.769   6.867  1.00  0.00     0.100 C 
ATOM      9  C   UNL     1       4.242  -2.725   7.762  1.00  0.00     0.025 C 
ATOM     10  C   UNL     1       4.114  -0.921   9.080  1.00  0.00     0.027 C 
ATOM     11  C   UNL     1       3.432  -3.116   8.979  1.00  0.00    -0.027 C 
ATOM     12  C   UNL     1       5.223  -1.765   8.470  1.00  0.00     0.017 C 
ATOM     13  C   UNL     1       3.403  -2.051   9.794  1.00  0.00    -0.027 C 
BRANCH   8  14
ATOM     14  C   UNL     1       4.188  -1.528   5.572  1.00  0.00     0.228 C 
ATOM     15  N   UNL     1       3.727  -1.543   4.298  1.00  0.00    -0.326 N 
ATOM     16  H   UNL     1       4.442  -1.299   3.667  1.00  0.00     0.169 HD
ATOM     17  O   UNL     1       5.390  -1.228   5.635  1.00  0.00    -0.274 OA
BRANCH  15  18
ATOM     18  C   UNL     1       2.533  -1.804   3.615  1.00  0.00     0.044 A 
ATOM     19  C   UNL     1       1.118  -1.010   1.798  1.00  0.00     0.120 A 
ATOM     20  C   UNL     1       0.060  -1.766   2.287  1.00  0.00     0.046 A 
ATOM     21  C   UNL     1       2.369  -1.080   2.414  1.00  0.00     0.072 A 
ATOM     22  C   UNL     1       0.265  -2.608   3.385  1.00  0.00     0.006 A 
ATOM     23  C   UNL     1       1.494  -2.610   4.068  1.00  0.00     0.026 A 
BRANCH  19  24
ATOM     24  O   UNL     1       0.845   0.036   0.957  1.00  0.00    -0.497 OA
ATOM     25  C   UNL     1       1.124  -0.261  -0.402  1.00  0.00     0.278 C 
ENDBRANCH  19  24
ENDBRANCH  15  18
ENDBRANCH   8  14
ENDBRANCH   5   7
ENDBRANCH   4   5
ENDBRANCH   3   4
ENDBRANCH   2   3
ENDBRANCH   1   2
BRANCH   1  26
ATOM     26  C   UNL     1      -0.055  -0.125   5.801  1.00  0.00     0.202 C 
BRANCH  26  27
ATOM     27  C   UNL     1       0.980   0.715   5.043  1.00  0.00     0.261 C 
BRANCH  27  28
ATOM     28  O   UNL     1       0.730   2.091   4.913  1.00  0.00    -0.460 OA
BRANCH  28  29
ATOM     29  C   UNL     1      -0.259   2.392   4.046  1.00  0.00     0.338 C 
ATOM     30  O   UNL     1      -0.988   1.651   3.415  1.00  0.00    -0.246 OA
BRANCH  29  31
ATOM     31  C   UNL     1      -0.376   3.837   4.165  1.00  0.00     0.060 A 
ATOM     32  C   UNL     1      -1.512   4.341   4.796  1.00  0.00     0.016 A 
ATOM     33  C   UNL     1       0.705   4.644   3.796  1.00  0.00     0.016 A 
ATOM     34  C   UNL     1      -1.581   5.697   5.051  1.00  0.00     0.010 A 
ATOM     35  C   UNL     1       0.636   6.000   4.058  1.00  0.00     0.010 A 
ATOM     36  C   UNL     1      -0.517   6.524   4.664  1.00  0.00    -0.014 A 
BRANCH  36  37
ATOM     37  C   UNL     1      -0.667   7.977   4.785  1.00  0.00     0.031 A 
ATOM     38  C   UNL     1      -0.998   8.751   3.549  1.00  0.00     0.074 A 
ATOM     39  C   UNL     1      -0.500   8.557   5.984  1.00  0.00     0.049 A 
ATOM     40  N   UNL     1      -1.170  10.034   3.407  1.00  0.00    -0.248 NA
ATOM     41  C   UNL     1      -1.149   7.977   2.302  1.00  0.00     0.031 C 
ATOM     42  C   UNL     1      -0.162   7.853   7.223  1.00  0.00     0.029 A 
ATOM     43  N   UNL     1      -0.575   9.870   6.351  1.00  0.00    -0.354 N 
ATOM     44  C   UNL     1      -1.415  10.228   2.055  1.00  0.00     0.074 A 
ATOM     45  C   UNL     1      -1.358   8.935   1.413  1.00  0.00     0.031 C 
ATOM     46  C   UNL     1      -0.043   8.751   8.215  1.00  0.00     0.029 A 
ATOM     47  C   UNL     1      -0.266  10.086   7.672  1.00  0.00     0.049 A 
ATOM     48  H   UNL     1      -0.825  10.592   5.729  1.00  0.00     0.167 HD
ATOM     49  C   UNL     1      -1.675  11.389   1.417  1.00  0.00     0.034 A 
ATOM     50  C   UNL     1      -0.160  11.245   8.347  1.00  0.00     0.034 A 
ATOM     51  C   UNL     1      -1.734  12.655   2.091  1.00  0.00     0.049 A 
ATOM     52  C   UNL     1      -0.451  12.521   7.604  1.00  0.00     0.074 A 
ATOM     53  C   UNL     1      -2.040  13.896   1.567  1.00  0.00     0.029 A 
ATOM     54  N   UNL     1      -1.464  12.840   3.440  1.00  0.00    -0.354 N 
ATOM     55  N   UNL     1      -0.802  12.685   6.350  1.00  0.00    -0.248 NA
ATOM     56  C   UNL     1      -0.365  13.768   8.373  1.00  0.00     0.031 C 
ATOM     57  C   UNL     1      -1.915  14.838   2.592  1.00  0.00     0.029 A 
ATOM     58  C   UNL     1      -1.579  14.177   3.765  1.00  0.00     0.049 A 
ATOM     59  H   UNL     1      -1.226  12.123   4.071  1.00  0.00     0.167 HD
ATOM     60  C   UNL     1      -1.019  14.047   6.189  1.00  0.00     0.074 A 
ATOM     61  C   UNL     1      -0.777  14.659   7.481  1.00  0.00     0.031 C 
ATOM     62  C   UNL     1      -1.375  14.737   5.077  1.00  0.00     0.034 A 
BRANCH  49  63
ATOM     63  C   UNL     1      -1.912  11.340  -0.067  1.00  0.00     0.023 A 
ATOM     64  C   UNL     1      -3.097  10.770  -0.575  1.00  0.00     0.012 A 
ATOM     65  C   UNL     1      -0.977  11.901  -0.957  1.00  0.00     0.148 A 
ATOM     66  C   UNL     1      -3.336  10.738  -1.949  1.00  0.00     0.002 A 
ATOM     67  C   UNL     1      -1.244  11.910  -2.320  1.00  0.00     0.091 A 
ATOM     68  F   UNL     1       0.158  12.409  -0.455  1.00  0.00    -0.205 F 
ATOM     69  C   UNL     1      -2.417  11.319  -2.819  1.00  0.00     0.022 A 
BRANCH  67  70
ATOM     70  S   UNL     1      -0.162  12.700  -3.515  1.00  0.00     0.127 S 
ATOM     71  O   UNL     1       0.305  11.553  -4.294  1.00  0.00    -0.237 OA
ATOM     72  O   UNL     1      -1.087  13.583  -4.224  1.00  0.00    -0.237 OA
ATOM     73  O   UNL     1       0.865  13.383  -2.742  1.00  0.00    -0.744 OA
ENDBRANCH  67  70
ENDBRANCH  49  63
BRANCH  50  74
ATOM     74  C   UNL     1       0.203  11.246   9.790  1.00  0.00     0.023 A 
ATOM     75  C   UNL     1      -0.746  11.653  10.748  1.00  0.00     0.012 A 
ATOM     76  C   UNL     1       1.478  10.833  10.222  1.00  0.00     0.148 A 
ATOM     77  C   UNL     1      -0.418  11.690  12.104  1.00  0.00     0.002 A 
ATOM     78  C   UNL     1       1.780  10.818  11.579  1.00  0.00     0.091 A 
ATOM     79  F   UNL     1       2.372  10.456   9.296  1.00  0.00    -0.205 F 
ATOM     80  C   UNL     1       0.841  11.265  12.520  1.00  0.00     0.022 A 
BRANCH  78  81
ATOM     81  S   UNL     1       3.330  10.167  12.212  1.00  0.00     0.127 S 
ATOM     82  O   UNL     1       4.004  11.383  12.658  1.00  0.00    -0.237 OA
ATOM     83  O   UNL     1       2.870   9.286  13.287  1.00  0.00    -0.237 OA
ATOM     84  O   UNL     1       3.950   9.472  11.093  1.00  0.00    -0.744 OA
ENDBRANCH  78  81
ENDBRANCH  50  74
BRANCH  62  85
ATOM     85  C   UNL     1      -1.575  16.221   5.223  1.00  0.00     0.023 A 
ATOM     86  C   UNL     1      -0.465  17.068   5.404  1.00  0.00     0.012 A 
ATOM     87  C   UNL     1      -2.864  16.776   5.102  1.00  0.00     0.148 A 
ATOM     88  C   UNL     1      -0.640  18.447   5.501  1.00  0.00     0.002 A 
ATOM     89  C   UNL     1      -3.023  18.153   5.140  1.00  0.00     0.091 A 
ATOM     90  F   UNL     1      -3.905  15.946   4.945  1.00  0.00    -0.205 F 
ATOM     91  C   UNL     1      -1.916  18.990   5.356  1.00  0.00     0.022 A 
BRANCH  89  92
ATOM     92  S   UNL     1      -4.609  18.944   4.853  1.00  0.00     0.127 S 
ATOM     93  O   UNL     1      -4.932  19.453   6.184  1.00  0.00    -0.237 OA
ATOM     94  O   UNL     1      -4.266  19.974   3.871  1.00  0.00    -0.237 OA
ATOM     95  O   UNL     1      -5.495  17.902   4.352  1.00  0.00    -0.744 OA
ENDBRANCH  89  92
ENDBRANCH  62  85
ENDBRANCH  36  37
ENDBRANCH  29  31
ENDBRANCH  28  29
ENDBRANCH  27  28
ENDBRANCH  26  27
ENDBRANCH   1  26
TORSDOF 20
