REMARK SMILES O=C(CCC(=O)OCCOCCOC(=O)c1ccc(-c2c3nc(c(-c4cccc(S(=O)(=O)[O-])c4F)c4ccc([nH]4)c(-c4cccc(S(=O)(=O)[O-])c4F)c4nc(c(-c5cccc(S(=O)(=O)[O-])c5F)c5ccc2[nH]5)C=C4)C=C3)cc1)Nc1nncs1
REMARK SMILES IDX 10 1 9 2 8 3 7 4 5 5 6 6 4 7 3 8 2 9 1 10 79 11 80 13 81 14
REMARK SMILES IDX 84 15 82 16 83 17 11 18 12 19 13 20 14 21 15 22 16 23 17 24
REMARK SMILES IDX 78 25 18 26 77 27 19 28 20 29 21 30 71 31 22 32 76 33 70 34
REMARK SMILES IDX 72 35 23 36 75 37 69 38 68 39 24 41 56 42 36 43 55 44 37 45
REMARK SMILES IDX 40 46 54 47 73 48 38 49 39 50 53 52 74 53 41 54 25 55 26 56
REMARK SMILES IDX 34 57 27 58 29 59 35 60 28 61 30 62 31 63 32 64 33 65 57 66
REMARK SMILES IDX 58 67 66 68 59 69 61 70 67 71 60 72 62 73 63 74 64 75 65 76
REMARK SMILES IDX 42 77 43 78 51 79 44 80 46 81 52 82 45 83 47 84 48 85 49 86
REMARK SMILES IDX 50 87
REMARK H PARENT 79 12 72 40 40 51
REMARK Flexibility Score: inf
ROOT
ATOM      1  O   UNL     1       7.213   0.567   0.805  1.00  0.00    -0.374 OA
ENDROOT
BRANCH   1   2
ATOM      2  C   UNL     1       6.494   1.763   1.115  1.00  0.00     0.202 C 
BRANCH   2   3
ATOM      3  C   UNL     1       5.900   2.510  -0.085  1.00  0.00     0.261 C 
BRANCH   3   4
ATOM      4  O   UNL     1       4.699   1.853  -0.552  1.00  0.00    -0.463 OA
BRANCH   4   5
ATOM      5  C   UNL     1       4.716   1.366  -1.824  1.00  0.00     0.306 C 
ATOM      6  O   UNL     1       5.650   1.471  -2.606  1.00  0.00    -0.252 OA
BRANCH   5   7
ATOM      7  C   UNL     1       3.407   0.690  -2.174  1.00  0.00     0.132 C 
BRANCH   7   8
ATOM      8  C   UNL     1       2.942  -0.374  -1.184  1.00  0.00     0.112 C 
BRANCH   8   9
ATOM      9  C   UNL     1       1.916   0.107  -0.171  1.00  0.00     0.226 C 
ATOM     10  O   UNL     1       0.831  -0.459  -0.093  1.00  0.00    -0.275 OA
ATOM     11  N   UNL     1       2.351   1.153   0.601  1.00  0.00    -0.301 N 
ATOM     12  H   UNL     1       3.243   1.531   0.426  1.00  0.00     0.172 HD
BRANCH  11  13
ATOM     13  C   UNL     1       1.593   1.689   1.603  1.00  0.00     0.212 A 
ATOM     14  N   UNL     1       0.503   1.246   2.174  1.00  0.00    -0.120 NA
ATOM     15  S   UNL     1       2.170   3.186   2.188  1.00  0.00    -0.083 S 
ATOM     16  N   UNL     1       0.045   2.124   3.141  1.00  0.00    -0.145 NA
ATOM     17  C   UNL     1       0.795   3.204   3.221  1.00  0.00     0.204 A 
ENDBRANCH  11  13
ENDBRANCH   8   9
ENDBRANCH   7   8
ENDBRANCH   5   7
ENDBRANCH   4   5
ENDBRANCH   3   4
ENDBRANCH   2   3
ENDBRANCH   1   2
BRANCH   1  18
ATOM     18  C   UNL     1       6.443  -0.583   0.470  1.00  0.00     0.202 C 
BRANCH  18  19
ATOM     19  C   UNL     1       5.875  -1.394   1.643  1.00  0.00     0.261 C 
BRANCH  19  20
ATOM     20  O   UNL     1       5.041  -0.608   2.510  1.00  0.00    -0.460 OA
BRANCH  20  21
ATOM     21  C   UNL     1       5.636  -0.260   3.678  1.00  0.00     0.338 C 
ATOM     22  O   UNL     1       6.754  -0.590   4.057  1.00  0.00    -0.246 OA
BRANCH  21  23
ATOM     23  C   UNL     1       4.834   0.747   4.396  1.00  0.00     0.060 A 
ATOM     24  C   UNL     1       5.503   1.897   4.832  1.00  0.00     0.016 A 
ATOM     25  C   UNL     1       3.487   0.555   4.705  1.00  0.00     0.016 A 
ATOM     26  C   UNL     1       4.845   2.829   5.632  1.00  0.00     0.010 A 
ATOM     27  C   UNL     1       2.826   1.499   5.503  1.00  0.00     0.010 A 
ATOM     28  C   UNL     1       3.510   2.623   6.006  1.00  0.00    -0.014 A 
BRANCH  28  29
ATOM     29  C   UNL     1       2.886   3.534   7.003  1.00  0.00     0.031 A 
ATOM     30  C   UNL     1       2.630   3.044   8.405  1.00  0.00     0.074 A 
ATOM     31  C   UNL     1       2.583   4.806   6.681  1.00  0.00     0.049 A 
ATOM     32  N   UNL     1       2.211   3.714   9.449  1.00  0.00    -0.248 NA
ATOM     33  C   UNL     1       2.891   1.621   8.673  1.00  0.00     0.031 C 
ATOM     34  C   UNL     1       2.789   5.423   5.371  1.00  0.00     0.029 A 
ATOM     35  N   UNL     1       2.024   5.809   7.434  1.00  0.00    -0.354 N 
ATOM     36  C   UNL     1       2.148   2.797  10.491  1.00  0.00     0.074 A 
ATOM     37  C   UNL     1       2.535   1.514   9.945  1.00  0.00     0.031 C 
ATOM     38  C   UNL     1       2.322   6.682   5.399  1.00  0.00     0.029 A 
ATOM     39  C   UNL     1       1.804   6.971   6.733  1.00  0.00     0.049 A 
ATOM     40  H   UNL     1       1.800   5.705   8.387  1.00  0.00     0.167 HD
ATOM     41  C   UNL     1       1.829   3.002  11.792  1.00  0.00     0.034 A 
ATOM     42  C   UNL     1       1.263   8.142   7.122  1.00  0.00     0.034 A 
ATOM     43  C   UNL     1       1.458   4.279  12.344  1.00  0.00     0.049 A 
ATOM     44  C   UNL     1       0.885   8.338   8.565  1.00  0.00     0.074 A 
ATOM     45  C   UNL     1       1.202   4.605  13.664  1.00  0.00     0.029 A 
ATOM     46  N   UNL     1       1.261   5.434  11.604  1.00  0.00    -0.354 N 
ATOM     47  N   UNL     1       1.004   7.507   9.571  1.00  0.00    -0.248 NA
ATOM     48  C   UNL     1       0.358   9.659   8.937  1.00  0.00     0.031 C 
ATOM     49  C   UNL     1       0.807   5.947  13.716  1.00  0.00     0.029 A 
ATOM     50  C   UNL     1       0.861   6.468  12.434  1.00  0.00     0.049 A 
ATOM     51  H   UNL     1       1.387   5.509  10.631  1.00  0.00     0.167 HD
ATOM     52  C   UNL     1       0.622   8.220  10.703  1.00  0.00     0.074 A 
ATOM     53  C   UNL     1       0.280   9.556  10.256  1.00  0.00     0.031 C 
ATOM     54  C   UNL     1       0.559   7.807  11.994  1.00  0.00     0.034 A 
BRANCH  41  55
ATOM     55  C   UNL     1       1.895   1.816  12.720  1.00  0.00     0.023 A 
ATOM     56  C   UNL     1       3.146   1.264  13.067  1.00  0.00     0.012 A 
ATOM     57  C   UNL     1       0.723   1.275  13.284  1.00  0.00     0.148 A 
ATOM     58  C   UNL     1       3.227   0.166  13.924  1.00  0.00     0.002 A 
ATOM     59  C   UNL     1       0.815   0.213  14.176  1.00  0.00     0.091 A 
ATOM     60  F   UNL     1      -0.458   1.799  12.928  1.00  0.00    -0.205 F 
ATOM     61  C   UNL     1       2.063  -0.352  14.485  1.00  0.00     0.022 A 
BRANCH  59  62
ATOM     62  S   UNL     1      -0.618  -0.469  15.017  1.00  0.00     0.127 S 
ATOM     63  O   UNL     1      -0.766  -1.760  14.347  1.00  0.00    -0.237 OA
ATOM     64  O   UNL     1      -0.152  -0.551  16.401  1.00  0.00    -0.237 OA
ATOM     65  O   UNL     1      -1.701   0.479  14.797  1.00  0.00    -0.744 OA
ENDBRANCH  59  62
ENDBRANCH  41  55
BRANCH  42  66
ATOM     66  C   UNL     1       1.127   9.259   6.144  1.00  0.00     0.023 A 
ATOM     67  C   UNL     1       1.948  10.396   6.267  1.00  0.00     0.012 A 
ATOM     68  C   UNL     1       0.197   9.192   5.090  1.00  0.00     0.148 A 
ATOM     69  C   UNL     1       1.821  11.464   5.379  1.00  0.00     0.002 A 
ATOM     70  C   UNL     1       0.111  10.237   4.178  1.00  0.00     0.091 A 
ATOM     71  F   UNL     1      -0.575   8.100   4.994  1.00  0.00    -0.205 F 
ATOM     72  C   UNL     1       0.908  11.382   4.331  1.00  0.00     0.022 A 
BRANCH  70  73
ATOM     73  S   UNL     1      -0.944  10.169   2.726  1.00  0.00     0.127 S 
ATOM     74  O   UNL     1      -1.919  11.218   3.014  1.00  0.00    -0.237 OA
ATOM     75  O   UNL     1       0.004  10.481   1.656  1.00  0.00    -0.237 OA
ATOM     76  O   UNL     1      -1.470   8.811   2.687  1.00  0.00    -0.744 OA
ENDBRANCH  70  73
ENDBRANCH  42  66
BRANCH  54  77
ATOM     77  C   UNL     1       0.148   8.823  13.031  1.00  0.00     0.023 A 
ATOM     78  C   UNL     1      -1.173   9.312  13.060  1.00  0.00     0.012 A 
ATOM     79  C   UNL     1       1.069   9.274  13.999  1.00  0.00     0.148 A 
ATOM     80  C   UNL     1      -1.556  10.273  13.996  1.00  0.00     0.002 A 
ATOM     81  C   UNL     1       0.664  10.189  14.964  1.00  0.00     0.091 A 
ATOM     82  F   UNL     1       2.328   8.816  13.949  1.00  0.00    -0.205 F 
ATOM     83  C   UNL     1      -0.641  10.704  14.953  1.00  0.00     0.022 A 
BRANCH  81  84
ATOM     84  S   UNL     1       1.750  10.719  16.294  1.00  0.00     0.127 S 
ATOM     85  O   UNL     1       2.142  12.054  15.846  1.00  0.00    -0.237 OA
ATOM     86  O   UNL     1       0.856  10.704  17.453  1.00  0.00    -0.237 OA
ATOM     87  O   UNL     1       2.821   9.733  16.350  1.00  0.00    -0.744 OA
ENDBRANCH  81  84
ENDBRANCH  54  77
ENDBRANCH  28  29
ENDBRANCH  21  23
ENDBRANCH  20  21
ENDBRANCH  19  20
ENDBRANCH  18  19
ENDBRANCH   1  18
TORSDOF 20
