REMARK SMILES CC[C@H](C)[C@H](NC(=O)[C@@H](C)Oc1ccc2c(C)c(C)c(=O)oc2c1C)C(=O)OCCOCCOC(=O)c1ccc(-c2c3nc(c(-c4cccc(S(=O)(=O)[O-])c4F)c4ccc([nH]4)c(-c4cccc(S(=O)(=O)[O-])c4F)c4nc(c(-c5cccc(S(=O)(=O)[O-])c5F)c5ccc2[nH]5)C=C4)C=C3)cc1
REMARK SMILES IDX 30 1 29 2 28 3 26 4 27 5 5 6 3 7 4 8 2 9 1 10 6 11 7 12 8 14
REMARK SMILES IDX 9 15 10 16 11 17 12 18 13 19 24 20 14 21 23 22 25 23 15 24
REMARK SMILES IDX 22 25 16 26 20 27 17 28 18 29 21 30 19 31 31 32 32 33 33 34
REMARK SMILES IDX 34 35 35 36 36 37 37 38 38 39 99 40 39 41 98 42 40 43 41 44
REMARK SMILES IDX 42 45 92 46 43 47 97 48 91 49 93 50 44 51 96 52 90 53 89 54
REMARK SMILES IDX 45 56 77 57 57 58 76 59 58 60 61 61 75 62 94 63 59 64 60 65
REMARK SMILES IDX 74 67 95 68 62 69 46 70 47 71 55 72 48 73 50 74 56 75 49 76
REMARK SMILES IDX 51 77 52 78 53 79 54 80 78 81 79 82 87 83 80 84 82 85 88 86
REMARK SMILES IDX 81 87 83 88 84 89 85 90 86 91 63 92 64 93 72 94 65 95 67 96
REMARK SMILES IDX 73 97 66 98 68 99 69 100 70 101 71 102
REMARK H PARENT 6 13 93 55 61 66
REMARK Flexibility Score: inf
ROOT
ATOM      1  C   UNL     1       1.902   2.006  -6.138  1.00  0.00     0.202 C 
ENDROOT
BRANCH   1   2
ATOM      2  C   UNL     1       2.403   0.816  -6.995  1.00  0.00     0.261 C 
BRANCH   2   3
ATOM      3  O   UNL     1       2.455  -0.359  -6.229  1.00  0.00    -0.462 OA
BRANCH   3   4
ATOM      4  C   UNL     1       3.458  -0.261  -5.339  1.00  0.00     0.328 C 
ATOM      5  O   UNL     1       4.528   0.315  -5.549  1.00  0.00    -0.250 OA
BRANCH   4   6
ATOM      6  C   UNL     1       3.076  -0.923  -4.042  1.00  0.00     0.195 C 
BRANCH   6   7
ATOM      7  C   UNL     1       3.880  -2.249  -3.838  1.00  0.00     0.019 C 
ATOM      8  C   UNL     1       5.234  -2.274  -4.575  1.00  0.00     0.010 C 
BRANCH   7   9
ATOM      9  C   UNL     1       4.138  -2.461  -2.326  1.00  0.00     0.002 C 
ATOM     10  C   UNL     1       4.416  -3.914  -1.973  1.00  0.00     0.004 C 
ENDBRANCH   7   9
ENDBRANCH   6   7
BRANCH   6  11
ATOM     11  N   UNL     1       1.594  -1.157  -3.896  1.00  0.00    -0.339 N 
ATOM     12  C   UNL     1       0.513  -0.331  -3.711  1.00  0.00     0.261 C 
ATOM     13  H   UNL     1       1.348  -2.110  -3.943  1.00  0.00     0.164 HD
ATOM     14  O   UNL     1      -0.119  -0.670  -2.693  1.00  0.00    -0.271 OA
BRANCH  12  15
ATOM     15  C   UNL     1      -0.155   0.898  -4.779  1.00  0.00     0.258 C 
ATOM     16  C   UNL     1      -0.588   0.089  -6.043  1.00  0.00     0.064 C 
BRANCH  15  17
ATOM     17  O   UNL     1      -0.543   2.552  -4.872  1.00  0.00    -0.480 OA
BRANCH  17  18
ATOM     18  C   UNL     1      -0.100   3.851  -4.307  1.00  0.00     0.127 A 
ATOM     19  C   UNL     1       0.865   4.535  -5.073  1.00  0.00     0.047 A 
ATOM     20  C   UNL     1      -0.487   4.642  -3.127  1.00  0.00     0.035 A 
ATOM     21  C   UNL     1       1.754   5.527  -4.543  1.00  0.00     0.016 A 
ATOM     22  C   UNL     1       0.439   5.660  -2.647  1.00  0.00     0.145 A 
ATOM     23  C   UNL     1      -1.624   4.619  -2.080  1.00  0.00     0.052 C 
ATOM     24  C   UNL     1       1.615   6.031  -3.256  1.00  0.00     0.021 A 
ATOM     25  O   UNL     1       0.117   6.281  -1.396  1.00  0.00    -0.422 OA
ATOM     26  C   UNL     1       2.579   6.878  -2.505  1.00  0.00    -0.030 A 
ATOM     27  C   UNL     1       0.910   7.172  -0.711  1.00  0.00     0.339 A 
ATOM     28  C   UNL     1       3.968   7.008  -3.067  1.00  0.00     0.045 C 
ATOM     29  C   UNL     1       2.242   7.418  -1.308  1.00  0.00     0.038 A 
ATOM     30  O   UNL     1       0.545   7.678   0.344  1.00  0.00    -0.246 OA
ATOM     31  C   UNL     1       3.150   8.267  -0.452  1.00  0.00     0.052 C 
ENDBRANCH  17  18
ENDBRANCH  15  17
ENDBRANCH  12  15
ENDBRANCH   6  11
ENDBRANCH   4   6
ENDBRANCH   3   4
ENDBRANCH   2   3
ENDBRANCH   1   2
BRANCH   1  32
ATOM     32  O   UNL     1       2.263   2.184  -4.737  1.00  0.00    -0.374 OA
BRANCH  32  33
ATOM     33  C   UNL     1       1.718   2.058  -3.364  1.00  0.00     0.202 C 
BRANCH  33  34
ATOM     34  C   UNL     1       0.241   2.100  -2.355  1.00  0.00     0.261 C 
BRANCH  34  35
ATOM     35  O   UNL     1      -1.285   1.640  -2.604  1.00  0.00    -0.460 OA
BRANCH  35  36
ATOM     36  C   UNL     1      -2.437   2.058  -3.292  1.00  0.00     0.338 C 
ATOM     37  O   UNL     1      -2.719   3.143  -3.799  1.00  0.00    -0.246 OA
BRANCH  36  38
ATOM     38  C   UNL     1      -3.299   1.012  -3.900  1.00  0.00     0.060 A 
ATOM     39  C   UNL     1      -3.457   1.112  -5.311  1.00  0.00     0.016 A 
ATOM     40  C   UNL     1      -3.962   0.020  -3.209  1.00  0.00     0.016 A 
ATOM     41  C   UNL     1      -4.168   0.172  -6.042  1.00  0.00     0.010 A 
ATOM     42  C   UNL     1      -4.760  -0.879  -3.939  1.00  0.00     0.010 A 
ATOM     43  C   UNL     1      -4.858  -0.816  -5.349  1.00  0.00    -0.014 A 
BRANCH  43  44
ATOM     44  C   UNL     1      -5.866  -1.625  -6.071  1.00  0.00     0.031 A 
ATOM     45  C   UNL     1      -7.237  -1.038  -6.243  1.00  0.00     0.074 A 
ATOM     46  C   UNL     1      -5.595  -2.854  -6.548  1.00  0.00     0.049 A 
ATOM     47  N   UNL     1      -8.332  -1.614  -6.660  1.00  0.00    -0.248 NA
ATOM     48  C   UNL     1      -7.394   0.386  -5.897  1.00  0.00     0.031 C 
ATOM     49  C   UNL     1      -4.289  -3.508  -6.538  1.00  0.00     0.029 A 
ATOM     50  N   UNL     1      -6.436  -3.787  -7.108  1.00  0.00    -0.354 N 
ATOM     51  C   UNL     1      -9.316  -0.639  -6.580  1.00  0.00     0.074 A 
ATOM     52  C   UNL     1      -8.689   0.572  -6.104  1.00  0.00     0.031 C 
ATOM     53  C   UNL     1      -4.427  -4.760  -7.011  1.00  0.00     0.029 A 
ATOM     54  C   UNL     1      -5.836  -5.005  -7.325  1.00  0.00     0.049 A 
ATOM     55  H   UNL     1      -7.377  -3.601  -7.332  1.00  0.00     0.167 HD
ATOM     56  C   UNL     1     -10.631  -0.743  -6.870  1.00  0.00     0.034 A 
ATOM     57  C   UNL     1      -6.369  -6.191  -7.691  1.00  0.00     0.034 A 
ATOM     58  C   UNL     1     -11.264  -1.936  -7.349  1.00  0.00     0.049 A 
ATOM     59  C   UNL     1      -7.853  -6.303  -7.944  1.00  0.00     0.074 A 
ATOM     60  C   UNL     1     -12.596  -2.123  -7.674  1.00  0.00     0.029 A 
ATOM     61  N   UNL     1     -10.620  -3.140  -7.567  1.00  0.00    -0.354 N 
ATOM     62  N   UNL     1      -8.770  -5.368  -7.896  1.00  0.00    -0.248 NA
ATOM     63  C   UNL     1      -8.374  -7.630  -8.314  1.00  0.00     0.031 C 
ATOM     64  C   UNL     1     -12.761  -3.450  -8.075  1.00  0.00     0.029 A 
ATOM     65  C   UNL     1     -11.527  -4.079  -8.021  1.00  0.00     0.049 A 
ATOM     66  H   UNL     1      -9.661  -3.304  -7.420  1.00  0.00     0.167 HD
ATOM     67  C   UNL     1      -9.966  -5.984  -8.255  1.00  0.00     0.074 A 
ATOM     68  C   UNL     1      -9.660  -7.372  -8.524  1.00  0.00     0.031 C 
ATOM     69  C   UNL     1     -11.207  -5.445  -8.341  1.00  0.00     0.034 A 
BRANCH  56  70
ATOM     70  C   UNL     1     -11.481   0.477  -6.686  1.00  0.00     0.023 A 
ATOM     71  C   UNL     1     -11.458   1.487  -7.667  1.00  0.00     0.012 A 
ATOM     72  C   UNL     1     -12.359   0.581  -5.592  1.00  0.00     0.148 A 
ATOM     73  C   UNL     1     -12.300   2.591  -7.559  1.00  0.00     0.002 A 
ATOM     74  C   UNL     1     -13.219   1.668  -5.508  1.00  0.00     0.091 A 
ATOM     75  F   UNL     1     -12.341  -0.387  -4.665  1.00  0.00    -0.205 F 
ATOM     76  C   UNL     1     -13.188   2.675  -6.488  1.00  0.00     0.022 A 
BRANCH  74  77
ATOM     77  S   UNL     1     -14.436   1.845  -4.201  1.00  0.00     0.127 S 
ATOM     78  O   UNL     1     -13.980   3.066  -3.537  1.00  0.00    -0.237 OA
ATOM     79  O   UNL     1     -15.678   1.989  -4.960  1.00  0.00    -0.237 OA
ATOM     80  O   UNL     1     -14.345   0.635  -3.395  1.00  0.00    -0.744 OA
ENDBRANCH  74  77
ENDBRANCH  56  70
BRANCH  57  81
ATOM     81  C   UNL     1      -5.485  -7.379  -7.852  1.00  0.00     0.023 A 
ATOM     82  C   UNL     1      -5.189  -7.844  -9.147  1.00  0.00     0.012 A 
ATOM     83  C   UNL     1      -4.917  -8.029  -6.739  1.00  0.00     0.148 A 
ATOM     84  C   UNL     1      -4.347  -8.942  -9.332  1.00  0.00     0.002 A 
ATOM     85  C   UNL     1      -4.048  -9.097  -6.931  1.00  0.00     0.091 A 
ATOM     86  F   UNL     1      -5.225  -7.575  -5.516  1.00  0.00    -0.205 F 
ATOM     87  C   UNL     1      -3.769  -9.561  -8.227  1.00  0.00     0.022 A 
BRANCH  85  88
ATOM     88  S   UNL     1      -3.185  -9.908  -5.581  1.00  0.00     0.127 S 
ATOM     89  O   UNL     1      -3.665 -11.283  -5.700  1.00  0.00    -0.237 OA
ATOM     90  O   UNL     1      -1.786  -9.709  -5.962  1.00  0.00    -0.237 OA
ATOM     91  O   UNL     1      -3.593  -9.210  -4.370  1.00  0.00    -0.744 OA
ENDBRANCH  85  88
ENDBRANCH  57  81
BRANCH  69  92
ATOM     92  C   UNL     1     -12.353  -6.321  -8.771  1.00  0.00     0.023 A 
ATOM     93  C   UNL     1     -12.953  -7.187  -7.837  1.00  0.00     0.012 A 
ATOM     94  C   UNL     1     -12.936  -6.160 -10.045  1.00  0.00     0.148 A 
ATOM     95  C   UNL     1     -14.117  -7.881  -8.165  1.00  0.00     0.002 A 
ATOM     96  C   UNL     1     -14.114  -6.830 -10.353  1.00  0.00     0.091 A 
ATOM     97  F   UNL     1     -12.345  -5.328 -10.915  1.00  0.00    -0.205 F 
ATOM     98  C   UNL     1     -14.704  -7.694  -9.415  1.00  0.00     0.022 A 
BRANCH  96  99
ATOM     99  S   UNL     1     -14.987  -6.597 -11.906  1.00  0.00     0.127 S 
ATOM    100  O   UNL     1     -14.871  -7.922 -12.514  1.00  0.00    -0.237 OA
ATOM    101  O   UNL     1     -16.333  -6.248 -11.455  1.00  0.00    -0.237 OA
ATOM    102  O   UNL     1     -14.284  -5.533 -12.611  1.00  0.00    -0.744 OA
ENDBRANCH  96  99
ENDBRANCH  69  92
ENDBRANCH  43  44
ENDBRANCH  36  38
ENDBRANCH  35  36
ENDBRANCH  34  35
ENDBRANCH  33  34
ENDBRANCH  32  33
ENDBRANCH   1  32
TORSDOF 23
