REMARK SMILES COc1cccc2c(C)cc(S[C@H](C)C(=O)Nc3ccc(C(=O)OCCOCCOC(=O)c4ccc(-c5c6nc(c(-c7cccc(S(=O)(=O)[O-])c7F)c7ccc([nH]7)c(-c7cccc(S(=O)(=O)[O-])c7F)c7nc(c(-c8cccc(S(=O)(=O)[O-])c8F)c8ccc5[nH]8)C=C7)C=C6)cc4)cc3)nc12
REMARK SMILES IDX 26 1 25 2 24 3 22 4 23 5 21 6 18 7 19 8 97 9 20 10 96 11
REMARK SMILES IDX 17 12 15 13 16 14 13 16 14 17 12 18 11 19 3 20 4 21 99 22
REMARK SMILES IDX 5 23 7 24 98 25 6 26 8 27 9 28 10 29 2 30 1 31 27 32 28 33
REMARK SMILES IDX 29 34 30 35 31 36 32 37 33 38 34 39 95 40 35 41 94 42 36 43
REMARK SMILES IDX 37 44 38 45 88 46 39 47 93 48 87 49 89 50 40 51 92 52 86 53
REMARK SMILES IDX 85 54 41 56 73 57 53 58 72 59 54 60 57 61 71 62 90 63 55 64
REMARK SMILES IDX 56 65 70 67 91 68 58 69 42 70 43 71 51 72 44 73 46 74 52 75
REMARK SMILES IDX 45 76 47 77 48 78 49 79 50 80 74 81 75 82 83 83 76 84 78 85
REMARK SMILES IDX 84 86 77 87 79 88 80 89 81 90 82 91 59 92 60 93 68 94 61 95
REMARK SMILES IDX 63 96 69 97 62 98 64 99 65 100 66 101 67 102
REMARK H PARENT 17 15 89 55 57 66
REMARK Flexibility Score: inf
ROOT
ATOM      1  C   UNL     1       1.536   6.939  -1.766  1.00  0.00     0.202 C 
ENDROOT
BRANCH   1   2
ATOM      2  C   UNL     1       2.868   6.403  -2.297  1.00  0.00     0.261 C 
BRANCH   2   3
ATOM      3  O   UNL     1       3.355   5.334  -1.476  1.00  0.00    -0.460 OA
BRANCH   3   4
ATOM      4  C   UNL     1       4.410   5.649  -0.692  1.00  0.00     0.338 C 
ATOM      5  O   UNL     1       5.055   6.690  -0.716  1.00  0.00    -0.246 OA
BRANCH   4   6
ATOM      6  C   UNL     1       4.622   4.602   0.335  1.00  0.00     0.060 A 
ATOM      7  C   UNL     1       5.326   2.664   2.205  1.00  0.00     0.041 A 
ATOM      8  C   UNL     1       5.691   3.992   2.422  1.00  0.00     0.027 A 
ATOM      9  C   UNL     1       4.454   2.342   1.167  1.00  0.00     0.027 A 
ATOM     10  C   UNL     1       5.360   4.955   1.472  1.00  0.00     0.018 A 
ATOM     11  C   UNL     1       4.112   3.305   0.216  1.00  0.00     0.018 A 
BRANCH   7  12
ATOM     12  N   UNL     1       5.933   1.696   3.009  1.00  0.00    -0.325 N 
ATOM     13  C   UNL     1       6.768   0.680   2.618  1.00  0.00     0.237 C 
ATOM     14  O   UNL     1       7.357   0.074   3.526  1.00  0.00    -0.273 OA
ATOM     15  H   UNL     1       5.738   1.749   3.973  1.00  0.00     0.169 HD
BRANCH  13  16
ATOM     16  C   UNL     1       7.045   0.285   1.159  1.00  0.00     0.139 C 
ATOM     17  C   UNL     1       5.876  -0.417   0.475  1.00  0.00     0.030 C 
BRANCH  16  18
ATOM     18  S   UNL     1       7.696   1.678   0.152  1.00  0.00    -0.093 SA
BRANCH  18  19
ATOM     19  C   UNL     1       9.402   1.876   0.611  1.00  0.00     0.098 A 
ATOM     20  C   UNL     1      11.910   4.382  -0.316  1.00  0.00     0.145 A 
ATOM     21  C   UNL     1      13.299   4.566  -0.265  1.00  0.00     0.049 A 
ATOM     22  C   UNL     1      11.293   3.238   0.237  1.00  0.00     0.114 A 
ATOM     23  C   UNL     1      14.107   3.642   0.375  1.00  0.00     0.005 A 
ATOM     24  C   UNL     1      12.127   2.300   0.894  1.00  0.00     0.007 A 
ATOM     25  N   UNL     1       9.963   3.007   0.122  1.00  0.00    -0.238 NA
ATOM     26  C   UNL     1      13.522   2.524   0.957  1.00  0.00     0.011 A 
ATOM     27  C   UNL     1      11.527   1.147   1.450  1.00  0.00    -0.039 A 
ATOM     28  C   UNL     1      12.325   0.079   2.150  1.00  0.00     0.045 C 
ATOM     29  C   UNL     1      10.150   0.949   1.304  1.00  0.00     0.039 A 
BRANCH  20  30
ATOM     30  O   UNL     1      11.284   5.399  -1.007  1.00  0.00    -0.494 OA
ATOM     31  C   UNL     1       9.966   5.729  -0.584  1.00  0.00     0.278 C 
ENDBRANCH  20  30
ENDBRANCH  18  19
ENDBRANCH  16  18
ENDBRANCH  13  16
ENDBRANCH   7  12
ENDBRANCH   4   6
ENDBRANCH   3   4
ENDBRANCH   2   3
ENDBRANCH   1   2
BRANCH   1  32
ATOM     32  O   UNL     1       1.553   7.507  -0.456  1.00  0.00    -0.374 OA
BRANCH  32  33
ATOM     33  C   UNL     1       1.488   6.603   0.650  1.00  0.00     0.202 C 
BRANCH  33  34
ATOM     34  C   UNL     1       0.113   6.015   0.986  1.00  0.00     0.261 C 
BRANCH  34  35
ATOM     35  O   UNL     1      -0.334   5.079  -0.010  1.00  0.00    -0.460 OA
BRANCH  35  36
ATOM     36  C   UNL     1      -1.344   5.516  -0.796  1.00  0.00     0.338 C 
ATOM     37  O   UNL     1      -1.936   6.587  -0.712  1.00  0.00    -0.246 OA
BRANCH  36  38
ATOM     38  C   UNL     1      -1.533   4.588  -1.922  1.00  0.00     0.060 A 
ATOM     39  C   UNL     1      -1.509   5.115  -3.222  1.00  0.00     0.016 A 
ATOM     40  C   UNL     1      -1.796   3.235  -1.707  1.00  0.00     0.016 A 
ATOM     41  C   UNL     1      -1.795   4.298  -4.313  1.00  0.00     0.010 A 
ATOM     42  C   UNL     1      -2.095   2.420  -2.801  1.00  0.00     0.010 A 
ATOM     43  C   UNL     1      -2.131   2.955  -4.102  1.00  0.00    -0.014 A 
BRANCH  43  44
ATOM     44  C   UNL     1      -2.678   2.131  -5.204  1.00  0.00     0.031 A 
ATOM     45  C   UNL     1      -4.163   1.911  -5.261  1.00  0.00     0.074 A 
ATOM     46  C   UNL     1      -1.863   1.541  -6.095  1.00  0.00     0.049 A 
ATOM     47  N   UNL     1      -4.852   1.101  -6.020  1.00  0.00    -0.248 NA
ATOM     48  C   UNL     1      -4.981   2.703  -4.326  1.00  0.00     0.031 C 
ATOM     49  C   UNL     1      -0.412   1.702  -6.149  1.00  0.00     0.029 A 
ATOM     50  N   UNL     1      -2.143   0.649  -7.100  1.00  0.00    -0.354 N 
ATOM     51  C   UNL     1      -6.176   1.249  -5.625  1.00  0.00     0.074 A 
ATOM     52  C   UNL     1      -6.196   2.229  -4.561  1.00  0.00     0.031 C 
ATOM     53  C   UNL     1       0.079   0.896  -7.106  1.00  0.00     0.029 A 
ATOM     54  C   UNL     1      -1.018   0.138  -7.704  1.00  0.00     0.049 A 
ATOM     55  H   UNL     1      -3.059   0.399  -7.362  1.00  0.00     0.167 HD
ATOM     56  C   UNL     1      -7.276   0.627  -6.109  1.00  0.00     0.034 A 
ATOM     57  C   UNL     1      -0.890  -0.857  -8.604  1.00  0.00     0.034 A 
ATOM     58  C   UNL     1      -7.248  -0.329  -7.181  1.00  0.00     0.049 A 
ATOM     59  C   UNL     1      -2.127  -1.555  -9.110  1.00  0.00     0.074 A 
ATOM     60  C   UNL     1      -8.310  -0.987  -7.774  1.00  0.00     0.029 A 
ATOM     61  N   UNL     1      -6.097  -0.770  -7.815  1.00  0.00    -0.354 N 
ATOM     62  N   UNL     1      -3.382  -1.341  -8.794  1.00  0.00    -0.248 NA
ATOM     63  C   UNL     1      -1.935  -2.612 -10.114  1.00  0.00     0.031 C 
ATOM     64  C   UNL     1      -7.798  -1.845  -8.751  1.00  0.00     0.029 A 
ATOM     65  C   UNL     1      -6.421  -1.696  -8.789  1.00  0.00     0.049 A 
ATOM     66  H   UNL     1      -5.184  -0.468  -7.603  1.00  0.00     0.167 HD
ATOM     67  C   UNL     1      -4.130  -2.198  -9.595  1.00  0.00     0.074 A 
ATOM     68  C   UNL     1      -3.188  -2.934 -10.412  1.00  0.00     0.031 C 
ATOM     69  C   UNL     1      -5.474  -2.364  -9.645  1.00  0.00     0.034 A 
BRANCH  56  70
ATOM     70  C   UNL     1      -8.605   0.972  -5.494  1.00  0.00     0.023 A 
ATOM     71  C   UNL     1      -9.197   2.223  -5.762  1.00  0.00     0.012 A 
ATOM     72  C   UNL     1      -9.293   0.038  -4.695  1.00  0.00     0.148 A 
ATOM     73  C   UNL     1     -10.439   2.550  -5.220  1.00  0.00     0.002 A 
ATOM     74  C   UNL     1     -10.551   0.354  -4.195  1.00  0.00     0.091 A 
ATOM     75  F   UNL     1      -8.702  -1.136  -4.431  1.00  0.00    -0.205 F 
ATOM     76  C   UNL     1     -11.120   1.613  -4.447  1.00  0.00     0.022 A 
BRANCH  74  77
ATOM     77  S   UNL     1     -11.538  -0.815  -3.254  1.00  0.00     0.127 S 
ATOM     78  O   UNL     1     -11.464  -0.248  -1.909  1.00  0.00    -0.237 OA
ATOM     79  O   UNL     1     -12.849  -0.697  -3.894  1.00  0.00    -0.237 OA
ATOM     80  O   UNL     1     -10.895  -2.111  -3.424  1.00  0.00    -0.744 OA
ENDBRANCH  74  77
ENDBRANCH  56  70
BRANCH  57  81
ATOM     81  C   UNL     1       0.461  -1.239  -9.104  1.00  0.00     0.023 A 
ATOM     82  C   UNL     1       0.811  -0.954 -10.438  1.00  0.00     0.012 A 
ATOM     83  C   UNL     1       1.405  -1.859  -8.263  1.00  0.00     0.148 A 
ATOM     84  C   UNL     1       2.067  -1.306 -10.933  1.00  0.00     0.002 A 
ATOM     85  C   UNL     1       2.673  -2.159  -8.747  1.00  0.00     0.091 A 
ATOM     86  F   UNL     1       1.047  -2.136  -7.001  1.00  0.00    -0.205 F 
ATOM     87  C   UNL     1       3.001  -1.898 -10.087  1.00  0.00     0.022 A 
BRANCH  85  88
ATOM     88  S   UNL     1       3.978  -2.809  -7.697  1.00  0.00     0.127 S 
ATOM     89  O   UNL     1       4.106  -4.177  -8.190  1.00  0.00    -0.237 OA
ATOM     90  O   UNL     1       5.098  -1.927  -8.026  1.00  0.00    -0.237 OA
ATOM     91  O   UNL     1       3.488  -2.672  -6.331  1.00  0.00    -0.744 OA
ENDBRANCH  85  88
ENDBRANCH  57  81
BRANCH  69  92
ATOM     92  C   UNL     1      -6.036  -3.324 -10.660  1.00  0.00     0.023 A 
ATOM     93  C   UNL     1      -5.947  -4.712 -10.444  1.00  0.00     0.012 A 
ATOM     94  C   UNL     1      -6.766  -2.837 -11.764  1.00  0.00     0.148 A 
ATOM     95  C   UNL     1      -6.565  -5.603 -11.322  1.00  0.00     0.002 A 
ATOM     96  C   UNL     1      -7.419  -3.728 -12.605  1.00  0.00     0.091 A 
ATOM     97  F   UNL     1      -6.822  -1.511 -11.956  1.00  0.00    -0.205 F 
ATOM     98  C   UNL     1      -7.312  -5.112 -12.391  1.00  0.00     0.022 A 
BRANCH  96  99
ATOM     99  S   UNL     1      -8.487  -3.186 -13.944  1.00  0.00     0.127 S 
ATOM    100  O   UNL     1      -7.723  -3.599 -15.120  1.00  0.00    -0.237 OA
ATOM    101  O   UNL     1      -9.703  -3.962 -13.702  1.00  0.00    -0.237 OA
ATOM    102  O   UNL     1      -8.643  -1.747 -13.779  1.00  0.00    -0.744 OA
ENDBRANCH  96  99
ENDBRANCH  69  92
ENDBRANCH  43  44
ENDBRANCH  36  38
ENDBRANCH  35  36
ENDBRANCH  34  35
ENDBRANCH  33  34
ENDBRANCH  32  33
ENDBRANCH   1  32
TORSDOF 22
