REMARK SMILES CC(C)N(c1cc2c(cc1Cl)C=C(C(=O)OCCOCCOC(=O)c1ccc(-c3c4nc(c(-c5cccc(S(=O)(=O)[O-])c5F)c5ccc([nH]5)c(-c5cccc(S(=O)(=O)[O-])c5F)c5nc(c(-c6cccc(S(=O)(=O)[O-])c6F)c6ccc3[nH]6)C=C5)C=C4)cc1)[C@@H](C(F)(F)F)O2)C(C)C
REMARK SMILES IDX 20 1 19 2 18 3 17 4 16 5 14 6 15 7 13 8 5 9 6 10 10 11 7 12
REMARK SMILES IDX 9 13 11 14 8 15 93 16 12 17 88 18 4 19 2 20 1 21 3 22 94 23
REMARK SMILES IDX 95 24 96 25 89 26 90 27 91 28 92 29 21 30 22 31 23 32 24 33
REMARK SMILES IDX 25 34 26 35 87 36 27 37 86 38 28 39 29 40 30 41 80 42 31 43
REMARK SMILES IDX 85 44 79 45 81 46 32 47 84 48 78 49 77 50 33 52 65 53 45 54
REMARK SMILES IDX 64 55 46 56 49 57 63 58 82 59 47 60 48 61 62 63 83 64 50 65
REMARK SMILES IDX 34 66 35 67 43 68 36 69 38 70 44 71 37 72 39 73 40 74 41 75
REMARK SMILES IDX 42 76 66 77 67 78 75 79 68 80 70 81 76 82 69 83 71 84 72 85
REMARK SMILES IDX 73 86 74 87 51 88 52 89 60 90 53 91 55 92 61 93 54 94 56 95
REMARK SMILES IDX 57 96 58 97 59 98
REMARK H PARENT 81 51 49 62
REMARK Flexibility Score: inf
ROOT
ATOM      1  C   UNL     1      -3.933  -7.371   5.129  1.00  0.00     0.202 C 
ENDROOT
BRANCH   1   2
ATOM      2  O   UNL     1      -4.986  -7.773   6.002  1.00  0.00    -0.374 OA
BRANCH   2   3
ATOM      3  C   UNL     1      -6.294  -7.936   5.458  1.00  0.00     0.202 C 
BRANCH   3   4
ATOM      4  C   UNL     1      -7.095  -6.670   5.138  1.00  0.00     0.261 C 
BRANCH   4   5
ATOM      5  O   UNL     1      -6.388  -5.787   4.255  1.00  0.00    -0.460 OA
BRANCH   5   6
ATOM      6  C   UNL     1      -5.956  -4.645   4.839  1.00  0.00     0.338 C 
ATOM      7  O   UNL     1      -6.182  -4.275   5.980  1.00  0.00    -0.246 OA
BRANCH   6   8
ATOM      8  C   UNL     1      -5.028  -3.935   3.939  1.00  0.00     0.087 C 
ATOM      9  C   UNL     1      -1.568  -0.665   2.266  1.00  0.00     0.060 A 
ATOM     10  C   UNL     1      -2.570  -1.461   1.661  1.00  0.00     0.074 A 
ATOM     11  C   UNL     1      -1.337  -0.883   3.645  1.00  0.00     0.065 A 
ATOM     12  C   UNL     1      -3.342  -2.373   2.392  1.00  0.00     0.130 A 
ATOM     13  C   UNL     1      -2.080  -1.826   4.366  1.00  0.00     0.034 A 
ATOM     14  Cl  UNL     1      -0.233   0.056   4.596  1.00  0.00    -0.082 Cl
ATOM     15  C   UNL     1      -3.101  -2.544   3.749  1.00  0.00     0.019 A 
ATOM     16  O   UNL     1      -4.316  -3.050   1.712  1.00  0.00    -0.475 OA
ATOM     17  C   UNL     1      -3.962  -3.396   4.541  1.00  0.00     0.027 C 
ATOM     18  C   UNL     1      -5.318  -3.799   2.469  1.00  0.00     0.316 C 
BRANCH   9  19
ATOM     19  N   UNL     1      -0.897   0.307   1.493  1.00  0.00    -0.365 N 
BRANCH  19  20
ATOM     20  C   UNL     1       0.583   0.264   1.472  1.00  0.00     0.076 C 
ATOM     21  C   UNL     1       1.145  -0.169   0.120  1.00  0.00     0.030 C 
ATOM     22  C   UNL     1       1.241   1.563   1.935  1.00  0.00     0.030 C 
ENDBRANCH  19  20
BRANCH  19  23
ATOM     23  C   UNL     1      -1.755   1.238   0.722  1.00  0.00     0.076 C 
ATOM     24  C   UNL     1      -1.587   2.695   1.148  1.00  0.00     0.030 C 
ATOM     25  C   UNL     1      -1.612   1.085  -0.789  1.00  0.00     0.030 C 
ENDBRANCH  19  23
ENDBRANCH   9  19
BRANCH  18  26
ATOM     26  C   UNL     1      -6.702  -3.184   2.204  1.00  0.00     0.430 C 
ATOM     27  F   UNL     1      -6.917  -3.012   0.878  1.00  0.00    -0.167 F 
ATOM     28  F   UNL     1      -7.698  -3.976   2.662  1.00  0.00    -0.167 F 
ATOM     29  F   UNL     1      -6.837  -1.976   2.798  1.00  0.00    -0.167 F 
ENDBRANCH  18  26
ENDBRANCH   6   8
ENDBRANCH   5   6
ENDBRANCH   4   5
ENDBRANCH   3   4
ENDBRANCH   2   3
ENDBRANCH   1   2
BRANCH   1  30
ATOM     30  C   UNL     1      -3.427  -8.370   4.079  1.00  0.00     0.261 C 
BRANCH  30  31
ATOM     31  O   UNL     1      -4.413  -8.684   3.083  1.00  0.00    -0.460 OA
BRANCH  31  32
ATOM     32  C   UNL     1      -4.914  -9.944   3.149  1.00  0.00     0.338 C 
ATOM     33  O   UNL     1      -4.601 -10.820   3.939  1.00  0.00    -0.246 OA
BRANCH  32  34
ATOM     34  C   UNL     1      -6.066 -10.046   2.233  1.00  0.00     0.060 A 
ATOM     35  C   UNL     1      -5.928  -9.754   0.876  1.00  0.00     0.016 A 
ATOM     36  C   UNL     1      -7.299 -10.463   2.752  1.00  0.00     0.016 A 
ATOM     37  C   UNL     1      -7.032  -9.894   0.033  1.00  0.00     0.010 A 
ATOM     38  C   UNL     1      -8.400 -10.601   1.906  1.00  0.00     0.010 A 
ATOM     39  C   UNL     1      -8.271 -10.330   0.537  1.00  0.00    -0.014 A 
BRANCH  39  40
ATOM     40  C   UNL     1      -9.386 -10.621  -0.397  1.00  0.00     0.031 A 
ATOM     41  C   UNL     1     -10.590  -9.731  -0.490  1.00  0.00     0.074 A 
ATOM     42  C   UNL     1      -9.305 -11.727  -1.161  1.00  0.00     0.049 A 
ATOM     43  N   UNL     1     -11.600  -9.813  -1.316  1.00  0.00    -0.248 NA
ATOM     44  C   UNL     1     -10.679  -8.611   0.460  1.00  0.00     0.031 C 
ATOM     45  C   UNL     1      -8.217 -12.706  -1.108  1.00  0.00     0.029 A 
ATOM     46  N   UNL     1     -10.149 -12.218  -2.125  1.00  0.00    -0.354 N 
ATOM     47  C   UNL     1     -12.451  -8.767  -0.986  1.00  0.00     0.074 A 
ATOM     48  C   UNL     1     -11.846  -8.069   0.129  1.00  0.00     0.031 C 
ATOM     49  C   UNL     1      -8.451 -13.672  -2.009  1.00  0.00     0.029 A 
ATOM     50  C   UNL     1      -9.713 -13.393  -2.689  1.00  0.00     0.049 A 
ATOM     51  H   UNL     1     -10.986 -11.772  -2.387  1.00  0.00     0.167 HD
ATOM     52  C   UNL     1     -13.617  -8.414  -1.573  1.00  0.00     0.034 A 
ATOM     53  C   UNL     1     -10.264 -14.165  -3.646  1.00  0.00     0.034 A 
ATOM     54  C   UNL     1     -14.206  -9.099  -2.693  1.00  0.00     0.049 A 
ATOM     55  C   UNL     1     -11.548 -13.738  -4.293  1.00  0.00     0.074 A 
ATOM     56  C   UNL     1     -15.348  -8.759  -3.398  1.00  0.00     0.029 A 
ATOM     57  N   UNL     1     -13.720 -10.266  -3.259  1.00  0.00    -0.354 N 
ATOM     58  N   UNL     1     -12.261 -12.662  -4.065  1.00  0.00    -0.248 NA
ATOM     59  C   UNL     1     -12.091 -14.609  -5.346  1.00  0.00     0.031 C 
ATOM     60  C   UNL     1     -15.567  -9.734  -4.375  1.00  0.00     0.029 A 
ATOM     61  C   UNL     1     -14.546 -10.667  -4.294  1.00  0.00     0.049 A 
ATOM     62  H   UNL     1     -12.907 -10.739  -2.968  1.00  0.00     0.167 HD
ATOM     63  C   UNL     1     -13.326 -12.716  -4.955  1.00  0.00     0.074 A 
ATOM     64  C   UNL     1     -13.158 -13.922  -5.739  1.00  0.00     0.031 C 
ATOM     65  C   UNL     1     -14.354 -11.847  -5.096  1.00  0.00     0.034 A 
BRANCH  52  66
ATOM     66  C   UNL     1     -14.334  -7.192  -1.069  1.00  0.00     0.023 A 
ATOM     67  C   UNL     1     -13.883  -5.920  -1.472  1.00  0.00     0.012 A 
ATOM     68  C   UNL     1     -15.529  -7.308  -0.334  1.00  0.00     0.148 A 
ATOM     69  C   UNL     1     -14.615  -4.777  -1.152  1.00  0.00     0.002 A 
ATOM     70  C   UNL     1     -16.267  -6.167  -0.042  1.00  0.00     0.091 A 
ATOM     71  F   UNL     1     -15.931  -8.530   0.040  1.00  0.00    -0.205 F 
ATOM     72  C   UNL     1     -15.811  -4.902  -0.449  1.00  0.00     0.022 A 
BRANCH  70  73
ATOM     73  S   UNL     1     -17.848  -6.219   0.810  1.00  0.00     0.127 S 
ATOM     74  O   UNL     1     -17.550  -5.465   2.027  1.00  0.00    -0.237 OA
ATOM     75  O   UNL     1     -18.727  -5.532  -0.135  1.00  0.00    -0.237 OA
ATOM     76  O   UNL     1     -18.149  -7.629   1.018  1.00  0.00    -0.744 OA
ENDBRANCH  70  73
ENDBRANCH  52  66
BRANCH  53  77
ATOM     77  C   UNL     1      -9.555 -15.400  -4.075  1.00  0.00     0.023 A 
ATOM     78  C   UNL     1      -8.865 -15.414  -5.301  1.00  0.00     0.012 A 
ATOM     79  C   UNL     1      -9.499 -16.527  -3.234  1.00  0.00     0.148 A 
ATOM     80  C   UNL     1      -8.135 -16.538  -5.687  1.00  0.00     0.002 A 
ATOM     81  C   UNL     1      -8.738 -17.627  -3.606  1.00  0.00     0.091 A 
ATOM     82  F   UNL     1     -10.166 -16.483  -2.072  1.00  0.00    -0.205 F 
ATOM     83  C   UNL     1      -8.062 -17.639  -4.837  1.00  0.00     0.022 A 
BRANCH  81  84
ATOM     84  S   UNL     1      -8.504 -19.050  -2.536  1.00  0.00     0.127 S 
ATOM     85  O   UNL     1      -9.120 -20.117  -3.321  1.00  0.00    -0.237 OA
ATOM     86  O   UNL     1      -7.046 -19.115  -2.444  1.00  0.00    -0.237 OA
ATOM     87  O   UNL     1      -9.178 -18.724  -1.287  1.00  0.00    -0.744 OA
ENDBRANCH  81  84
ENDBRANCH  53  77
BRANCH  65  88
ATOM     88  C   UNL     1     -15.394 -12.139  -6.143  1.00  0.00     0.023 A 
ATOM     89  C   UNL     1     -16.384 -13.106  -5.884  1.00  0.00     0.012 A 
ATOM     90  C   UNL     1     -15.468 -11.363  -7.316  1.00  0.00     0.148 A 
ATOM     91  C   UNL     1     -17.432 -13.300  -6.782  1.00  0.00     0.002 A 
ATOM     92  C   UNL     1     -16.534 -11.538  -8.190  1.00  0.00     0.091 A 
ATOM     93  F   UNL     1     -14.509 -10.453  -7.540  1.00  0.00    -0.205 F 
ATOM     94  C   UNL     1     -17.514 -12.509  -7.927  1.00  0.00     0.022 A 
BRANCH  92  95
ATOM     95  S   UNL     1     -16.765 -10.523  -9.654  1.00  0.00     0.127 S 
ATOM     96  O   UNL     1     -16.606 -11.505 -10.725  1.00  0.00    -0.237 OA
ATOM     97  O   UNL     1     -18.131 -10.031  -9.475  1.00  0.00    -0.237 OA
ATOM     98  O   UNL     1     -15.735  -9.495  -9.602  1.00  0.00    -0.744 OA
ENDBRANCH  92  95
ENDBRANCH  65  88
ENDBRANCH  39  40
ENDBRANCH  32  34
ENDBRANCH  31  32
ENDBRANCH  30  31
ENDBRANCH   1  30
TORSDOF 21
