REMARK SMILES O=C(OCCOCCOC(=O)[C@H]1CC(=O)N(Cc2cccc(Cl)c2)C1)c1ccc(-c2c3nc(c(-c4cccc(S(=O)(=O)[O-])c4F)c4ccc([nH]4)c(-c4cccc(S(=O)(=O)[O-])c4F)c4nc(c(-c5cccc(S(=O)(=O)[O-])c5F)c5ccc2[nH]5)C=C4)C=C3)cc1
REMARK SMILES IDX 5 1 4 2 3 3 2 4 1 5 26 6 27 7 88 8 28 9 87 10 29 11 30 12
REMARK SMILES IDX 31 13 81 14 32 15 86 16 80 17 82 18 33 19 85 20 79 21 78 22
REMARK SMILES IDX 34 24 66 25 46 26 65 27 47 28 50 29 64 30 83 31 48 32 49 33
REMARK SMILES IDX 63 35 84 36 51 37 35 38 36 39 44 40 37 41 39 42 45 43 38 44
REMARK SMILES IDX 40 45 41 46 42 47 43 48 67 49 68 50 76 51 69 52 71 53 77 54
REMARK SMILES IDX 70 55 72 56 73 57 74 58 75 59 52 60 53 61 61 62 54 63 56 64
REMARK SMILES IDX 62 65 55 66 57 67 58 68 59 69 60 70 6 71 7 72 8 73 9 74
REMARK SMILES IDX 10 75 11 76 12 77 13 78 25 79 14 80 16 81 15 82 17 83 18 84
REMARK SMILES IDX 19 85 24 86 20 87 22 88 21 89 23 90
REMARK H PARENT 82 23 50 34
REMARK Flexibility Score: inf
ROOT
ATOM      1  C   UNL     1       5.909   0.929   6.053  1.00  0.00     0.202 C 
ENDROOT
BRANCH   1   2
ATOM      2  C   UNL     1       6.968   1.426   7.046  1.00  0.00     0.261 C 
BRANCH   2   3
ATOM      3  O   UNL     1       8.062   0.505   7.181  1.00  0.00    -0.460 OA
BRANCH   3   4
ATOM      4  C   UNL     1       8.338  -0.234   8.288  1.00  0.00     0.338 C 
ATOM      5  O   UNL     1       9.416  -0.813   8.377  1.00  0.00    -0.246 OA
BRANCH   4   6
ATOM      6  C   UNL     1       7.341  -0.371   9.385  1.00  0.00     0.060 A 
ATOM      7  C   UNL     1       5.968  -0.382   9.147  1.00  0.00     0.016 A 
ATOM      8  C   UNL     1       7.789  -0.586  10.692  1.00  0.00     0.016 A 
ATOM      9  C   UNL     1       5.046  -0.496  10.157  1.00  0.00     0.010 A 
ATOM     10  C   UNL     1       6.863  -0.805  11.718  1.00  0.00     0.010 A 
ATOM     11  C   UNL     1       5.490  -0.764  11.439  1.00  0.00    -0.014 A 
BRANCH  11  12
ATOM     12  C   UNL     1       4.450  -1.005  12.442  1.00  0.00     0.031 A 
ATOM     13  C   UNL     1       4.189   0.045  13.463  1.00  0.00     0.074 A 
ATOM     14  C   UNL     1       3.689  -2.110  12.322  1.00  0.00     0.049 A 
ATOM     15  N   UNL     1       3.375   0.009  14.476  1.00  0.00    -0.248 NA
ATOM     16  C   UNL     1       4.928   1.312  13.317  1.00  0.00     0.031 C 
ATOM     17  C   UNL     1       3.813  -3.111  11.254  1.00  0.00     0.029 A 
ATOM     18  N   UNL     1       2.660  -2.577  13.091  1.00  0.00    -0.354 N 
ATOM     19  C   UNL     1       3.563   1.210  15.141  1.00  0.00     0.074 A 
ATOM     20  C   UNL     1       4.524   1.981  14.388  1.00  0.00     0.031 C 
ATOM     21  C   UNL     1       2.907  -4.080  11.447  1.00  0.00     0.029 A 
ATOM     22  C   UNL     1       2.211  -3.817  12.697  1.00  0.00     0.049 A 
ATOM     23  H   UNL     1       2.279  -2.078  13.849  1.00  0.00     0.167 HD
ATOM     24  C   UNL     1       2.993   1.601  16.300  1.00  0.00     0.034 A 
ATOM     25  C   UNL     1       1.389  -4.673  13.330  1.00  0.00     0.034 A 
ATOM     26  C   UNL     1       2.032   0.802  17.004  1.00  0.00     0.049 A 
ATOM     27  C   UNL     1       0.828  -4.231  14.653  1.00  0.00     0.074 A 
ATOM     28  C   UNL     1       1.381   1.085  18.188  1.00  0.00     0.029 A 
ATOM     29  N   UNL     1       1.605  -0.454  16.594  1.00  0.00    -0.354 N 
ATOM     30  N   UNL     1       0.971  -3.077  15.263  1.00  0.00    -0.248 NA
ATOM     31  C   UNL     1      -0.004  -5.197  15.378  1.00  0.00     0.031 C 
ATOM     32  C   UNL     1       0.598  -0.024  18.520  1.00  0.00     0.029 A 
ATOM     33  C   UNL     1       0.726  -0.978  17.520  1.00  0.00     0.049 A 
ATOM     34  H   UNL     1       1.888  -0.905  15.765  1.00  0.00     0.167 HD
ATOM     35  C   UNL     1       0.238  -3.172  16.436  1.00  0.00     0.074 A 
ATOM     36  C   UNL     1      -0.381  -4.484  16.430  1.00  0.00     0.031 C 
ATOM     37  C   UNL     1       0.103  -2.275  17.443  1.00  0.00     0.034 A 
BRANCH  24  38
ATOM     38  C   UNL     1       3.457   2.891  16.905  1.00  0.00     0.023 A 
ATOM     39  C   UNL     1       3.047   4.128  16.372  1.00  0.00     0.012 A 
ATOM     40  C   UNL     1       4.288   2.862  18.041  1.00  0.00     0.148 A 
ATOM     41  C   UNL     1       3.473   5.321  16.956  1.00  0.00     0.002 A 
ATOM     42  C   UNL     1       4.671   4.052  18.643  1.00  0.00     0.091 A 
ATOM     43  F   UNL     1       4.692   1.671  18.505  1.00  0.00    -0.205 F 
ATOM     44  C   UNL     1       4.274   5.283  18.096  1.00  0.00     0.022 A 
BRANCH  42  45
ATOM     45  S   UNL     1       5.645   4.103  20.150  1.00  0.00     0.127 S 
ATOM     46  O   UNL     1       6.849   4.801  19.700  1.00  0.00    -0.237 OA
ATOM     47  O   UNL     1       4.783   4.882  21.039  1.00  0.00    -0.237 OA
ATOM     48  O   UNL     1       5.850   2.718  20.549  1.00  0.00    -0.744 OA
ENDBRANCH  42  45
ENDBRANCH  24  38
BRANCH  25  49
ATOM     49  C   UNL     1       1.123  -6.032  12.779  1.00  0.00     0.023 A 
ATOM     50  C   UNL     1      -0.188  -6.405  12.425  1.00  0.00     0.012 A 
ATOM     51  C   UNL     1       2.163  -6.973  12.623  1.00  0.00     0.148 A 
ATOM     52  C   UNL     1      -0.464  -7.698  11.975  1.00  0.00     0.002 A 
ATOM     53  C   UNL     1       1.892  -8.237  12.115  1.00  0.00     0.091 A 
ATOM     54  F   UNL     1       3.405  -6.615  12.982  1.00  0.00    -0.205 F 
ATOM     55  C   UNL     1       0.576  -8.611  11.812  1.00  0.00     0.022 A 
BRANCH  53  56
ATOM     56  S   UNL     1       3.193  -9.424  11.756  1.00  0.00     0.127 S 
ATOM     57  O   UNL     1       3.037 -10.379  12.850  1.00  0.00    -0.237 OA
ATOM     58  O   UNL     1       2.794  -9.925  10.440  1.00  0.00    -0.237 OA
ATOM     59  O   UNL     1       4.431  -8.657  11.751  1.00  0.00    -0.744 OA
ENDBRANCH  53  56
ENDBRANCH  25  49
BRANCH  37  60
ATOM     60  C   UNL     1      -0.762  -2.677  18.602  1.00  0.00     0.023 A 
ATOM     61  C   UNL     1      -0.289  -3.626  19.529  1.00  0.00     0.012 A 
ATOM     62  C   UNL     1      -1.993  -2.034  18.823  1.00  0.00     0.148 A 
ATOM     63  C   UNL     1      -1.047  -3.948  20.652  1.00  0.00     0.002 A 
ATOM     64  C   UNL     1      -2.713  -2.316  19.974  1.00  0.00     0.091 A 
ATOM     65  F   UNL     1      -2.422  -1.146  17.914  1.00  0.00    -0.205 F 
ATOM     66  C   UNL     1      -2.249  -3.281  20.882  1.00  0.00     0.022 A 
BRANCH  64  67
ATOM     67  S   UNL     1      -4.210  -1.428  20.411  1.00  0.00     0.127 S 
ATOM     68  O   UNL     1      -5.222  -2.477  20.294  1.00  0.00    -0.237 OA
ATOM     69  O   UNL     1      -3.925  -1.002  21.781  1.00  0.00    -0.237 OA
ATOM     70  O   UNL     1      -4.332  -0.340  19.449  1.00  0.00    -0.744 OA
ENDBRANCH  64  67
ENDBRANCH  37  60
ENDBRANCH  11  12
ENDBRANCH   4   6
ENDBRANCH   3   4
ENDBRANCH   2   3
ENDBRANCH   1   2
BRANCH   1  71
ATOM     71  O   UNL     1       5.473  -0.430   6.111  1.00  0.00    -0.374 OA
BRANCH  71  72
ATOM     72  C   UNL     1       6.426  -1.461   5.823  1.00  0.00     0.202 C 
BRANCH  72  73
ATOM     73  C   UNL     1       5.777  -2.510   4.916  1.00  0.00     0.261 C 
BRANCH  73  74
ATOM     74  O   UNL     1       5.505  -1.870   3.655  1.00  0.00    -0.463 OA
BRANCH  74  75
ATOM     75  C   UNL     1       4.327  -1.190   3.620  1.00  0.00     0.311 C 
ATOM     76  O   UNL     1       3.330  -1.468   4.272  1.00  0.00    -0.252 OA
BRANCH  75  77
ATOM     77  C   UNL     1       4.391  -0.033   2.659  1.00  0.00     0.128 C 
ATOM     78  C   UNL     1       3.658   1.186   3.228  1.00  0.00     0.117 C 
ATOM     79  C   UNL     1       5.801   0.482   2.390  1.00  0.00     0.135 C 
ATOM     80  C   UNL     1       4.408   2.359   2.648  1.00  0.00     0.223 C 
ATOM     81  N   UNL     1       5.627   1.898   2.181  1.00  0.00    -0.337 N 
ATOM     82  O   UNL     1       4.002   3.503   2.607  1.00  0.00    -0.275 OA
BRANCH  81  83
ATOM     83  C   UNL     1       6.584   2.725   1.473  1.00  0.00     0.155 C 
BRANCH  83  84
ATOM     84  C   UNL     1       7.746   3.233   2.295  1.00  0.00    -0.027 A 
ATOM     85  C   UNL     1       8.737   2.367   2.782  1.00  0.00     0.005 A 
ATOM     86  C   UNL     1       7.910   4.615   2.494  1.00  0.00     0.026 A 
ATOM     87  C   UNL     1       9.866   2.868   3.440  1.00  0.00     0.002 A 
ATOM     88  C   UNL     1       9.047   5.111   3.135  1.00  0.00     0.041 A 
ATOM     89  C   UNL     1      10.027   4.242   3.608  1.00  0.00     0.020 A 
ATOM     90  Cl  UNL     1       9.258   6.811   3.311  1.00  0.00    -0.084 Cl
ENDBRANCH  83  84
ENDBRANCH  81  83
ENDBRANCH  75  77
ENDBRANCH  74  75
ENDBRANCH  73  74
ENDBRANCH  72  73
ENDBRANCH  71  72
ENDBRANCH   1  71
TORSDOF 19
