REMARK SMILES O=C(OCCOCCOC(=O)[C@H]1CC[C@@H](CNC(=O)[C@@H]2CSc3ccccc32)O1)c1ccc(-c2c3nc(c(-c4cccc(S(=O)(=O)[O-])c4F)c4ccc([nH]4)c(-c4cccc(S(=O)(=O)[O-])c4F)c4nc(c(-c5cccc(S(=O)(=O)[O-])c5F)c5ccc2[nH]5)C=C4)C=C3)cc1
REMARK SMILES IDX 6 1 5 2 4 3 3 4 2 5 1 6 30 7 31 8 92 9 32 10 91 11 33 12
REMARK SMILES IDX 34 13 35 14 85 15 36 16 90 17 84 18 86 19 37 20 89 21 83 22
REMARK SMILES IDX 82 23 38 25 70 26 50 27 69 28 51 29 54 30 68 31 87 32 52 33
REMARK SMILES IDX 53 34 67 36 88 37 55 38 39 39 40 40 48 41 41 42 43 43 49 44
REMARK SMILES IDX 42 45 44 46 45 47 46 48 47 49 71 50 72 51 80 52 73 53 75 54
REMARK SMILES IDX 81 55 74 56 76 57 77 58 78 59 79 60 56 61 57 62 65 63 58 64
REMARK SMILES IDX 60 65 66 66 59 67 61 68 62 69 63 70 64 71 7 72 8 73 9 74
REMARK SMILES IDX 10 75 11 76 12 77 13 78 29 79 14 80 15 81 16 82 17 83 18 84
REMARK SMILES IDX 19 86 20 87 21 88 28 89 22 90 23 91 27 92 24 93 26 94 25 95
REMARK H PARENT 86 24 54 35 17 85
REMARK Flexibility Score: inf
ROOT
ATOM      1  O   UNL     1       7.615  -1.374   6.052  1.00  0.00    -0.374 OA
ENDROOT
BRANCH   1   2
ATOM      2  C   UNL     1       6.248  -1.153   6.393  1.00  0.00     0.202 C 
BRANCH   2   3
ATOM      3  C   UNL     1       5.822   0.314   6.459  1.00  0.00     0.261 C 
BRANCH   3   4
ATOM      4  O   UNL     1       5.902   0.935   5.170  1.00  0.00    -0.460 OA
BRANCH   4   5
ATOM      5  C   UNL     1       6.953   1.536   4.572  1.00  0.00     0.338 C 
ATOM      6  O   UNL     1       6.792   1.922   3.413  1.00  0.00    -0.246 OA
BRANCH   5   7
ATOM      7  C   UNL     1       8.315   1.714   5.180  1.00  0.00     0.060 A 
ATOM      8  C   UNL     1       9.236   2.460   4.420  1.00  0.00     0.016 A 
ATOM      9  C   UNL     1       8.783   1.132   6.361  1.00  0.00     0.016 A 
ATOM     10  C   UNL     1      10.579   2.555   4.793  1.00  0.00     0.010 A 
ATOM     11  C   UNL     1      10.123   1.177   6.716  1.00  0.00     0.010 A 
ATOM     12  C   UNL     1      11.025   1.884   5.931  1.00  0.00    -0.014 A 
BRANCH  12  13
ATOM     13  C   UNL     1      12.387   2.032   6.454  1.00  0.00     0.031 A 
ATOM     14  C   UNL     1      13.411   0.964   6.254  1.00  0.00     0.074 A 
ATOM     15  C   UNL     1      12.592   3.076   7.273  1.00  0.00     0.049 A 
ATOM     16  N   UNL     1      14.641   0.927   6.687  1.00  0.00    -0.248 NA
ATOM     17  C   UNL     1      13.002  -0.224   5.487  1.00  0.00     0.031 C 
ATOM     18  C   UNL     1      11.577   4.079   7.615  1.00  0.00     0.029 A 
ATOM     19  N   UNL     1      13.685   3.438   8.005  1.00  0.00    -0.354 N 
ATOM     20  C   UNL     1      15.165  -0.276   6.234  1.00  0.00     0.074 A 
ATOM     21  C   UNL     1      14.106  -0.961   5.525  1.00  0.00     0.031 C 
ATOM     22  C   UNL     1      12.091   4.932   8.509  1.00  0.00     0.029 A 
ATOM     23  C   UNL     1      13.466   4.541   8.790  1.00  0.00     0.049 A 
ATOM     24  H   UNL     1      14.543   2.956   7.973  1.00  0.00     0.167 HD
ATOM     25  C   UNL     1      16.430  -0.736   6.378  1.00  0.00     0.034 A 
ATOM     26  C   UNL     1      14.296   5.176   9.634  1.00  0.00     0.034 A 
ATOM     27  C   UNL     1      17.444  -0.030   7.118  1.00  0.00     0.049 A 
ATOM     28  C   UNL     1      15.700   4.675   9.749  1.00  0.00     0.074 A 
ATOM     29  C   UNL     1      18.778  -0.354   7.282  1.00  0.00     0.029 A 
ATOM     30  N   UNL     1      17.226   1.141   7.833  1.00  0.00    -0.354 N 
ATOM     31  N   UNL     1      16.238   3.621   9.182  1.00  0.00    -0.248 NA
ATOM     32  C   UNL     1      16.622   5.464  10.570  1.00  0.00     0.031 C 
ATOM     33  C   UNL     1      19.362   0.615   8.105  1.00  0.00     0.029 A 
ATOM     34  C   UNL     1      18.398   1.555   8.440  1.00  0.00     0.049 A 
ATOM     35  H   UNL     1      16.362   1.609   7.898  1.00  0.00     0.167 HD
ATOM     36  C   UNL     1      17.571   3.624   9.561  1.00  0.00     0.074 A 
ATOM     37  C   UNL     1      17.758   4.798  10.396  1.00  0.00     0.031 C 
ATOM     38  C   UNL     1      18.548   2.736   9.255  1.00  0.00     0.034 A 
BRANCH  25  39
ATOM     39  C   UNL     1      16.810  -2.001   5.654  1.00  0.00     0.023 A 
ATOM     40  C   UNL     1      16.965  -1.955   4.253  1.00  0.00     0.012 A 
ATOM     41  C   UNL     1      17.100  -3.196   6.340  1.00  0.00     0.148 A 
ATOM     42  C   UNL     1      17.385  -3.079   3.542  1.00  0.00     0.002 A 
ATOM     43  C   UNL     1      17.546  -4.307   5.628  1.00  0.00     0.091 A 
ATOM     44  F   UNL     1      16.939  -3.225   7.670  1.00  0.00    -0.205 F 
ATOM     45  C   UNL     1      17.684  -4.250   4.230  1.00  0.00     0.022 A 
BRANCH  43  46
ATOM     46  S   UNL     1      18.008  -5.856   6.413  1.00  0.00     0.127 S 
ATOM     47  O   UNL     1      17.001  -6.771   5.875  1.00  0.00    -0.237 OA
ATOM     48  O   UNL     1      19.361  -6.069   5.897  1.00  0.00    -0.237 OA
ATOM     49  O   UNL     1      17.929  -5.622   7.848  1.00  0.00    -0.744 OA
ENDBRANCH  43  46
ENDBRANCH  25  39
BRANCH  26  50
ATOM     50  C   UNL     1      13.811   6.421  10.281  1.00  0.00     0.023 A 
ATOM     51  C   UNL     1      14.116   7.654   9.674  1.00  0.00     0.012 A 
ATOM     52  C   UNL     1      12.896   6.379  11.350  1.00  0.00     0.148 A 
ATOM     53  C   UNL     1      13.508   8.828  10.116  1.00  0.00     0.002 A 
ATOM     54  C   UNL     1      12.270   7.549  11.764  1.00  0.00     0.091 A 
ATOM     55  F   UNL     1      12.605   5.186  11.887  1.00  0.00    -0.205 F 
ATOM     56  C   UNL     1      12.578   8.774  11.150  1.00  0.00     0.022 A 
BRANCH  54  57
ATOM     57  S   UNL     1      10.973   7.572  13.008  1.00  0.00     0.127 S 
ATOM     58  O   UNL     1      11.564   8.425  14.037  1.00  0.00    -0.237 OA
ATOM     59  O   UNL     1       9.864   8.175  12.269  1.00  0.00    -0.237 OA
ATOM     60  O   UNL     1      10.765   6.184  13.394  1.00  0.00    -0.744 OA
ENDBRANCH  54  57
ENDBRANCH  26  50
BRANCH  38  61
ATOM     61  C   UNL     1      19.908   2.994   9.837  1.00  0.00     0.023 A 
ATOM     62  C   UNL     1      20.145   2.697  11.193  1.00  0.00     0.012 A 
ATOM     63  C   UNL     1      20.962   3.451   9.025  1.00  0.00     0.148 A 
ATOM     64  C   UNL     1      21.414   2.870  11.739  1.00  0.00     0.002 A 
ATOM     65  C   UNL     1      22.233   3.586   9.568  1.00  0.00     0.091 A 
ATOM     66  F   UNL     1      20.703   3.736   7.741  1.00  0.00    -0.205 F 
ATOM     67  C   UNL     1      22.459   3.303  10.926  1.00  0.00     0.022 A 
BRANCH  65  68
ATOM     68  S   UNL     1      23.655   4.077   8.588  1.00  0.00     0.127 S 
ATOM     69  O   UNL     1      23.956   5.395   9.143  1.00  0.00    -0.237 OA
ATOM     70  O   UNL     1      24.629   3.037   8.918  1.00  0.00    -0.237 OA
ATOM     71  O   UNL     1      23.210   4.076   7.201  1.00  0.00    -0.744 OA
ENDBRANCH  65  68
ENDBRANCH  38  61
ENDBRANCH  12  13
ENDBRANCH   5   7
ENDBRANCH   4   5
ENDBRANCH   3   4
ENDBRANCH   2   3
ENDBRANCH   1   2
BRANCH   1  72
ATOM     72  C   UNL     1       7.892  -1.645   4.672  1.00  0.00     0.202 C 
BRANCH  72  73
ATOM     73  C   UNL     1       8.190  -3.127   4.481  1.00  0.00     0.261 C 
BRANCH  73  74
ATOM     74  O   UNL     1       7.003  -3.835   4.855  1.00  0.00    -0.461 OA
BRANCH  74  75
ATOM     75  C   UNL     1       6.990  -4.315   6.129  1.00  0.00     0.335 C 
ATOM     76  O   UNL     1       7.986  -4.584   6.790  1.00  0.00    -0.249 OA
BRANCH  75  77
ATOM     77  C   UNL     1       5.549  -4.426   6.661  1.00  0.00     0.228 C 
ATOM     78  C   UNL     1       4.451  -4.327   5.618  1.00  0.00     0.047 C 
ATOM     79  O   UNL     1       5.315  -5.694   7.272  1.00  0.00    -0.361 OA
ATOM     80  C   UNL     1       4.463  -5.723   5.049  1.00  0.00     0.037 C 
ATOM     81  C   UNL     1       4.909  -6.593   6.223  1.00  0.00     0.138 C 
BRANCH  81  82
ATOM     82  C   UNL     1       6.083  -7.537   5.897  1.00  0.00     0.147 C 
BRANCH  82  83
ATOM     83  N   UNL     1       5.596  -8.872   5.602  1.00  0.00    -0.353 N 
ATOM     84  C   UNL     1       5.609  -9.659   4.507  1.00  0.00     0.228 C 
ATOM     85  H   UNL     1       5.159  -9.299   6.374  1.00  0.00     0.163 HD
ATOM     86  O   UNL     1       4.987 -10.726   4.619  1.00  0.00    -0.274 OA
BRANCH  84  87
ATOM     87  C   UNL     1       6.393  -9.413   3.229  1.00  0.00     0.120 C 
ATOM     88  C   UNL     1       7.782 -10.059   3.347  1.00  0.00     0.093 C 
ATOM     89  C   UNL     1       6.583  -8.019   2.696  1.00  0.00    -0.021 A 
ATOM     90  S   UNL     1       9.004  -8.722   3.486  1.00  0.00    -0.125 SA
ATOM     91  C   UNL     1       7.899  -7.549   2.765  1.00  0.00     0.011 A 
ATOM     92  C   UNL     1       5.594  -7.228   2.116  1.00  0.00     0.006 A 
ATOM     93  C   UNL     1       8.242  -6.287   2.307  1.00  0.00     0.015 A 
ATOM     94  C   UNL     1       5.934  -5.956   1.641  1.00  0.00     0.000 A 
ATOM     95  C   UNL     1       7.249  -5.487   1.741  1.00  0.00     0.001 A 
ENDBRANCH  84  87
ENDBRANCH  82  83
ENDBRANCH  81  82
ENDBRANCH  75  77
ENDBRANCH  74  75
ENDBRANCH  73  74
ENDBRANCH  72  73
ENDBRANCH   1  72
TORSDOF 20
