REMARK SMILES C[C@H]1CC[C@@](Nc2ccc(C(N)=O)nn2)(C(=O)OCCOCCOC(=O)c2ccc(-c3c4nc(c(-c5cccc(S(=O)(=O)[O-])c5F)c5ccc([nH]5)c(-c5cccc(S(=O)(=O)[O-])c5F)c5nc(c(-c6cccc(S(=O)(=O)[O-])c6F)c6ccc3[nH]6)C=C5)C=C4)cc2)CC1
REMARK SMILES IDX 21 1 20 2 19 3 18 4 16 5 17 6 5 7 1 8 2 9 91 10 3 11 90 12
REMARK SMILES IDX 4 13 6 14 7 16 8 17 15 18 9 19 14 20 10 21 11 22 12 23 13 24
REMARK SMILES IDX 22 27 23 28 24 29 25 30 26 31 27 32 28 33 89 34 29 35 88 36
REMARK SMILES IDX 30 37 31 38 32 39 82 40 33 41 87 42 81 43 83 44 34 45 86 46
REMARK SMILES IDX 80 47 79 48 35 50 67 51 47 52 66 53 48 54 51 55 65 56 84 57
REMARK SMILES IDX 49 58 50 59 64 61 85 62 52 63 36 64 37 65 45 66 38 67 40 68
REMARK SMILES IDX 46 69 39 70 41 71 42 72 43 73 44 74 68 75 69 76 77 77 70 78
REMARK SMILES IDX 72 79 78 80 71 81 73 82 74 83 75 84 76 85 53 86 54 87 62 88
REMARK SMILES IDX 55 89 57 90 63 91 56 92 58 93 59 94 60 95 61 96
REMARK H PARENT 6 15 12 25 12 26 83 49 51 60
REMARK Flexibility Score: inf
ROOT
ATOM      1  O   UNL     1      -0.343  -0.224  -4.765  1.00  0.00    -0.374 OA
ENDROOT
BRANCH   1   2
ATOM      2  C   UNL     1      -1.557   0.526  -4.805  1.00  0.00     0.202 C 
BRANCH   2   3
ATOM      3  C   UNL     1      -2.635   0.181  -3.777  1.00  0.00     0.261 C 
BRANCH   3   4
ATOM      4  O   UNL     1      -2.286   0.500  -2.416  1.00  0.00    -0.461 OA
BRANCH   4   5
ATOM      5  C   UNL     1      -2.091  -0.580  -1.604  1.00  0.00     0.331 C 
ATOM      6  O   UNL     1      -1.954  -1.728  -2.022  1.00  0.00    -0.249 OA
BRANCH   5   7
ATOM      7  C   UNL     1      -2.177  -0.228  -0.086  1.00  0.00     0.137 C 
ATOM      8  C   UNL     1       2.197   0.009   0.432  1.00  0.00     0.007 C 
ATOM      9  C   UNL     1       0.712   0.001   0.802  1.00  0.00    -0.014 C 
ATOM     10  C   UNL     1       0.074  -1.336   0.420  1.00  0.00     0.006 C 
ATOM     11  C   UNL     1      -0.007   1.183   0.143  1.00  0.00     0.006 C 
ATOM     12  C   UNL     1      -1.433  -1.339   0.695  1.00  0.00     0.041 C 
ATOM     13  C   UNL     1      -1.530   1.133   0.275  1.00  0.00     0.041 C 
BRANCH   7  14
ATOM     14  N   UNL     1      -3.588  -0.202   0.416  1.00  0.00    -0.353 N 
ATOM     15  H   UNL     1      -3.760  -0.195   1.385  1.00  0.00     0.163 HD
BRANCH  14  16
ATOM     16  C   UNL     1      -4.655  -0.187  -0.471  1.00  0.00     0.149 A 
ATOM     17  C   UNL     1      -4.949  -1.259  -1.302  1.00  0.00     0.051 A 
ATOM     18  N   UNL     1      -5.387   0.941  -0.538  1.00  0.00    -0.132 NA
ATOM     19  C   UNL     1      -5.947  -1.129  -2.265  1.00  0.00     0.040 A 
ATOM     20  N   UNL     1      -6.379   1.083  -1.483  1.00  0.00    -0.143 NA
ATOM     21  C   UNL     1      -6.634   0.069  -2.336  1.00  0.00     0.150 A 
BRANCH  21  22
ATOM     22  C   UNL     1      -7.665   0.292  -3.387  1.00  0.00     0.269 C 
ATOM     23  N   UNL     1      -8.365   1.465  -3.321  1.00  0.00    -0.364 N 
ATOM     24  O   UNL     1      -7.867  -0.540  -4.266  1.00  0.00    -0.268 OA
ATOM     25  H   UNL     1      -8.177   2.110  -2.602  1.00  0.00     0.160 HD
ATOM     26  H   UNL     1      -9.056   1.664  -3.993  1.00  0.00     0.160 HD
ENDBRANCH  21  22
ENDBRANCH  14  16
ENDBRANCH   7  14
ENDBRANCH   5   7
ENDBRANCH   4   5
ENDBRANCH   3   4
ENDBRANCH   2   3
ENDBRANCH   1   2
BRANCH   1  27
ATOM     27  C   UNL     1       0.533  -0.009  -3.663  1.00  0.00     0.202 C 
BRANCH  27  28
ATOM     28  C   UNL     1       1.293   1.322  -3.631  1.00  0.00     0.261 C 
BRANCH  28  29
ATOM     29  O   UNL     1       0.412   2.457  -3.642  1.00  0.00    -0.460 OA
BRANCH  29  30
ATOM     30  C   UNL     1       0.676   3.351  -4.628  1.00  0.00     0.338 C 
ATOM     31  O   UNL     1       1.646   3.367  -5.367  1.00  0.00    -0.246 OA
BRANCH  30  32
ATOM     32  C   UNL     1      -0.475   4.246  -4.830  1.00  0.00     0.060 A 
ATOM     33  C   UNL     1      -1.175   4.134  -6.037  1.00  0.00     0.016 A 
ATOM     34  C   UNL     1      -0.784   5.255  -3.916  1.00  0.00     0.016 A 
ATOM     35  C   UNL     1      -2.160   5.064  -6.359  1.00  0.00     0.010 A 
ATOM     36  C   UNL     1      -1.767   6.195  -4.247  1.00  0.00     0.010 A 
ATOM     37  C   UNL     1      -2.431   6.125  -5.484  1.00  0.00    -0.014 A 
BRANCH  37  38
ATOM     38  C   UNL     1      -3.327   7.219  -5.929  1.00  0.00     0.031 A 
ATOM     39  C   UNL     1      -2.732   8.476  -6.501  1.00  0.00     0.074 A 
ATOM     40  C   UNL     1      -4.662   7.082  -5.841  1.00  0.00     0.049 A 
ATOM     41  N   UNL     1      -3.336   9.533  -6.977  1.00  0.00    -0.248 NA
ATOM     42  C   UNL     1      -1.262   8.550  -6.546  1.00  0.00     0.031 C 
ATOM     43  C   UNL     1      -5.354   5.913  -5.303  1.00  0.00     0.029 A 
ATOM     44  N   UNL     1      -5.672   7.945  -6.186  1.00  0.00    -0.354 N 
ATOM     45  C   UNL     1      -2.325  10.405  -7.364  1.00  0.00     0.074 A 
ATOM     46  C   UNL     1      -1.068   9.759  -7.055  1.00  0.00     0.031 C 
ATOM     47  C   UNL     1      -6.678   6.142  -5.329  1.00  0.00     0.029 A 
ATOM     48  C   UNL     1      -6.925   7.478  -5.868  1.00  0.00     0.049 A 
ATOM     49  H   UNL     1      -5.514   8.814  -6.621  1.00  0.00     0.167 HD
ATOM     50  C   UNL     1      -2.435  11.625  -7.941  1.00  0.00     0.034 A 
ATOM     51  C   UNL     1      -8.131   8.069  -5.984  1.00  0.00     0.034 A 
ATOM     52  C   UNL     1      -3.685  12.258  -8.265  1.00  0.00     0.049 A 
ATOM     53  C   UNL     1      -8.223   9.439  -6.603  1.00  0.00     0.074 A 
ATOM     54  C   UNL     1      -3.898  13.464  -8.909  1.00  0.00     0.029 A 
ATOM     55  N   UNL     1      -4.934  11.745  -7.954  1.00  0.00    -0.354 N 
ATOM     56  N   UNL     1      -7.266  10.187  -7.099  1.00  0.00    -0.248 NA
ATOM     57  C   UNL     1      -9.563  10.035  -6.707  1.00  0.00     0.031 C 
ATOM     58  C   UNL     1      -5.277  13.691  -8.965  1.00  0.00     0.029 A 
ATOM     59  C   UNL     1      -5.923  12.619  -8.372  1.00  0.00     0.049 A 
ATOM     60  H   UNL     1      -5.095  10.885  -7.502  1.00  0.00     0.167 HD
ATOM     61  C   UNL     1      -7.890  11.325  -7.597  1.00  0.00     0.074 A 
ATOM     62  C   UNL     1      -9.310  11.158  -7.366  1.00  0.00     0.031 C 
ATOM     63  C   UNL     1      -7.336  12.419  -8.177  1.00  0.00     0.034 A 
BRANCH  50  64
ATOM     64  C   UNL     1      -1.163  12.347  -8.297  1.00  0.00     0.023 A 
ATOM     65  C   UNL     1      -0.421  11.930  -9.420  1.00  0.00     0.012 A 
ATOM     66  C   UNL     1      -0.737  13.470  -7.563  1.00  0.00     0.148 A 
ATOM     67  C   UNL     1       0.739  12.607  -9.795  1.00  0.00     0.002 A 
ATOM     68  C   UNL     1       0.401  14.162  -7.964  1.00  0.00     0.091 A 
ATOM     69  F   UNL     1      -1.443  13.835  -6.483  1.00  0.00    -0.205 F 
ATOM     70  C   UNL     1       1.143  13.727  -9.075  1.00  0.00     0.022 A 
BRANCH  68  71
ATOM     71  S   UNL     1       0.965  15.655  -7.139  1.00  0.00     0.127 S 
ATOM     72  O   UNL     1       2.146  15.170  -6.427  1.00  0.00    -0.237 OA
ATOM     73  O   UNL     1       1.254  16.541  -8.267  1.00  0.00    -0.237 OA
ATOM     74  O   UNL     1      -0.142  16.088  -6.298  1.00  0.00    -0.744 OA
ENDBRANCH  68  71
ENDBRANCH  50  64
BRANCH  51  75
ATOM     75  C   UNL     1      -9.352   7.348  -5.529  1.00  0.00     0.023 A 
ATOM     76  C   UNL     1     -10.295   6.905  -6.476  1.00  0.00     0.012 A 
ATOM     77  C   UNL     1      -9.563   7.065  -4.165  1.00  0.00     0.148 A 
ATOM     78  C   UNL     1     -11.439   6.215  -6.070  1.00  0.00     0.002 A 
ATOM     79  C   UNL     1     -10.669   6.321  -3.776  1.00  0.00     0.091 A 
ATOM     80  F   UNL     1      -8.663   7.511  -3.278  1.00  0.00    -0.205 F 
ATOM     81  C   UNL     1     -11.620   5.913  -4.723  1.00  0.00     0.022 A 
BRANCH  79  82
ATOM     82  S   UNL     1     -10.895   5.738  -2.092  1.00  0.00     0.127 S 
ATOM     83  O   UNL     1     -12.089   6.469  -1.678  1.00  0.00    -0.237 OA
ATOM     84  O   UNL     1     -11.085   4.302  -2.302  1.00  0.00    -0.237 OA
ATOM     85  O   UNL     1      -9.667   6.081  -1.387  1.00  0.00    -0.744 OA
ENDBRANCH  79  82
ENDBRANCH  51  75
BRANCH  63  86
ATOM     86  C   UNL     1      -8.263  13.524  -8.612  1.00  0.00     0.023 A 
ATOM     87  C   UNL     1      -8.849  14.360  -7.641  1.00  0.00     0.012 A 
ATOM     88  C   UNL     1      -8.494  13.782  -9.978  1.00  0.00     0.148 A 
ATOM     89  C   UNL     1      -9.672  15.420  -8.021  1.00  0.00     0.002 A 
ATOM     90  C   UNL     1      -9.281  14.867 -10.350  1.00  0.00     0.091 A 
ATOM     91  F   UNL     1      -7.944  12.964 -10.887  1.00  0.00    -0.205 F 
ATOM     92  C   UNL     1      -9.878  15.680  -9.373  1.00  0.00     0.022 A 
BRANCH  90  93
ATOM     93  S   UNL     1      -9.526  15.330 -12.069  1.00  0.00     0.127 S 
ATOM     94  O   UNL     1     -10.893  14.873 -12.309  1.00  0.00    -0.237 OA
ATOM     95  O   UNL     1      -9.367  16.785 -12.027  1.00  0.00    -0.237 OA
ATOM     96  O   UNL     1      -8.490  14.634 -12.821  1.00  0.00    -0.744 OA
ENDBRANCH  90  93
ENDBRANCH  63  86
ENDBRANCH  37  38
ENDBRANCH  30  32
ENDBRANCH  29  30
ENDBRANCH  28  29
ENDBRANCH  27  28
ENDBRANCH   1  27
TORSDOF 20
