REMARK SMILES CC1CCN(S(=O)(=O)N2CCC[C@H](c3cccc(C(=O)OCCOCCOC(=O)c4ccc(-c5c6nc(c(-c7cccc(S(=O)(=O)[O-])c7F)c7ccc([nH]7)c(-c7cccc(S(=O)(=O)[O-])c7F)c7nc(c(-c8cccc(S(=O)(=O)[O-])c8F)c8ccc5[nH]8)C=C7)C=C6)cc4)c3)C2)CC1
REMARK SMILES IDX 24 1 23 2 22 3 21 4 19 5 20 6 18 7 14 8 15 9 93 10 16 11
REMARK SMILES IDX 17 12 13 13 9 14 10 15 94 16 11 17 12 18 6 19 7 20 8 21 5 22
REMARK SMILES IDX 1 23 2 24 3 25 96 26 4 27 95 28 25 29 26 30 27 31 28 32
REMARK SMILES IDX 29 33 30 34 31 35 92 36 32 37 91 38 33 39 34 40 35 41 85 42
REMARK SMILES IDX 36 43 90 44 84 45 86 46 37 47 89 48 83 49 82 50 38 52 70 53
REMARK SMILES IDX 50 54 69 55 51 56 54 57 68 58 87 59 52 60 53 61 67 63 88 64
REMARK SMILES IDX 55 65 39 66 40 67 48 68 41 69 43 70 49 71 42 72 44 73 45 74
REMARK SMILES IDX 46 75 47 76 71 77 72 78 80 79 73 80 75 81 81 82 74 83 76 84
REMARK SMILES IDX 77 85 78 86 79 87 56 88 57 89 65 90 58 91 60 92 66 93 59 94
REMARK SMILES IDX 61 95 62 96 63 97 64 98
REMARK H PARENT 86 51 54 62
REMARK Flexibility Score: inf
ROOT
ATOM      1  O   UNL     1       2.139  -8.307  -8.529  1.00  0.00    -0.374 OA
ENDROOT
BRANCH   1   2
ATOM      2  C   UNL     1       3.274  -8.855  -7.855  1.00  0.00     0.202 C 
BRANCH   2   3
ATOM      3  C   UNL     1       4.461  -7.919  -7.598  1.00  0.00     0.261 C 
BRANCH   3   4
ATOM      4  O   UNL     1       4.083  -6.817  -6.762  1.00  0.00    -0.460 OA
BRANCH   4   5
ATOM      5  C   UNL     1       3.978  -5.620  -7.392  1.00  0.00     0.338 C 
ATOM      6  O   UNL     1       4.317  -5.359  -8.534  1.00  0.00    -0.246 OA
BRANCH   5   7
ATOM      7  C   UNL     1       3.188  -4.692  -6.548  1.00  0.00     0.060 A 
ATOM      8  C   UNL     1       2.440  -3.869  -4.373  1.00  0.00    -0.043 A 
ATOM      9  C   UNL     1       1.607  -2.961  -5.047  1.00  0.00     0.004 A 
ATOM     10  C   UNL     1       3.196  -4.766  -5.150  1.00  0.00     0.019 A 
ATOM     11  C   UNL     1       1.563  -2.914  -6.443  1.00  0.00     0.001 A 
ATOM     12  C   UNL     1       2.366  -3.766  -7.193  1.00  0.00     0.016 A 
BRANCH   8  13
ATOM     13  C   UNL     1       2.529  -3.941  -2.850  1.00  0.00     0.034 C 
ATOM     14  N   UNL     1       2.560  -1.520  -2.207  1.00  0.00    -0.188 NA
ATOM     15  C   UNL     1       3.982  -1.550  -1.814  1.00  0.00     0.103 C 
ATOM     16  C   UNL     1       1.832  -2.808  -2.073  1.00  0.00     0.111 C 
ATOM     17  C   UNL     1       4.704  -2.691  -2.527  1.00  0.00     0.017 C 
ATOM     18  C   UNL     1       3.979  -4.019  -2.321  1.00  0.00     0.011 C 
BRANCH  14  19
ATOM     19  S   UNL     1       1.727  -0.081  -2.006  1.00  0.00     0.281 S 
ATOM     20  O   UNL     1       0.408  -0.247  -2.566  1.00  0.00    -0.195 OA
ATOM     21  O   UNL     1       2.574   0.999  -2.470  1.00  0.00    -0.195 OA
BRANCH  19  22
ATOM     22  N   UNL     1       1.598   0.102  -0.321  1.00  0.00    -0.189 NA
ATOM     23  C   UNL     1      -2.648   0.075  -0.006  1.00  0.00     0.008 C 
ATOM     24  C   UNL     1      -1.215   0.180   0.517  1.00  0.00    -0.012 C 
ATOM     25  C   UNL     1      -0.511   1.412  -0.087  1.00  0.00     0.020 C 
ATOM     26  C   UNL     1      -0.463  -1.135   0.258  1.00  0.00     0.020 C 
ATOM     27  C   UNL     1       1.009   1.408   0.099  1.00  0.00     0.104 C 
ATOM     28  C   UNL     1       1.023  -0.966   0.523  1.00  0.00     0.104 C 
ENDBRANCH  19  22
ENDBRANCH  14  19
ENDBRANCH   8  13
ENDBRANCH   5   7
ENDBRANCH   4   5
ENDBRANCH   3   4
ENDBRANCH   2   3
ENDBRANCH   1   2
BRANCH   1  29
ATOM     29  C   UNL     1       1.233  -7.520  -7.756  1.00  0.00     0.202 C 
BRANCH  29  30
ATOM     30  C   UNL     1       0.237  -8.255  -6.850  1.00  0.00     0.261 C 
BRANCH  30  31
ATOM     31  O   UNL     1       0.881  -9.058  -5.849  1.00  0.00    -0.460 OA
BRANCH  31  32
ATOM     32  C   UNL     1       0.845 -10.389  -6.104  1.00  0.00     0.338 C 
ATOM     33  O   UNL     1       0.269 -10.945  -7.024  1.00  0.00    -0.246 OA
BRANCH  32  34
ATOM     34  C   UNL     1       1.767 -11.107  -5.206  1.00  0.00     0.060 A 
ATOM     35  C   UNL     1       2.716 -11.940  -5.809  1.00  0.00     0.016 A 
ATOM     36  C   UNL     1       1.659 -11.041  -3.815  1.00  0.00     0.016 A 
ATOM     37  C   UNL     1       3.514 -12.764  -5.024  1.00  0.00     0.010 A 
ATOM     38  C   UNL     1       2.466 -11.871  -3.027  1.00  0.00     0.010 A 
ATOM     39  C   UNL     1       3.366 -12.768  -3.630  1.00  0.00    -0.014 A 
BRANCH  39  40
ATOM     40  C   UNL     1       4.095 -13.793  -2.843  1.00  0.00     0.031 A 
ATOM     41  C   UNL     1       3.355 -14.983  -2.295  1.00  0.00     0.074 A 
ATOM     42  C   UNL     1       5.426 -13.694  -2.678  1.00  0.00     0.049 A 
ATOM     43  N   UNL     1       3.825 -16.032  -1.670  1.00  0.00    -0.248 NA
ATOM     44  C   UNL     1       1.894 -14.997  -2.472  1.00  0.00     0.031 C 
ATOM     45  C   UNL     1       6.253 -12.584  -3.152  1.00  0.00     0.029 A 
ATOM     46  N   UNL     1       6.316 -14.539  -2.066  1.00  0.00    -0.354 N 
ATOM     47  C   UNL     1       2.723 -16.819  -1.361  1.00  0.00     0.074 A 
ATOM     48  C   UNL     1       1.555 -16.116  -1.847  1.00  0.00     0.031 C 
ATOM     49  C   UNL     1       7.531 -12.815  -2.810  1.00  0.00     0.029 A 
ATOM     50  C   UNL     1       7.610 -14.075  -2.075  1.00  0.00     0.049 A 
ATOM     51  H   UNL     1       6.053 -15.396  -1.658  1.00  0.00     0.167 HD
ATOM     52  C   UNL     1       2.685 -18.025  -0.744  1.00  0.00     0.034 A 
ATOM     53  C   UNL     1       8.730 -14.602  -1.544  1.00  0.00     0.034 A 
ATOM     54  C   UNL     1       3.849 -18.729  -0.273  1.00  0.00     0.049 A 
ATOM     55  C   UNL     1       8.659 -15.939  -0.857  1.00  0.00     0.074 A 
ATOM     56  C   UNL     1       3.919 -19.981   0.315  1.00  0.00     0.029 A 
ATOM     57  N   UNL     1       5.146 -18.238  -0.316  1.00  0.00    -0.354 N 
ATOM     58  N   UNL     1       7.626 -16.729  -0.688  1.00  0.00    -0.248 NA
ATOM     59  C   UNL     1       9.918 -16.475  -0.321  1.00  0.00     0.031 C 
ATOM     60  C   UNL     1       5.251 -20.227   0.666  1.00  0.00     0.029 A 
ATOM     61  C   UNL     1       6.019 -19.150   0.254  1.00  0.00     0.049 A 
ATOM     62  H   UNL     1       5.407 -17.369  -0.696  1.00  0.00     0.167 HD
ATOM     63  C   UNL     1       8.115 -17.866  -0.054  1.00  0.00     0.074 A 
ATOM     64  C   UNL     1       9.543 -17.675   0.098  1.00  0.00     0.031 C 
ATOM     65  C   UNL     1       7.443 -18.964   0.377  1.00  0.00     0.034 A 
BRANCH  52  66
ATOM     66  C   UNL     1       1.337 -18.674  -0.553  1.00  0.00     0.023 A 
ATOM     67  C   UNL     1       0.639 -19.189  -1.665  1.00  0.00     0.012 A 
ATOM     68  C   UNL     1       0.788 -18.827   0.736  1.00  0.00     0.148 A 
ATOM     69  C   UNL     1      -0.597 -19.815  -1.502  1.00  0.00     0.002 A 
ATOM     70  C   UNL     1      -0.420 -19.494   0.896  1.00  0.00     0.091 A 
ATOM     71  F   UNL     1       1.455 -18.314   1.779  1.00  0.00    -0.205 F 
ATOM     72  C   UNL     1      -1.120 -19.977  -0.222  1.00  0.00     0.022 A 
BRANCH  70  73
ATOM     73  S   UNL     1      -1.139 -19.826   2.509  1.00  0.00     0.127 S 
ATOM     74  O   UNL     1      -2.319 -18.962   2.488  1.00  0.00    -0.237 OA
ATOM     75  O   UNL     1      -1.431 -21.257   2.426  1.00  0.00    -0.237 OA
ATOM     76  O   UNL     1      -0.121 -19.466   3.486  1.00  0.00    -0.744 OA
ENDBRANCH  70  73
ENDBRANCH  52  66
BRANCH  53  77
ATOM     77  C   UNL     1      10.024 -13.873  -1.666  1.00  0.00     0.023 A 
ATOM     78  C   UNL     1      11.056 -14.402  -2.464  1.00  0.00     0.012 A 
ATOM     79  C   UNL     1      10.227 -12.648  -1.002  1.00  0.00     0.148 A 
ATOM     80  C   UNL     1      12.281 -13.742  -2.570  1.00  0.00     0.002 A 
ATOM     81  C   UNL     1      11.425 -11.965  -1.161  1.00  0.00     0.091 A 
ATOM     82  F   UNL     1       9.236 -12.170  -0.236  1.00  0.00    -0.205 F 
ATOM     83  C   UNL     1      12.461 -12.519  -1.928  1.00  0.00     0.022 A 
BRANCH  81  84
ATOM     84  S   UNL     1      11.692 -10.324  -0.483  1.00  0.00     0.127 S 
ATOM     85  O   UNL     1      12.697 -10.584   0.544  1.00  0.00    -0.237 OA
ATOM     86  O   UNL     1      12.179  -9.592  -1.653  1.00  0.00    -0.237 OA
ATOM     87  O   UNL     1      10.392  -9.881   0.003  1.00  0.00    -0.744 OA
ENDBRANCH  81  84
ENDBRANCH  53  77
BRANCH  65  88
ATOM     88  C   UNL     1       8.251 -20.056   1.034  1.00  0.00     0.023 A 
ATOM     89  C   UNL     1       8.840 -19.836   2.296  1.00  0.00     0.012 A 
ATOM     90  C   UNL     1       8.405 -21.312   0.413  1.00  0.00     0.148 A 
ATOM     91  C   UNL     1       9.615 -20.825   2.901  1.00  0.00     0.002 A 
ATOM     92  C   UNL     1       9.131 -22.312   1.048  1.00  0.00     0.091 A 
ATOM     93  F   UNL     1       7.851 -21.502  -0.794  1.00  0.00    -0.205 F 
ATOM     94  C   UNL     1       9.753 -22.065   2.283  1.00  0.00     0.022 A 
BRANCH  92  95
ATOM     95  S   UNL     1       9.280 -23.970   0.373  1.00  0.00     0.127 S 
ATOM     96  O   UNL     1      10.668 -23.982  -0.084  1.00  0.00    -0.237 OA
ATOM     97  O   UNL     1       9.017 -24.807   1.545  1.00  0.00    -0.237 OA
ATOM     98  O   UNL     1       8.274 -24.068  -0.675  1.00  0.00    -0.744 OA
ENDBRANCH  92  95
ENDBRANCH  65  88
ENDBRANCH  39  40
ENDBRANCH  32  34
ENDBRANCH  31  32
ENDBRANCH  30  31
ENDBRANCH  29  30
ENDBRANCH   1  29
TORSDOF 20
