REMARK SMILES CC(=O)NS(=O)(=O)c1cc(-c2ccn(C(F)F)c(=O)c2)ccc1C(=O)OCCOCCOC(=O)c1ccc(-c2c3nc(c(-c4cccc(S(=O)(=O)[O-])c4F)c4ccc([nH]4)c(-c4cccc(S(=O)(=O)[O-])c4F)c4nc(c(-c5cccc(S(=O)(=O)[O-])c5F)c5ccc2[nH]5)C=C4)C=C3)cc1
REMARK SMILES IDX 30 1 29 2 28 3 27 4 26 5 24 6 25 7 23 8 8 9 9 10 10 11 22 12
REMARK SMILES IDX 21 13 5 14 6 15 7 16 4 17 1 18 2 19 3 20 11 22 12 23 20 24
REMARK SMILES IDX 13 25 18 26 14 27 19 28 15 29 16 30 17 31 31 32 32 33 33 34
REMARK SMILES IDX 34 35 35 36 36 37 97 38 37 39 96 40 38 41 39 42 40 43 90 44
REMARK SMILES IDX 41 45 95 46 89 47 91 48 42 49 94 50 88 51 87 52 43 54 75 55
REMARK SMILES IDX 55 56 74 57 56 58 59 59 73 60 92 61 57 62 58 63 72 65 93 66
REMARK SMILES IDX 60 67 44 68 45 69 53 70 46 71 48 72 54 73 47 74 49 75 50 76
REMARK SMILES IDX 51 77 52 78 76 79 77 80 85 81 78 82 80 83 86 84 79 85 81 86
REMARK SMILES IDX 82 87 83 88 84 89 61 90 62 91 70 92 63 93 65 94 71 95 64 96
REMARK SMILES IDX 66 97 67 98 68 99 69 100
REMARK H PARENT 4 21 91 53 59 64
REMARK Flexibility Score: inf
ROOT
ATOM      1  C   UNL     1       0.546   5.283   2.587  1.00  0.00     0.202 C 
ENDROOT
BRANCH   1   2
ATOM      2  O   UNL     1       1.399   6.430   2.566  1.00  0.00    -0.374 OA
BRANCH   2   3
ATOM      3  C   UNL     1       2.005   6.706   1.296  1.00  0.00     0.202 C 
BRANCH   3   4
ATOM      4  C   UNL     1       3.412   6.123   1.188  1.00  0.00     0.261 C 
BRANCH   4   5
ATOM      5  O   UNL     1       3.316   4.693   1.051  1.00  0.00    -0.460 OA
BRANCH   5   6
ATOM      6  C   UNL     1       3.743   3.952   2.081  1.00  0.00     0.339 C 
ATOM      7  O   UNL     1       4.300   4.380   3.082  1.00  0.00    -0.246 OA
BRANCH   6   8
ATOM      8  C   UNL     1       3.398   2.504   1.937  1.00  0.00     0.080 A 
ATOM      9  C   UNL     1       2.924   1.821   0.801  1.00  0.00     0.103 A 
ATOM     10  C   UNL     1       2.732   0.427   0.855  1.00  0.00     0.032 A 
ATOM     11  C   UNL     1       2.885  -0.277   2.053  1.00  0.00    -0.017 A 
ATOM     12  C   UNL     1       3.583   1.764   3.126  1.00  0.00     0.018 A 
ATOM     13  C   UNL     1       3.305   0.399   3.193  1.00  0.00     0.010 A 
BRANCH   9  14
ATOM     14  S   UNL     1       2.404   2.676  -0.671  1.00  0.00     0.264 S 
ATOM     15  O   UNL     1       3.590   3.214  -1.289  1.00  0.00    -0.201 OA
ATOM     16  O   UNL     1       1.249   3.474  -0.322  1.00  0.00    -0.201 OA
BRANCH  14  17
ATOM     17  N   UNL     1       1.863   1.485  -1.716  1.00  0.00    -0.249 N 
ATOM     18  C   UNL     1      -0.271   0.744  -0.631  1.00  0.00     0.115 C 
ATOM     19  C   UNL     1       0.517   1.094  -1.867  1.00  0.00     0.230 C 
ATOM     20  O   UNL     1       0.087   0.845  -2.985  1.00  0.00    -0.274 OA
ATOM     21  H   UNL     1       2.535   1.022  -2.267  1.00  0.00     0.183 HD
ENDBRANCH  14  17
ENDBRANCH   9  14
BRANCH  11  22
ATOM     22  C   UNL     1       2.494  -1.691   2.137  1.00  0.00    -0.011 A 
ATOM     23  C   UNL     1       1.212  -2.094   2.681  1.00  0.00     0.027 A 
ATOM     24  C   UNL     1       3.345  -2.627   1.687  1.00  0.00     0.080 A 
ATOM     25  C   UNL     1       0.878  -3.387   2.741  1.00  0.00     0.095 A 
ATOM     26  C   UNL     1       2.991  -4.072   1.760  1.00  0.00     0.255 A 
ATOM     27  N   UNL     1       1.744  -4.365   2.291  1.00  0.00    -0.258 N 
ATOM     28  O   UNL     1       3.808  -4.897   1.362  1.00  0.00    -0.269 OA
BRANCH  27  29
ATOM     29  C   UNL     1       1.381  -5.755   2.378  1.00  0.00     0.451 C 
ATOM     30  F   UNL     1       1.403  -6.349   1.160  1.00  0.00    -0.185 F 
ATOM     31  F   UNL     1       2.231  -6.429   3.191  1.00  0.00    -0.185 F 
ENDBRANCH  27  29
ENDBRANCH  11  22
ENDBRANCH   6   8
ENDBRANCH   5   6
ENDBRANCH   4   5
ENDBRANCH   3   4
ENDBRANCH   2   3
ENDBRANCH   1   2
BRANCH   1  32
ATOM     32  C   UNL     1      -0.909   5.602   2.230  1.00  0.00     0.261 C 
BRANCH  32  33
ATOM     33  O   UNL     1      -1.030   5.920   0.834  1.00  0.00    -0.460 OA
BRANCH  33  34
ATOM     34  C   UNL     1      -1.137   7.239   0.544  1.00  0.00     0.338 C 
ATOM     35  O   UNL     1      -1.316   8.147   1.339  1.00  0.00    -0.246 OA
BRANCH  34  36
ATOM     36  C   UNL     1      -0.850   7.464  -0.894  1.00  0.00     0.060 A 
ATOM     37  C   UNL     1      -0.282   8.693  -1.254  1.00  0.00     0.016 A 
ATOM     38  C   UNL     1      -1.116   6.503  -1.877  1.00  0.00     0.016 A 
ATOM     39  C   UNL     1      -0.023   8.981  -2.593  1.00  0.00     0.010 A 
ATOM     40  C   UNL     1      -0.860   6.794  -3.221  1.00  0.00     0.010 A 
ATOM     41  C   UNL     1      -0.342   8.046  -3.586  1.00  0.00    -0.014 A 
BRANCH  41  42
ATOM     42  C   UNL     1      -0.255   8.444  -5.010  1.00  0.00     0.031 A 
ATOM     43  C   UNL     1      -1.475   9.008  -5.682  1.00  0.00     0.074 A 
ATOM     44  C   UNL     1       0.898   8.324  -5.692  1.00  0.00     0.049 A 
ATOM     45  N   UNL     1      -1.598   9.509  -6.882  1.00  0.00    -0.248 NA
ATOM     46  C   UNL     1      -2.720   9.011  -4.895  1.00  0.00     0.031 C 
ATOM     47  C   UNL     1       2.141   7.768  -5.162  1.00  0.00     0.029 A 
ATOM     48  N   UNL     1       1.201   8.655  -6.989  1.00  0.00    -0.354 N 
ATOM     49  C   UNL     1      -2.929   9.890  -6.996  1.00  0.00     0.074 A 
ATOM     50  C   UNL     1      -3.581   9.540  -5.753  1.00  0.00     0.031 C 
ATOM     51  C   UNL     1       3.072   7.780  -6.133  1.00  0.00     0.029 A 
ATOM     52  C   UNL     1       2.491   8.349  -7.349  1.00  0.00     0.049 A 
ATOM     53  H   UNL     1       0.555   9.073  -7.603  1.00  0.00     0.167 HD
ATOM     54  C   UNL     1      -3.547  10.507  -8.030  1.00  0.00     0.034 A 
ATOM     55  C   UNL     1       3.131   8.516  -8.524  1.00  0.00     0.034 A 
ATOM     56  C   UNL     1      -2.901  10.873  -9.259  1.00  0.00     0.049 A 
ATOM     57  C   UNL     1       2.414   9.186  -9.667  1.00  0.00     0.074 A 
ATOM     58  C   UNL     1      -3.430  11.553 -10.341  1.00  0.00     0.029 A 
ATOM     59  N   UNL     1      -1.585  10.575  -9.575  1.00  0.00    -0.354 N 
ATOM     60  N   UNL     1       1.207   9.698  -9.698  1.00  0.00    -0.248 NA
ATOM     61  C   UNL     1       3.160   9.335 -10.927  1.00  0.00     0.031 C 
ATOM     62  C   UNL     1      -2.432  11.664 -11.316  1.00  0.00     0.029 A 
ATOM     63  C   UNL     1      -1.286  11.046 -10.842  1.00  0.00     0.049 A 
ATOM     64  H   UNL     1      -0.956  10.099  -8.986  1.00  0.00     0.167 HD
ATOM     65  C   UNL     1       1.058  10.251 -10.966  1.00  0.00     0.074 A 
ATOM     66  C   UNL     1       2.306  10.030 -11.668  1.00  0.00     0.031 C 
ATOM     67  C   UNL     1      -0.020  10.870 -11.506  1.00  0.00     0.034 A 
BRANCH  54  68
ATOM     68  C   UNL     1      -4.986  10.889  -7.840  1.00  0.00     0.023 A 
ATOM     69  C   UNL     1      -5.287  12.056  -7.109  1.00  0.00     0.012 A 
ATOM     70  C   UNL     1      -6.029  10.133  -8.402  1.00  0.00     0.148 A 
ATOM     71  C   UNL     1      -6.609  12.458  -6.928  1.00  0.00     0.002 A 
ATOM     72  C   UNL     1      -7.345  10.553  -8.237  1.00  0.00     0.091 A 
ATOM     73  F   UNL     1      -5.724   9.005  -9.060  1.00  0.00    -0.205 F 
ATOM     74  C   UNL     1      -7.637  11.712  -7.500  1.00  0.00     0.022 A 
BRANCH  72  75
ATOM     75  S   UNL     1      -8.721   9.668  -8.980  1.00  0.00     0.127 S 
ATOM     76  O   UNL     1      -9.168   8.829  -7.871  1.00  0.00    -0.237 OA
ATOM     77  O   UNL     1      -9.642  10.750  -9.334  1.00  0.00    -0.237 OA
ATOM     78  O   UNL     1      -8.157   8.966 -10.125  1.00  0.00    -0.744 OA
ENDBRANCH  72  75
ENDBRANCH  54  68
BRANCH  55  79
ATOM     79  C   UNL     1       4.556   8.108  -8.655  1.00  0.00     0.023 A 
ATOM     80  C   UNL     1       5.554   9.099  -8.719  1.00  0.00     0.012 A 
ATOM     81  C   UNL     1       4.931   6.752  -8.690  1.00  0.00     0.148 A 
ATOM     82  C   UNL     1       6.899   8.746  -8.833  1.00  0.00     0.002 A 
ATOM     83  C   UNL     1       6.277   6.407  -8.761  1.00  0.00     0.091 A 
ATOM     84  F   UNL     1       3.967   5.820  -8.659  1.00  0.00    -0.205 F 
ATOM     85  C   UNL     1       7.262   7.401  -8.842  1.00  0.00     0.022 A 
BRANCH  83  86
ATOM     86  S   UNL     1       6.812   4.694  -8.660  1.00  0.00     0.127 S 
ATOM     87  O   UNL     1       6.934   4.333 -10.069  1.00  0.00    -0.237 OA
ATOM     88  O   UNL     1       8.082   4.801  -7.940  1.00  0.00    -0.237 OA
ATOM     89  O   UNL     1       5.761   4.017  -7.910  1.00  0.00    -0.744 OA
ENDBRANCH  83  86
ENDBRANCH  55  79
BRANCH  67  90
ATOM     90  C   UNL     1       0.088  11.357 -12.925  1.00  0.00     0.023 A 
ATOM     91  C   UNL     1      -0.032  10.430 -13.979  1.00  0.00     0.012 A 
ATOM     92  C   UNL     1       0.209  12.729 -13.220  1.00  0.00     0.148 A 
ATOM     93  C   UNL     1      -0.017  10.860 -15.305  1.00  0.00     0.002 A 
ATOM     94  C   UNL     1       0.189  13.153 -14.544  1.00  0.00     0.091 A 
ATOM     95  F   UNL     1       0.346  13.596 -12.205  1.00  0.00    -0.205 F 
ATOM     96  C   UNL     1       0.081  12.220 -15.588  1.00  0.00     0.022 A 
BRANCH  94  97
ATOM     97  S   UNL     1       0.225  14.898 -14.971  1.00  0.00     0.127 S 
ATOM     98  O   UNL     1       1.652  15.128 -15.183  1.00  0.00    -0.237 OA
ATOM     99  O   UNL     1      -0.587  14.950 -16.189  1.00  0.00    -0.237 OA
ATOM    100  O   UNL     1      -0.369  15.585 -13.831  1.00  0.00    -0.744 OA
ENDBRANCH  94  97
ENDBRANCH  67  90
ENDBRANCH  41  42
ENDBRANCH  34  36
ENDBRANCH  33  34
ENDBRANCH  32  33
ENDBRANCH   1  32
TORSDOF 21
