REMARK SMILES Cc1ccc(/C=C/C(=O)N[C@@H](CO)C(=O)OCCOCCOC(=O)c2ccc(-c3c4nc(c(-c5cccc(S(=O)(=O)[O-])c5F)c5ccc([nH]5)c(-c5cccc(S(=O)(=O)[O-])c5F)c5nc(c(-c6cccc(S(=O)(=O)[O-])c6F)c6ccc3[nH]6)C=C5)C=C4)cc2)o1
REMARK SMILES IDX 19 1 18 2 17 3 16 4 14 5 15 6 11 7 10 8 8 9 9 10 7 12 6 13
REMARK SMILES IDX 5 14 1 15 2 16 3 17 88 18 4 19 12 20 13 21 20 23 21 24 22 25
REMARK SMILES IDX 23 26 24 27 25 28 26 29 87 30 27 31 86 32 28 33 29 34 30 35
REMARK SMILES IDX 80 36 31 37 85 38 79 39 81 40 32 41 84 42 78 43 77 44 33 46
REMARK SMILES IDX 65 47 45 48 64 49 46 50 49 51 63 52 82 53 47 54 48 55 62 57
REMARK SMILES IDX 83 58 50 59 34 60 35 61 43 62 36 63 38 64 44 65 37 66 39 67
REMARK SMILES IDX 40 68 41 69 42 70 66 71 67 72 75 73 68 74 70 75 76 76 69 77
REMARK SMILES IDX 71 78 72 79 73 80 74 81 51 82 52 83 60 84 53 85 55 86 61 87
REMARK SMILES IDX 54 88 56 89 57 90 58 91 59 92
REMARK H PARENT 10 11 13 22 81 45 49 56
REMARK Flexibility Score: inf
ROOT
ATOM      1  O   UNL     1      -5.662   1.499  -3.919  1.00  0.00    -0.374 OA
ENDROOT
BRANCH   1   2
ATOM      2  C   UNL     1      -7.044   1.684  -3.611  1.00  0.00     0.202 C 
BRANCH   2   3
ATOM      3  C   UNL     1      -7.500   1.234  -2.219  1.00  0.00     0.261 C 
BRANCH   3   4
ATOM      4  O   UNL     1      -6.753   1.884  -1.178  1.00  0.00    -0.462 OA
BRANCH   4   5
ATOM      5  C   UNL     1      -6.240   1.073  -0.211  1.00  0.00     0.331 C 
ATOM      6  O   UNL     1      -6.448  -0.132  -0.116  1.00  0.00    -0.250 OA
BRANCH   5   7
ATOM      7  C   UNL     1      -5.382   1.841   0.803  1.00  0.00     0.218 C 
BRANCH   7   8
ATOM      8  N   UNL     1      -4.871   3.131   0.307  1.00  0.00    -0.337 N 
ATOM      9  C   UNL     1      -3.602   3.549   0.057  1.00  0.00     0.244 C 
ATOM     10  O   UNL     1      -3.393   4.707  -0.292  1.00  0.00    -0.270 OA
ATOM     11  H   UNL     1      -5.567   3.804   0.127  1.00  0.00     0.164 HD
BRANCH   9  12
ATOM     12  C   UNL     1      -2.451   2.636   0.235  1.00  0.00     0.075 C 
ATOM     13  C   UNL     1      -2.408   1.423  -0.332  1.00  0.00     0.053 C 
BRANCH  13  14
ATOM     14  C   UNL     1      -1.286   0.568  -0.183  1.00  0.00     0.127 A 
ATOM     15  C   UNL     1       2.275   0.141   0.086  1.00  0.00     0.087 C 
ATOM     16  C   UNL     1       0.821  -0.105   0.009  1.00  0.00     0.101 A 
ATOM     17  C   UNL     1       0.063  -1.250  -0.036  1.00  0.00     0.046 A 
ATOM     18  O   UNL     1       0.018   0.992  -0.047  1.00  0.00    -0.462 OA
ATOM     19  C   UNL     1      -1.277  -0.822  -0.172  1.00  0.00     0.050 A 
ENDBRANCH  13  14
ENDBRANCH   9  12
ENDBRANCH   7   8
BRANCH   7  20
ATOM     20  C   UNL     1      -6.203   2.032   2.079  1.00  0.00     0.193 C 
BRANCH  20  21
ATOM     21  O   UNL     1      -7.261   2.963   1.875  1.00  0.00    -0.394 OA
ATOM     22  H   UNL     1      -6.891   3.824   1.627  1.00  0.00     0.210 HD
ENDBRANCH  20  21
ENDBRANCH   7  20
ENDBRANCH   5   7
ENDBRANCH   4   5
ENDBRANCH   3   4
ENDBRANCH   2   3
ENDBRANCH   1   2
BRANCH   1  23
ATOM     23  C   UNL     1      -4.727   2.381  -3.295  1.00  0.00     0.202 C 
BRANCH  23  24
ATOM     24  C   UNL     1      -4.708   3.844  -3.754  1.00  0.00     0.261 C 
BRANCH  24  25
ATOM     25  O   UNL     1      -5.931   4.543  -3.457  1.00  0.00    -0.460 OA
BRANCH  25  26
ATOM     26  C   UNL     1      -6.606   4.987  -4.542  1.00  0.00     0.338 C 
ATOM     27  O   UNL     1      -6.267   4.880  -5.718  1.00  0.00    -0.246 OA
BRANCH  26  28
ATOM     28  C   UNL     1      -7.939   5.482  -4.161  1.00  0.00     0.060 A 
ATOM     29  C   UNL     1      -9.050   4.888  -4.772  1.00  0.00     0.016 A 
ATOM     30  C   UNL     1      -8.098   6.578  -3.310  1.00  0.00     0.016 A 
ATOM     31  C   UNL     1     -10.323   5.420  -4.576  1.00  0.00     0.010 A 
ATOM     32  C   UNL     1      -9.377   7.115  -3.121  1.00  0.00     0.010 A 
ATOM     33  C   UNL     1     -10.490   6.562  -3.783  1.00  0.00    -0.014 A 
BRANCH  33  34
ATOM     34  C   UNL     1     -11.806   7.247  -3.752  1.00  0.00     0.031 A 
ATOM     35  C   UNL     1     -12.017   8.477  -4.595  1.00  0.00     0.074 A 
ATOM     36  C   UNL     1     -12.804   6.780  -2.978  1.00  0.00     0.049 A 
ATOM     37  N   UNL     1     -13.079   9.232  -4.704  1.00  0.00    -0.248 NA
ATOM     38  C   UNL     1     -10.881   8.916  -5.424  1.00  0.00     0.031 C 
ATOM     39  C   UNL     1     -12.721   5.607  -2.110  1.00  0.00     0.029 A 
ATOM     40  N   UNL     1     -14.075   7.259  -2.776  1.00  0.00    -0.354 N 
ATOM     41  C   UNL     1     -12.730  10.254  -5.579  1.00  0.00     0.074 A 
ATOM     42  C   UNL     1     -11.359  10.023  -5.976  1.00  0.00     0.031 C 
ATOM     43  C   UNL     1     -13.878   5.479  -1.438  1.00  0.00     0.029 A 
ATOM     44  C   UNL     1     -14.776   6.569  -1.815  1.00  0.00     0.049 A 
ATOM     45  H   UNL     1     -14.449   8.022  -3.273  1.00  0.00     0.167 HD
ATOM     46  C   UNL     1     -13.489  11.285  -6.020  1.00  0.00     0.034 A 
ATOM     47  C   UNL     1     -15.992   6.806  -1.282  1.00  0.00     0.034 A 
ATOM     48  C   UNL     1     -14.864  11.492  -5.658  1.00  0.00     0.049 A 
ATOM     49  C   UNL     1     -16.814   7.958  -1.802  1.00  0.00     0.074 A 
ATOM     50  C   UNL     1     -15.737  12.461  -6.122  1.00  0.00     0.029 A 
ATOM     51  N   UNL     1     -15.564  10.732  -4.736  1.00  0.00    -0.354 N 
ATOM     52  N   UNL     1     -16.526   8.817  -2.749  1.00  0.00    -0.248 NA
ATOM     53  C   UNL     1     -18.144   8.151  -1.204  1.00  0.00     0.031 C 
ATOM     54  C   UNL     1     -16.958  12.302  -5.460  1.00  0.00     0.029 A 
ATOM     55  C   UNL     1     -16.852  11.220  -4.602  1.00  0.00     0.049 A 
ATOM     56  H   UNL     1     -15.198   9.958  -4.248  1.00  0.00     0.167 HD
ATOM     57  C   UNL     1     -17.650   9.625  -2.886  1.00  0.00     0.074 A 
ATOM     58  C   UNL     1     -18.633   9.140  -1.941  1.00  0.00     0.031 C 
ATOM     59  C   UNL     1     -17.845  10.686  -3.708  1.00  0.00     0.034 A 
BRANCH  46  60
ATOM     60  C   UNL     1     -12.867  12.268  -6.974  1.00  0.00     0.023 A 
ATOM     61  C   UNL     1     -12.693  11.913  -8.326  1.00  0.00     0.012 A 
ATOM     62  C   UNL     1     -12.558  13.577  -6.555  1.00  0.00     0.148 A 
ATOM     63  C   UNL     1     -12.208  12.843  -9.245  1.00  0.00     0.002 A 
ATOM     64  C   UNL     1     -12.113  14.509  -7.484  1.00  0.00     0.091 A 
ATOM     65  F   UNL     1     -12.714  13.885  -5.260  1.00  0.00    -0.205 F 
ATOM     66  C   UNL     1     -11.931  14.142  -8.828  1.00  0.00     0.022 A 
BRANCH  64  67
ATOM     67  S   UNL     1     -11.803  16.228  -7.063  1.00  0.00     0.127 S 
ATOM     68  O   UNL     1     -10.352  16.316  -7.232  1.00  0.00    -0.237 OA
ATOM     69  O   UNL     1     -12.579  16.937  -8.080  1.00  0.00    -0.237 OA
ATOM     70  O   UNL     1     -12.280  16.403  -5.699  1.00  0.00    -0.744 OA
ENDBRANCH  64  67
ENDBRANCH  46  60
BRANCH  47  71
ATOM     71  C   UNL     1     -16.523   5.923  -0.205  1.00  0.00     0.023 A 
ATOM     72  C   UNL     1     -17.631   5.093  -0.466  1.00  0.00     0.012 A 
ATOM     73  C   UNL     1     -15.944   5.910   1.078  1.00  0.00     0.148 A 
ATOM     74  C   UNL     1     -18.177   4.298   0.543  1.00  0.00     0.002 A 
ATOM     75  C   UNL     1     -16.457   5.073   2.063  1.00  0.00     0.091 A 
ATOM     76  F   UNL     1     -14.906   6.724   1.318  1.00  0.00    -0.205 F 
ATOM     77  C   UNL     1     -17.585   4.280   1.804  1.00  0.00     0.022 A 
BRANCH  75  78
ATOM     78  S   UNL     1     -15.668   4.902   3.667  1.00  0.00     0.127 S 
ATOM     79  O   UNL     1     -16.517   5.738   4.511  1.00  0.00    -0.237 OA
ATOM     80  O   UNL     1     -15.780   3.463   3.914  1.00  0.00    -0.237 OA
ATOM     81  O   UNL     1     -14.301   5.366   3.473  1.00  0.00    -0.744 OA
ENDBRANCH  75  78
ENDBRANCH  47  71
BRANCH  59  82
ATOM     82  C   UNL     1     -19.183  11.377  -3.662  1.00  0.00     0.023 A 
ATOM     83  C   UNL     1     -19.511  12.194  -2.563  1.00  0.00     0.012 A 
ATOM     84  C   UNL     1     -20.076  11.286  -4.748  1.00  0.00     0.148 A 
ATOM     85  C   UNL     1     -20.722  12.885  -2.530  1.00  0.00     0.002 A 
ATOM     86  C   UNL     1     -21.259  12.016  -4.730  1.00  0.00     0.091 A 
ATOM     87  F   UNL     1     -19.754  10.490  -5.778  1.00  0.00    -0.205 F 
ATOM     88  C   UNL     1     -21.589  12.806  -3.618  1.00  0.00     0.022 A 
BRANCH  86  89
ATOM     89  S   UNL     1     -22.387  12.050  -6.129  1.00  0.00     0.127 S 
ATOM     90  O   UNL     1     -23.478  11.202  -5.653  1.00  0.00    -0.237 OA
ATOM     91  O   UNL     1     -22.719  13.472  -6.229  1.00  0.00    -0.237 OA
ATOM     92  O   UNL     1     -21.634  11.527  -7.261  1.00  0.00    -0.744 OA
ENDBRANCH  86  89
ENDBRANCH  59  82
ENDBRANCH  33  34
ENDBRANCH  26  28
ENDBRANCH  25  26
ENDBRANCH  24  25
ENDBRANCH  23  24
ENDBRANCH   1  23
TORSDOF 22
