REMARK SMILES COC(=O)[C@H]1CN(C(=O)[C@@H]2CC=CC[C@@H]2C(=O)OCCOCCOC(=O)c2ccc(-c3c4nc(c(-c5cccc(S(=O)(=O)[O-])c5F)c5ccc([nH]5)c(-c5cccc(S(=O)(=O)[O-])c5F)c5nc(c(-c6cccc(S(=O)(=O)[O-])c6F)c6ccc3[nH]6)C=C5)C=C4)cc2)C[C@H]1C
REMARK SMILES IDX 20 1 19 2 18 3 16 4 17 5 15 6 10 7 11 8 12 9 14 10 13 11
REMARK SMILES IDX 8 12 9 13 7 14 5 15 6 16 91 17 90 18 92 19 3 20 4 21 2 22
REMARK SMILES IDX 1 23 21 24 22 25 23 26 24 27 25 28 26 29 27 30 28 31 89 32
REMARK SMILES IDX 29 33 88 34 30 35 31 36 32 37 82 38 33 39 87 40 81 41 83 42
REMARK SMILES IDX 34 43 86 44 80 45 79 46 35 48 67 49 47 50 66 51 48 52 51 53
REMARK SMILES IDX 65 54 84 55 49 56 50 57 64 59 85 60 52 61 36 62 37 63 45 64
REMARK SMILES IDX 38 65 40 66 46 67 39 68 41 69 42 70 43 71 44 72 68 73 69 74
REMARK SMILES IDX 77 75 70 76 72 77 78 78 71 79 73 80 74 81 75 82 76 83 53 84
REMARK SMILES IDX 54 85 62 86 55 87 57 88 63 89 56 90 58 91 59 92 60 93 61 94
REMARK H PARENT 83 47 51 58
REMARK Flexibility Score: inf
ROOT
ATOM      1  C   UNL     1      -4.271   8.618   5.826  1.00  0.00     0.202 C 
ENDROOT
BRANCH   1   2
ATOM      2  C   UNL     1      -4.077   8.968   4.350  1.00  0.00     0.261 C 
BRANCH   2   3
ATOM      3  O   UNL     1      -3.096   8.085   3.795  1.00  0.00    -0.463 OA
BRANCH   3   4
ATOM      4  C   UNL     1      -1.943   8.674   3.385  1.00  0.00     0.310 C 
ATOM      5  O   UNL     1      -1.833   9.860   3.112  1.00  0.00    -0.252 OA
BRANCH   4   6
ATOM      6  C   UNL     1      -0.840   7.632   3.292  1.00  0.00     0.115 C 
ATOM      7  C   UNL     1       0.553   8.064   3.793  1.00  0.00     0.097 C 
ATOM      8  C   UNL     1       1.149   9.240   3.010  1.00  0.00     0.041 C 
ATOM      9  C   UNL     1       0.831   9.183   1.542  1.00  0.00    -0.030 C 
ATOM     10  C   UNL     1      -0.763   7.263   1.797  1.00  0.00     0.043 C 
ATOM     11  C   UNL     1      -0.006   8.288   0.994  1.00  0.00    -0.030 C 
BRANCH   7  12
ATOM     12  C   UNL     1       0.868   8.130   5.302  1.00  0.00     0.226 C 
ATOM     13  O   UNL     1       1.345   7.139   5.865  1.00  0.00    -0.275 OA
BRANCH  12  14
ATOM     14  N   UNL     1       0.745   9.318   5.981  1.00  0.00    -0.341 N 
ATOM     15  C   UNL     1       1.498  11.203   7.135  1.00  0.00     0.123 C 
ATOM     16  C   UNL     1       1.533   9.667   7.151  1.00  0.00     0.135 C 
ATOM     17  C   UNL     1       0.179  11.567   6.395  1.00  0.00     0.021 C 
ATOM     18  C   UNL     1      -0.363  10.227   5.924  1.00  0.00     0.123 C 
ATOM     19  C   UNL     1      -0.920  12.306   7.157  1.00  0.00     0.010 C 
BRANCH  15  20
ATOM     20  C   UNL     1       1.675  11.823   8.499  1.00  0.00     0.310 C 
ATOM     21  O   UNL     1       1.981  11.222   9.518  1.00  0.00    -0.252 OA
BRANCH  20  22
ATOM     22  O   UNL     1       1.485  13.170   8.412  1.00  0.00    -0.469 OA
ATOM     23  C   UNL     1       1.325  13.866   9.649  1.00  0.00     0.282 C 
ENDBRANCH  20  22
ENDBRANCH  15  20
ENDBRANCH  12  14
ENDBRANCH   7  12
ENDBRANCH   4   6
ENDBRANCH   3   4
ENDBRANCH   2   3
ENDBRANCH   1   2
BRANCH   1  24
ATOM     24  O   UNL     1      -3.070   8.561   6.604  1.00  0.00    -0.374 OA
BRANCH  24  25
ATOM     25  C   UNL     1      -2.348   7.323   6.552  1.00  0.00     0.202 C 
BRANCH  25  26
ATOM     26  C   UNL     1      -2.662   6.313   7.651  1.00  0.00     0.261 C 
BRANCH  26  27
ATOM     27  O   UNL     1      -3.969   5.772   7.455  1.00  0.00    -0.460 OA
BRANCH  27  28
ATOM     28  C   UNL     1      -4.947   6.412   8.132  1.00  0.00     0.338 C 
ATOM     29  O   UNL     1      -4.816   7.260   9.001  1.00  0.00    -0.246 OA
BRANCH  28  30
ATOM     30  C   UNL     1      -6.229   6.094   7.482  1.00  0.00     0.060 A 
ATOM     31  C   UNL     1      -7.145   7.141   7.318  1.00  0.00     0.016 A 
ATOM     32  C   UNL     1      -6.503   4.813   6.993  1.00  0.00     0.016 A 
ATOM     33  C   UNL     1      -8.368   6.898   6.710  1.00  0.00     0.010 A 
ATOM     34  C   UNL     1      -7.731   4.569   6.387  1.00  0.00     0.010 A 
ATOM     35  C   UNL     1      -8.677   5.602   6.282  1.00  0.00    -0.014 A 
BRANCH  35  36
ATOM     36  C   UNL     1     -10.055   5.279   5.873  1.00  0.00     0.031 A 
ATOM     37  C   UNL     1     -10.941   4.579   6.860  1.00  0.00     0.074 A 
ATOM     38  C   UNL     1     -10.485   5.589   4.640  1.00  0.00     0.049 A 
ATOM     39  N   UNL     1     -12.162   4.144   6.709  1.00  0.00    -0.248 NA
ATOM     40  C   UNL     1     -10.369   4.328   8.195  1.00  0.00     0.031 C 
ATOM     41  C   UNL     1      -9.692   6.271   3.617  1.00  0.00     0.029 A 
ATOM     42  N   UNL     1     -11.685   5.341   4.032  1.00  0.00    -0.354 N 
ATOM     43  C   UNL     1     -12.493   3.537   7.914  1.00  0.00     0.074 A 
ATOM     44  C   UNL     1     -11.341   3.647   8.781  1.00  0.00     0.031 C 
ATOM     45  C   UNL     1     -10.422   6.361   2.493  1.00  0.00     0.029 A 
ATOM     46  C   UNL     1     -11.714   5.715   2.711  1.00  0.00     0.049 A 
ATOM     47  H   UNL     1     -12.453   4.934   4.495  1.00  0.00     0.167 HD
ATOM     48  C   UNL     1     -13.660   2.951   8.266  1.00  0.00     0.034 A 
ATOM     49  C   UNL     1     -12.668   5.525   1.781  1.00  0.00     0.034 A 
ATOM     50  C   UNL     1     -14.794   2.856   7.389  1.00  0.00     0.049 A 
ATOM     51  C   UNL     1     -13.944   4.836   2.186  1.00  0.00     0.074 A 
ATOM     52  C   UNL     1     -16.046   2.333   7.654  1.00  0.00     0.029 A 
ATOM     53  N   UNL     1     -14.803   3.273   6.066  1.00  0.00    -0.354 N 
ATOM     54  N   UNL     1     -14.296   4.374   3.362  1.00  0.00    -0.248 NA
ATOM     55  C   UNL     1     -14.964   4.664   1.143  1.00  0.00     0.031 C 
ATOM     56  C   UNL     1     -16.798   2.394   6.476  1.00  0.00     0.029 A 
ATOM     57  C   UNL     1     -16.030   2.995   5.490  1.00  0.00     0.049 A 
ATOM     58  H   UNL     1     -14.048   3.703   5.604  1.00  0.00     0.167 HD
ATOM     59  C   UNL     1     -15.587   3.884   3.211  1.00  0.00     0.074 A 
ATOM     60  C   UNL     1     -15.962   4.127   1.831  1.00  0.00     0.031 C 
ATOM     61  C   UNL     1     -16.389   3.278   4.122  1.00  0.00     0.034 A 
BRANCH  48  62
ATOM     62  C   UNL     1     -13.759   2.375   9.654  1.00  0.00     0.023 A 
ATOM     63  C   UNL     1     -13.791   3.233  10.773  1.00  0.00     0.012 A 
ATOM     64  C   UNL     1     -13.844   0.983   9.849  1.00  0.00     0.148 A 
ATOM     65  C   UNL     1     -13.864   2.713  12.065  1.00  0.00     0.002 A 
ATOM     66  C   UNL     1     -13.967   0.475  11.136  1.00  0.00     0.091 A 
ATOM     67  F   UNL     1     -13.784   0.182   8.776  1.00  0.00    -0.205 F 
ATOM     68  C   UNL     1     -13.963   1.337  12.246  1.00  0.00     0.022 A 
BRANCH  66  69
ATOM     69  S   UNL     1     -14.179  -1.277  11.469  1.00  0.00     0.127 S 
ATOM     70  O   UNL     1     -12.900  -1.615  12.091  1.00  0.00    -0.237 OA
ATOM     71  O   UNL     1     -15.321  -1.279  12.383  1.00  0.00    -0.237 OA
ATOM     72  O   UNL     1     -14.431  -1.904  10.179  1.00  0.00    -0.744 OA
ENDBRANCH  66  69
ENDBRANCH  48  62
BRANCH  49  73
ATOM     73  C   UNL     1     -12.458   6.018   0.392  1.00  0.00     0.023 A 
ATOM     74  C   UNL     1     -13.221   7.101  -0.083  1.00  0.00     0.012 A 
ATOM     75  C   UNL     1     -11.478   5.447  -0.444  1.00  0.00     0.148 A 
ATOM     76  C   UNL     1     -13.030   7.591  -1.375  1.00  0.00     0.002 A 
ATOM     77  C   UNL     1     -11.254   5.975  -1.709  1.00  0.00     0.091 A 
ATOM     78  F   UNL     1     -10.769   4.411   0.026  1.00  0.00    -0.205 F 
ATOM     79  C   UNL     1     -12.041   7.036  -2.184  1.00  0.00     0.022 A 
BRANCH  77  80
ATOM     80  S   UNL     1      -9.918   5.413  -2.769  1.00  0.00     0.127 S 
ATOM     81  O   UNL     1     -10.651   4.809  -3.879  1.00  0.00    -0.237 OA
ATOM     82  O   UNL     1      -9.241   6.670  -3.087  1.00  0.00    -0.237 OA
ATOM     83  O   UNL     1      -9.131   4.492  -1.960  1.00  0.00    -0.744 OA
ENDBRANCH  77  80
ENDBRANCH  49  73
BRANCH  61  84
ATOM     84  C   UNL     1     -17.762   2.855   3.668  1.00  0.00     0.023 A 
ATOM     85  C   UNL     1     -17.906   1.758   2.796  1.00  0.00     0.012 A 
ATOM     86  C   UNL     1     -18.911   3.498   4.170  1.00  0.00     0.148 A 
ATOM     87  C   UNL     1     -19.173   1.328   2.404  1.00  0.00     0.002 A 
ATOM     88  C   UNL     1     -20.170   3.030   3.818  1.00  0.00     0.091 A 
ATOM     89  F   UNL     1     -18.750   4.548   4.988  1.00  0.00    -0.205 F 
ATOM     90  C   UNL     1     -20.303   1.954   2.924  1.00  0.00     0.022 A 
BRANCH  88  91
ATOM     91  S   UNL     1     -21.681   3.707   4.513  1.00  0.00     0.127 S 
ATOM     92  O   UNL     1     -22.282   4.352   3.346  1.00  0.00    -0.237 OA
ATOM     93  O   UNL     1     -22.376   2.503   4.971  1.00  0.00    -0.237 OA
ATOM     94  O   UNL     1     -21.267   4.611   5.578  1.00  0.00    -0.744 OA
ENDBRANCH  88  91
ENDBRANCH  61  84
ENDBRANCH  35  36
ENDBRANCH  28  30
ENDBRANCH  27  28
ENDBRANCH  26  27
ENDBRANCH  25  26
ENDBRANCH  24  25
ENDBRANCH   1  24
TORSDOF 21
