REMARK SMILES C[C@H]1[C@H](C(=O)OCCOCCOC(=O)c2ccc(-c3c4nc(c(-c5cccc(S(=O)(=O)[O-])c5F)c5ccc([nH]5)c(-c5cccc(S(=O)(=O)[O-])c5F)c5nc(c(-c6cccc(S(=O)(=O)[O-])c6F)c6ccc3[nH]6)C=C5)C=C4)cc2)CCN1S(=O)(=O)[C@@H](C)C#N
REMARK SMILES IDX 9 1 8 2 7 3 6 4 4 5 5 6 3 7 1 8 2 9 80 10 78 11 79 12 81 13
REMARK SMILES IDX 82 14 83 15 84 16 85 17 86 18 87 19 10 20 11 21 12 22 13 23
REMARK SMILES IDX 14 24 15 25 16 26 77 27 17 28 76 29 18 30 19 31 20 32 70 33
REMARK SMILES IDX 21 34 75 35 69 36 71 37 22 38 74 39 68 40 67 41 23 43 55 44
REMARK SMILES IDX 35 45 54 46 36 47 39 48 53 49 72 50 37 51 38 52 52 54 73 55
REMARK SMILES IDX 40 56 24 57 25 58 33 59 26 60 28 61 34 62 27 63 29 64 30 65
REMARK SMILES IDX 31 66 32 67 56 68 57 69 65 70 58 71 60 72 66 73 59 74 61 75
REMARK SMILES IDX 62 76 63 77 64 78 41 79 42 80 50 81 43 82 45 83 51 84 44 85
REMARK SMILES IDX 46 86 47 87 48 88 49 89
REMARK H PARENT 71 42 39 53
REMARK Flexibility Score: inf
ROOT
ATOM      1  O   UNL     1       0.982   4.849   2.176  1.00  0.00    -0.374 OA
ENDROOT
BRANCH   1   2
ATOM      2  C   UNL     1       0.057   4.470   3.194  1.00  0.00     0.202 C 
BRANCH   2   3
ATOM      3  C   UNL     1      -1.106   3.566   2.768  1.00  0.00     0.261 C 
BRANCH   3   4
ATOM      4  O   UNL     1      -0.717   2.441   1.965  1.00  0.00    -0.463 OA
BRANCH   4   5
ATOM      5  C   UNL     1      -1.046   2.497   0.651  1.00  0.00     0.310 C 
ATOM      6  O   UNL     1      -1.615   3.437   0.105  1.00  0.00    -0.252 OA
BRANCH   5   7
ATOM      7  C   UNL     1      -0.703   1.234  -0.112  1.00  0.00     0.118 C 
ATOM      8  C   UNL     1       1.650   0.337  -0.397  1.00  0.00     0.027 C 
ATOM      9  C   UNL     1       0.398   0.340   0.487  1.00  0.00     0.084 C 
ATOM     10  N   UNL     1      -0.150  -1.072   0.496  1.00  0.00    -0.197 NA
ATOM     11  C   UNL     1      -1.932   0.344  -0.205  1.00  0.00     0.034 C 
ATOM     12  C   UNL     1      -1.351  -1.040  -0.394  1.00  0.00     0.103 C 
BRANCH  10  13
ATOM     13  S   UNL     1      -0.454  -1.763   2.037  1.00  0.00     0.230 S 
ATOM     14  O   UNL     1      -0.980  -0.719   2.882  1.00  0.00    -0.211 OA
ATOM     15  O   UNL     1      -1.235  -2.964   1.793  1.00  0.00    -0.211 OA
BRANCH  13  16
ATOM     16  C   UNL     1       1.136  -2.322   2.654  1.00  0.00     0.223 C 
ATOM     17  C   UNL     1       1.801  -3.330   1.732  1.00  0.00     0.043 C 
BRANCH  16  18
ATOM     18  C   UNL     1       2.017  -1.098   2.842  1.00  0.00     0.083 C 
ATOM     19  N   UNL     1       2.748  -0.082   2.998  1.00  0.00    -0.197 NA
ENDBRANCH  16  18
ENDBRANCH  13  16
ENDBRANCH  10  13
ENDBRANCH   5   7
ENDBRANCH   4   5
ENDBRANCH   3   4
ENDBRANCH   2   3
ENDBRANCH   1   2
BRANCH   1  20
ATOM     20  C   UNL     1       1.948   3.871   1.776  1.00  0.00     0.202 C 
BRANCH  20  21
ATOM     21  C   UNL     1       2.920   3.402   2.861  1.00  0.00     0.261 C 
BRANCH  21  22
ATOM     22  O   UNL     1       2.230   2.642   3.862  1.00  0.00    -0.460 OA
BRANCH  22  23
ATOM     23  C   UNL     1       2.973   2.388   4.962  1.00  0.00     0.338 C 
ATOM     24  O   UNL     1       4.138   2.698   5.152  1.00  0.00    -0.246 OA
BRANCH  23  25
ATOM     25  C   UNL     1       2.135   1.731   5.977  1.00  0.00     0.060 A 
ATOM     26  C   UNL     1       1.370   2.515   6.843  1.00  0.00     0.016 A 
ATOM     27  C   UNL     1       2.238   0.352   6.174  1.00  0.00     0.016 A 
ATOM     28  C   UNL     1       0.778   1.923   7.961  1.00  0.00     0.010 A 
ATOM     29  C   UNL     1       1.587  -0.248   7.252  1.00  0.00     0.010 A 
ATOM     30  C   UNL     1       0.922   0.545   8.199  1.00  0.00    -0.014 A 
BRANCH  30  31
ATOM     31  C   UNL     1       0.537  -0.029   9.515  1.00  0.00     0.031 A 
ATOM     32  C   UNL     1       1.617  -0.466  10.478  1.00  0.00     0.074 A 
ATOM     33  C   UNL     1      -0.756  -0.150   9.864  1.00  0.00     0.049 A 
ATOM     34  N   UNL     1       1.502  -0.925  11.698  1.00  0.00    -0.248 NA
ATOM     35  C   UNL     1       3.010  -0.392  10.001  1.00  0.00     0.031 C 
ATOM     36  C   UNL     1      -1.897   0.176   9.010  1.00  0.00     0.029 A 
ATOM     37  N   UNL     1      -1.327  -0.592  11.032  1.00  0.00    -0.354 N 
ATOM     38  C   UNL     1       2.794  -1.217  12.121  1.00  0.00     0.074 A 
ATOM     39  C   UNL     1       3.677  -0.922  11.015  1.00  0.00     0.031 C 
ATOM     40  C   UNL     1      -3.033  -0.072   9.684  1.00  0.00     0.029 A 
ATOM     41  C   UNL     1      -2.701  -0.577  11.015  1.00  0.00     0.049 A 
ATOM     42  H   UNL     1      -0.801  -0.892  11.808  1.00  0.00     0.167 HD
ATOM     43  C   UNL     1       3.220  -1.651  13.331  1.00  0.00     0.034 A 
ATOM     44  C   UNL     1      -3.590  -0.918  11.970  1.00  0.00     0.034 A 
ATOM     45  C   UNL     1       2.354  -1.890  14.452  1.00  0.00     0.049 A 
ATOM     46  C   UNL     1      -3.091  -1.345  13.326  1.00  0.00     0.074 A 
ATOM     47  C   UNL     1       2.696  -2.256  15.742  1.00  0.00     0.029 A 
ATOM     48  N   UNL     1       0.973  -1.782  14.419  1.00  0.00    -0.354 N 
ATOM     49  N   UNL     1      -1.857  -1.456  13.756  1.00  0.00    -0.248 NA
ATOM     50  C   UNL     1      -4.109  -1.646  14.344  1.00  0.00     0.031 C 
ATOM     51  C   UNL     1       1.518  -2.379  16.488  1.00  0.00     0.029 A 
ATOM     52  C   UNL     1       0.446  -2.077  15.665  1.00  0.00     0.049 A 
ATOM     53  H   UNL     1       0.445  -1.533  13.627  1.00  0.00     0.167 HD
ATOM     54  C   UNL     1      -1.950  -1.805  15.099  1.00  0.00     0.074 A 
ATOM     55  C   UNL     1      -3.362  -1.862  15.419  1.00  0.00     0.031 C 
ATOM     56  C   UNL     1      -0.958  -2.071  15.985  1.00  0.00     0.034 A 
BRANCH  43  57
ATOM     57  C   UNL     1       4.703  -1.830  13.526  1.00  0.00     0.023 A 
ATOM     58  C   UNL     1       5.527  -0.691  13.642  1.00  0.00     0.012 A 
ATOM     59  C   UNL     1       5.275  -3.111  13.647  1.00  0.00     0.148 A 
ATOM     60  C   UNL     1       6.900  -0.824  13.844  1.00  0.00     0.002 A 
ATOM     61  C   UNL     1       6.639  -3.235  13.888  1.00  0.00     0.091 A 
ATOM     62  F   UNL     1       4.482  -4.183  13.508  1.00  0.00    -0.205 F 
ATOM     63  C   UNL     1       7.454  -2.094  13.977  1.00  0.00     0.022 A 
BRANCH  61  64
ATOM     64  S   UNL     1       7.433  -4.826  14.148  1.00  0.00     0.127 S 
ATOM     65  O   UNL     1       8.140  -5.013  12.883  1.00  0.00    -0.237 OA
ATOM     66  O   UNL     1       8.299  -4.558  15.297  1.00  0.00    -0.237 OA
ATOM     67  O   UNL     1       6.356  -5.770  14.412  1.00  0.00    -0.744 OA
ENDBRANCH  61  64
ENDBRANCH  43  57
BRANCH  44  68
ATOM     68  C   UNL     1      -5.050  -0.780  11.704  1.00  0.00     0.023 A 
ATOM     69  C   UNL     1      -5.775   0.244  12.344  1.00  0.00     0.012 A 
ATOM     70  C   UNL     1      -5.715  -1.635  10.806  1.00  0.00     0.148 A 
ATOM     71  C   UNL     1      -7.143   0.397  12.116  1.00  0.00     0.002 A 
ATOM     72  C   UNL     1      -7.067  -1.445  10.543  1.00  0.00     0.091 A 
ATOM     73  F   UNL     1      -5.012  -2.616  10.222  1.00  0.00    -0.205 F 
ATOM     74  C   UNL     1      -7.786  -0.440  11.208  1.00  0.00     0.022 A 
BRANCH  72  75
ATOM     75  S   UNL     1      -7.944  -2.396   9.296  1.00  0.00     0.127 S 
ATOM     76  O   UNL     1      -8.743  -3.301  10.117  1.00  0.00    -0.237 OA
ATOM     77  O   UNL     1      -8.707  -1.358   8.602  1.00  0.00    -0.237 OA
ATOM     78  O   UNL     1      -6.908  -3.019   8.485  1.00  0.00    -0.744 OA
ENDBRANCH  72  75
ENDBRANCH  44  68
BRANCH  56  79
ATOM     79  C   UNL     1      -1.354  -2.427  17.394  1.00  0.00     0.023 A 
ATOM     80  C   UNL     1      -1.915  -3.691  17.661  1.00  0.00     0.012 A 
ATOM     81  C   UNL     1      -1.107  -1.541  18.462  1.00  0.00     0.148 A 
ATOM     82  C   UNL     1      -2.256  -4.056  18.963  1.00  0.00     0.002 A 
ATOM     83  C   UNL     1      -1.409  -1.929  19.763  1.00  0.00     0.091 A 
ATOM     84  F   UNL     1      -0.592  -0.334  18.189  1.00  0.00    -0.205 F 
ATOM     85  C   UNL     1      -1.994  -3.180  20.014  1.00  0.00     0.022 A 
BRANCH  83  86
ATOM     86  S   UNL     1      -1.016  -0.894  21.178  1.00  0.00     0.127 S 
ATOM     87  O   UNL     1      -2.305  -0.266  21.459  1.00  0.00    -0.237 OA
ATOM     88  O   UNL     1      -0.585  -1.873  22.177  1.00  0.00    -0.237 OA
ATOM     89  O   UNL     1       0.040   0.003  20.727  1.00  0.00    -0.744 OA
ENDBRANCH  83  86
ENDBRANCH  56  79
ENDBRANCH  30  31
ENDBRANCH  23  25
ENDBRANCH  22  23
ENDBRANCH  21  22
ENDBRANCH  20  21
ENDBRANCH   1  20
TORSDOF 20
