REMARK SMILES Cc1ccn2c([C@@H]3CCCC[C@@H]3C(=O)OCCOCCOC(=O)c3ccc(-c4c5nc(c(-c6cccc(S(=O)(=O)[O-])c6F)c6ccc([nH]6)c(-c6cccc(S(=O)(=O)[O-])c6F)c6nc(c(-c7cccc(S(=O)(=O)[O-])c7F)c7ccc4[nH]7)C=C6)C=C5)cc3)nnc2c1
REMARK SMILES IDX 19 1 18 2 17 3 16 4 15 5 13 6 14 7 12 8 7 9 8 10 9 11 11 12
REMARK SMILES IDX 10 13 6 14 1 15 2 16 3 17 90 18 4 19 89 20 5 21 88 22 87 23
REMARK SMILES IDX 20 24 21 25 22 26 23 27 24 28 25 29 86 30 26 31 85 32 27 33
REMARK SMILES IDX 28 34 29 35 79 36 30 37 84 38 78 39 80 40 31 41 83 42 77 43
REMARK SMILES IDX 76 44 32 46 64 47 44 48 63 49 45 50 48 51 62 52 81 53 46 54
REMARK SMILES IDX 47 55 61 57 82 58 49 59 33 60 34 61 42 62 35 63 37 64 43 65
REMARK SMILES IDX 36 66 38 67 39 68 40 69 41 70 65 71 66 72 74 73 67 74 69 75
REMARK SMILES IDX 75 76 68 77 70 78 71 79 72 80 73 81 50 82 51 83 59 84 52 85
REMARK SMILES IDX 54 86 60 87 53 88 55 89 56 90 57 91 58 92
REMARK H PARENT 80 45 48 56
REMARK Flexibility Score: inf
ROOT
ATOM      1  C   UNL     1       2.828  -3.636  -2.506  1.00  0.00     0.202 C 
ENDROOT
BRANCH   1   2
ATOM      2  O   UNL     1       2.664  -3.789  -1.094  1.00  0.00    -0.374 OA
BRANCH   2   3
ATOM      3  C   UNL     1       3.599  -4.625  -0.409  1.00  0.00     0.202 C 
BRANCH   3   4
ATOM      4  C   UNL     1       3.690  -6.114  -0.785  1.00  0.00     0.261 C 
BRANCH   4   5
ATOM      5  O   UNL     1       2.914  -6.427  -1.937  1.00  0.00    -0.463 OA
BRANCH   5   6
ATOM      6  C   UNL     1       1.581  -6.430  -1.671  1.00  0.00     0.309 C 
ATOM      7  O   UNL     1       1.103  -6.398  -0.548  1.00  0.00    -0.252 OA
BRANCH   6   8
ATOM      8  C   UNL     1       0.798  -6.506  -2.966  1.00  0.00     0.110 C 
ATOM      9  C   UNL     1      -0.677  -6.088  -2.827  1.00  0.00     0.072 C 
ATOM     10  C   UNL     1      -1.445  -6.943  -1.823  1.00  0.00     0.012 C 
ATOM     11  C   UNL     1      -1.255  -8.444  -2.120  1.00  0.00     0.001 C 
ATOM     12  C   UNL     1       0.872  -7.957  -3.450  1.00  0.00     0.016 C 
ATOM     13  C   UNL     1       0.173  -8.889  -2.462  1.00  0.00     0.001 C 
BRANCH   9  14
ATOM     14  C   UNL     1      -0.942  -4.600  -2.835  1.00  0.00     0.141 A 
ATOM     15  C   UNL     1       0.523  -0.040   0.066  1.00  0.00     0.044 C 
ATOM     16  C   UNL     1      -0.029  -1.254  -0.623  1.00  0.00    -0.046 A 
ATOM     17  C   UNL     1       0.012  -2.523   0.102  1.00  0.00     0.022 A 
ATOM     18  C   UNL     1      -0.509  -1.213  -1.883  1.00  0.00     0.053 A 
ATOM     19  C   UNL     1      -0.323  -3.666  -0.529  1.00  0.00     0.095 A 
ATOM     20  C   UNL     1      -0.877  -2.419  -2.542  1.00  0.00     0.161 A 
ATOM     21  N   UNL     1      -0.706  -3.629  -1.867  1.00  0.00    -0.286 N 
ATOM     22  N   UNL     1      -1.322  -2.640  -3.755  1.00  0.00    -0.130 NA
ATOM     23  N   UNL     1      -1.369  -3.993  -3.935  1.00  0.00    -0.134 NA
ENDBRANCH   9  14
ENDBRANCH   6   8
ENDBRANCH   5   6
ENDBRANCH   4   5
ENDBRANCH   3   4
ENDBRANCH   2   3
ENDBRANCH   1   2
BRANCH   1  24
ATOM     24  C   UNL     1       3.128  -2.197  -2.925  1.00  0.00     0.261 C 
BRANCH  24  25
ATOM     25  O   UNL     1       4.530  -2.098  -3.212  1.00  0.00    -0.460 OA
BRANCH  25  26
ATOM     26  C   UNL     1       5.239  -1.509  -2.225  1.00  0.00     0.338 C 
ATOM     27  O   UNL     1       5.011  -0.402  -1.752  1.00  0.00    -0.246 OA
BRANCH  26  28
ATOM     28  C   UNL     1       6.135  -2.522  -1.627  1.00  0.00     0.060 A 
ATOM     29  C   UNL     1       6.474  -3.693  -2.324  1.00  0.00     0.016 A 
ATOM     30  C   UNL     1       6.426  -2.396  -0.260  1.00  0.00     0.016 A 
ATOM     31  C   UNL     1       7.019  -4.761  -1.624  1.00  0.00     0.010 A 
ATOM     32  C   UNL     1       6.973  -3.470   0.439  1.00  0.00     0.010 A 
ATOM     33  C   UNL     1       7.239  -4.662  -0.237  1.00  0.00    -0.014 A 
BRANCH  33  34
ATOM     34  C   UNL     1       8.015  -5.733   0.386  1.00  0.00     0.031 A 
ATOM     35  C   UNL     1       9.383  -5.814  -0.196  1.00  0.00     0.074 A 
ATOM     36  C   UNL     1       7.695  -6.491   1.454  1.00  0.00     0.049 A 
ATOM     37  N   UNL     1       9.891  -6.772  -0.900  1.00  0.00    -0.248 NA
ATOM     38  C   UNL     1      10.207  -4.597  -0.128  1.00  0.00     0.031 C 
ATOM     39  C   UNL     1       6.543  -6.381   2.348  1.00  0.00     0.029 A 
ATOM     40  N   UNL     1       8.444  -7.478   2.034  1.00  0.00    -0.354 N 
ATOM     41  C   UNL     1      11.185  -6.354  -1.193  1.00  0.00     0.074 A 
ATOM     42  C   UNL     1      11.264  -4.957  -0.851  1.00  0.00     0.031 C 
ATOM     43  C   UNL     1       6.789  -7.096   3.473  1.00  0.00     0.029 A 
ATOM     44  C   UNL     1       8.054  -7.800   3.332  1.00  0.00     0.049 A 
ATOM     45  H   UNL     1       9.193  -7.922   1.575  1.00  0.00     0.167 HD
ATOM     46  C   UNL     1      12.185  -7.225  -1.484  1.00  0.00     0.034 A 
ATOM     47  C   UNL     1       8.766  -8.530   4.229  1.00  0.00     0.034 A 
ATOM     48  C   UNL     1      11.710  -8.535  -1.812  1.00  0.00     0.049 A 
ATOM     49  C   UNL     1       9.759  -9.316   3.459  1.00  0.00     0.074 A 
ATOM     50  C   UNL     1      10.867  -9.059  -2.771  1.00  0.00     0.029 A 
ATOM     51  N   UNL     1      11.851  -9.507  -0.853  1.00  0.00    -0.354 N 
ATOM     52  N   UNL     1       9.454 -10.318   2.684  1.00  0.00    -0.248 NA
ATOM     53  C   UNL     1      11.098  -8.772   3.288  1.00  0.00     0.031 C 
ATOM     54  C   UNL     1      10.184 -10.122  -2.116  1.00  0.00     0.029 A 
ATOM     55  C   UNL     1      10.668 -10.191  -0.808  1.00  0.00     0.049 A 
ATOM     56  H   UNL     1      12.650  -9.678  -0.304  1.00  0.00     0.167 HD
ATOM     57  C   UNL     1      10.383 -10.256   1.657  1.00  0.00     0.074 A 
ATOM     58  C   UNL     1      11.434  -9.367   2.141  1.00  0.00     0.031 C 
ATOM     59  C   UNL     1      10.075 -10.700   0.406  1.00  0.00     0.034 A 
BRANCH  46  60
ATOM     60  C   UNL     1      13.619  -6.971  -1.123  1.00  0.00     0.023 A 
ATOM     61  C   UNL     1      14.614  -7.735  -1.761  1.00  0.00     0.012 A 
ATOM     62  C   UNL     1      14.002  -6.203  -0.000  1.00  0.00     0.148 A 
ATOM     63  C   UNL     1      15.933  -7.736  -1.297  1.00  0.00     0.002 A 
ATOM     64  C   UNL     1      15.327  -6.138   0.401  1.00  0.00     0.091 A 
ATOM     65  F   UNL     1      13.064  -5.640   0.772  1.00  0.00    -0.205 F 
ATOM     66  C   UNL     1      16.295  -6.922  -0.228  1.00  0.00     0.022 A 
BRANCH  64  67
ATOM     67  S   UNL     1      15.832  -5.055   1.740  1.00  0.00     0.127 S 
ATOM     68  O   UNL     1      15.944  -5.995   2.850  1.00  0.00    -0.237 OA
ATOM     69  O   UNL     1      17.102  -4.527   1.239  1.00  0.00    -0.237 OA
ATOM     70  O   UNL     1      14.773  -4.058   1.839  1.00  0.00    -0.744 OA
ENDBRANCH  64  67
ENDBRANCH  46  60
BRANCH  47  71
ATOM     71  C   UNL     1       8.802  -8.528   5.716  1.00  0.00     0.023 A 
ATOM     72  C   UNL     1       9.423  -9.605   6.390  1.00  0.00     0.012 A 
ATOM     73  C   UNL     1       8.500  -7.372   6.467  1.00  0.00     0.148 A 
ATOM     74  C   UNL     1       9.779  -9.515   7.741  1.00  0.00     0.002 A 
ATOM     75  C   UNL     1       8.844  -7.293   7.817  1.00  0.00     0.091 A 
ATOM     76  F   UNL     1       7.963  -6.316   5.843  1.00  0.00    -0.205 F 
ATOM     77  C   UNL     1       9.499  -8.355   8.453  1.00  0.00     0.022 A 
BRANCH  75  78
ATOM     78  S   UNL     1       8.518  -5.822   8.800  1.00  0.00     0.127 S 
ATOM     79  O   UNL     1       8.005  -6.391  10.047  1.00  0.00    -0.237 OA
ATOM     80  O   UNL     1       9.846  -5.223   8.901  1.00  0.00    -0.237 OA
ATOM     81  O   UNL     1       7.532  -5.057   8.046  1.00  0.00    -0.744 OA
ENDBRANCH  75  78
ENDBRANCH  47  71
BRANCH  59  82
ATOM     82  C   UNL     1       8.829 -11.521   0.220  1.00  0.00     0.023 A 
ATOM     83  C   UNL     1       7.545 -10.963   0.387  1.00  0.00     0.012 A 
ATOM     84  C   UNL     1       8.961 -12.786  -0.377  1.00  0.00     0.148 A 
ATOM     85  C   UNL     1       6.411 -11.655  -0.043  1.00  0.00     0.002 A 
ATOM     86  C   UNL     1       7.835 -13.447  -0.846  1.00  0.00     0.091 A 
ATOM     87  F   UNL     1      10.196 -13.285  -0.533  1.00  0.00    -0.205 F 
ATOM     88  C   UNL     1       6.558 -12.888  -0.677  1.00  0.00     0.022 A 
BRANCH  86  89
ATOM     89  S   UNL     1       7.953 -14.965  -1.796  1.00  0.00     0.127 S 
ATOM     90  O   UNL     1       7.241 -15.915  -0.943  1.00  0.00    -0.237 OA
ATOM     91  O   UNL     1       7.253 -14.607  -3.030  1.00  0.00    -0.237 OA
ATOM     92  O   UNL     1       9.376 -15.232  -1.965  1.00  0.00    -0.744 OA
ENDBRANCH  86  89
ENDBRANCH  59  82
ENDBRANCH  33  34
ENDBRANCH  26  28
ENDBRANCH  25  26
ENDBRANCH  24  25
ENDBRANCH   1  24
TORSDOF 18
