REMARK SMILES O=C(OCCOCCOC(=O)[C@H]1C=C[C@H](NS(=O)(=O)c2ccc(F)c(F)c2F)C1)c1ccc(-c2c3nc(c(-c4cccc(S(=O)(=O)[O-])c4F)c4ccc([nH]4)c(-c4cccc(S(=O)(=O)[O-])c4F)c4nc(c(-c5cccc(S(=O)(=O)[O-])c5F)c5ccc2[nH]5)C=C4)C=C3)cc1
REMARK SMILES IDX 6 1 5 2 4 3 3 4 2 5 1 6 30 7 31 8 92 9 32 10 91 11 33 12
REMARK SMILES IDX 34 13 35 14 85 15 36 16 90 17 84 18 86 19 37 20 89 21 83 22
REMARK SMILES IDX 82 23 38 25 70 26 50 27 69 28 51 29 54 30 68 31 87 32 52 33
REMARK SMILES IDX 53 34 67 36 88 37 55 38 39 39 40 40 48 41 41 42 43 43 49 44
REMARK SMILES IDX 42 45 44 46 45 47 46 48 47 49 71 50 72 51 80 52 73 53 75 54
REMARK SMILES IDX 81 55 74 56 76 57 77 58 78 59 79 60 56 61 57 62 65 63 58 64
REMARK SMILES IDX 60 65 66 66 59 67 61 68 62 69 63 70 64 71 7 72 8 73 9 74
REMARK SMILES IDX 10 75 11 76 12 77 13 78 29 79 14 80 15 81 16 82 17 84 18 85
REMARK SMILES IDX 19 86 20 87 21 88 27 89 22 90 25 91 28 92 23 93 26 94 24 95
REMARK H PARENT 86 24 54 35 16 83
REMARK Flexibility Score: inf
ROOT
ATOM      1  O   UNL     1       3.865   0.304   1.895  1.00  0.00    -0.374 OA
ENDROOT
BRANCH   1   2
ATOM      2  C   UNL     1       4.474   1.061   0.847  1.00  0.00     0.202 C 
BRANCH   2   3
ATOM      3  C   UNL     1       3.998   0.951  -0.614  1.00  0.00     0.261 C 
BRANCH   3   4
ATOM      4  O   UNL     1       2.584   0.746  -0.748  1.00  0.00    -0.460 OA
BRANCH   4   5
ATOM      5  C   UNL     1       1.975  -0.419  -1.095  1.00  0.00     0.338 C 
ATOM      6  O   UNL     1       0.782  -0.416  -1.380  1.00  0.00    -0.246 OA
BRANCH   5   7
ATOM      7  C   UNL     1       2.729  -1.704  -1.120  1.00  0.00     0.060 A 
ATOM      8  C   UNL     1       3.822  -1.954  -0.293  1.00  0.00     0.016 A 
ATOM      9  C   UNL     1       2.289  -2.730  -1.963  1.00  0.00     0.016 A 
ATOM     10  C   UNL     1       4.570  -3.103  -0.400  1.00  0.00     0.010 A 
ATOM     11  C   UNL     1       2.973  -3.950  -1.998  1.00  0.00     0.010 A 
ATOM     12  C   UNL     1       4.133  -4.122  -1.232  1.00  0.00    -0.014 A 
BRANCH  12  13
ATOM     13  C   UNL     1       4.967  -5.330  -1.283  1.00  0.00     0.031 A 
ATOM     14  C   UNL     1       5.758  -5.599  -2.520  1.00  0.00     0.074 A 
ATOM     15  C   UNL     1       5.105  -6.067  -0.164  1.00  0.00     0.049 A 
ATOM     16  N   UNL     1       6.531  -6.612  -2.792  1.00  0.00    -0.248 NA
ATOM     17  C   UNL     1       5.683  -4.589  -3.591  1.00  0.00     0.031 C 
ATOM     18  C   UNL     1       4.447  -5.785   1.119  1.00  0.00     0.029 A 
ATOM     19  N   UNL     1       5.858  -7.179   0.091  1.00  0.00    -0.354 N 
ATOM     20  C   UNL     1       6.976  -6.401  -4.090  1.00  0.00     0.074 A 
ATOM     21  C   UNL     1       6.420  -5.146  -4.541  1.00  0.00     0.031 C 
ATOM     22  C   UNL     1       4.842  -6.689   2.027  1.00  0.00     0.029 A 
ATOM     23  C   UNL     1       5.704  -7.661   1.371  1.00  0.00     0.049 A 
ATOM     24  H   UNL     1       6.452  -7.593  -0.575  1.00  0.00     0.167 HD
ATOM     25  C   UNL     1       7.767  -7.204  -4.833  1.00  0.00     0.034 A 
ATOM     26  C   UNL     1       6.172  -8.794   1.925  1.00  0.00     0.034 A 
ATOM     27  C   UNL     1       8.316  -8.434  -4.335  1.00  0.00     0.049 A 
ATOM     28  C   UNL     1       7.016  -9.686   1.058  1.00  0.00     0.074 A 
ATOM     29  C   UNL     1       9.095  -9.362  -4.997  1.00  0.00     0.029 A 
ATOM     30  N   UNL     1       8.134  -8.904  -3.041  1.00  0.00    -0.354 N 
ATOM     31  N   UNL     1       7.428  -9.485  -0.172  1.00  0.00    -0.248 NA
ATOM     32  C   UNL     1       7.462 -10.953   1.646  1.00  0.00     0.031 C 
ATOM     33  C   UNL     1       9.366 -10.406  -4.106  1.00  0.00     0.029 A 
ATOM     34  C   UNL     1       8.781 -10.113  -2.882  1.00  0.00     0.049 A 
ATOM     35  H   UNL     1       7.620  -8.442  -2.340  1.00  0.00     0.167 HD
ATOM     36  C   UNL     1       8.198 -10.590  -0.501  1.00  0.00     0.074 A 
ATOM     37  C   UNL     1       8.219 -11.442   0.673  1.00  0.00     0.031 C 
ATOM     38  C   UNL     1       8.813 -10.894  -1.671  1.00  0.00     0.034 A 
BRANCH  25  39
ATOM     39  C   UNL     1       8.029  -6.794  -6.253  1.00  0.00     0.023 A 
ATOM     40  C   UNL     1       8.922  -5.742  -6.538  1.00  0.00     0.012 A 
ATOM     41  C   UNL     1       7.376  -7.455  -7.312  1.00  0.00     0.148 A 
ATOM     42  C   UNL     1       9.140  -5.336  -7.855  1.00  0.00     0.002 A 
ATOM     43  C   UNL     1       7.626  -7.070  -8.623  1.00  0.00     0.091 A 
ATOM     44  F   UNL     1       6.507  -8.431  -7.014  1.00  0.00    -0.205 F 
ATOM     45  C   UNL     1       8.499  -6.004  -8.896  1.00  0.00     0.022 A 
BRANCH  43  46
ATOM     46  S   UNL     1       6.888  -7.898 -10.035  1.00  0.00     0.127 S 
ATOM     47  O   UNL     1       6.040  -6.842 -10.586  1.00  0.00    -0.237 OA
ATOM     48  O   UNL     1       8.062  -8.222 -10.845  1.00  0.00    -0.237 OA
ATOM     49  O   UNL     1       6.176  -9.050  -9.501  1.00  0.00    -0.744 OA
ENDBRANCH  43  46
ENDBRANCH  25  39
BRANCH  26  50
ATOM     50  C   UNL     1       5.829  -9.151   3.332  1.00  0.00     0.023 A 
ATOM     51  C   UNL     1       6.845  -9.236   4.303  1.00  0.00     0.012 A 
ATOM     52  C   UNL     1       4.495  -9.393   3.721  1.00  0.00     0.148 A 
ATOM     53  C   UNL     1       6.544  -9.583   5.622  1.00  0.00     0.002 A 
ATOM     54  C   UNL     1       4.194  -9.678   5.048  1.00  0.00     0.091 A 
ATOM     55  F   UNL     1       3.538  -9.336   2.784  1.00  0.00    -0.205 F 
ATOM     56  C   UNL     1       5.219  -9.792   5.997  1.00  0.00     0.022 A 
BRANCH  54  57
ATOM     57  S   UNL     1       2.500  -9.823   5.628  1.00  0.00     0.127 S 
ATOM     58  O   UNL     1       2.341 -11.271   5.728  1.00  0.00    -0.237 OA
ATOM     59  O   UNL     1       2.550  -9.118   6.910  1.00  0.00    -0.237 OA
ATOM     60  O   UNL     1       1.689  -9.158   4.616  1.00  0.00    -0.744 OA
ENDBRANCH  54  57
ENDBRANCH  26  50
BRANCH  38  61
ATOM     61  C   UNL     1       9.585 -12.180  -1.718  1.00  0.00     0.023 A 
ATOM     62  C   UNL     1       8.897 -13.405  -1.802  1.00  0.00     0.012 A 
ATOM     63  C   UNL     1      10.991 -12.160  -1.771  1.00  0.00     0.148 A 
ATOM     64  C   UNL     1       9.603 -14.601  -1.914  1.00  0.00     0.002 A 
ATOM     65  C   UNL     1      11.685 -13.350  -1.937  1.00  0.00     0.091 A 
ATOM     66  F   UNL     1      11.619 -10.980  -1.665  1.00  0.00    -0.205 F 
ATOM     67  C   UNL     1      10.994 -14.571  -1.997  1.00  0.00     0.022 A 
BRANCH  65  68
ATOM     68  S   UNL     1      13.465 -13.390  -2.162  1.00  0.00     0.127 S 
ATOM     69  O   UNL     1      13.917 -13.893  -0.867  1.00  0.00    -0.237 OA
ATOM     70  O   UNL     1      13.616 -14.332  -3.272  1.00  0.00    -0.237 OA
ATOM     71  O   UNL     1      13.858 -12.023  -2.476  1.00  0.00    -0.744 OA
ENDBRANCH  65  68
ENDBRANCH  38  61
ENDBRANCH  12  13
ENDBRANCH   5   7
ENDBRANCH   4   5
ENDBRANCH   3   4
ENDBRANCH   2   3
ENDBRANCH   1   2
BRANCH   1  72
ATOM     72  C   UNL     1       2.441   0.359   2.035  1.00  0.00     0.202 C 
BRANCH  72  73
ATOM     73  C   UNL     1       2.058   0.391   3.515  1.00  0.00     0.261 C 
BRANCH  73  74
ATOM     74  O   UNL     1       2.405   1.699   3.992  1.00  0.00    -0.463 OA
BRANCH  74  75
ATOM     75  C   UNL     1       3.650   1.758   4.524  1.00  0.00     0.312 C 
ATOM     76  O   UNL     1       4.134   0.915   5.269  1.00  0.00    -0.252 OA
BRANCH  75  77
ATOM     77  C   UNL     1       4.424   2.963   4.025  1.00  0.00     0.123 C 
ATOM     78  C   UNL     1       3.844   3.806   2.916  1.00  0.00    -0.015 C 
ATOM     79  C   UNL     1       4.611   4.016   5.109  1.00  0.00     0.043 C 
ATOM     80  C   UNL     1       4.188   5.090   3.061  1.00  0.00    -0.011 C 
ATOM     81  C   UNL     1       4.907   5.306   4.349  1.00  0.00     0.093 C 
BRANCH  81  82
ATOM     82  N   UNL     1       6.293   5.646   4.090  1.00  0.00    -0.204 NA
ATOM     83  H   UNL     1       6.531   6.307   4.830  1.00  0.00     0.142 HD
BRANCH  82  84
ATOM     84  S   UNL     1       7.629   4.664   3.978  1.00  0.00     0.244 S 
ATOM     85  O   UNL     1       8.772   5.555   3.962  1.00  0.00    -0.207 OA
ATOM     86  O   UNL     1       7.527   3.615   4.962  1.00  0.00    -0.207 OA
BRANCH  84  87
ATOM     87  C   UNL     1       7.581   3.915   2.385  1.00  0.00     0.121 A 
ATOM     88  C   UNL     1       7.929   2.563   2.236  1.00  0.00     0.028 A 
ATOM     89  C   UNL     1       7.256   4.685   1.276  1.00  0.00     0.181 A 
ATOM     90  C   UNL     1       7.941   1.990   0.962  1.00  0.00     0.044 A 
ATOM     91  C   UNL     1       7.243   4.102   0.014  1.00  0.00     0.195 A 
ATOM     92  F   UNL     1       6.953   5.985   1.395  1.00  0.00    -0.202 F 
ATOM     93  C   UNL     1       7.583   2.763  -0.140  1.00  0.00     0.161 A 
ATOM     94  F   UNL     1       6.894   4.830  -1.055  1.00  0.00    -0.200 F 
ATOM     95  F   UNL     1       7.540   2.194  -1.352  1.00  0.00    -0.204 F 
ENDBRANCH  84  87
ENDBRANCH  82  84
ENDBRANCH  81  82
ENDBRANCH  75  77
ENDBRANCH  74  75
ENDBRANCH  73  74
ENDBRANCH  72  73
ENDBRANCH   1  72
TORSDOF 20
