REMARK SMILES Cc1ccc2c(c1)C=C(C(=O)OCCOCCOC(=O)c1ccc(-c3c4nc(c(-c5cccc(S(=O)(=O)[O-])c5F)c5ccc([nH]5)c(-c5cccc(S(=O)(=O)[O-])c5F)c5nc(c(-c6cccc(S(=O)(=O)[O-])c6F)c6ccc3[nH]6)C=C5)C=C4)cc1)[C@@H](C(F)(F)F)O2
REMARK SMILES IDX 16 1 15 2 14 3 13 4 12 5 10 6 11 7 9 8 1 9 2 10 3 11 7 12
REMARK SMILES IDX 4 13 6 14 5 15 8 16 89 17 84 18 85 19 86 20 87 21 88 22
REMARK SMILES IDX 17 23 18 24 19 25 20 26 21 27 22 28 83 29 23 30 82 31 24 32
REMARK SMILES IDX 25 33 26 34 76 35 27 36 81 37 75 38 77 39 28 40 80 41 74 42
REMARK SMILES IDX 73 43 29 45 61 46 41 47 60 48 42 49 45 50 59 51 78 52 43 53
REMARK SMILES IDX 44 54 58 56 79 57 46 58 30 59 31 60 39 61 32 62 34 63 40 64
REMARK SMILES IDX 33 65 35 66 36 67 37 68 38 69 62 70 63 71 71 72 64 73 66 74
REMARK SMILES IDX 72 75 65 76 67 77 68 78 69 79 70 80 47 81 48 82 56 83 49 84
REMARK SMILES IDX 51 85 57 86 50 87 52 88 53 89 54 90 55 91
REMARK H PARENT 77 44 45 55
REMARK Flexibility Score: inf
ROOT
ATOM      1  C   UNL     1       4.035   7.376   0.266  1.00  0.00     0.202 C 
ENDROOT
BRANCH   1   2
ATOM      2  O   UNL     1       4.210   8.344  -0.767  1.00  0.00    -0.374 OA
BRANCH   2   3
ATOM      3  C   UNL     1       3.356   9.485  -0.786  1.00  0.00     0.202 C 
BRANCH   3   4
ATOM      4  C   UNL     1       1.906   9.295  -1.243  1.00  0.00     0.261 C 
BRANCH   4   5
ATOM      5  O   UNL     1       1.233   8.258  -0.515  1.00  0.00    -0.460 OA
BRANCH   5   6
ATOM      6  C   UNL     1       0.999   7.135  -1.234  1.00  0.00     0.338 C 
ATOM      7  O   UNL     1       1.215   6.966  -2.423  1.00  0.00    -0.246 OA
BRANCH   6   8
ATOM      8  C   UNL     1       0.558   6.051  -0.336  1.00  0.00     0.087 C 
ATOM      9  C   UNL     1       0.857  -0.069   0.082  1.00  0.00     0.044 C 
ATOM     10  C   UNL     1       0.450   1.314   0.494  1.00  0.00    -0.050 A 
ATOM     11  C   UNL     1      -0.526   1.523   1.474  1.00  0.00     0.007 A 
ATOM     12  C   UNL     1       1.007   2.422  -0.155  1.00  0.00     0.015 A 
ATOM     13  C   UNL     1      -0.914   2.821   1.821  1.00  0.00     0.047 A 
ATOM     14  C   UNL     1       0.589   3.718   0.164  1.00  0.00     0.017 A 
ATOM     15  C   UNL     1      -0.359   3.919   1.166  1.00  0.00     0.128 A 
ATOM     16  C   UNL     1       1.083   4.847  -0.597  1.00  0.00     0.027 C 
ATOM     17  O   UNL     1      -0.795   5.151   1.561  1.00  0.00    -0.475 OA
ATOM     18  C   UNL     1      -0.434   6.316   0.763  1.00  0.00     0.316 C 
BRANCH  18  19
ATOM     19  C   UNL     1      -1.725   6.964   0.242  1.00  0.00     0.430 C 
ATOM     20  F   UNL     1      -2.627   7.133   1.239  1.00  0.00    -0.167 F 
ATOM     21  F   UNL     1      -1.497   8.187  -0.288  1.00  0.00    -0.167 F 
ATOM     22  F   UNL     1      -2.315   6.211  -0.715  1.00  0.00    -0.167 F 
ENDBRANCH  18  19
ENDBRANCH   6   8
ENDBRANCH   5   6
ENDBRANCH   4   5
ENDBRANCH   3   4
ENDBRANCH   2   3
ENDBRANCH   1   2
BRANCH   1  23
ATOM     23  C   UNL     1       4.391   7.753   1.710  1.00  0.00     0.261 C 
BRANCH  23  24
ATOM     24  O   UNL     1       3.586   8.822   2.231  1.00  0.00    -0.460 OA
BRANCH  24  25
ATOM     25  C   UNL     1       4.251   9.993   2.412  1.00  0.00     0.338 C 
ATOM     26  O   UNL     1       5.438  10.201   2.214  1.00  0.00    -0.246 OA
BRANCH  25  27
ATOM     27  C   UNL     1       3.280  11.066   2.693  1.00  0.00     0.060 A 
ATOM     28  C   UNL     1       2.400  10.982   3.771  1.00  0.00     0.016 A 
ATOM     29  C   UNL     1       3.296  12.202   1.871  1.00  0.00     0.016 A 
ATOM     30  C   UNL     1       1.554  12.060   4.045  1.00  0.00     0.010 A 
ATOM     31  C   UNL     1       2.448  13.274   2.145  1.00  0.00     0.010 A 
ATOM     32  C   UNL     1       1.589  13.222   3.250  1.00  0.00    -0.014 A 
BRANCH  32  33
ATOM     33  C   UNL     1       0.852  14.437   3.676  1.00  0.00     0.031 A 
ATOM     34  C   UNL     1      -0.364  14.926   2.949  1.00  0.00     0.074 A 
ATOM     35  C   UNL     1       1.333  15.131   4.728  1.00  0.00     0.049 A 
ATOM     36  N   UNL     1      -1.148  15.926   3.257  1.00  0.00    -0.248 NA
ATOM     37  C   UNL     1      -0.750  14.215   1.721  1.00  0.00     0.031 C 
ATOM     38  C   UNL     1       2.555  14.797   5.463  1.00  0.00     0.029 A 
ATOM     39  N   UNL     1       0.862  16.255   5.357  1.00  0.00    -0.354 N 
ATOM     40  C   UNL     1      -2.118  15.972   2.265  1.00  0.00     0.074 A 
ATOM     41  C   UNL     1      -1.813  14.910   1.330  1.00  0.00     0.031 C 
ATOM     42  C   UNL     1       2.724  15.680   6.458  1.00  0.00     0.029 A 
ATOM     43  C   UNL     1       1.637  16.654   6.420  1.00  0.00     0.049 A 
ATOM     44  H   UNL     1       0.048  16.730   5.074  1.00  0.00     0.167 HD
ATOM     45  C   UNL     1      -3.177  16.809   2.162  1.00  0.00     0.034 A 
ATOM     46  C   UNL     1       1.490  17.682   7.277  1.00  0.00     0.034 A 
ATOM     47  C   UNL     1      -3.481  17.855   3.102  1.00  0.00     0.049 A 
ATOM     48  C   UNL     1       0.298  18.584   7.150  1.00  0.00     0.074 A 
ATOM     49  C   UNL     1      -4.575  18.703   3.111  1.00  0.00     0.029 A 
ATOM     50  N   UNL     1      -2.691  18.208   4.183  1.00  0.00    -0.354 N 
ATOM     51  N   UNL     1      -0.687  18.520   6.288  1.00  0.00    -0.248 NA
ATOM     52  C   UNL     1       0.176  19.678   8.124  1.00  0.00     0.031 C 
ATOM     53  C   UNL     1      -4.435  19.585   4.185  1.00  0.00     0.029 A 
ATOM     54  C   UNL     1      -3.268  19.268   4.860  1.00  0.00     0.049 A 
ATOM     55  H   UNL     1      -1.845  17.771   4.432  1.00  0.00     0.167 HD
ATOM     56  C   UNL     1      -1.558  19.547   6.629  1.00  0.00     0.074 A 
ATOM     57  C   UNL     1      -0.989  20.215   7.782  1.00  0.00     0.031 C 
ATOM     58  C   UNL     1      -2.720  19.901   6.032  1.00  0.00     0.034 A 
BRANCH  45  59
ATOM     59  C   UNL     1      -4.143  16.603   1.027  1.00  0.00     0.023 A 
ATOM     60  C   UNL     1      -5.086  15.560   1.115  1.00  0.00     0.012 A 
ATOM     61  C   UNL     1      -4.213  17.516  -0.043  1.00  0.00     0.148 A 
ATOM     62  C   UNL     1      -6.084  15.425   0.151  1.00  0.00     0.002 A 
ATOM     63  C   UNL     1      -5.228  17.391  -0.985  1.00  0.00     0.091 A 
ATOM     64  F   UNL     1      -3.302  18.497  -0.105  1.00  0.00    -0.205 F 
ATOM     65  C   UNL     1      -6.162  16.346  -0.890  1.00  0.00     0.022 A 
BRANCH  63  66
ATOM     66  S   UNL     1      -5.451  18.552  -2.337  1.00  0.00     0.127 S 
ATOM     67  O   UNL     1      -5.206  17.699  -3.500  1.00  0.00    -0.237 OA
ATOM     68  O   UNL     1      -6.845  18.961  -2.164  1.00  0.00    -0.237 OA
ATOM     69  O   UNL     1      -4.471  19.608  -2.131  1.00  0.00    -0.744 OA
ENDBRANCH  63  66
ENDBRANCH  45  59
BRANCH  46  70
ATOM     70  C   UNL     1       2.474  17.848   8.379  1.00  0.00     0.023 A 
ATOM     71  C   UNL     1       2.121  17.455   9.683  1.00  0.00     0.012 A 
ATOM     72  C   UNL     1       3.781  18.304   8.121  1.00  0.00     0.148 A 
ATOM     73  C   UNL     1       3.054  17.517  10.718  1.00  0.00     0.002 A 
ATOM     74  C   UNL     1       4.716  18.329   9.149  1.00  0.00     0.091 A 
ATOM     75  F   UNL     1       4.089  18.665   6.868  1.00  0.00    -0.205 F 
ATOM     76  C   UNL     1       4.353  17.943  10.449  1.00  0.00     0.022 A 
BRANCH  74  77
ATOM     77  S   UNL     1       6.436  18.771   8.884  1.00  0.00     0.127 S 
ATOM     78  O   UNL     1       6.570  19.960   9.723  1.00  0.00    -0.237 OA
ATOM     79  O   UNL     1       7.129  17.583   9.382  1.00  0.00    -0.237 OA
ATOM     80  O   UNL     1       6.573  19.000   7.452  1.00  0.00    -0.744 OA
ENDBRANCH  74  77
ENDBRANCH  46  70
BRANCH  58  81
ATOM     81  C   UNL     1      -3.498  21.053   6.605  1.00  0.00     0.023 A 
ATOM     82  C   UNL     1      -3.104  22.372   6.309  1.00  0.00     0.012 A 
ATOM     83  C   UNL     1      -4.704  20.823   7.296  1.00  0.00     0.148 A 
ATOM     84  C   UNL     1      -3.905  23.448   6.692  1.00  0.00     0.002 A 
ATOM     85  C   UNL     1      -5.512  21.898   7.644  1.00  0.00     0.091 A 
ATOM     86  F   UNL     1      -5.051  19.556   7.566  1.00  0.00    -0.205 F 
ATOM     87  C   UNL     1      -5.113  23.211   7.345  1.00  0.00     0.022 A 
BRANCH  85  88
ATOM     88  S   UNL     1      -7.119  21.692   8.421  1.00  0.00     0.127 S 
ATOM     89  O   UNL     1      -6.914  22.358   9.707  1.00  0.00    -0.237 OA
ATOM     90  O   UNL     1      -8.001  22.406   7.498  1.00  0.00    -0.237 OA
ATOM     91  O   UNL     1      -7.351  20.257   8.503  1.00  0.00    -0.744 OA
ENDBRANCH  85  88
ENDBRANCH  58  81
ENDBRANCH  32  33
ENDBRANCH  25  27
ENDBRANCH  24  25
ENDBRANCH  23  24
ENDBRANCH   1  23
TORSDOF 18
