REMARK SMILES C[C@H](Cc1ccco1)[NH2+]Cc1cc(C(=O)OCCOCCOC(=O)c2ccc(-c3c4nc(c(-c5cccc(S(=O)(=O)[O-])c5F)c5ccc([nH]5)c(-c5cccc(S(=O)(=O)[O-])c5F)c5nc(c(-c6cccc(S(=O)(=O)[O-])c6F)c6ccc3[nH]6)C=C5)C=C4)cc2)cs1
REMARK SMILES IDX 18 1 17 2 16 3 14 4 15 5 13 6 11 7 12 8 89 9 88 10 10 11
REMARK SMILES IDX 9 12 2 15 1 16 3 17 4 18 5 19 8 20 6 21 7 22 19 23 20 24
REMARK SMILES IDX 21 25 22 26 23 27 24 28 25 29 26 30 87 31 27 32 86 33 28 34
REMARK SMILES IDX 29 35 30 36 80 37 31 38 85 39 79 40 81 41 32 42 84 43 78 44
REMARK SMILES IDX 77 45 33 47 65 48 45 49 64 50 46 51 49 52 63 53 82 54 47 55
REMARK SMILES IDX 48 56 62 58 83 59 50 60 34 61 35 62 43 63 36 64 38 65 44 66
REMARK SMILES IDX 37 67 39 68 40 69 41 70 42 71 66 72 67 73 75 74 68 75 70 76
REMARK SMILES IDX 76 77 69 78 71 79 72 80 73 81 74 82 51 83 52 84 60 85 53 86
REMARK SMILES IDX 55 87 61 88 54 89 56 90 57 91 58 92 59 93
REMARK H PARENT 9 13 9 14 81 46 49 57
REMARK Flexibility Score: inf
ROOT
ATOM      1  C   UNL     1      -1.931   5.942   5.364  1.00  0.00     0.202 C 
ENDROOT
BRANCH   1   2
ATOM      2  C   UNL     1      -0.625   5.644   4.620  1.00  0.00     0.261 C 
BRANCH   2   3
ATOM      3  O   UNL     1      -0.596   4.270   4.206  1.00  0.00    -0.460 OA
BRANCH   3   4
ATOM      4  C   UNL     1       0.167   3.440   4.969  1.00  0.00     0.339 C 
ATOM      5  O   UNL     1       0.992   3.805   5.799  1.00  0.00    -0.246 OA
BRANCH   4   6
ATOM      6  C   UNL     1      -0.189   2.039   4.774  1.00  0.00     0.071 A 
ATOM      7  C   UNL     1      -0.933   0.087   3.717  1.00  0.00     0.060 A 
ATOM      8  C   UNL     1      -0.919   1.470   3.677  1.00  0.00     0.037 A 
ATOM      9  S   UNL     1      -0.404  -0.489   5.242  1.00  0.00    -0.142 S 
ATOM     10  C   UNL     1       0.133   1.064   5.700  1.00  0.00     0.081 A 
BRANCH   7  11
ATOM     11  C   UNL     1      -1.286  -0.881   2.626  1.00  0.00     0.308 C 
BRANCH  11  12
ATOM     12  N   UNL     1      -0.760  -0.473   1.329  1.00  0.00    -0.339 N 
ATOM     13  H   UNL     1      -1.267  -1.001   0.619  1.00  0.00     0.346 HD
ATOM     14  H   UNL     1      -0.888   0.539   1.317  1.00  0.00     0.346 HD
BRANCH  12  15
ATOM     15  C   UNL     1       0.676  -0.653   1.059  1.00  0.00     0.187 C 
ATOM     16  C   UNL     1       1.673  -0.369   2.191  1.00  0.00     0.075 C 
BRANCH  15  17
ATOM     17  C   UNL     1       1.098   0.097  -0.229  1.00  0.00     0.140 C 
BRANCH  17  18
ATOM     18  C   UNL     1       0.848   1.569  -0.264  1.00  0.00     0.109 A 
ATOM     19  C   UNL     1       0.954   2.628   0.617  1.00  0.00     0.046 A 
ATOM     20  O   UNL     1       0.444   2.035  -1.479  1.00  0.00    -0.469 OA
ATOM     21  C   UNL     1       0.576   3.792  -0.101  1.00  0.00     0.042 A 
ATOM     22  C   UNL     1       0.283   3.377  -1.377  1.00  0.00     0.195 A 
ENDBRANCH  17  18
ENDBRANCH  15  17
ENDBRANCH  12  15
ENDBRANCH  11  12
ENDBRANCH   7  11
ENDBRANCH   4   6
ENDBRANCH   3   4
ENDBRANCH   2   3
ENDBRANCH   1   2
BRANCH   1  23
ATOM     23  O   UNL     1      -2.031   5.336   6.656  1.00  0.00    -0.374 OA
BRANCH  23  24
ATOM     24  C   UNL     1      -2.566   4.010   6.692  1.00  0.00     0.202 C 
BRANCH  24  25
ATOM     25  C   UNL     1      -4.093   3.918   6.742  1.00  0.00     0.261 C 
BRANCH  25  26
ATOM     26  O   UNL     1      -4.670   4.306   5.484  1.00  0.00    -0.460 OA
BRANCH  26  27
ATOM     27  C   UNL     1      -5.289   5.510   5.483  1.00  0.00     0.338 C 
ATOM     28  O   UNL     1      -5.498   6.231   6.444  1.00  0.00    -0.246 OA
BRANCH  27  29
ATOM     29  C   UNL     1      -5.526   5.940   4.091  1.00  0.00     0.060 A 
ATOM     30  C   UNL     1      -5.144   7.242   3.745  1.00  0.00     0.016 A 
ATOM     31  C   UNL     1      -6.131   5.104   3.148  1.00  0.00     0.016 A 
ATOM     32  C   UNL     1      -5.400   7.729   2.465  1.00  0.00     0.010 A 
ATOM     33  C   UNL     1      -6.396   5.598   1.867  1.00  0.00     0.010 A 
ATOM     34  C   UNL     1      -6.056   6.920   1.529  1.00  0.00    -0.014 A 
BRANCH  34  35
ATOM     35  C   UNL     1      -6.481   7.486   0.228  1.00  0.00     0.031 A 
ATOM     36  C   UNL     1      -7.904   7.934   0.053  1.00  0.00     0.074 A 
ATOM     37  C   UNL     1      -5.611   7.576  -0.794  1.00  0.00     0.049 A 
ATOM     38  N   UNL     1      -8.498   8.402  -1.013  1.00  0.00    -0.248 NA
ATOM     39  C   UNL     1      -8.775   7.842   1.237  1.00  0.00     0.031 C 
ATOM     40  C   UNL     1      -4.205   7.177  -0.742  1.00  0.00     0.029 A 
ATOM     41  N   UNL     1      -5.794   8.003  -2.085  1.00  0.00    -0.354 N 
ATOM     42  C   UNL     1      -9.815   8.636  -0.640  1.00  0.00     0.074 A 
ATOM     43  C   UNL     1      -9.937   8.253   0.750  1.00  0.00     0.031 C 
ATOM     44  C   UNL     1      -3.661   7.346  -1.959  1.00  0.00     0.029 A 
ATOM     45  C   UNL     1      -4.685   7.838  -2.879  1.00  0.00     0.049 A 
ATOM     46  H   UNL     1      -6.639   8.390  -2.410  1.00  0.00     0.167 HD
ATOM     47  C   UNL     1     -10.828   9.140  -1.384  1.00  0.00     0.034 A 
ATOM     48  C   UNL     1      -4.524   8.034  -4.203  1.00  0.00     0.034 A 
ATOM     49  C   UNL     1     -10.701   9.537  -2.759  1.00  0.00     0.049 A 
ATOM     50  C   UNL     1      -5.681   8.549  -5.019  1.00  0.00     0.074 A 
ATOM     51  C   UNL     1     -11.655  10.113  -3.580  1.00  0.00     0.029 A 
ATOM     52  N   UNL     1      -9.555   9.384  -3.523  1.00  0.00    -0.354 N 
ATOM     53  N   UNL     1      -6.883   8.891  -4.622  1.00  0.00    -0.248 NA
ATOM     54  C   UNL     1      -5.452   8.727  -6.461  1.00  0.00     0.031 C 
ATOM     55  C   UNL     1     -11.091  10.288  -4.848  1.00  0.00     0.029 A 
ATOM     56  C   UNL     1      -9.781   9.836  -4.812  1.00  0.00     0.049 A 
ATOM     57  H   UNL     1      -8.705   9.009  -3.198  1.00  0.00     0.167 HD
ATOM     58  C   UNL     1      -7.543   9.352  -5.756  1.00  0.00     0.074 A 
ATOM     59  C   UNL     1      -6.600   9.264  -6.853  1.00  0.00     0.031 C 
ATOM     60  C   UNL     1      -8.818   9.793  -5.882  1.00  0.00     0.034 A 
BRANCH  47  61
ATOM     61  C   UNL     1     -12.162   9.323  -0.712  1.00  0.00     0.023 A 
ATOM     62  C   UNL     1     -12.342  10.391   0.189  1.00  0.00     0.012 A 
ATOM     63  C   UNL     1     -13.248   8.480  -1.015  1.00  0.00     0.148 A 
ATOM     64  C   UNL     1     -13.578  10.603   0.798  1.00  0.00     0.002 A 
ATOM     65  C   UNL     1     -14.487   8.720  -0.431  1.00  0.00     0.091 A 
ATOM     66  F   UNL     1     -13.047   7.454  -1.854  1.00  0.00    -0.205 F 
ATOM     67  C   UNL     1     -14.651   9.775   0.481  1.00  0.00     0.022 A 
BRANCH  65  68
ATOM     68  S   UNL     1     -15.944   7.748  -0.830  1.00  0.00     0.127 S 
ATOM     69  O   UNL     1     -16.095   6.936   0.376  1.00  0.00    -0.237 OA
ATOM     70  O   UNL     1     -16.968   8.780  -1.001  1.00  0.00    -0.237 OA
ATOM     71  O   UNL     1     -15.615   7.016  -2.044  1.00  0.00    -0.744 OA
ENDBRANCH  65  68
ENDBRANCH  47  61
BRANCH  48  72
ATOM     72  C   UNL     1      -3.205   7.761  -4.839  1.00  0.00     0.023 A 
ATOM     73  C   UNL     1      -2.429   8.833  -5.318  1.00  0.00     0.012 A 
ATOM     74  C   UNL     1      -2.708   6.449  -4.948  1.00  0.00     0.148 A 
ATOM     75  C   UNL     1      -1.189   8.601  -5.915  1.00  0.00     0.002 A 
ATOM     76  C   UNL     1      -1.448   6.230  -5.492  1.00  0.00     0.091 A 
ATOM     77  F   UNL     1      -3.472   5.441  -4.505  1.00  0.00    -0.205 F 
ATOM     78  C   UNL     1      -0.694   7.302  -5.991  1.00  0.00     0.022 A 
BRANCH  76  79
ATOM     79  S   UNL     1      -0.672   4.612  -5.493  1.00  0.00     0.127 S 
ATOM     80  O   UNL     1      -0.692   4.269  -6.912  1.00  0.00    -0.237 OA
ATOM     81  O   UNL     1       0.650   4.917  -4.944  1.00  0.00    -0.237 OA
ATOM     82  O   UNL     1      -1.501   3.786  -4.625  1.00  0.00    -0.744 OA
ENDBRANCH  76  79
ENDBRANCH  48  72
BRANCH  60  83
ATOM     83  C   UNL     1      -9.276  10.239  -7.246  1.00  0.00     0.023 A 
ATOM     84  C   UNL     1      -9.558   9.275  -8.233  1.00  0.00     0.012 A 
ATOM     85  C   UNL     1      -9.514  11.600  -7.518  1.00  0.00     0.148 A 
ATOM     86  C   UNL     1     -10.049   9.661  -9.480  1.00  0.00     0.002 A 
ATOM     87  C   UNL     1     -10.044  11.974  -8.747  1.00  0.00     0.091 A 
ATOM     88  F   UNL     1      -9.221  12.503  -6.570  1.00  0.00    -0.205 F 
ATOM     89  C   UNL     1     -10.304  11.007  -9.732  1.00  0.00     0.022 A 
BRANCH  87  90
ATOM     90  S   UNL     1     -10.489  13.673  -9.129  1.00  0.00     0.127 S 
ATOM     91  O   UNL     1      -9.446  14.047 -10.082  1.00  0.00    -0.237 OA
ATOM     92  O   UNL     1     -11.822  13.521  -9.712  1.00  0.00    -0.237 OA
ATOM     93  O   UNL     1     -10.463  14.389  -7.861  1.00  0.00    -0.744 OA
ENDBRANCH  87  90
ENDBRANCH  60  83
ENDBRANCH  34  35
ENDBRANCH  27  29
ENDBRANCH  26  27
ENDBRANCH  25  26
ENDBRANCH  24  25
ENDBRANCH  23  24
ENDBRANCH   1  23
TORSDOF 22
