REMARK SMILES NC(=O)C1CC[NH+](Cc2ccc(C(=O)OCCOCCOC(=O)c3ccc(-c4c5nc(c(-c6cccc(S(=O)(=O)[O-])c6F)c6ccc([nH]6)c(-c6cccc(S(=O)(=O)[O-])c6F)c6nc(c(-c7cccc(S(=O)(=O)[O-])c7F)c7ccc4[nH]7)C=C6)C=C5)cc3)cc2)CC1
REMARK SMILES IDX 18 1 17 2 16 3 15 4 13 5 14 6 12 7 9 8 10 9 88 10 11 11
REMARK SMILES IDX 87 12 8 13 7 14 4 15 5 16 90 17 6 18 89 19 2 21 1 22 3 25
REMARK SMILES IDX 19 26 20 27 21 28 22 29 23 30 24 31 25 32 86 33 26 34 85 35
REMARK SMILES IDX 27 36 28 37 29 38 79 39 30 40 84 41 78 42 80 43 31 44 83 45
REMARK SMILES IDX 77 46 76 47 32 49 64 50 44 51 63 52 45 53 48 54 62 55 81 56
REMARK SMILES IDX 46 57 47 58 61 60 82 61 49 62 33 63 34 64 42 65 35 66 37 67
REMARK SMILES IDX 43 68 36 69 38 70 39 71 40 72 41 73 65 74 66 75 74 76 67 77
REMARK SMILES IDX 69 78 75 79 68 80 70 81 71 82 72 83 73 84 50 85 51 86 59 87
REMARK SMILES IDX 52 88 54 89 60 90 53 91 55 92 56 93 57 94 58 95
REMARK H PARENT 7 20 1 23 1 24 80 48 48 59
REMARK Flexibility Score: inf
ROOT
ATOM      1  O   UNL     1      -7.764  -3.908   2.601  1.00  0.00    -0.374 OA
ENDROOT
BRANCH   1   2
ATOM      2  C   UNL     1      -7.776  -2.479   2.594  1.00  0.00     0.202 C 
BRANCH   2   3
ATOM      3  C   UNL     1      -6.425  -1.771   2.733  1.00  0.00     0.261 C 
BRANCH   3   4
ATOM      4  O   UNL     1      -5.556  -2.112   1.646  1.00  0.00    -0.460 OA
BRANCH   4   5
ATOM      5  C   UNL     1      -4.512  -2.909   1.970  1.00  0.00     0.338 C 
ATOM      6  O   UNL     1      -4.159  -3.228   3.097  1.00  0.00    -0.246 OA
BRANCH   5   7
ATOM      7  C   UNL     1      -3.911  -3.494   0.746  1.00  0.00     0.060 A 
ATOM      8  C   UNL     1      -2.540  -4.569  -1.448  1.00  0.00     0.006 A 
ATOM      9  C   UNL     1      -2.442  -5.176  -0.188  1.00  0.00     0.010 A 
ATOM     10  C   UNL     1      -3.455  -3.520  -1.625  1.00  0.00     0.010 A 
ATOM     11  C   UNL     1      -3.123  -4.640   0.902  1.00  0.00     0.016 A 
ATOM     12  C   UNL     1      -4.117  -2.962  -0.530  1.00  0.00     0.016 A 
BRANCH   8  13
ATOM     13  C   UNL     1      -1.539  -4.925  -2.535  1.00  0.00     0.299 C 
BRANCH  13  14
ATOM     14  N   UNL     1      -0.379  -4.002  -2.657  1.00  0.00    -0.331 N 
ATOM     15  C   UNL     1       1.124  -1.513  -2.107  1.00  0.00     0.089 C 
ATOM     16  C   UNL     1       0.396  -1.748  -3.431  1.00  0.00     0.075 C 
ATOM     17  C   UNL     1       1.511  -2.860  -1.493  1.00  0.00     0.075 C 
ATOM     18  C   UNL     1      -0.764  -2.735  -3.296  1.00  0.00     0.263 C 
ATOM     19  C   UNL     1       0.300  -3.788  -1.369  1.00  0.00     0.263 C 
ATOM     20  H   UNL     1       0.300  -4.455  -3.268  1.00  0.00     0.348 HD
BRANCH  15  21
ATOM     21  C   UNL     1       0.298  -0.686  -1.123  1.00  0.00     0.220 C 
ATOM     22  N   UNL     1       1.012  -0.080  -0.133  1.00  0.00    -0.369 N 
ATOM     23  H   UNL     1       0.551   0.471   0.541  1.00  0.00     0.159 HD
ATOM     24  H   UNL     1       1.990  -0.193  -0.091  1.00  0.00     0.159 HD
ATOM     25  O   UNL     1      -0.921  -0.574  -1.154  1.00  0.00    -0.275 OA
ENDBRANCH  15  21
ENDBRANCH  13  14
ENDBRANCH   8  13
ENDBRANCH   5   7
ENDBRANCH   4   5
ENDBRANCH   3   4
ENDBRANCH   2   3
ENDBRANCH   1   2
BRANCH   1  26
ATOM     26  C   UNL     1      -7.397  -4.565   1.386  1.00  0.00     0.202 C 
BRANCH  26  27
ATOM     27  C   UNL     1      -8.451  -4.634   0.275  1.00  0.00     0.261 C 
BRANCH  27  28
ATOM     28  O   UNL     1      -8.804  -3.338  -0.236  1.00  0.00    -0.460 OA
BRANCH  28  29
ATOM     29  C   UNL     1     -10.040  -2.906   0.109  1.00  0.00     0.338 C 
ATOM     30  O   UNL     1     -10.891  -3.526   0.735  1.00  0.00    -0.246 OA
BRANCH  29  31
ATOM     31  C   UNL     1     -10.179  -1.476  -0.213  1.00  0.00     0.060 A 
ATOM     32  C   UNL     1     -10.518  -0.604   0.830  1.00  0.00     0.016 A 
ATOM     33  C   UNL     1     -10.030  -0.998  -1.517  1.00  0.00     0.016 A 
ATOM     34  C   UNL     1     -10.741   0.746   0.568  1.00  0.00     0.010 A 
ATOM     35  C   UNL     1     -10.263   0.356  -1.779  1.00  0.00     0.010 A 
ATOM     36  C   UNL     1     -10.644   1.229  -0.743  1.00  0.00    -0.014 A 
BRANCH  36  37
ATOM     37  C   UNL     1     -11.020   2.631  -1.043  1.00  0.00     0.031 A 
ATOM     38  C   UNL     1     -12.352   2.922  -1.676  1.00  0.00     0.074 A 
ATOM     39  C   UNL     1     -10.170   3.636  -0.763  1.00  0.00     0.049 A 
ATOM     40  N   UNL     1     -12.856   4.069  -2.051  1.00  0.00    -0.248 NA
ATOM     41  C   UNL     1     -13.234   1.769  -1.920  1.00  0.00     0.031 C 
ATOM     42  C   UNL     1      -8.851   3.478  -0.153  1.00  0.00     0.029 A 
ATOM     43  N   UNL     1     -10.280   4.986  -0.985  1.00  0.00    -0.354 N 
ATOM     44  C   UNL     1     -14.097   3.776  -2.603  1.00  0.00     0.074 A 
ATOM     45  C   UNL     1     -14.268   2.342  -2.520  1.00  0.00     0.031 C 
ATOM     46  C   UNL     1      -8.258   4.682  -0.078  1.00  0.00     0.029 A 
ATOM     47  C   UNL     1      -9.144   5.688  -0.660  1.00  0.00     0.049 A 
ATOM     48  H   UNL     1     -11.094   5.410  -1.342  1.00  0.00     0.167 HD
ATOM     49  C   UNL     1     -15.015   4.627  -3.121  1.00  0.00     0.034 A 
ATOM     50  C   UNL     1      -8.841   6.989  -0.839  1.00  0.00     0.034 A 
ATOM     51  C   UNL     1     -14.848   6.054  -3.187  1.00  0.00     0.049 A 
ATOM     52  C   UNL     1      -9.869   7.908  -1.446  1.00  0.00     0.074 A 
ATOM     53  C   UNL     1     -15.749   7.005  -3.635  1.00  0.00     0.029 A 
ATOM     54  N   UNL     1     -13.700   6.736  -2.816  1.00  0.00    -0.354 N 
ATOM     55  N   UNL     1     -11.091   7.638  -1.837  1.00  0.00    -0.248 NA
ATOM     56  C   UNL     1      -9.486   9.319  -1.609  1.00  0.00     0.031 C 
ATOM     57  C   UNL     1     -15.132   8.258  -3.568  1.00  0.00     0.029 A 
ATOM     58  C   UNL     1     -13.858   8.093  -3.048  1.00  0.00     0.049 A 
ATOM     59  H   UNL     1     -12.891   6.318  -2.442  1.00  0.00     0.167 HD
ATOM     60  C   UNL     1     -11.631   8.845  -2.268  1.00  0.00     0.074 A 
ATOM     61  C   UNL     1     -10.612   9.854  -2.062  1.00  0.00     0.031 C 
ATOM     62  C   UNL     1     -12.853   9.095  -2.801  1.00  0.00     0.034 A 
BRANCH  49  63
ATOM     63  C   UNL     1     -16.300   4.039  -3.644  1.00  0.00     0.023 A 
ATOM     64  C   UNL     1     -17.265   3.551  -2.739  1.00  0.00     0.012 A 
ATOM     65  C   UNL     1     -16.580   4.031  -5.025  1.00  0.00     0.148 A 
ATOM     66  C   UNL     1     -18.477   3.039  -3.202  1.00  0.00     0.002 A 
ATOM     67  C   UNL     1     -17.807   3.559  -5.475  1.00  0.00     0.091 A 
ATOM     68  F   UNL     1     -15.641   4.479  -5.870  1.00  0.00    -0.205 F 
ATOM     69  C   UNL     1     -18.752   3.053  -4.567  1.00  0.00     0.022 A 
BRANCH  67  70
ATOM     70  S   UNL     1     -18.288   3.606  -7.205  1.00  0.00     0.127 S 
ATOM     71  O   UNL     1     -18.281   2.185  -7.552  1.00  0.00    -0.237 OA
ATOM     72  O   UNL     1     -19.620   4.210  -7.138  1.00  0.00    -0.237 OA
ATOM     73  O   UNL     1     -17.286   4.418  -7.880  1.00  0.00    -0.744 OA
ENDBRANCH  67  70
ENDBRANCH  49  63
BRANCH  50  74
ATOM     74  C   UNL     1      -7.507   7.507  -0.422  1.00  0.00     0.023 A 
ATOM     75  C   UNL     1      -7.414   8.397   0.665  1.00  0.00     0.012 A 
ATOM     76  C   UNL     1      -6.330   7.111  -1.088  1.00  0.00     0.148 A 
ATOM     77  C   UNL     1      -6.177   8.907   1.062  1.00  0.00     0.002 A 
ATOM     78  C   UNL     1      -5.096   7.578  -0.652  1.00  0.00     0.091 A 
ATOM     79  F   UNL     1      -6.442   6.277  -2.132  1.00  0.00    -0.205 F 
ATOM     80  C   UNL     1      -5.019   8.490   0.412  1.00  0.00     0.022 A 
BRANCH  78  81
ATOM     81  S   UNL     1      -3.545   6.998  -1.347  1.00  0.00     0.127 S 
ATOM     82  O   UNL     1      -3.068   8.188  -2.048  1.00  0.00    -0.237 OA
ATOM     83  O   UNL     1      -2.788   6.648  -0.144  1.00  0.00    -0.237 OA
ATOM     84  O   UNL     1      -3.891   5.864  -2.191  1.00  0.00    -0.744 OA
ENDBRANCH  78  81
ENDBRANCH  50  74
BRANCH  62  85
ATOM     85  C   UNL     1     -13.171  10.517  -3.186  1.00  0.00     0.023 A 
ATOM     86  C   UNL     1     -12.549  11.093  -4.312  1.00  0.00     0.012 A 
ATOM     87  C   UNL     1     -14.137  11.259  -2.477  1.00  0.00     0.148 A 
ATOM     88  C   UNL     1     -12.856  12.395  -4.705  1.00  0.00     0.002 A 
ATOM     89  C   UNL     1     -14.474  12.539  -2.904  1.00  0.00     0.091 A 
ATOM     90  F   UNL     1     -14.707  10.701  -1.399  1.00  0.00    -0.205 F 
ATOM     91  C   UNL     1     -13.826  13.113  -4.009  1.00  0.00     0.022 A 
BRANCH  89  92
ATOM     92  S   UNL     1     -15.776  13.504  -2.129  1.00  0.00     0.127 S 
ATOM     93  O   UNL     1     -15.011  14.556  -1.461  1.00  0.00    -0.237 OA
ATOM     94  O   UNL     1     -16.555  13.956  -3.282  1.00  0.00    -0.237 OA
ATOM     95  O   UNL     1     -16.483  12.589  -1.243  1.00  0.00    -0.744 OA
ENDBRANCH  89  92
ENDBRANCH  62  85
ENDBRANCH  36  37
ENDBRANCH  29  31
ENDBRANCH  28  29
ENDBRANCH  27  28
ENDBRANCH  26  27
ENDBRANCH   1  26
TORSDOF 20
