REMARK SMILES O=C(OCCOCCOC(=O)[C@H](Cc1cccc(O)c1)Cc1cccc(F)c1)c1ccc(-c2c3nc(c(-c4cccc(S(=O)(=O)[O-])c4F)c4ccc([nH]4)c(-c4cccc(S(=O)(=O)[O-])c4F)c4nc(c(-c5cccc(S(=O)(=O)[O-])c5F)c5ccc2[nH]5)C=C4)C=C3)cc1
REMARK SMILES IDX 6 1 5 2 4 3 3 4 2 5 1 6 29 7 30 8 91 9 31 10 90 11 32 12
REMARK SMILES IDX 33 13 34 14 84 15 35 16 89 17 83 18 85 19 36 20 88 21 82 22
REMARK SMILES IDX 81 23 37 25 69 26 49 27 68 28 50 29 53 30 67 31 86 32 51 33
REMARK SMILES IDX 52 34 66 36 87 37 54 38 38 39 39 40 47 41 40 42 42 43 48 44
REMARK SMILES IDX 41 45 43 46 44 47 45 48 46 49 70 50 71 51 79 52 72 53 74 54
REMARK SMILES IDX 80 55 73 56 75 57 76 58 77 59 78 60 55 61 56 62 64 63 57 64
REMARK SMILES IDX 59 65 65 66 58 67 60 68 61 69 62 70 63 71 7 72 8 73 9 74
REMARK SMILES IDX 10 75 11 76 12 77 21 78 22 79 23 80 28 81 24 82 26 83 25 84
REMARK SMILES IDX 27 85 13 86 14 87 15 88 20 89 16 90 18 91 17 92 19 93
REMARK H PARENT 85 24 53 35 19 94
REMARK Flexibility Score: inf
ROOT
ATOM      1  O   UNL     1       2.671  -1.085  -3.510  1.00  0.00    -0.374 OA
ENDROOT
BRANCH   1   2
ATOM      2  C   UNL     1       2.438   0.270  -3.148  1.00  0.00     0.202 C 
BRANCH   2   3
ATOM      3  C   UNL     1       1.673   0.612  -1.847  1.00  0.00     0.261 C 
BRANCH   3   4
ATOM      4  O   UNL     1       1.708  -0.402  -0.814  1.00  0.00    -0.460 OA
BRANCH   4   5
ATOM      5  C   UNL     1       0.642  -1.185  -0.460  1.00  0.00     0.338 C 
ATOM      6  O   UNL     1       0.604  -1.799   0.590  1.00  0.00    -0.246 OA
BRANCH   5   7
ATOM      7  C   UNL     1      -0.477  -1.226  -1.422  1.00  0.00     0.060 A 
ATOM      8  C   UNL     1      -0.180  -1.464  -2.751  1.00  0.00     0.016 A 
ATOM      9  C   UNL     1      -1.772  -0.876  -1.053  1.00  0.00     0.016 A 
ATOM     10  C   UNL     1      -1.024  -0.986  -3.727  1.00  0.00     0.010 A 
ATOM     11  C   UNL     1      -2.721  -0.648  -2.057  1.00  0.00     0.010 A 
ATOM     12  C   UNL     1      -2.333  -0.621  -3.410  1.00  0.00    -0.014 A 
BRANCH  12  13
ATOM     13  C   UNL     1      -3.250  -0.206  -4.506  1.00  0.00     0.031 A 
ATOM     14  C   UNL     1      -4.047   1.064  -4.382  1.00  0.00     0.074 A 
ATOM     15  C   UNL     1      -3.327  -0.947  -5.635  1.00  0.00     0.049 A 
ATOM     16  N   UNL     1      -5.055   1.471  -5.105  1.00  0.00    -0.248 NA
ATOM     17  C   UNL     1      -3.688   1.990  -3.291  1.00  0.00     0.031 C 
ATOM     18  C   UNL     1      -2.566  -2.175  -5.899  1.00  0.00     0.029 A 
ATOM     19  N   UNL     1      -4.053  -0.774  -6.786  1.00  0.00    -0.354 N 
ATOM     20  C   UNL     1      -5.526   2.623  -4.486  1.00  0.00     0.074 A 
ATOM     21  C   UNL     1      -4.665   2.885  -3.356  1.00  0.00     0.031 C 
ATOM     22  C   UNL     1      -2.782  -2.580  -7.154  1.00  0.00     0.029 A 
ATOM     23  C   UNL     1      -3.833  -1.757  -7.727  1.00  0.00     0.049 A 
ATOM     24  H   UNL     1      -4.671  -0.021  -6.927  1.00  0.00     0.167 HD
ATOM     25  C   UNL     1      -6.593   3.378  -4.834  1.00  0.00     0.034 A 
ATOM     26  C   UNL     1      -4.459  -2.026  -8.888  1.00  0.00     0.034 A 
ATOM     27  C   UNL     1      -7.367   3.144  -6.022  1.00  0.00     0.049 A 
ATOM     28  C   UNL     1      -5.620  -1.156  -9.265  1.00  0.00     0.074 A 
ATOM     29  C   UNL     1      -8.470   3.838  -6.482  1.00  0.00     0.029 A 
ATOM     30  N   UNL     1      -7.096   2.151  -6.953  1.00  0.00    -0.354 N 
ATOM     31  N   UNL     1      -6.085  -0.099  -8.644  1.00  0.00    -0.248 NA
ATOM     32  C   UNL     1      -6.357  -1.520 -10.480  1.00  0.00     0.031 C 
ATOM     33  C   UNL     1      -8.872   3.258  -7.688  1.00  0.00     0.029 A 
ATOM     34  C   UNL     1      -8.007   2.216  -7.990  1.00  0.00     0.049 A 
ATOM     35  H   UNL     1      -6.364   1.496  -6.885  1.00  0.00     0.167 HD
ATOM     36  C   UNL     1      -7.173   0.330  -9.389  1.00  0.00     0.074 A 
ATOM     37  C   UNL     1      -7.271  -0.560 -10.530  1.00  0.00     0.031 C 
ATOM     38  C   UNL     1      -8.034   1.344  -9.137  1.00  0.00     0.034 A 
BRANCH  25  39
ATOM     39  C   UNL     1      -6.995   4.511  -3.928  1.00  0.00     0.023 A 
ATOM     40  C   UNL     1      -6.257   5.710  -3.918  1.00  0.00     0.012 A 
ATOM     41  C   UNL     1      -8.154   4.406  -3.131  1.00  0.00     0.148 A 
ATOM     42  C   UNL     1      -6.653   6.780  -3.114  1.00  0.00     0.002 A 
ATOM     43  C   UNL     1      -8.564   5.489  -2.361  1.00  0.00     0.091 A 
ATOM     44  F   UNL     1      -8.833   3.250  -3.144  1.00  0.00    -0.205 F 
ATOM     45  C   UNL     1      -7.810   6.673  -2.344  1.00  0.00     0.022 A 
BRANCH  43  46
ATOM     46  S   UNL     1     -10.072   5.476  -1.384  1.00  0.00     0.127 S 
ATOM     47  O   UNL     1      -9.543   5.601  -0.026  1.00  0.00    -0.237 OA
ATOM     48  O   UNL     1     -10.766   6.664  -1.879  1.00  0.00    -0.237 OA
ATOM     49  O   UNL     1     -10.733   4.212  -1.675  1.00  0.00    -0.744 OA
ENDBRANCH  43  46
ENDBRANCH  25  39
BRANCH  26  50
ATOM     50  C   UNL     1      -4.018  -3.180  -9.727  1.00  0.00     0.023 A 
ATOM     51  C   UNL     1      -3.446  -2.940 -10.990  1.00  0.00     0.012 A 
ATOM     52  C   UNL     1      -4.074  -4.505  -9.247  1.00  0.00     0.148 A 
ATOM     53  C   UNL     1      -2.942  -3.994 -11.756  1.00  0.00     0.002 A 
ATOM     54  C   UNL     1      -3.502  -5.539  -9.979  1.00  0.00     0.091 A 
ATOM     55  F   UNL     1      -4.652  -4.729  -8.057  1.00  0.00    -0.205 F 
ATOM     56  C   UNL     1      -2.951  -5.289 -11.243  1.00  0.00     0.022 A 
BRANCH  54  57
ATOM     57  S   UNL     1      -3.309  -7.191  -9.296  1.00  0.00     0.127 S 
ATOM     58  O   UNL     1      -4.397  -7.915  -9.947  1.00  0.00    -0.237 OA
ATOM     59  O   UNL     1      -1.966  -7.559  -9.747  1.00  0.00    -0.237 OA
ATOM     60  O   UNL     1      -3.423  -7.024  -7.853  1.00  0.00    -0.744 OA
ENDBRANCH  54  57
ENDBRANCH  26  50
BRANCH  38  61
ATOM     61  C   UNL     1      -9.147   1.563 -10.118  1.00  0.00     0.023 A 
ATOM     62  C   UNL     1     -10.273   0.719 -10.086  1.00  0.00     0.012 A 
ATOM     63  C   UNL     1      -9.133   2.684 -10.969  1.00  0.00     0.148 A 
ATOM     64  C   UNL     1     -11.373   0.987 -10.896  1.00  0.00     0.002 A 
ATOM     65  C   UNL     1     -10.252   2.971 -11.737  1.00  0.00     0.091 A 
ATOM     66  F   UNL     1      -8.036   3.456 -10.990  1.00  0.00    -0.205 F 
ATOM     67  C   UNL     1     -11.369   2.120 -11.708  1.00  0.00     0.022 A 
BRANCH  65  68
ATOM     68  S   UNL     1     -10.378   4.465 -12.723  1.00  0.00     0.127 S 
ATOM     69  O   UNL     1     -10.304   3.931 -14.082  1.00  0.00    -0.237 OA
ATOM     70  O   UNL     1     -11.692   4.979 -12.338  1.00  0.00    -0.237 OA
ATOM     71  O   UNL     1      -9.258   5.307 -12.323  1.00  0.00    -0.744 OA
ENDBRANCH  65  68
ENDBRANCH  38  61
ENDBRANCH  12  13
ENDBRANCH   5   7
ENDBRANCH   4   5
ENDBRANCH   3   4
ENDBRANCH   2   3
ENDBRANCH   1   2
BRANCH   1  72
ATOM     72  C   UNL     1       3.456  -1.878  -2.616  1.00  0.00     0.202 C 
BRANCH  72  73
ATOM     73  C   UNL     1       4.816  -2.215  -3.219  1.00  0.00     0.261 C 
BRANCH  73  74
ATOM     74  O   UNL     1       5.628  -1.031  -3.124  1.00  0.00    -0.463 OA
BRANCH  74  75
ATOM     75  C   UNL     1       5.805  -0.343  -4.279  1.00  0.00     0.309 C 
ATOM     76  O   UNL     1       5.707  -0.840  -5.393  1.00  0.00    -0.252 OA
BRANCH  75  77
ATOM     77  C   UNL     1       6.142   1.132  -4.030  1.00  0.00     0.108 C 
BRANCH  77  78
ATOM     78  C   UNL     1       5.477   1.911  -5.193  1.00  0.00     0.051 C 
BRANCH  78  79
ATOM     79  C   UNL     1       5.827   3.370  -5.364  1.00  0.00    -0.044 A 
ATOM     80  C   UNL     1       4.852   4.251  -5.866  1.00  0.00     0.004 A 
ATOM     81  C   UNL     1       7.088   3.880  -5.039  1.00  0.00     0.043 A 
ATOM     82  C   UNL     1       5.103   5.622  -5.951  1.00  0.00     0.003 A 
ATOM     83  C   UNL     1       7.325   5.248  -5.120  1.00  0.00     0.123 A 
ATOM     84  C   UNL     1       6.341   6.123  -5.560  1.00  0.00     0.039 A 
ATOM     85  F   UNL     1       8.521   5.729  -4.753  1.00  0.00    -0.207 F 
ENDBRANCH  78  79
ENDBRANCH  77  78
BRANCH  77  86
ATOM     86  C   UNL     1       5.798   1.568  -2.569  1.00  0.00     0.051 C 
BRANCH  86  87
ATOM     87  C   UNL     1       5.462   3.007  -2.255  1.00  0.00    -0.043 A 
ATOM     88  C   UNL     1       4.225   3.573  -2.609  1.00  0.00     0.004 A 
ATOM     89  C   UNL     1       6.381   3.805  -1.564  1.00  0.00     0.049 A 
ATOM     90  C   UNL     1       3.940   4.914  -2.338  1.00  0.00     0.004 A 
ATOM     91  C   UNL     1       6.087   5.138  -1.291  1.00  0.00     0.115 A 
ATOM     92  C   UNL     1       4.878   5.704  -1.682  1.00  0.00     0.046 A 
BRANCH  91  93
ATOM     93  O   UNL     1       7.031   5.872  -0.633  1.00  0.00    -0.508 OA
ATOM     94  H   UNL     1       6.868   6.772  -0.433  1.00  0.00     0.293 HD
ENDBRANCH  91  93
ENDBRANCH  86  87
ENDBRANCH  77  86
ENDBRANCH  75  77
ENDBRANCH  74  75
ENDBRANCH  73  74
ENDBRANCH  72  73
ENDBRANCH   1  72
TORSDOF 22
