REMARK SMILES Cc1cc2[nH]ccc2nc1C(=O)OCCOCCOC(=O)c1ccc(-c2c3nc(c(-c4cccc(S(=O)(=O)[O-])c4F)c4ccc([nH]4)c(-c4cccc(S(=O)(=O)[O-])c4F)c4nc(c(-c5cccc(S(=O)(=O)[O-])c5F)c5ccc2[nH]5)C=C4)C=C3)cc1
REMARK SMILES IDX 17 1 16 2 15 3 14 4 13 5 11 6 12 7 10 8 1 9 2 10 3 11 4 12
REMARK SMILES IDX 9 13 5 14 8 15 6 16 7 18 18 19 19 20 20 21 21 22 22 23 23 24
REMARK SMILES IDX 84 25 24 26 83 27 25 28 26 29 27 30 77 31 28 32 82 33 76 34
REMARK SMILES IDX 78 35 29 36 81 37 75 38 74 39 30 41 62 42 42 43 61 44 43 45
REMARK SMILES IDX 46 46 60 47 79 48 44 49 45 50 59 52 80 53 47 54 31 55 32 56
REMARK SMILES IDX 40 57 33 58 35 59 41 60 34 61 36 62 37 63 38 64 39 65 63 66
REMARK SMILES IDX 64 67 72 68 65 69 67 70 73 71 66 72 68 73 69 74 70 75 71 76
REMARK SMILES IDX 48 77 49 78 57 79 50 80 52 81 58 82 51 83 53 84 54 85 55 86
REMARK SMILES IDX 56 87
REMARK H PARENT 5 17 78 40 46 51
REMARK Flexibility Score: inf
ROOT
ATOM      1  C   UNL     1       3.672   3.626   1.397  1.00  0.00     0.202 C 
ENDROOT
BRANCH   1   2
ATOM      2  O   UNL     1       3.939   3.342   2.768  1.00  0.00    -0.374 OA
BRANCH   2   3
ATOM      3  C   UNL     1       3.674   2.035   3.277  1.00  0.00     0.202 C 
BRANCH   3   4
ATOM      4  C   UNL     1       2.212   1.599   3.361  1.00  0.00     0.261 C 
BRANCH   4   5
ATOM      5  O   UNL     1       1.629   1.465   2.054  1.00  0.00    -0.459 OA
BRANCH   5   6
ATOM      6  C   UNL     1       0.565   2.271   1.805  1.00  0.00     0.357 C 
ATOM      7  O   UNL     1       0.021   3.001   2.624  1.00  0.00    -0.244 OA
BRANCH   6   8
ATOM      8  C   UNL     1       0.213   2.271   0.346  1.00  0.00     0.152 A 
ATOM      9  C   UNL     1       0.602  -0.244   0.056  1.00  0.00     0.047 C 
ATOM     10  C   UNL     1       0.154   1.103  -0.432  1.00  0.00    -0.016 A 
ATOM     11  C   UNL     1      -0.319   1.210  -1.750  1.00  0.00     0.034 A 
ATOM     12  C   UNL     1      -0.654   2.488  -2.196  1.00  0.00     0.064 A 
ATOM     13  N   UNL     1      -0.087   3.523  -0.100  1.00  0.00    -0.239 NA
ATOM     14  N   UNL     1      -1.146   2.938  -3.399  1.00  0.00    -0.360 N 
ATOM     15  C   UNL     1      -0.501   3.600  -1.380  1.00  0.00     0.089 A 
ATOM     16  C   UNL     1      -1.251   4.307  -3.380  1.00  0.00     0.085 A 
ATOM     17  H   UNL     1      -1.388   2.364  -4.161  1.00  0.00     0.166 HD
ATOM     18  C   UNL     1      -0.844   4.744  -2.137  1.00  0.00     0.048 A 
ENDBRANCH   6   8
ENDBRANCH   5   6
ENDBRANCH   4   5
ENDBRANCH   3   4
ENDBRANCH   2   3
ENDBRANCH   1   2
BRANCH   1  19
ATOM     19  C   UNL     1       4.592   3.013   0.351  1.00  0.00     0.261 C 
BRANCH  19  20
ATOM     20  O   UNL     1       4.583   1.593   0.379  1.00  0.00    -0.460 OA
BRANCH  20  21
ATOM     21  C   UNL     1       5.667   1.053   0.968  1.00  0.00     0.338 C 
ATOM     22  O   UNL     1       6.449   1.617   1.739  1.00  0.00    -0.246 OA
BRANCH  21  23
ATOM     23  C   UNL     1       5.889  -0.287   0.437  1.00  0.00     0.060 A 
ATOM     24  C   UNL     1       7.001  -0.974   0.927  1.00  0.00     0.016 A 
ATOM     25  C   UNL     1       5.209  -0.694  -0.723  1.00  0.00     0.016 A 
ATOM     26  C   UNL     1       7.573  -1.928   0.123  1.00  0.00     0.010 A 
ATOM     27  C   UNL     1       5.787  -1.643  -1.529  1.00  0.00     0.010 A 
ATOM     28  C   UNL     1       7.009  -2.174  -1.136  1.00  0.00    -0.014 A 
BRANCH  28  29
ATOM     29  C   UNL     1       7.712  -3.078  -2.012  1.00  0.00     0.031 A 
ATOM     30  C   UNL     1       7.614  -4.479  -1.569  1.00  0.00     0.074 A 
ATOM     31  C   UNL     1       8.361  -2.676  -3.118  1.00  0.00     0.049 A 
ATOM     32  N   UNL     1       8.521  -5.157  -0.952  1.00  0.00    -0.248 NA
ATOM     33  C   UNL     1       6.295  -5.122  -1.616  1.00  0.00     0.031 C 
ATOM     34  C   UNL     1       8.308  -1.380  -3.798  1.00  0.00     0.029 A 
ATOM     35  N   UNL     1       9.146  -3.422  -3.936  1.00  0.00    -0.354 N 
ATOM     36  C   UNL     1       7.960  -6.410  -0.751  1.00  0.00     0.074 A 
ATOM     37  C   UNL     1       6.545  -6.257  -0.964  1.00  0.00     0.031 C 
ATOM     38  C   UNL     1       8.831  -1.513  -5.041  1.00  0.00     0.029 A 
ATOM     39  C   UNL     1       9.388  -2.849  -5.176  1.00  0.00     0.049 A 
ATOM     40  H   UNL     1       9.514  -4.296  -3.672  1.00  0.00     0.167 HD
ATOM     41  C   UNL     1       8.743  -7.520  -0.697  1.00  0.00     0.034 A 
ATOM     42  C   UNL     1       9.944  -3.479  -6.240  1.00  0.00     0.034 A 
ATOM     43  C   UNL     1      10.129  -7.173  -0.495  1.00  0.00     0.049 A 
ATOM     44  C   UNL     1      10.710  -4.632  -5.707  1.00  0.00     0.074 A 
ATOM     45  C   UNL     1      10.839  -6.515   0.489  1.00  0.00     0.029 A 
ATOM     46  N   UNL     1      10.934  -7.176  -1.609  1.00  0.00    -0.354 N 
ATOM     47  N   UNL     1      11.776  -4.505  -4.966  1.00  0.00    -0.248 NA
ATOM     48  C   UNL     1      10.045  -5.923  -5.632  1.00  0.00     0.031 C 
ATOM     49  C   UNL     1      11.833  -5.768  -0.209  1.00  0.00     0.029 A 
ATOM     50  C   UNL     1      11.713  -6.051  -1.572  1.00  0.00     0.049 A 
ATOM     51  H   UNL     1      10.948  -7.867  -2.311  1.00  0.00     0.167 HD
ATOM     52  C   UNL     1      11.649  -5.501  -4.006  1.00  0.00     0.074 A 
ATOM     53  C   UNL     1      10.632  -6.408  -4.534  1.00  0.00     0.031 C 
ATOM     54  C   UNL     1      12.164  -5.340  -2.751  1.00  0.00     0.034 A 
BRANCH  41  55
ATOM     55  C   UNL     1       8.332  -8.880  -1.205  1.00  0.00     0.023 A 
ATOM     56  C   UNL     1       9.222  -9.949  -0.963  1.00  0.00     0.012 A 
ATOM     57  C   UNL     1       7.278  -9.119  -2.117  1.00  0.00     0.148 A 
ATOM     58  C   UNL     1       9.103 -11.169  -1.636  1.00  0.00     0.002 A 
ATOM     59  C   UNL     1       7.113 -10.361  -2.718  1.00  0.00     0.091 A 
ATOM     60  F   UNL     1       6.499  -8.116  -2.528  1.00  0.00    -0.205 F 
ATOM     61  C   UNL     1       8.043 -11.379  -2.508  1.00  0.00     0.022 A 
BRANCH  59  62
ATOM     62  S   UNL     1       5.725 -10.700  -3.809  1.00  0.00     0.127 S 
ATOM     63  O   UNL     1       6.381 -10.751  -5.111  1.00  0.00    -0.237 OA
ATOM     64  O   UNL     1       5.255 -11.988  -3.298  1.00  0.00    -0.237 OA
ATOM     65  O   UNL     1       4.787  -9.602  -3.606  1.00  0.00    -0.744 OA
ENDBRANCH  59  62
ENDBRANCH  41  55
BRANCH  42  66
ATOM     66  C   UNL     1       9.618  -3.369  -7.681  1.00  0.00     0.023 A 
ATOM     67  C   UNL     1      10.529  -3.865  -8.635  1.00  0.00     0.012 A 
ATOM     68  C   UNL     1       8.300  -3.082  -8.102  1.00  0.00     0.148 A 
ATOM     69  C   UNL     1      10.130  -4.114  -9.953  1.00  0.00     0.002 A 
ATOM     70  C   UNL     1       7.907  -3.335  -9.413  1.00  0.00     0.091 A 
ATOM     71  F   UNL     1       7.412  -2.653  -7.195  1.00  0.00    -0.205 F 
ATOM     72  C   UNL     1       8.816  -3.864 -10.338  1.00  0.00     0.022 A 
BRANCH  70  73
ATOM     73  S   UNL     1       6.215  -3.091  -9.974  1.00  0.00     0.127 S 
ATOM     74  O   UNL     1       6.411  -2.273 -11.171  1.00  0.00    -0.237 OA
ATOM     75  O   UNL     1       5.784  -4.462 -10.234  1.00  0.00    -0.237 OA
ATOM     76  O   UNL     1       5.526  -2.410  -8.886  1.00  0.00    -0.744 OA
ENDBRANCH  70  73
ENDBRANCH  42  66
BRANCH  54  77
ATOM     77  C   UNL     1      13.084  -4.165  -2.505  1.00  0.00     0.023 A 
ATOM     78  C   UNL     1      12.645  -2.828  -2.614  1.00  0.00     0.012 A 
ATOM     79  C   UNL     1      14.356  -4.418  -1.964  1.00  0.00     0.148 A 
ATOM     80  C   UNL     1      13.463  -1.769  -2.206  1.00  0.00     0.002 A 
ATOM     81  C   UNL     1      15.144  -3.367  -1.511  1.00  0.00     0.091 A 
ATOM     82  F   UNL     1      14.758  -5.694  -1.866  1.00  0.00    -0.205 F 
ATOM     83  C   UNL     1      14.705  -2.039  -1.639  1.00  0.00     0.022 A 
BRANCH  81  84
ATOM     84  S   UNL     1      16.687  -3.655  -0.642  1.00  0.00     0.127 S 
ATOM     85  O   UNL     1      17.678  -3.240  -1.632  1.00  0.00    -0.237 OA
ATOM     86  O   UNL     1      16.566  -2.765   0.514  1.00  0.00    -0.237 OA
ATOM     87  O   UNL     1      16.698  -5.073  -0.301  1.00  0.00    -0.744 OA
ENDBRANCH  81  84
ENDBRANCH  54  77
ENDBRANCH  28  29
ENDBRANCH  21  23
ENDBRANCH  20  21
ENDBRANCH  19  20
ENDBRANCH   1  19
TORSDOF 17
