REMARK SMILES C/C(=N\NC(N)=S)c1nnn(-c2ccc(C(=O)OCCOCCOC(=O)c3ccc(-c4c5nc(c(-c6cccc(S(=O)(=O)[O-])c6F)c6ccc([nH]6)c(-c6cccc(S(=O)(=O)[O-])c6F)c6nc(c(-c7cccc(S(=O)(=O)[O-])c7F)c7ccc4[nH]7)C=C6)C=C5)cc3)cc2)c1C
REMARK SMILES IDX 20 1 19 2 18 3 16 4 17 5 15 6 12 7 13 8 91 9 14 10 90 11
REMARK SMILES IDX 11 12 8 13 9 14 92 15 10 16 93 17 2 18 1 19 3 20 4 21 5 23
REMARK SMILES IDX 7 24 6 25 21 28 22 29 23 30 24 31 25 32 26 33 27 34 28 35
REMARK SMILES IDX 89 36 29 37 88 38 30 39 31 40 32 41 82 42 33 43 87 44 81 45
REMARK SMILES IDX 83 46 34 47 86 48 80 49 79 50 35 52 67 53 47 54 66 55 48 56
REMARK SMILES IDX 51 57 65 58 84 59 49 60 50 61 64 63 85 64 52 65 36 66 37 67
REMARK SMILES IDX 45 68 38 69 40 70 46 71 39 72 41 73 42 74 43 75 44 76 68 77
REMARK SMILES IDX 69 78 77 79 70 80 72 81 78 82 71 83 73 84 74 85 75 86 76 87
REMARK SMILES IDX 53 88 54 89 62 90 55 91 57 92 63 93 56 94 58 95 59 96 60 97
REMARK SMILES IDX 61 98
REMARK H PARENT 4 22 6 26 6 27 83 51 51 62
REMARK Flexibility Score: inf
ROOT
ATOM      1  C   UNL     1       9.312   2.109   8.559  1.00  0.00     0.202 C 
ENDROOT
BRANCH   1   2
ATOM      2  C   UNL     1       9.232   1.610   7.117  1.00  0.00     0.261 C 
BRANCH   2   3
ATOM      3  O   UNL     1       8.009   1.988   6.471  1.00  0.00    -0.460 OA
BRANCH   3   4
ATOM      4  C   UNL     1       7.138   0.970   6.278  1.00  0.00     0.338 C 
ATOM      5  O   UNL     1       7.309  -0.207   6.548  1.00  0.00    -0.246 OA
BRANCH   4   6
ATOM      6  C   UNL     1       5.842   1.491   5.794  1.00  0.00     0.060 A 
ATOM      7  C   UNL     1       3.427   2.065   4.580  1.00  0.00     0.067 A 
ATOM      8  C   UNL     1       3.449   1.143   5.630  1.00  0.00     0.029 A 
ATOM      9  C   UNL     1       4.564   2.816   4.251  1.00  0.00     0.029 A 
ATOM     10  C   UNL     1       4.674   0.837   6.218  1.00  0.00     0.018 A 
ATOM     11  C   UNL     1       5.779   2.534   4.869  1.00  0.00     0.018 A 
BRANCH   7  12
ATOM     12  N   UNL     1       2.334   2.045   3.686  1.00  0.00    -0.217 N 
ATOM     13  C   UNL     1       1.095   1.568   1.957  1.00  0.00     0.132 A 
ATOM     14  N   UNL     1       0.284   1.718   3.050  1.00  0.00    -0.128 NA
ATOM     15  C   UNL     1       2.412   1.730   2.335  1.00  0.00     0.071 A 
ATOM     16  N   UNL     1       1.055   1.927   4.110  1.00  0.00    -0.061 NA
ATOM     17  C   UNL     1       3.661   1.403   1.604  1.00  0.00     0.069 C 
BRANCH  13  18
ATOM     18  C   UNL     1       0.614   1.005   0.708  1.00  0.00     0.087 C 
ATOM     19  C   UNL     1       0.641  -0.496   0.631  1.00  0.00     0.071 C 
ATOM     20  N   UNL     1       0.204   1.863  -0.177  1.00  0.00    -0.176 NA
BRANCH  20  21
ATOM     21  N   UNL     1      -0.349   1.514  -1.373  1.00  0.00    -0.254 N 
ATOM     22  H   UNL     1      -1.262   1.852  -1.520  1.00  0.00     0.193 HD
BRANCH  21  23
ATOM     23  C   UNL     1       0.164   0.762  -2.411  1.00  0.00     0.184 C 
ATOM     24  S   UNL     1       1.603  -0.058  -2.543  1.00  0.00    -0.040 S 
BRANCH  23  25
ATOM     25  N   UNL     1      -0.691   0.724  -3.482  1.00  0.00    -0.375 N 
ATOM     26  H   UNL     1      -1.553   1.197  -3.441  1.00  0.00     0.159 HD
ATOM     27  H   UNL     1      -0.443   0.222  -4.292  1.00  0.00     0.159 HD
ENDBRANCH  23  25
ENDBRANCH  21  23
ENDBRANCH  20  21
ENDBRANCH  13  18
ENDBRANCH   7  12
ENDBRANCH   4   6
ENDBRANCH   3   4
ENDBRANCH   2   3
ENDBRANCH   1   2
BRANCH   1  28
ATOM     28  O   UNL     1       8.361   1.625   9.508  1.00  0.00    -0.374 OA
BRANCH  28  29
ATOM     29  C   UNL     1       6.985   1.974   9.396  1.00  0.00     0.202 C 
BRANCH  29  30
ATOM     30  C   UNL     1       6.562   3.417   9.626  1.00  0.00     0.261 C 
BRANCH  30  31
ATOM     31  O   UNL     1       7.253   4.317   8.779  1.00  0.00    -0.460 OA
BRANCH  31  32
ATOM     32  C   UNL     1       8.274   4.958   9.398  1.00  0.00     0.338 C 
ATOM     33  O   UNL     1       8.810   4.651  10.444  1.00  0.00    -0.246 OA
BRANCH  32  34
ATOM     34  C   UNL     1       8.533   6.207   8.677  1.00  0.00     0.060 A 
ATOM     35  C   UNL     1       9.434   7.072   9.299  1.00  0.00     0.016 A 
ATOM     36  C   UNL     1       7.606   6.640   7.719  1.00  0.00     0.016 A 
ATOM     37  C   UNL     1       9.192   8.417   9.194  1.00  0.00     0.010 A 
ATOM     38  C   UNL     1       7.351   7.982   7.634  1.00  0.00     0.010 A 
ATOM     39  C   UNL     1       8.078   8.834   8.458  1.00  0.00    -0.014 A 
BRANCH  39  40
ATOM     40  C   UNL     1       7.753  10.236   8.467  1.00  0.00     0.031 A 
ATOM     41  C   UNL     1       8.638  10.982   7.556  1.00  0.00     0.074 A 
ATOM     42  C   UNL     1       6.726  10.746   9.170  1.00  0.00     0.049 A 
ATOM     43  N   UNL     1       9.692  11.650   7.885  1.00  0.00    -0.248 NA
ATOM     44  C   UNL     1       8.511  10.723   6.114  1.00  0.00     0.031 C 
ATOM     45  C   UNL     1       5.639  10.040   9.852  1.00  0.00     0.029 A 
ATOM     46  N   UNL     1       6.374  12.048   9.307  1.00  0.00    -0.354 N 
ATOM     47  C   UNL     1      10.189  12.128   6.681  1.00  0.00     0.074 A 
ATOM     48  C   UNL     1       9.625  11.296   5.655  1.00  0.00     0.031 C 
ATOM     49  C   UNL     1       4.630  10.914  10.089  1.00  0.00     0.029 A 
ATOM     50  C   UNL     1       5.055  12.247   9.695  1.00  0.00     0.049 A 
ATOM     51  H   UNL     1       7.001  12.790   9.145  1.00  0.00     0.167 HD
ATOM     52  C   UNL     1      10.734  13.371   6.604  1.00  0.00     0.034 A 
ATOM     53  C   UNL     1       4.366  13.413   9.588  1.00  0.00     0.034 A 
ATOM     54  C   UNL     1      11.008  13.900   7.919  1.00  0.00     0.049 A 
ATOM     55  C   UNL     1       5.368  14.502   9.449  1.00  0.00     0.074 A 
ATOM     56  C   UNL     1      11.777  13.499   8.993  1.00  0.00     0.029 A 
ATOM     57  N   UNL     1      10.097  14.803   8.413  1.00  0.00    -0.354 N 
ATOM     58  N   UNL     1       6.192  14.839  10.401  1.00  0.00    -0.248 NA
ATOM     59  C   UNL     1       5.776  14.880   8.104  1.00  0.00     0.031 C 
ATOM     60  C   UNL     1      11.003  13.831  10.144  1.00  0.00     0.029 A 
ATOM     61  C   UNL     1       9.843  14.482   9.719  1.00  0.00     0.049 A 
ATOM     62  H   UNL     1       9.697  15.552   7.914  1.00  0.00     0.167 HD
ATOM     63  C   UNL     1       7.407  15.025   9.752  1.00  0.00     0.074 A 
ATOM     64  C   UNL     1       7.068  15.138   8.333  1.00  0.00     0.031 C 
ATOM     65  C   UNL     1       8.588  14.757  10.383  1.00  0.00     0.034 A 
BRANCH  52  66
ATOM     66  C   UNL     1      10.623  14.279   5.402  1.00  0.00     0.023 A 
ATOM     67  C   UNL     1      11.373  15.474   5.442  1.00  0.00     0.012 A 
ATOM     68  C   UNL     1       9.643  14.173   4.387  1.00  0.00     0.148 A 
ATOM     69  C   UNL     1      11.119  16.527   4.560  1.00  0.00     0.002 A 
ATOM     70  C   UNL     1       9.450  15.187   3.460  1.00  0.00     0.091 A 
ATOM     71  F   UNL     1       8.783  13.153   4.380  1.00  0.00    -0.205 F 
ATOM     72  C   UNL     1      10.162  16.382   3.563  1.00  0.00     0.022 A 
BRANCH  70  73
ATOM     73  S   UNL     1       8.254  15.031   2.127  1.00  0.00     0.127 S 
ATOM     74  O   UNL     1       7.235  15.994   2.534  1.00  0.00    -0.237 OA
ATOM     75  O   UNL     1       9.054  15.425   0.967  1.00  0.00    -0.237 OA
ATOM     76  O   UNL     1       7.844  13.633   2.122  1.00  0.00    -0.744 OA
ENDBRANCH  70  73
ENDBRANCH  52  66
BRANCH  53  77
ATOM     77  C   UNL     1       2.935  13.638   9.264  1.00  0.00     0.023 A 
ATOM     78  C   UNL     1       2.348  14.895   9.520  1.00  0.00     0.012 A 
ATOM     79  C   UNL     1       2.231  12.735   8.438  1.00  0.00     0.148 A 
ATOM     80  C   UNL     1       1.119  15.251   8.947  1.00  0.00     0.002 A 
ATOM     81  C   UNL     1       1.009  13.091   7.874  1.00  0.00     0.091 A 
ATOM     82  F   UNL     1       2.803  11.565   8.126  1.00  0.00    -0.205 F 
ATOM     83  C   UNL     1       0.454  14.354   8.117  1.00  0.00     0.022 A 
BRANCH  81  84
ATOM     84  S   UNL     1       0.115  11.998   6.759  1.00  0.00     0.127 S 
ATOM     85  O   UNL     1      -1.227  12.006   7.342  1.00  0.00    -0.237 OA
ATOM     86  O   UNL     1       0.234  12.704   5.486  1.00  0.00    -0.237 OA
ATOM     87  O   UNL     1       0.794  10.711   6.832  1.00  0.00    -0.744 OA
ENDBRANCH  81  84
ENDBRANCH  53  77
BRANCH  65  88
ATOM     88  C   UNL     1       8.554  14.508  11.869  1.00  0.00     0.023 A 
ATOM     89  C   UNL     1       7.901  13.398  12.448  1.00  0.00     0.012 A 
ATOM     90  C   UNL     1       9.354  15.325  12.683  1.00  0.00     0.148 A 
ATOM     91  C   UNL     1       8.031  13.125  13.813  1.00  0.00     0.002 A 
ATOM     92  C   UNL     1       9.520  15.023  14.027  1.00  0.00     0.091 A 
ATOM     93  F   UNL     1       9.970  16.372  12.114  1.00  0.00    -0.205 F 
ATOM     94  C   UNL     1       8.852  13.929  14.600  1.00  0.00     0.022 A 
BRANCH  92  95
ATOM     95  S   UNL     1      10.662  15.947  15.055  1.00  0.00     0.127 S 
ATOM     96  O   UNL     1       9.756  16.747  15.874  1.00  0.00    -0.237 OA
ATOM     97  O   UNL     1      11.365  14.884  15.776  1.00  0.00    -0.237 OA
ATOM     98  O   UNL     1      11.508  16.700  14.137  1.00  0.00    -0.744 OA
ENDBRANCH  92  95
ENDBRANCH  65  88
ENDBRANCH  39  40
ENDBRANCH  32  34
ENDBRANCH  31  32
ENDBRANCH  30  31
ENDBRANCH  29  30
ENDBRANCH  28  29
ENDBRANCH   1  28
TORSDOF 22
