REMARK SMILES CC[C@H]1CC[C@](NC(=O)C[NH2+]CC(F)(F)F)(C(=O)OCCOCCOC(=O)c2ccc(-c3c4nc(c(-c5cccc(S(=O)(=O)[O-])c5F)c5ccc([nH]5)c(-c5cccc(S(=O)(=O)[O-])c5F)c5nc(c(-c6cccc(S(=O)(=O)[O-])c6F)c6ccc3[nH]6)C=C5)C=C4)cc2)CC1
REMARK SMILES IDX 21 1 20 2 19 3 17 4 18 5 6 6 3 7 92 8 4 9 91 10 5 11 2 12
REMARK SMILES IDX 1 13 7 14 8 15 9 17 10 18 11 19 12 22 13 23 14 24 15 25
REMARK SMILES IDX 16 26 22 27 23 28 24 29 25 30 26 31 27 32 28 33 29 34 90 35
REMARK SMILES IDX 30 36 89 37 31 38 32 39 33 40 83 41 34 42 88 43 82 44 84 45
REMARK SMILES IDX 35 46 87 47 81 48 80 49 36 51 68 52 48 53 67 54 49 55 52 56
REMARK SMILES IDX 66 57 85 58 50 59 51 60 65 62 86 63 53 64 37 65 38 66 46 67
REMARK SMILES IDX 39 68 41 69 47 70 40 71 42 72 43 73 44 74 45 75 69 76 70 77
REMARK SMILES IDX 78 78 71 79 73 80 79 81 72 82 74 83 75 84 76 85 77 86 54 87
REMARK SMILES IDX 55 88 63 89 56 90 58 91 64 92 57 93 59 94 60 95 61 96 62 97
REMARK H PARENT 7 16 11 20 11 21 84 50 52 61
REMARK Flexibility Score: inf
ROOT
ATOM      1  C   UNL     1       2.594  -4.837  -7.298  1.00  0.00     0.202 C 
ENDROOT
BRANCH   1   2
ATOM      2  C   UNL     1       3.098  -5.320  -5.936  1.00  0.00     0.261 C 
BRANCH   2   3
ATOM      3  O   UNL     1       2.609  -4.590  -4.800  1.00  0.00    -0.461 OA
BRANCH   3   4
ATOM      4  C   UNL     1       3.505  -3.741  -4.217  1.00  0.00     0.331 C 
ATOM      5  O   UNL     1       4.659  -3.586  -4.605  1.00  0.00    -0.249 OA
BRANCH   4   6
ATOM      6  C   UNL     1       2.933  -3.048  -2.947  1.00  0.00     0.138 C 
ATOM      7  C   UNL     1       1.119  -0.764  -2.107  1.00  0.00    -0.011 C 
ATOM      8  C   UNL     1       2.635  -0.579  -2.180  1.00  0.00     0.006 C 
ATOM      9  C   UNL     1       0.790  -2.221  -1.749  1.00  0.00     0.006 C 
ATOM     10  C   UNL     1       3.256  -1.541  -3.191  1.00  0.00     0.041 C 
ATOM     11  C   UNL     1       1.406  -3.215  -2.751  1.00  0.00     0.041 C 
BRANCH   7  12
ATOM     12  C   UNL     1       0.452   0.269  -1.178  1.00  0.00    -0.000 C 
ATOM     13  C   UNL     1       0.848   0.199   0.290  1.00  0.00     0.004 C 
ENDBRANCH   7  12
BRANCH   6  14
ATOM     14  N   UNL     1       3.647  -3.466  -1.713  1.00  0.00    -0.335 N 
ATOM     15  C   UNL     1       3.975  -4.692  -1.212  1.00  0.00     0.276 C 
ATOM     16  H   UNL     1       3.940  -2.714  -1.149  1.00  0.00     0.164 HD
ATOM     17  O   UNL     1       4.027  -4.784   0.017  1.00  0.00    -0.268 OA
BRANCH  15  18
ATOM     18  C   UNL     1       4.404  -5.850  -2.121  1.00  0.00     0.362 C 
BRANCH  18  19
ATOM     19  N   UNL     1       3.271  -6.697  -2.518  1.00  0.00    -0.331 N 
ATOM     20  H   UNL     1       2.568  -6.117  -2.977  1.00  0.00     0.346 HD
ATOM     21  H   UNL     1       2.887  -7.135  -1.680  1.00  0.00     0.346 HD
BRANCH  19  22
ATOM     22  C   UNL     1       3.700  -7.771  -3.454  1.00  0.00     0.378 C 
BRANCH  22  23
ATOM     23  C   UNL     1       4.655  -8.902  -3.011  1.00  0.00     0.438 C 
ATOM     24  F   UNL     1       4.125  -9.678  -2.050  1.00  0.00    -0.165 F 
ATOM     25  F   UNL     1       4.930  -9.695  -4.079  1.00  0.00    -0.165 F 
ATOM     26  F   UNL     1       5.839  -8.414  -2.576  1.00  0.00    -0.165 F 
ENDBRANCH  22  23
ENDBRANCH  19  22
ENDBRANCH  18  19
ENDBRANCH  15  18
ENDBRANCH   6  14
ENDBRANCH   4   6
ENDBRANCH   3   4
ENDBRANCH   2   3
ENDBRANCH   1   2
BRANCH   1  27
ATOM     27  O   UNL     1       2.352  -3.447  -7.450  1.00  0.00    -0.374 OA
BRANCH  27  28
ATOM     28  C   UNL     1       1.213  -2.897  -6.788  1.00  0.00     0.202 C 
BRANCH  28  29
ATOM     29  C   UNL     1      -0.142  -3.590  -6.987  1.00  0.00     0.261 C 
BRANCH  29  30
ATOM     30  O   UNL     1      -0.256  -4.828  -6.247  1.00  0.00    -0.460 OA
BRANCH  30  31
ATOM     31  C   UNL     1      -0.650  -5.892  -6.990  1.00  0.00     0.338 C 
ATOM     32  O   UNL     1      -0.844  -5.901  -8.199  1.00  0.00    -0.246 OA
BRANCH  31  33
ATOM     33  C   UNL     1      -0.725  -7.133  -6.199  1.00  0.00     0.060 A 
ATOM     34  C   UNL     1      -0.032  -8.253  -6.679  1.00  0.00     0.016 A 
ATOM     35  C   UNL     1      -1.632  -7.263  -5.144  1.00  0.00     0.016 A 
ATOM     36  C   UNL     1      -0.306  -9.521  -6.162  1.00  0.00     0.010 A 
ATOM     37  C   UNL     1      -1.909  -8.538  -4.631  1.00  0.00     0.010 A 
ATOM     38  C   UNL     1      -1.291  -9.678  -5.178  1.00  0.00    -0.014 A 
BRANCH  38  39
ATOM     39  C   UNL     1      -1.805 -11.038  -4.866  1.00  0.00     0.031 A 
ATOM     40  C   UNL     1      -3.065 -11.519  -5.541  1.00  0.00     0.074 A 
ATOM     41  C   UNL     1      -1.160 -11.848  -4.007  1.00  0.00     0.049 A 
ATOM     42  N   UNL     1      -3.682 -12.667  -5.425  1.00  0.00    -0.248 NA
ATOM     43  C   UNL     1      -3.717 -10.581  -6.472  1.00  0.00     0.031 C 
ATOM     44  C   UNL     1       0.063 -11.511  -3.282  1.00  0.00     0.029 A 
ATOM     45  N   UNL     1      -1.464 -13.119  -3.585  1.00  0.00    -0.354 N 
ATOM     46  C   UNL     1      -4.800 -12.585  -6.247  1.00  0.00     0.074 A 
ATOM     47  C   UNL     1      -4.786 -11.268  -6.848  1.00  0.00     0.031 C 
ATOM     48  C   UNL     1       0.393 -12.540  -2.483  1.00  0.00     0.029 A 
ATOM     49  C   UNL     1      -0.601 -13.604  -2.632  1.00  0.00     0.049 A 
ATOM     50  H   UNL     1      -2.228 -13.633  -3.932  1.00  0.00     0.167 HD
ATOM     51  C   UNL     1      -5.743 -13.524  -6.501  1.00  0.00     0.034 A 
ATOM     52  C   UNL     1      -0.615 -14.768  -1.951  1.00  0.00     0.034 A 
ATOM     53  C   UNL     1      -5.750 -14.844  -5.934  1.00  0.00     0.049 A 
ATOM     54  C   UNL     1      -1.683 -15.791  -2.242  1.00  0.00     0.074 A 
ATOM     55  C   UNL     1      -6.641 -15.877  -6.173  1.00  0.00     0.029 A 
ATOM     56  N   UNL     1      -4.830 -15.315  -5.013  1.00  0.00    -0.354 N 
ATOM     57  N   UNL     1      -2.652 -15.747  -3.124  1.00  0.00    -0.248 NA
ATOM     58  C   UNL     1      -1.637 -17.041  -1.467  1.00  0.00     0.031 C 
ATOM     59  C   UNL     1      -6.261 -16.973  -5.389  1.00  0.00     0.029 A 
ATOM     60  C   UNL     1      -5.132 -16.621  -4.668  1.00  0.00     0.049 A 
ATOM     61  H   UNL     1      -4.072 -14.797  -4.657  1.00  0.00     0.167 HD
ATOM     62  C   UNL     1      -3.307 -16.972  -3.034  1.00  0.00     0.074 A 
ATOM     63  C   UNL     1      -2.614 -17.744  -2.024  1.00  0.00     0.031 C 
ATOM     64  C   UNL     1      -4.396 -17.409  -3.713  1.00  0.00     0.034 A 
BRANCH  51  65
ATOM     65  C   UNL     1      -6.826 -13.174  -7.484  1.00  0.00     0.023 A 
ATOM     66  C   UNL     1      -6.534 -13.196  -8.863  1.00  0.00     0.012 A 
ATOM     67  C   UNL     1      -8.137 -12.887  -7.058  1.00  0.00     0.148 A 
ATOM     68  C   UNL     1      -7.526 -12.918  -9.803  1.00  0.00     0.002 A 
ATOM     69  C   UNL     1      -9.128 -12.642  -8.002  1.00  0.00     0.091 A 
ATOM     70  F   UNL     1      -8.387 -12.843  -5.741  1.00  0.00    -0.205 F 
ATOM     71  C   UNL     1      -8.823 -12.652  -9.373  1.00  0.00     0.022 A 
BRANCH  69  72
ATOM     72  S   UNL     1     -10.840 -12.350  -7.541  1.00  0.00     0.127 S 
ATOM     73  O   UNL     1     -10.941 -10.899  -7.686  1.00  0.00    -0.237 OA
ATOM     74  O   UNL     1     -11.572 -13.115  -8.552  1.00  0.00    -0.237 OA
ATOM     75  O   UNL     1     -10.976 -12.861  -6.184  1.00  0.00    -0.744 OA
ENDBRANCH  69  72
ENDBRANCH  51  65
BRANCH  52  76
ATOM     76  C   UNL     1       0.452 -15.056  -0.954  1.00  0.00     0.023 A 
ATOM     77  C   UNL     1       1.429 -16.026  -1.248  1.00  0.00     0.012 A 
ATOM     78  C   UNL     1       0.510 -14.371   0.275  1.00  0.00     0.148 A 
ATOM     79  C   UNL     1       2.433 -16.325  -0.326  1.00  0.00     0.002 A 
ATOM     80  C   UNL     1       1.539 -14.642   1.170  1.00  0.00     0.091 A 
ATOM     81  F   UNL     1      -0.447 -13.472   0.549  1.00  0.00    -0.205 F 
ATOM     82  C   UNL     1       2.495 -15.626   0.877  1.00  0.00     0.022 A 
BRANCH  80  83
ATOM     83  S   UNL     1       1.743 -13.711   2.693  1.00  0.00     0.127 S 
ATOM     84  O   UNL     1       1.193 -14.633   3.683  1.00  0.00    -0.237 OA
ATOM     85  O   UNL     1       3.195 -13.536   2.756  1.00  0.00    -0.237 OA
ATOM     86  O   UNL     1       1.000 -12.475   2.489  1.00  0.00    -0.744 OA
ENDBRANCH  80  83
ENDBRANCH  52  76
BRANCH  64  87
ATOM     87  C   UNL     1      -4.903 -18.796  -3.418  1.00  0.00     0.023 A 
ATOM     88  C   UNL     1      -5.620 -19.034  -2.229  1.00  0.00     0.012 A 
ATOM     89  C   UNL     1      -4.749 -19.839  -4.353  1.00  0.00     0.148 A 
ATOM     90  C   UNL     1      -6.156 -20.294  -1.965  1.00  0.00     0.002 A 
ATOM     91  C   UNL     1      -5.321 -21.082  -4.101  1.00  0.00     0.091 A 
ATOM     92  F   UNL     1      -4.045 -19.601  -5.470  1.00  0.00    -0.205 F 
ATOM     93  C   UNL     1      -6.018 -21.313  -2.905  1.00  0.00     0.022 A 
BRANCH  91  94
ATOM     94  S   UNL     1      -5.262 -22.418  -5.302  1.00  0.00     0.127 S 
ATOM     95  O   UNL     1      -4.170 -23.239  -4.785  1.00  0.00    -0.237 OA
ATOM     96  O   UNL     1      -6.590 -23.020  -5.173  1.00  0.00    -0.237 OA
ATOM     97  O   UNL     1      -5.019 -21.779  -6.588  1.00  0.00    -0.744 OA
ENDBRANCH  91  94
ENDBRANCH  64  87
ENDBRANCH  38  39
ENDBRANCH  31  33
ENDBRANCH  30  31
ENDBRANCH  29  30
ENDBRANCH  28  29
ENDBRANCH  27  28
ENDBRANCH   1  27
TORSDOF 23
