REMARK SMILES O=C(OCCOCCOC(=O)[C@@]12CN(CC3CC3)C(=O)[C@@H]1CN(c1nc3ccccc3o1)C2)c1ccc(-c2c3nc(c(-c4cccc(S(=O)(=O)[O-])c4F)c4ccc([nH]4)c(-c4cccc(S(=O)(=O)[O-])c4F)c4nc(c(-c5cccc(S(=O)(=O)[O-])c5F)c5ccc2[nH]5)C=C4)C=C3)cc1
REMARK SMILES IDX 5 1 4 2 3 3 2 4 1 5 34 6 35 7 96 8 36 9 95 10 37 11 38 12
REMARK SMILES IDX 39 13 89 14 40 15 94 16 88 17 90 18 41 19 93 20 87 21 86 22
REMARK SMILES IDX 42 24 74 25 54 26 73 27 55 28 58 29 72 30 91 31 56 32 57 33
REMARK SMILES IDX 71 35 92 36 59 37 43 38 44 39 52 40 45 41 47 42 53 43 46 44
REMARK SMILES IDX 48 45 49 46 50 47 51 48 75 49 76 50 84 51 77 52 79 53 85 54
REMARK SMILES IDX 78 55 80 56 81 57 82 58 83 59 60 60 61 61 69 62 62 63 64 64
REMARK SMILES IDX 70 65 63 66 65 67 66 68 67 69 68 70 6 71 7 72 8 73 9 74
REMARK SMILES IDX 10 75 11 76 12 77 13 78 21 79 33 80 14 81 19 82 22 83 23 84
REMARK SMILES IDX 20 85 15 86 16 87 17 88 18 89 24 90 25 91 32 92 26 93 31 94
REMARK SMILES IDX 27 95 30 96 28 97 29 98
REMARK H PARENT 90 23 58 34
REMARK Flexibility Score: inf
ROOT
ATOM      1  C   UNL     1       4.728  -0.722  -0.710  1.00  0.00     0.202 C 
ENDROOT
BRANCH   1   2
ATOM      2  C   UNL     1       3.879  -1.046   0.520  1.00  0.00     0.261 C 
BRANCH   2   3
ATOM      3  O   UNL     1       2.497  -0.729   0.364  1.00  0.00    -0.460 OA
BRANCH   3   4
ATOM      4  C   UNL     1       1.887   0.288   1.026  1.00  0.00     0.338 C 
ATOM      5  O   UNL     1       0.670   0.281   1.171  1.00  0.00    -0.246 OA
BRANCH   4   6
ATOM      6  C   UNL     1       2.690   1.435   1.535  1.00  0.00     0.060 A 
ATOM      7  C   UNL     1       3.879   1.842   0.932  1.00  0.00     0.016 A 
ATOM      8  C   UNL     1       2.216   2.175   2.618  1.00  0.00     0.016 A 
ATOM      9  C   UNL     1       4.662   2.847   1.435  1.00  0.00     0.010 A 
ATOM     10  C   UNL     1       2.951   3.271   3.083  1.00  0.00     0.010 A 
ATOM     11  C   UNL     1       4.187   3.586   2.501  1.00  0.00    -0.014 A 
BRANCH  11  12
ATOM     12  C   UNL     1       5.102   4.602   3.025  1.00  0.00     0.031 A 
ATOM     13  C   UNL     1       5.779   4.321   4.323  1.00  0.00     0.074 A 
ATOM     14  C   UNL     1       5.429   5.650   2.247  1.00  0.00     0.049 A 
ATOM     15  N   UNL     1       6.607   5.067   4.994  1.00  0.00    -0.248 NA
ATOM     16  C   UNL     1       5.497   3.014   4.946  1.00  0.00     0.031 C 
ATOM     17  C   UNL     1       4.915   5.893   0.892  1.00  0.00     0.029 A 
ATOM     18  N   UNL     1       6.294   6.684   2.462  1.00  0.00    -0.354 N 
ATOM     19  C   UNL     1       6.875   4.363   6.158  1.00  0.00     0.074 A 
ATOM     20  C   UNL     1       6.155   3.113   6.089  1.00  0.00     0.031 C 
ATOM     21  C   UNL     1       5.489   7.000   0.396  1.00  0.00     0.029 A 
ATOM     22  C   UNL     1       6.338   7.583   1.423  1.00  0.00     0.049 A 
ATOM     23  H   UNL     1       6.833   6.776   3.281  1.00  0.00     0.167 HD
ATOM     24  C   UNL     1       7.643   4.751   7.199  1.00  0.00     0.034 A 
ATOM     25  C   UNL     1       6.968   8.769   1.345  1.00  0.00     0.034 A 
ATOM     26  C   UNL     1       8.354   5.997   7.213  1.00  0.00     0.049 A 
ATOM     27  C   UNL     1       7.771   9.200   2.540  1.00  0.00     0.074 A 
ATOM     28  C   UNL     1       9.138   6.534   8.214  1.00  0.00     0.029 A 
ATOM     29  N   UNL     1       8.355   6.908   6.163  1.00  0.00    -0.354 N 
ATOM     30  N   UNL     1       8.005   8.544   3.653  1.00  0.00    -0.248 NA
ATOM     31  C   UNL     1       8.404  10.520   2.471  1.00  0.00     0.031 C 
ATOM     32  C   UNL     1       9.583   7.788   7.782  1.00  0.00     0.029 A 
ATOM     33  C   UNL     1       9.118   8.010   6.493  1.00  0.00     0.049 A 
ATOM     34  H   UNL     1       7.880   6.785   5.309  1.00  0.00     0.167 HD
ATOM     35  C   UNL     1       8.846   9.353   4.404  1.00  0.00     0.074 A 
ATOM     36  C   UNL     1       9.088  10.542   3.607  1.00  0.00     0.031 C 
ATOM     37  C   UNL     1       9.366   9.145   5.639  1.00  0.00     0.034 A 
BRANCH  24  38
ATOM     38  C   UNL     1       7.663   3.853   8.403  1.00  0.00     0.023 A 
ATOM     39  C   UNL     1       8.322   2.608   8.365  1.00  0.00     0.012 A 
ATOM     40  C   UNL     1       6.972   4.235   9.570  1.00  0.00     0.148 A 
ATOM     41  C   UNL     1       8.252   1.736   9.453  1.00  0.00     0.002 A 
ATOM     42  C   UNL     1       6.949   3.383  10.666  1.00  0.00     0.091 A 
ATOM     43  F   UNL     1       6.319   5.405   9.571  1.00  0.00    -0.205 F 
ATOM     44  C   UNL     1       7.573   2.127  10.604  1.00  0.00     0.022 A 
BRANCH  42  45
ATOM     45  S   UNL     1       6.153   3.826  12.213  1.00  0.00     0.127 S 
ATOM     46  O   UNL     1       5.009   2.916  12.227  1.00  0.00    -0.237 OA
ATOM     47  O   UNL     1       7.195   3.514  13.191  1.00  0.00    -0.237 OA
ATOM     48  O   UNL     1       5.824   5.240  12.105  1.00  0.00    -0.744 OA
ENDBRANCH  42  45
ENDBRANCH  24  38
BRANCH  25  49
ATOM     49  C   UNL     1       6.856   9.611   0.120  1.00  0.00     0.023 A 
ATOM     50  C   UNL     1       8.000   9.857  -0.663  1.00  0.00     0.012 A 
ATOM     51  C   UNL     1       5.619  10.151  -0.287  1.00  0.00     0.148 A 
ATOM     52  C   UNL     1       7.920  10.650  -1.809  1.00  0.00     0.002 A 
ATOM     53  C   UNL     1       5.536  10.894  -1.459  1.00  0.00     0.091 A 
ATOM     54  F   UNL     1       4.542   9.917   0.475  1.00  0.00    -0.205 F 
ATOM     55  C   UNL     1       6.689  11.160  -2.213  1.00  0.00     0.022 A 
BRANCH  53  56
ATOM     56  S   UNL     1       3.973  11.485  -2.119  1.00  0.00     0.127 S 
ATOM     57  O   UNL     1       4.103  12.930  -1.943  1.00  0.00    -0.237 OA
ATOM     58  O   UNL     1       4.038  11.024  -3.506  1.00  0.00    -0.237 OA
ATOM     59  O   UNL     1       2.939  10.842  -1.320  1.00  0.00    -0.744 OA
ENDBRANCH  53  56
ENDBRANCH  25  49
BRANCH  37  60
ATOM     60  C   UNL     1      10.302  10.194   6.168  1.00  0.00     0.023 A 
ATOM     61  C   UNL     1       9.804  11.438   6.600  1.00  0.00     0.012 A 
ATOM     62  C   UNL     1      11.671   9.901   6.310  1.00  0.00     0.148 A 
ATOM     63  C   UNL     1      10.666  12.391   7.137  1.00  0.00     0.002 A 
ATOM     64  C   UNL     1      12.513  10.831   6.901  1.00  0.00     0.091 A 
ATOM     65  F   UNL     1      12.122   8.718   5.868  1.00  0.00    -0.205 F 
ATOM     66  C   UNL     1      12.016  12.082   7.301  1.00  0.00     0.022 A 
BRANCH  64  67
ATOM     67  S   UNL     1      14.233  10.466   7.255  1.00  0.00     0.127 S 
ATOM     68  O   UNL     1      14.921  11.250   6.232  1.00  0.00    -0.237 OA
ATOM     69  O   UNL     1      14.383  10.975   8.619  1.00  0.00    -0.237 OA
ATOM     70  O   UNL     1      14.368   9.021   7.135  1.00  0.00    -0.744 OA
ENDBRANCH  64  67
ENDBRANCH  37  60
ENDBRANCH  11  12
ENDBRANCH   4   6
ENDBRANCH   3   4
ENDBRANCH   2   3
ENDBRANCH   1   2
BRANCH   1  71
ATOM     71  O   UNL     1       4.391   0.265  -1.712  1.00  0.00    -0.374 OA
BRANCH  71  72
ATOM     72  C   UNL     1       3.064   0.611  -2.115  1.00  0.00     0.202 C 
BRANCH  72  73
ATOM     73  C   UNL     1       3.075   1.061  -3.594  1.00  0.00     0.261 C 
BRANCH  73  74
ATOM     74  O   UNL     1       3.091  -0.049  -4.528  1.00  0.00    -0.463 OA
BRANCH  74  75
ATOM     75  C   UNL     1       4.284  -0.539  -4.978  1.00  0.00     0.316 C 
ATOM     76  O   UNL     1       4.813  -0.120  -5.999  1.00  0.00    -0.251 OA
BRANCH  75  77
ATOM     77  C   UNL     1       4.844  -1.682  -4.136  1.00  0.00     0.116 C 
ATOM     78  C   UNL     1       3.639  -2.232  -3.360  1.00  0.00     0.141 C 
ATOM     79  C   UNL     1       5.316  -2.994  -4.821  1.00  0.00     0.119 C 
ATOM     80  C   UNL     1       6.172  -1.115  -3.562  1.00  0.00     0.142 C 
ATOM     81  N   UNL     1       3.845  -3.603  -3.089  1.00  0.00    -0.341 N 
ATOM     82  C   UNL     1       4.776  -4.128  -3.948  1.00  0.00     0.228 C 
ATOM     83  C   UNL     1       6.836  -3.054  -4.733  1.00  0.00     0.136 C 
ATOM     84  N   UNL     1       7.162  -2.180  -3.620  1.00  0.00    -0.324 N 
ATOM     85  O   UNL     1       5.085  -5.308  -4.036  1.00  0.00    -0.274 OA
BRANCH  81  86
ATOM     86  C   UNL     1       2.963  -4.310  -2.173  1.00  0.00     0.123 C 
BRANCH  86  87
ATOM     87  C   UNL     1       1.750  -4.904  -2.833  1.00  0.00     0.008 C 
ATOM     88  C   UNL     1       1.592  -5.160  -4.317  1.00  0.00     0.006 C 
ATOM     89  C   UNL     1       1.876  -6.302  -3.388  1.00  0.00     0.006 C 
ENDBRANCH  86  87
ENDBRANCH  81  86
BRANCH  84  90
ATOM     90  C   UNL     1       8.461  -1.861  -3.411  1.00  0.00     0.298 A 
ATOM     91  N   UNL     1       9.458  -1.961  -4.264  1.00  0.00    -0.193 NA
ATOM     92  O   UNL     1       8.805  -1.340  -2.187  1.00  0.00    -0.423 OA
ATOM     93  C   UNL     1      10.524  -1.428  -3.591  1.00  0.00     0.111 A 
ATOM     94  C   UNL     1      10.147  -1.086  -2.303  1.00  0.00     0.156 A 
ATOM     95  C   UNL     1      11.842  -1.196  -4.005  1.00  0.00     0.032 A 
ATOM     96  C   UNL     1      11.015  -0.565  -1.347  1.00  0.00     0.049 A 
ATOM     97  C   UNL     1      12.742  -0.651  -3.079  1.00  0.00     0.003 A 
ATOM     98  C   UNL     1      12.338  -0.356  -1.771  1.00  0.00     0.004 A 
ENDBRANCH  84  90
ENDBRANCH  75  77
ENDBRANCH  74  75
ENDBRANCH  73  74
ENDBRANCH  72  73
ENDBRANCH  71  72
ENDBRANCH   1  71
TORSDOF 20
