REMARK SMILES O=C(Cc1ccccc1Nc1c(Cl)cccc1Cl)OCCOCCOC(=O)c1ccc(-c2c3nc(c(-c4cccc(S(=O)(=O)[O-])c4F)c4ccc([nH]4)c(-c4cccc(S(=O)(=O)[O-])c4F)c4nc(c(-c5cccc(S(=O)(=O)[O-])c5F)c5ccc2[nH]5)C=C4)C=C3)cc1
REMARK SMILES IDX 22 1 21 2 20 3 19 4 2 5 1 6 3 7 4 8 5 9 9 10 6 11 8 12 7 13
REMARK SMILES IDX 10 14 11 16 12 17 17 18 13 19 14 20 16 21 18 22 15 23 23 24
REMARK SMILES IDX 24 25 25 26 26 27 27 28 28 29 29 30 90 31 30 32 89 33 31 34
REMARK SMILES IDX 32 35 33 36 83 37 34 38 88 39 82 40 84 41 35 42 87 43 81 44
REMARK SMILES IDX 80 45 36 47 68 48 48 49 67 50 49 51 52 52 66 53 85 54 50 55
REMARK SMILES IDX 51 56 65 58 86 59 53 60 37 61 38 62 46 63 39 64 41 65 47 66
REMARK SMILES IDX 40 67 42 68 43 69 44 70 45 71 69 72 70 73 78 74 71 75 73 76
REMARK SMILES IDX 79 77 72 78 74 79 75 80 76 81 77 82 54 83 55 84 63 85 56 86
REMARK SMILES IDX 58 87 64 88 57 89 59 90 60 91 61 92 62 93
REMARK H PARENT 10 15 84 46 52 57
REMARK Flexibility Score: inf
ROOT
ATOM      1  O   UNL     1       4.265  -1.995  -0.173  1.00  0.00    -0.374 OA
ENDROOT
BRANCH   1   2
ATOM      2  C   UNL     1       4.737  -0.995   0.724  1.00  0.00     0.202 C 
BRANCH   2   3
ATOM      3  C   UNL     1       4.051   0.370   0.741  1.00  0.00     0.261 C 
BRANCH   3   4
ATOM      4  O   UNL     1       2.628   0.324   0.585  1.00  0.00    -0.463 OA
BRANCH   4   5
ATOM      5  C   UNL     1       1.981   0.264  -0.599  1.00  0.00     0.310 C 
ATOM      6  O   UNL     1       0.747   0.260  -0.622  1.00  0.00    -0.252 OA
BRANCH   5   7
ATOM      7  C   UNL     1       2.740   0.163  -1.905  1.00  0.00     0.160 C 
BRANCH   7   8
ATOM      8  C   UNL     1       3.692   1.296  -2.186  1.00  0.00    -0.013 A 
ATOM      9  C   UNL     1       5.019   0.974  -2.537  1.00  0.00     0.006 A 
ATOM     10  C   UNL     1       3.301   2.642  -2.009  1.00  0.00     0.042 A 
ATOM     11  C   UNL     1       5.982   1.971  -2.628  1.00  0.00     0.000 A 
ATOM     12  C   UNL     1       4.297   3.623  -2.085  1.00  0.00     0.026 A 
ATOM     13  C   UNL     1       5.624   3.293  -2.387  1.00  0.00     0.002 A 
BRANCH  10  14
ATOM     14  N   UNL     1       1.977   2.951  -1.655  1.00  0.00    -0.353 N 
ATOM     15  H   UNL     1       1.396   2.166  -1.526  1.00  0.00     0.167 HD
BRANCH  14  16
ATOM     16  C   UNL     1       1.336   4.191  -1.450  1.00  0.00     0.076 A 
ATOM     17  C   UNL     1       0.766   4.485  -0.194  1.00  0.00     0.066 A 
ATOM     18  C   UNL     1       1.043   5.055  -2.520  1.00  0.00     0.066 A 
ATOM     19  Cl  UNL     1       0.991   3.434   1.163  1.00  0.00    -0.082 Cl
ATOM     20  C   UNL     1      -0.014   5.628  -0.001  1.00  0.00     0.023 A 
ATOM     21  C   UNL     1       0.265   6.201  -2.325  1.00  0.00     0.023 A 
ATOM     22  Cl  UNL     1       1.556   4.711  -4.139  1.00  0.00    -0.082 Cl
ATOM     23  C   UNL     1      -0.261   6.489  -1.067  1.00  0.00     0.003 A 
ENDBRANCH  14  16
ENDBRANCH  10  14
ENDBRANCH   7   8
ENDBRANCH   5   7
ENDBRANCH   4   5
ENDBRANCH   3   4
ENDBRANCH   2   3
ENDBRANCH   1   2
BRANCH   1  24
ATOM     24  C   UNL     1       3.033  -2.653   0.145  1.00  0.00     0.202 C 
BRANCH  24  25
ATOM     25  C   UNL     1       3.029  -3.718   1.242  1.00  0.00     0.261 C 
BRANCH  25  26
ATOM     26  O   UNL     1       3.366  -3.179   2.523  1.00  0.00    -0.460 OA
BRANCH  26  27
ATOM     27  C   UNL     1       4.643  -3.412   2.904  1.00  0.00     0.338 C 
ATOM     28  O   UNL     1       5.480  -4.077   2.306  1.00  0.00    -0.246 OA
BRANCH  27  29
ATOM     29  C   UNL     1       4.975  -2.555   4.053  1.00  0.00     0.060 A 
ATOM     30  C   UNL     1       6.197  -1.869   4.013  1.00  0.00     0.016 A 
ATOM     31  C   UNL     1       4.132  -2.457   5.162  1.00  0.00     0.016 A 
ATOM     32  C   UNL     1       6.631  -1.164   5.126  1.00  0.00     0.010 A 
ATOM     33  C   UNL     1       4.571  -1.753   6.282  1.00  0.00     0.010 A 
ATOM     34  C   UNL     1       5.848  -1.165   6.285  1.00  0.00    -0.014 A 
BRANCH  34  35
ATOM     35  C   UNL     1       6.468  -0.757   7.561  1.00  0.00     0.031 A 
ATOM     36  C   UNL     1       6.955  -1.837   8.488  1.00  0.00     0.074 A 
ATOM     37  C   UNL     1       6.618   0.541   7.866  1.00  0.00     0.049 A 
ATOM     38  N   UNL     1       7.521  -1.731   9.659  1.00  0.00    -0.248 NA
ATOM     39  C   UNL     1       6.774  -3.228   8.033  1.00  0.00     0.031 C 
ATOM     40  C   UNL     1       6.196   1.661   7.026  1.00  0.00     0.029 A 
ATOM     41  N   UNL     1       7.153   1.133   8.979  1.00  0.00    -0.354 N 
ATOM     42  C   UNL     1       7.728  -3.034  10.097  1.00  0.00     0.074 A 
ATOM     43  C   UNL     1       7.214  -3.916   9.074  1.00  0.00     0.031 C 
ATOM     44  C   UNL     1       6.471   2.810   7.665  1.00  0.00     0.029 A 
ATOM     45  C   UNL     1       7.060   2.503   8.966  1.00  0.00     0.049 A 
ATOM     46  H   UNL     1       7.564   0.626   9.716  1.00  0.00     0.167 HD
ATOM     47  C   UNL     1       8.306  -3.457  11.245  1.00  0.00     0.034 A 
ATOM     48  C   UNL     1       7.397   3.400   9.913  1.00  0.00     0.034 A 
ATOM     49  C   UNL     1       8.827  -2.566  12.245  1.00  0.00     0.049 A 
ATOM     50  C   UNL     1       8.015   2.902  11.193  1.00  0.00     0.074 A 
ATOM     51  C   UNL     1       9.475  -2.879  13.425  1.00  0.00     0.029 A 
ATOM     52  N   UNL     1       8.742  -1.182  12.188  1.00  0.00    -0.354 N 
ATOM     53  N   UNL     1       8.303   1.673  11.550  1.00  0.00    -0.248 NA
ATOM     54  C   UNL     1       8.389   3.918  12.185  1.00  0.00     0.031 C 
ATOM     55  C   UNL     1       9.747  -1.685  14.101  1.00  0.00     0.029 A 
ATOM     56  C   UNL     1       9.311  -0.626  13.319  1.00  0.00     0.049 A 
ATOM     57  H   UNL     1       8.337  -0.671  11.450  1.00  0.00     0.167 HD
ATOM     58  C   UNL     1       8.930   1.771  12.788  1.00  0.00     0.074 A 
ATOM     59  C   UNL     1       8.993   3.183  13.108  1.00  0.00     0.031 C 
ATOM     60  C   UNL     1       9.404   0.786  13.592  1.00  0.00     0.034 A 
BRANCH  47  61
ATOM     61  C   UNL     1       8.403  -4.943  11.474  1.00  0.00     0.023 A 
ATOM     62  C   UNL     1       9.282  -5.723  10.694  1.00  0.00     0.012 A 
ATOM     63  C   UNL     1       7.644  -5.564  12.485  1.00  0.00     0.148 A 
ATOM     64  C   UNL     1       9.374  -7.101  10.890  1.00  0.00     0.002 A 
ATOM     65  C   UNL     1       7.779  -6.929  12.708  1.00  0.00     0.091 A 
ATOM     66  F   UNL     1       6.794  -4.812  13.199  1.00  0.00    -0.205 F 
ATOM     67  C   UNL     1       8.632  -7.701  11.903  1.00  0.00     0.022 A 
BRANCH  65  68
ATOM     68  S   UNL     1       6.927  -7.780  14.040  1.00  0.00     0.127 S 
ATOM     69  O   UNL     1       5.965  -8.596  13.301  1.00  0.00    -0.237 OA
ATOM     70  O   UNL     1       8.014  -8.536  14.665  1.00  0.00    -0.237 OA
ATOM     71  O   UNL     1       6.350  -6.740  14.879  1.00  0.00    -0.744 OA
ENDBRANCH  65  68
ENDBRANCH  47  61
BRANCH  48  72
ATOM     72  C   UNL     1       7.195   4.855   9.669  1.00  0.00     0.023 A 
ATOM     73  C   UNL     1       8.315   5.695   9.517  1.00  0.00     0.012 A 
ATOM     74  C   UNL     1       5.903   5.406   9.568  1.00  0.00     0.148 A 
ATOM     75  C   UNL     1       8.153   7.064   9.304  1.00  0.00     0.002 A 
ATOM     76  C   UNL     1       5.748   6.761   9.300  1.00  0.00     0.091 A 
ATOM     77  F   UNL     1       4.851   4.591   9.725  1.00  0.00    -0.205 F 
ATOM     78  C   UNL     1       6.871   7.595   9.186  1.00  0.00     0.022 A 
BRANCH  76  79
ATOM     79  S   UNL     1       4.142   7.511   9.010  1.00  0.00     0.127 S 
ATOM     80  O   UNL     1       4.001   8.375  10.180  1.00  0.00    -0.237 OA
ATOM     81  O   UNL     1       4.364   8.216   7.747  1.00  0.00    -0.237 OA
ATOM     82  O   UNL     1       3.199   6.405   8.925  1.00  0.00    -0.744 OA
ENDBRANCH  76  79
ENDBRANCH  48  72
BRANCH  60  83
ATOM     83  C   UNL     1      10.082   1.201  14.872  1.00  0.00     0.023 A 
ATOM     84  C   UNL     1       9.326   1.736  15.934  1.00  0.00     0.012 A 
ATOM     85  C   UNL     1      11.466   1.000  15.041  1.00  0.00     0.148 A 
ATOM     86  C   UNL     1       9.945   2.105  17.127  1.00  0.00     0.002 A 
ATOM     87  C   UNL     1      12.066   1.317  16.253  1.00  0.00     0.091 A 
ATOM     88  F   UNL     1      12.171   0.505  14.013  1.00  0.00    -0.205 F 
ATOM     89  C   UNL     1      11.311   1.885  17.291  1.00  0.00     0.022 A 
BRANCH  87  90
ATOM     90  S   UNL     1      13.796   0.971  16.589  1.00  0.00     0.127 S 
ATOM     91  O   UNL     1      14.375   2.313  16.583  1.00  0.00    -0.237 OA
ATOM     92  O   UNL     1      13.734   0.338  17.907  1.00  0.00    -0.237 OA
ATOM     93  O   UNL     1      14.246   0.091  15.518  1.00  0.00    -0.744 OA
ENDBRANCH  87  90
ENDBRANCH  60  83
ENDBRANCH  34  35
ENDBRANCH  27  29
ENDBRANCH  26  27
ENDBRANCH  25  26
ENDBRANCH  24  25
ENDBRANCH   1  24
TORSDOF 20
