REMARK SMILES CC(C)(C)OC(=O)Nc1ccc(SCC(=O)OCCOCCOC(=O)c2ccc(-c3c4nc(c(-c5cccc(S(=O)(=O)[O-])c5F)c5ccc([nH]5)c(-c5cccc(S(=O)(=O)[O-])c5F)c5nc(c(-c6cccc(S(=O)(=O)[O-])c6F)c6ccc3[nH]6)C=C5)C=C4)cc2)cc1
REMARK SMILES IDX 19 1 18 2 17 3 15 4 16 5 14 6 13 7 12 8 9 9 10 10 90 11
REMARK SMILES IDX 11 12 89 13 8 14 6 15 7 16 5 18 2 19 1 20 3 21 4 22 20 23
REMARK SMILES IDX 21 24 22 25 23 26 24 27 25 28 26 29 27 30 88 31 28 32 87 33
REMARK SMILES IDX 29 34 30 35 31 36 81 37 32 38 86 39 80 40 82 41 33 42 85 43
REMARK SMILES IDX 79 44 78 45 34 47 66 48 46 49 65 50 47 51 50 52 64 53 83 54
REMARK SMILES IDX 48 55 49 56 63 58 84 59 51 60 35 61 36 62 44 63 37 64 39 65
REMARK SMILES IDX 45 66 38 67 40 68 41 69 42 70 43 71 67 72 68 73 76 74 69 75
REMARK SMILES IDX 71 76 77 77 70 78 72 79 73 80 74 81 75 82 52 83 53 84 61 85
REMARK SMILES IDX 54 86 56 87 62 88 55 89 57 90 58 91 59 92 60 93
REMARK H PARENT 8 17 82 46 50 57
REMARK Flexibility Score: inf
ROOT
ATOM      1  C   UNL     1       3.558   0.367   4.477  1.00  0.00     0.202 C 
ENDROOT
BRANCH   1   2
ATOM      2  C   UNL     1       4.645   1.169   5.217  1.00  0.00     0.261 C 
BRANCH   2   3
ATOM      3  O   UNL     1       4.812   2.546   4.806  1.00  0.00    -0.463 OA
BRANCH   3   4
ATOM      4  C   UNL     1       6.010   2.848   4.232  1.00  0.00     0.316 C 
ATOM      5  O   UNL     1       6.881   2.012   3.990  1.00  0.00    -0.251 OA
BRANCH   4   6
ATOM      6  C   UNL     1       6.265   4.306   3.916  1.00  0.00     0.197 C 
BRANCH   6   7
ATOM      7  S   UNL     1       4.888   5.480   3.994  1.00  0.00    -0.114 SA
BRANCH   7   8
ATOM      8  C   UNL     1       4.078   5.443   2.397  1.00  0.00     0.008 A 
ATOM      9  C   UNL     1       2.285   5.134   0.234  1.00  0.00     0.044 A 
ATOM     10  C   UNL     1       2.042   6.097   1.214  1.00  0.00     0.027 A 
ATOM     11  C   UNL     1       3.501   4.450   0.245  1.00  0.00     0.027 A 
ATOM     12  C   UNL     1       2.917   6.226   2.300  1.00  0.00     0.017 A 
ATOM     13  C   UNL     1       4.412   4.631   1.308  1.00  0.00     0.017 A 
BRANCH   9  14
ATOM     14  N   UNL     1       1.277   4.905  -0.710  1.00  0.00    -0.291 N 
ATOM     15  C   UNL     1       0.862   3.742  -1.314  1.00  0.00     0.412 C 
ATOM     16  O   UNL     1       0.052   3.805  -2.233  1.00  0.00    -0.224 OA
ATOM     17  H   UNL     1       0.783   5.711  -0.987  1.00  0.00     0.173 HD
BRANCH  15  18
ATOM     18  O   UNL     1       1.298   2.583  -0.738  1.00  0.00    -0.444 OA
BRANCH  18  19
ATOM     19  C   UNL     1       0.658   1.319  -1.110  1.00  0.00     0.106 C 
ATOM     20  C   UNL     1       1.221   0.216  -0.193  1.00  0.00     0.056 C 
ATOM     21  C   UNL     1       1.028   0.943  -2.548  1.00  0.00     0.056 C 
ATOM     22  C   UNL     1      -0.865   1.350  -0.893  1.00  0.00     0.056 C 
ENDBRANCH  18  19
ENDBRANCH  15  18
ENDBRANCH   9  14
ENDBRANCH   7   8
ENDBRANCH   6   7
ENDBRANCH   4   6
ENDBRANCH   3   4
ENDBRANCH   2   3
ENDBRANCH   1   2
BRANCH   1  23
ATOM     23  O   UNL     1       3.591   0.320   3.052  1.00  0.00    -0.374 OA
BRANCH  23  24
ATOM     24  C   UNL     1       3.483   1.557   2.365  1.00  0.00     0.202 C 
BRANCH  24  25
ATOM     25  C   UNL     1       2.188   2.357   2.506  1.00  0.00     0.261 C 
BRANCH  25  26
ATOM     26  O   UNL     1       1.598   2.342   3.791  1.00  0.00    -0.460 OA
BRANCH  26  27
ATOM     27  C   UNL     1       0.284   2.059   3.779  1.00  0.00     0.338 C 
ATOM     28  O   UNL     1      -0.451   1.824   2.829  1.00  0.00    -0.246 OA
BRANCH  27  29
ATOM     29  C   UNL     1      -0.142   2.000   5.163  1.00  0.00     0.060 A 
ATOM     30  C   UNL     1      -0.365   0.742   5.724  1.00  0.00     0.016 A 
ATOM     31  C   UNL     1      -0.364   3.186   5.865  1.00  0.00     0.016 A 
ATOM     32  C   UNL     1      -0.892   0.668   7.001  1.00  0.00     0.010 A 
ATOM     33  C   UNL     1      -0.883   3.108   7.148  1.00  0.00     0.010 A 
ATOM     34  C   UNL     1      -1.191   1.851   7.694  1.00  0.00    -0.014 A 
BRANCH  34  35
ATOM     35  C   UNL     1      -1.972   1.767   8.937  1.00  0.00     0.031 A 
ATOM     36  C   UNL     1      -3.447   2.028   8.875  1.00  0.00     0.074 A 
ATOM     37  C   UNL     1      -1.354   1.444  10.084  1.00  0.00     0.049 A 
ATOM     38  N   UNL     1      -4.332   1.972   9.832  1.00  0.00    -0.248 NA
ATOM     39  C   UNL     1      -4.001   2.407   7.562  1.00  0.00     0.031 C 
ATOM     40  C   UNL     1       0.081   1.194  10.225  1.00  0.00     0.029 A 
ATOM     41  N   UNL     1      -1.854   1.285  11.346  1.00  0.00    -0.354 N 
ATOM     42  C   UNL     1      -5.541   2.325   9.245  1.00  0.00     0.074 A 
ATOM     43  C   UNL     1      -5.276   2.615   7.855  1.00  0.00     0.031 C 
ATOM     44  C   UNL     1       0.349   0.928  11.514  1.00  0.00     0.029 A 
ATOM     45  C   UNL     1      -0.890   1.004  12.283  1.00  0.00     0.049 A 
ATOM     46  H   UNL     1      -2.811   1.365  11.563  1.00  0.00     0.167 HD
ATOM     47  C   UNL     1      -6.765   2.378   9.817  1.00  0.00     0.034 A 
ATOM     48  C   UNL     1      -1.007   0.835  13.613  1.00  0.00     0.034 A 
ATOM     49  C   UNL     1      -7.006   2.066  11.198  1.00  0.00     0.049 A 
ATOM     50  C   UNL     1      -2.382   0.894  14.221  1.00  0.00     0.074 A 
ATOM     51  C   UNL     1      -8.207   2.040  11.880  1.00  0.00     0.029 A 
ATOM     52  N   UNL     1      -6.016   1.732  12.111  1.00  0.00    -0.354 N 
ATOM     53  N   UNL     1      -3.536   1.100  13.631  1.00  0.00    -0.248 NA
ATOM     54  C   UNL     1      -2.478   0.659  15.667  1.00  0.00     0.031 C 
ATOM     55  C   UNL     1      -7.940   1.708  13.213  1.00  0.00     0.029 A 
ATOM     56  C   UNL     1      -6.575   1.506  13.355  1.00  0.00     0.049 A 
ATOM     57  H   UNL     1      -5.055   1.665  11.904  1.00  0.00     0.167 HD
ATOM     58  C   UNL     1      -4.499   0.989  14.626  1.00  0.00     0.074 A 
ATOM     59  C   UNL     1      -3.792   0.675  15.853  1.00  0.00     0.031 C 
ATOM     60  C   UNL     1      -5.844   1.146  14.543  1.00  0.00     0.034 A 
BRANCH  47  61
ATOM     61  C   UNL     1      -7.930   2.754   8.942  1.00  0.00     0.023 A 
ATOM     62  C   UNL     1      -8.413   1.830   7.993  1.00  0.00     0.012 A 
ATOM     63  C   UNL     1      -8.570   4.000   9.082  1.00  0.00     0.148 A 
ATOM     64  C   UNL     1      -9.498   2.150   7.178  1.00  0.00     0.002 A 
ATOM     65  C   UNL     1      -9.676   4.297   8.293  1.00  0.00     0.091 A 
ATOM     66  F   UNL     1      -8.077   4.877   9.968  1.00  0.00    -0.205 F 
ATOM     67  C   UNL     1     -10.136   3.378   7.335  1.00  0.00     0.022 A 
BRANCH  65  68
ATOM     68  S   UNL     1     -10.606   5.824   8.466  1.00  0.00     0.127 S 
ATOM     69  O   UNL     1     -10.247   6.530   7.236  1.00  0.00    -0.237 OA
ATOM     70  O   UNL     1     -11.987   5.341   8.509  1.00  0.00    -0.237 OA
ATOM     71  O   UNL     1     -10.140   6.441   9.700  1.00  0.00    -0.744 OA
ENDBRANCH  65  68
ENDBRANCH  47  61
BRANCH  48  72
ATOM     72  C   UNL     1       0.201   0.537  14.430  1.00  0.00     0.023 A 
ATOM     73  C   UNL     1       0.363  -0.744  14.990  1.00  0.00     0.012 A 
ATOM     74  C   UNL     1       1.212   1.501  14.614  1.00  0.00     0.148 A 
ATOM     75  C   UNL     1       1.498  -1.052  15.742  1.00  0.00     0.002 A 
ATOM     76  C   UNL     1       2.364   1.171  15.318  1.00  0.00     0.091 A 
ATOM     77  F   UNL     1       1.033   2.720  14.085  1.00  0.00    -0.205 F 
ATOM     78  C   UNL     1       2.502  -0.100  15.896  1.00  0.00     0.022 A 
BRANCH  76  79
ATOM     79  S   UNL     1       3.762   2.292  15.444  1.00  0.00     0.127 S 
ATOM     80  O   UNL     1       3.649   2.757  16.824  1.00  0.00    -0.237 OA
ATOM     81  O   UNL     1       4.893   1.401  15.183  1.00  0.00    -0.237 OA
ATOM     82  O   UNL     1       3.547   3.299  14.413  1.00  0.00    -0.744 OA
ENDBRANCH  76  79
ENDBRANCH  48  72
BRANCH  60  83
ATOM     83  C   UNL     1      -6.639   0.959  15.806  1.00  0.00     0.023 A 
ATOM     84  C   UNL     1      -6.606   1.954  16.803  1.00  0.00     0.012 A 
ATOM     85  C   UNL     1      -7.478  -0.160  15.967  1.00  0.00     0.148 A 
ATOM     86  C   UNL     1      -7.376   1.823  17.957  1.00  0.00     0.002 A 
ATOM     87  C   UNL     1      -8.279  -0.260  17.098  1.00  0.00     0.091 A 
ATOM     88  F   UNL     1      -7.478  -1.103  15.014  1.00  0.00    -0.205 F 
ATOM     89  C   UNL     1      -8.221   0.724  18.098  1.00  0.00     0.022 A 
BRANCH  87  90
ATOM     90  S   UNL     1      -9.466  -1.590  17.314  1.00  0.00     0.127 S 
ATOM     91  O   UNL     1      -8.797  -2.428  18.307  1.00  0.00    -0.237 OA
ATOM     92  O   UNL     1     -10.645  -0.878  17.810  1.00  0.00    -0.237 OA
ATOM     93  O   UNL     1      -9.636  -2.191  15.998  1.00  0.00    -0.744 OA
ENDBRANCH  87  90
ENDBRANCH  60  83
ENDBRANCH  34  35
ENDBRANCH  27  29
ENDBRANCH  26  27
ENDBRANCH  25  26
ENDBRANCH  24  25
ENDBRANCH  23  24
ENDBRANCH   1  23
TORSDOF 22
