REMARK SMILES COc1ccc(-c2cccc(/C=C\C(=O)OCCOCCOC(=O)c3ccc(-c4c5nc(c(-c6cccc(S(=O)(=O)[O-])c6F)c6ccc([nH]6)c(-c6cccc(S(=O)(=O)[O-])c6F)c6nc(c(-c7cccc(S(=O)(=O)[O-])c7F)c7ccc4[nH]7)C=C6)C=C5)cc3)c2)c(Cl)c1OC
REMARK SMILES IDX 19 1 18 2 17 3 16 4 14 5 15 6 13 7 12 8 11 9 7 10 8 11 88 12
REMARK SMILES IDX 9 13 10 14 6 15 3 16 4 17 91 18 5 19 89 20 90 21 2 22 1 23
REMARK SMILES IDX 92 24 93 25 20 26 21 27 22 28 23 29 24 30 25 31 26 32 87 33
REMARK SMILES IDX 27 34 86 35 28 36 29 37 30 38 80 39 31 40 85 41 79 42 81 43
REMARK SMILES IDX 32 44 84 45 78 46 77 47 33 49 65 50 45 51 64 52 46 53 49 54
REMARK SMILES IDX 63 55 82 56 47 57 48 58 62 60 83 61 50 62 34 63 35 64 43 65
REMARK SMILES IDX 36 66 38 67 44 68 37 69 39 70 40 71 41 72 42 73 66 74 67 75
REMARK SMILES IDX 75 76 68 77 70 78 76 79 69 80 71 81 72 82 73 83 74 84 51 85
REMARK SMILES IDX 52 86 60 87 53 88 55 89 61 90 54 91 56 92 57 93 58 94 59 95
REMARK H PARENT 81 48 49 59
REMARK Flexibility Score: inf
ROOT
ATOM      1  O   UNL     1       3.004  13.022   3.208  1.00  0.00    -0.374 OA
ENDROOT
BRANCH   1   2
ATOM      2  C   UNL     1       4.002  12.198   2.596  1.00  0.00     0.202 C 
BRANCH   2   3
ATOM      3  C   UNL     1       4.663  11.194   3.554  1.00  0.00     0.261 C 
BRANCH   3   4
ATOM      4  O   UNL     1       3.784  10.078   3.783  1.00  0.00    -0.460 OA
BRANCH   4   5
ATOM      5  C   UNL     1       3.172   9.993   4.976  1.00  0.00     0.330 C 
ATOM      6  O   UNL     1       3.463  10.622   5.984  1.00  0.00    -0.247 OA
BRANCH   5   7
ATOM      7  C   UNL     1       1.943   9.161   4.923  1.00  0.00     0.094 C 
ATOM      8  C   UNL     1       1.382   8.366   3.993  1.00  0.00     0.015 C 
BRANCH   8   9
ATOM      9  C   UNL     1       1.820   7.940   2.653  1.00  0.00    -0.025 A 
ATOM     10  C   UNL     1       1.900   6.159   0.971  1.00  0.00    -0.016 A 
ATOM     11  C   UNL     1       2.612   7.003   0.114  1.00  0.00     0.009 A 
ATOM     12  C   UNL     1       1.551   6.625   2.254  1.00  0.00     0.017 A 
ATOM     13  C   UNL     1       2.859   8.315   0.485  1.00  0.00     0.001 A 
ATOM     14  C   UNL     1       2.398   8.789   1.712  1.00  0.00     0.008 A 
BRANCH  10  15
ATOM     15  C   UNL     1       1.476   4.831   0.504  1.00  0.00     0.004 A 
ATOM     16  C   UNL     1       0.782   2.273  -0.394  1.00  0.00     0.162 A 
ATOM     17  C   UNL     1       2.119   2.583  -0.133  1.00  0.00     0.051 A 
ATOM     18  C   UNL     1      -0.239   3.245  -0.266  1.00  0.00     0.180 A 
ATOM     19  C   UNL     1       2.459   3.848   0.329  1.00  0.00     0.014 A 
ATOM     20  C   UNL     1       0.120   4.532   0.182  1.00  0.00     0.094 A 
ATOM     21  Cl  UNL     1      -1.043   5.821   0.377  1.00  0.00    -0.079 Cl
BRANCH  16  22
ATOM     22  O   UNL     1       0.413   1.028  -0.854  1.00  0.00    -0.493 OA
ATOM     23  C   UNL     1       1.026  -0.046  -0.149  1.00  0.00     0.278 C 
ENDBRANCH  16  22
BRANCH  18  24
ATOM     24  O   UNL     1      -1.482   2.742  -0.558  1.00  0.00    -0.491 OA
ATOM     25  C   UNL     1      -2.592   3.585  -0.796  1.00  0.00     0.278 C 
ENDBRANCH  18  24
ENDBRANCH  10  15
ENDBRANCH   8   9
ENDBRANCH   5   7
ENDBRANCH   4   5
ENDBRANCH   3   4
ENDBRANCH   2   3
ENDBRANCH   1   2
BRANCH   1  26
ATOM     26  C   UNL     1       1.686  12.477   3.282  1.00  0.00     0.202 C 
BRANCH  26  27
ATOM     27  C   UNL     1       0.780  12.816   2.094  1.00  0.00     0.261 C 
BRANCH  27  28
ATOM     28  O   UNL     1       1.153  12.065   0.925  1.00  0.00    -0.460 OA
BRANCH  28  29
ATOM     29  C   UNL     1       1.873  12.755   0.009  1.00  0.00     0.338 C 
ATOM     30  O   UNL     1       2.186  13.931   0.057  1.00  0.00    -0.246 OA
BRANCH  29  31
ATOM     31  C   UNL     1       2.385  11.833  -1.025  1.00  0.00     0.060 A 
ATOM     32  C   UNL     1       3.723  11.982  -1.409  1.00  0.00     0.016 A 
ATOM     33  C   UNL     1       1.573  10.879  -1.645  1.00  0.00     0.016 A 
ATOM     34  C   UNL     1       4.239  11.218  -2.454  1.00  0.00     0.010 A 
ATOM     35  C   UNL     1       2.095  10.109  -2.691  1.00  0.00     0.010 A 
ATOM     36  C   UNL     1       3.419  10.304  -3.127  1.00  0.00    -0.014 A 
BRANCH  36  37
ATOM     37  C   UNL     1       3.904   9.664  -4.375  1.00  0.00     0.031 A 
ATOM     38  C   UNL     1       3.408  10.181  -5.699  1.00  0.00     0.074 A 
ATOM     39  C   UNL     1       4.786   8.649  -4.336  1.00  0.00     0.049 A 
ATOM     40  N   UNL     1       3.701   9.779  -6.908  1.00  0.00    -0.248 NA
ATOM     41  C   UNL     1       2.451  11.299  -5.652  1.00  0.00     0.031 C 
ATOM     42  C   UNL     1       5.346   8.062  -3.120  1.00  0.00     0.029 A 
ATOM     43  N   UNL     1       5.351   7.921  -5.354  1.00  0.00    -0.354 N 
ATOM     44  C   UNL     1       2.948  10.574  -7.764  1.00  0.00     0.074 A 
ATOM     45  C   UNL     1       2.167  11.466  -6.935  1.00  0.00     0.031 C 
ATOM     46  C   UNL     1       6.160   7.047  -3.462  1.00  0.00     0.029 A 
ATOM     47  C   UNL     1       6.163   6.902  -4.917  1.00  0.00     0.049 A 
ATOM     48  H   UNL     1       5.190   8.111  -6.306  1.00  0.00     0.167 HD
ATOM     49  C   UNL     1       2.921  10.577  -9.118  1.00  0.00     0.034 A 
ATOM     50  C   UNL     1       6.823   5.953  -5.611  1.00  0.00     0.034 A 
ATOM     51  C   UNL     1       3.709   9.703  -9.943  1.00  0.00     0.049 A 
ATOM     52  C   UNL     1       6.763   5.963  -7.117  1.00  0.00     0.074 A 
ATOM     53  C   UNL     1       3.785   9.659 -11.324  1.00  0.00     0.029 A 
ATOM     54  N   UNL     1       4.550   8.710  -9.465  1.00  0.00    -0.354 N 
ATOM     55  N   UNL     1       6.141   6.799  -7.914  1.00  0.00    -0.248 NA
ATOM     56  C   UNL     1       7.528   4.923  -7.822  1.00  0.00     0.031 C 
ATOM     57  C   UNL     1       4.651   8.619 -11.681  1.00  0.00     0.029 A 
ATOM     58  C   UNL     1       5.141   8.039 -10.522  1.00  0.00     0.049 A 
ATOM     59  H   UNL     1       4.704   8.510  -8.513  1.00  0.00     0.167 HD
ATOM     60  C   UNL     1       6.473   6.413  -9.209  1.00  0.00     0.074 A 
ATOM     61  C   UNL     1       7.363   5.277  -9.089  1.00  0.00     0.031 C 
ATOM     62  C   UNL     1       6.071   6.946 -10.390  1.00  0.00     0.034 A 
BRANCH  49  63
ATOM     63  C   UNL     1       2.021  11.581  -9.791  1.00  0.00     0.023 A 
ATOM     64  C   UNL     1       2.358  12.950  -9.765  1.00  0.00     0.012 A 
ATOM     65  C   UNL     1       0.863  11.168 -10.479  1.00  0.00     0.148 A 
ATOM     66  C   UNL     1       1.537  13.896 -10.378  1.00  0.00     0.002 A 
ATOM     67  C   UNL     1       0.075  12.112 -11.127  1.00  0.00     0.091 A 
ATOM     68  F   UNL     1       0.545   9.866 -10.474  1.00  0.00    -0.205 F 
ATOM     69  C   UNL     1       0.402  13.476 -11.066  1.00  0.00     0.022 A 
BRANCH  67  70
ATOM     70  S   UNL     1      -1.362  11.661 -12.107  1.00  0.00     0.127 S 
ATOM     71  O   UNL     1      -2.457  12.105 -11.246  1.00  0.00    -0.237 OA
ATOM     72  O   UNL     1      -1.175  12.462 -13.317  1.00  0.00    -0.237 OA
ATOM     73  O   UNL     1      -1.270  10.222 -12.313  1.00  0.00    -0.744 OA
ENDBRANCH  67  70
ENDBRANCH  49  63
BRANCH  50  74
ATOM     74  C   UNL     1       7.648   4.944  -4.886  1.00  0.00     0.023 A 
ATOM     75  C   UNL     1       9.051   4.986  -4.997  1.00  0.00     0.012 A 
ATOM     76  C   UNL     1       7.053   3.963  -4.067  1.00  0.00     0.148 A 
ATOM     77  C   UNL     1       9.845   4.052  -4.331  1.00  0.00     0.002 A 
ATOM     78  C   UNL     1       7.852   3.072  -3.361  1.00  0.00     0.091 A 
ATOM     79  F   UNL     1       5.715   3.930  -3.985  1.00  0.00    -0.205 F 
ATOM     80  C   UNL     1       9.248   3.103  -3.506  1.00  0.00     0.022 A 
BRANCH  78  81
ATOM     81  S   UNL     1       7.176   1.907  -2.171  1.00  0.00     0.127 S 
ATOM     82  O   UNL     1       7.374   0.631  -2.853  1.00  0.00    -0.237 OA
ATOM     83  O   UNL     1       8.040   2.126  -1.010  1.00  0.00    -0.237 OA
ATOM     84  O   UNL     1       5.790   2.305  -1.963  1.00  0.00    -0.744 OA
ENDBRANCH  78  81
ENDBRANCH  50  74
BRANCH  62  85
ATOM     85  C   UNL     1       6.623   6.346 -11.659  1.00  0.00     0.023 A 
ATOM     86  C   UNL     1       6.187   5.077 -12.088  1.00  0.00     0.012 A 
ATOM     87  C   UNL     1       7.516   7.078 -12.467  1.00  0.00     0.148 A 
ATOM     88  C   UNL     1       6.656   4.532 -13.284  1.00  0.00     0.002 A 
ATOM     89  C   UNL     1       7.940   6.551 -13.682  1.00  0.00     0.091 A 
ATOM     90  F   UNL     1       7.935   8.277 -12.035  1.00  0.00    -0.205 F 
ATOM     91  C   UNL     1       7.522   5.273 -14.085  1.00  0.00     0.022 A 
BRANCH  89  92
ATOM     92  S   UNL     1       8.976   7.475 -14.823  1.00  0.00     0.127 S 
ATOM     93  O   UNL     1      10.261   6.792 -14.678  1.00  0.00    -0.237 OA
ATOM     94  O   UNL     1       8.306   7.248 -16.104  1.00  0.00    -0.237 OA
ATOM     95  O   UNL     1       8.946   8.857 -14.363  1.00  0.00    -0.744 OA
ENDBRANCH  89  92
ENDBRANCH  62  85
ENDBRANCH  36  37
ENDBRANCH  29  31
ENDBRANCH  28  29
ENDBRANCH  27  28
ENDBRANCH  26  27
ENDBRANCH   1  26
TORSDOF 21
