REMARK SMILES COc1ccc([C@H]2[C@@H](C(=O)OCCOCCOC(=O)c3ccc(-c4c5nc(c(-c6cccc(S(=O)(=O)[O-])c6F)c6ccc([nH]6)c(-c6cccc(S(=O)(=O)[O-])c6F)c6nc(c(-c7cccc(S(=O)(=O)[O-])c7F)c7ccc4[nH]7)C=C6)C=C5)cc3)CC(=O)N2Cc2ccccc2)cc1
REMARK SMILES IDX 15 1 14 2 13 3 12 4 11 5 9 6 10 7 8 8 7 9 86 10 83 11 84 12
REMARK SMILES IDX 85 13 6 14 3 15 4 16 95 17 5 18 94 19 2 20 1 21 87 22 88 23
REMARK SMILES IDX 89 24 93 25 90 26 92 27 91 28 16 29 17 30 18 31 19 32 20 33
REMARK SMILES IDX 21 34 82 35 22 36 81 37 23 38 24 39 25 40 75 41 26 42 80 43
REMARK SMILES IDX 74 44 76 45 27 46 79 47 73 48 72 49 28 51 60 52 40 53 59 54
REMARK SMILES IDX 41 55 44 56 58 57 77 58 42 59 43 60 57 62 78 63 45 64 29 65
REMARK SMILES IDX 30 66 38 67 31 68 33 69 39 70 32 71 34 72 35 73 36 74 37 75
REMARK SMILES IDX 61 76 62 77 70 78 63 79 65 80 71 81 64 82 66 83 67 84 68 85
REMARK SMILES IDX 69 86 46 87 47 88 55 89 48 90 50 91 56 92 49 93 51 94 52 95
REMARK SMILES IDX 53 96 54 97
REMARK H PARENT 76 50 44 61
REMARK Flexibility Score: inf
ROOT
ATOM      1  C   UNL     1       4.029  -8.584  -4.335  1.00  0.00     0.202 C 
ENDROOT
BRANCH   1   2
ATOM      2  O   UNL     1       3.077  -9.331  -3.579  1.00  0.00    -0.374 OA
BRANCH   2   3
ATOM      3  C   UNL     1       1.762  -9.479  -4.105  1.00  0.00     0.202 C 
BRANCH   3   4
ATOM      4  C   UNL     1       0.872  -8.236  -4.148  1.00  0.00     0.261 C 
BRANCH   4   5
ATOM      5  O   UNL     1       1.504  -7.114  -4.779  1.00  0.00    -0.463 OA
BRANCH   5   6
ATOM      6  C   UNL     1       1.770  -6.067  -3.960  1.00  0.00     0.312 C 
ATOM      7  O   UNL     1       1.563  -6.038  -2.750  1.00  0.00    -0.252 OA
BRANCH   6   8
ATOM      8  C   UNL     1       2.307  -4.869  -4.682  1.00  0.00     0.135 C 
ATOM      9  C   UNL     1       1.202  -3.871  -5.018  1.00  0.00     0.130 C 
ATOM     10  N   UNL     1       1.910  -2.980  -5.924  1.00  0.00    -0.330 N 
ATOM     11  C   UNL     1       3.048  -5.034  -6.003  1.00  0.00     0.118 C 
ATOM     12  C   UNL     1       2.984  -3.615  -6.533  1.00  0.00     0.224 C 
ATOM     13  O   UNL     1       3.765  -3.128  -7.336  1.00  0.00    -0.275 OA
BRANCH   9  14
ATOM     14  C   UNL     1      -0.044  -4.511  -5.621  1.00  0.00    -0.024 A 
ATOM     15  C   UNL     1      -2.379  -5.718  -6.659  1.00  0.00     0.118 A 
ATOM     16  C   UNL     1      -2.186  -5.621  -5.282  1.00  0.00     0.047 A 
ATOM     17  C   UNL     1      -1.398  -5.235  -7.520  1.00  0.00     0.047 A 
ATOM     18  C   UNL     1      -1.042  -5.007  -4.766  1.00  0.00     0.010 A 
ATOM     19  C   UNL     1      -0.237  -4.649  -7.005  1.00  0.00     0.010 A 
BRANCH  15  20
ATOM     20  O   UNL     1      -3.544  -6.319  -7.045  1.00  0.00    -0.497 OA
ATOM     21  C   UNL     1      -3.981  -6.018  -8.373  1.00  0.00     0.278 C 
ENDBRANCH  15  20
ENDBRANCH   9  14
BRANCH  10  22
ATOM     22  C   UNL     1       1.590  -1.564  -6.066  1.00  0.00     0.155 C 
BRANCH  22  23
ATOM     23  C   UNL     1       0.188  -1.318  -6.563  1.00  0.00    -0.029 A 
ATOM     24  C   UNL     1      -0.056  -1.156  -7.934  1.00  0.00     0.005 A 
ATOM     25  C   UNL     1      -0.904  -1.363  -5.680  1.00  0.00     0.005 A 
ATOM     26  C   UNL     1      -1.365  -1.087  -8.414  1.00  0.00     0.000 A 
ATOM     27  C   UNL     1      -2.210  -1.322  -6.167  1.00  0.00     0.000 A 
ATOM     28  C   UNL     1      -2.440  -1.190  -7.533  1.00  0.00     0.000 A 
ENDBRANCH  22  23
ENDBRANCH  10  22
ENDBRANCH   6   8
ENDBRANCH   5   6
ENDBRANCH   4   5
ENDBRANCH   3   4
ENDBRANCH   2   3
ENDBRANCH   1   2
BRANCH   1  29
ATOM     29  C   UNL     1       4.447  -9.115  -5.712  1.00  0.00     0.261 C 
BRANCH  29  30
ATOM     30  O   UNL     1       3.375  -9.156  -6.671  1.00  0.00    -0.460 OA
BRANCH  30  31
ATOM     31  C   UNL     1       3.064 -10.399  -7.114  1.00  0.00     0.338 C 
ATOM     32  O   UNL     1       3.594 -11.452  -6.777  1.00  0.00    -0.246 OA
BRANCH  31  33
ATOM     33  C   UNL     1       1.870 -10.377  -7.974  1.00  0.00     0.060 A 
ATOM     34  C   UNL     1       0.773 -11.160  -7.591  1.00  0.00     0.016 A 
ATOM     35  C   UNL     1       1.883  -9.730  -9.211  1.00  0.00     0.016 A 
ATOM     36  C   UNL     1      -0.295 -11.344  -8.468  1.00  0.00     0.010 A 
ATOM     37  C   UNL     1       0.812  -9.921 -10.091  1.00  0.00     0.010 A 
ATOM     38  C   UNL     1      -0.262 -10.761  -9.741  1.00  0.00    -0.014 A 
BRANCH  38  39
ATOM     39  C   UNL     1      -1.277 -11.138 -10.756  1.00  0.00     0.031 A 
ATOM     40  C   UNL     1      -0.917 -12.135 -11.824  1.00  0.00     0.074 A 
ATOM     41  C   UNL     1      -2.512 -10.606 -10.724  1.00  0.00     0.049 A 
ATOM     42  N   UNL     1      -1.632 -12.559 -12.834  1.00  0.00    -0.248 NA
ATOM     43  C   UNL     1       0.422 -12.741 -11.738  1.00  0.00     0.031 C 
ATOM     44  C   UNL     1      -3.003  -9.668  -9.716  1.00  0.00     0.029 A 
ATOM     45  N   UNL     1      -3.573 -10.767 -11.582  1.00  0.00    -0.354 N 
ATOM     46  C   UNL     1      -0.831 -13.471 -13.510  1.00  0.00     0.074 A 
ATOM     47  C   UNL     1       0.434 -13.523 -12.809  1.00  0.00     0.031 C 
ATOM     48  C   UNL     1      -4.258  -9.309 -10.035  1.00  0.00     0.029 A 
ATOM     49  C   UNL     1      -4.641  -9.954 -11.287  1.00  0.00     0.049 A 
ATOM     50  H   UNL     1      -3.568 -11.402 -12.334  1.00  0.00     0.167 HD
ATOM     51  C   UNL     1      -1.128 -14.218 -14.601  1.00  0.00     0.034 A 
ATOM     52  C   UNL     1      -5.785  -9.729 -11.964  1.00  0.00     0.034 A 
ATOM     53  C   UNL     1      -2.390 -14.180 -15.288  1.00  0.00     0.049 A 
ATOM     54  C   UNL     1      -6.059 -10.506 -13.223  1.00  0.00     0.074 A 
ATOM     55  C   UNL     1      -2.796 -14.922 -16.384  1.00  0.00     0.029 A 
ATOM     56  N   UNL     1      -3.450 -13.352 -14.953  1.00  0.00    -0.354 N 
ATOM     57  N   UNL     1      -5.332 -11.437 -13.792  1.00  0.00    -0.248 NA
ATOM     58  C   UNL     1      -7.328 -10.233 -13.913  1.00  0.00     0.031 C 
ATOM     59  C   UNL     1      -4.095 -14.528 -16.723  1.00  0.00     0.029 A 
ATOM     60  C   UNL     1      -4.505 -13.556 -15.825  1.00  0.00     0.049 A 
ATOM     61  H   UNL     1      -3.452 -12.713 -14.204  1.00  0.00     0.167 HD
ATOM     62  C   UNL     1      -6.076 -11.896 -14.872  1.00  0.00     0.074 A 
ATOM     63  C   UNL     1      -7.314 -11.144 -14.877  1.00  0.00     0.031 C 
ATOM     64  C   UNL     1      -5.759 -12.850 -15.782  1.00  0.00     0.034 A 
BRANCH  51  65
ATOM     65  C   UNL     1      -0.079 -15.177 -15.097  1.00  0.00     0.023 A 
ATOM     66  C   UNL     1       0.165 -16.365 -14.380  1.00  0.00     0.012 A 
ATOM     67  C   UNL     1       0.618 -14.937 -16.297  1.00  0.00     0.148 A 
ATOM     68  C   UNL     1       1.104 -17.289 -14.835  1.00  0.00     0.002 A 
ATOM     69  C   UNL     1       1.525 -15.880 -16.765  1.00  0.00     0.091 A 
ATOM     70  F   UNL     1       0.388 -13.790 -16.952  1.00  0.00    -0.205 F 
ATOM     71  C   UNL     1       1.776 -17.052 -16.032  1.00  0.00     0.022 A 
BRANCH  69  72
ATOM     72  S   UNL     1       2.388 -15.700 -18.330  1.00  0.00     0.127 S 
ATOM     73  O   UNL     1       3.750 -15.411 -17.884  1.00  0.00    -0.237 OA
ATOM     74  O   UNL     1       2.212 -17.021 -18.935  1.00  0.00    -0.237 OA
ATOM     75  O   UNL     1       1.717 -14.616 -19.035  1.00  0.00    -0.744 OA
ENDBRANCH  69  72
ENDBRANCH  51  65
BRANCH  52  76
ATOM     76  C   UNL     1      -6.769  -8.735 -11.452  1.00  0.00     0.023 A 
ATOM     77  C   UNL     1      -8.009  -9.174 -10.952  1.00  0.00     0.012 A 
ATOM     78  C   UNL     1      -6.477  -7.357 -11.451  1.00  0.00     0.148 A 
ATOM     79  C   UNL     1      -8.953  -8.256 -10.488  1.00  0.00     0.002 A 
ATOM     80  C   UNL     1      -7.401  -6.452 -10.940  1.00  0.00     0.091 A 
ATOM     81  F   UNL     1      -5.298  -6.955 -11.947  1.00  0.00    -0.205 F 
ATOM     82  C   UNL     1      -8.645  -6.897 -10.472  1.00  0.00     0.022 A 
BRANCH  80  83
ATOM     83  S   UNL     1      -7.020  -4.706 -10.765  1.00  0.00     0.127 S 
ATOM     84  O   UNL     1      -7.753  -4.123 -11.884  1.00  0.00    -0.237 OA
ATOM     85  O   UNL     1      -7.566  -4.403  -9.442  1.00  0.00    -0.237 OA
ATOM     86  O   UNL     1      -5.566  -4.621 -10.838  1.00  0.00    -0.744 OA
ENDBRANCH  80  83
ENDBRANCH  52  76
BRANCH  64  87
ATOM     87  C   UNL     1      -6.783 -13.182 -16.835  1.00  0.00     0.023 A 
ATOM     88  C   UNL     1      -7.006 -12.290 -17.902  1.00  0.00     0.012 A 
ATOM     89  C   UNL     1      -7.465 -14.415 -16.808  1.00  0.00     0.148 A 
ATOM     90  C   UNL     1      -7.913 -12.609 -18.913  1.00  0.00     0.002 A 
ATOM     91  C   UNL     1      -8.332 -14.745 -17.842  1.00  0.00     0.091 A 
ATOM     92  F   UNL     1      -7.253 -15.241 -15.773  1.00  0.00    -0.205 F 
ATOM     93  C   UNL     1      -8.566 -13.839 -18.889  1.00  0.00     0.022 A 
BRANCH  91  94
ATOM     94  S   UNL     1      -9.146 -16.344 -17.943  1.00  0.00     0.127 S 
ATOM     95  O   UNL     1     -10.525 -15.999 -17.603  1.00  0.00    -0.237 OA
ATOM     96  O   UNL     1      -8.936 -16.712 -19.344  1.00  0.00    -0.237 OA
ATOM     97  O   UNL     1      -8.461 -17.203 -16.985  1.00  0.00    -0.744 OA
ENDBRANCH  91  94
ENDBRANCH  64  87
ENDBRANCH  38  39
ENDBRANCH  31  33
ENDBRANCH  30  31
ENDBRANCH  29  30
ENDBRANCH   1  29
TORSDOF 21
