REMARK SMILES NS(=O)(=O)c1ccc(-n2nc(C(=O)OCCOCCOC(=O)c3ccc(-c4c5nc(c(-c6cccc(S(=O)(=O)[O-])c6F)c6ccc([nH]6)c(-c6cccc(S(=O)(=O)[O-])c6F)c6nc(c(-c7cccc(S(=O)(=O)[O-])c7F)c7ccc4[nH]7)C=C6)C=C5)cc3)cc2-c2ccc(Cl)s2)cc1
REMARK SMILES IDX 17 1 16 2 15 3 14 4 12 5 13 6 11 7 9 8 10 9 87 10 86 11 8 12
REMARK SMILES IDX 5 13 6 14 95 15 7 16 94 17 2 18 3 19 4 20 1 21 88 24 89 25
REMARK SMILES IDX 93 26 90 27 91 28 92 29 18 30 19 31 20 32 21 33 22 34 23 35
REMARK SMILES IDX 24 36 85 37 25 38 84 39 26 40 27 41 28 42 78 43 29 44 83 45
REMARK SMILES IDX 77 46 79 47 30 48 82 49 76 50 75 51 31 53 63 54 43 55 62 56
REMARK SMILES IDX 44 57 47 58 61 59 80 60 45 61 46 62 60 64 81 65 48 66 32 67
REMARK SMILES IDX 33 68 41 69 34 70 36 71 42 72 35 73 37 74 38 75 39 76 40 77
REMARK SMILES IDX 64 78 65 79 73 80 66 81 68 82 74 83 67 84 69 85 70 86 71 87
REMARK SMILES IDX 72 88 49 89 50 90 58 91 51 92 53 93 59 94 52 95 54 96 55 97
REMARK SMILES IDX 56 98 57 99
REMARK H PARENT 1 22 1 23 79 52 47 63
REMARK Flexibility Score: inf
ROOT
ATOM      1  O   UNL     1       3.469   9.209  -6.026  1.00  0.00    -0.374 OA
ENDROOT
BRANCH   1   2
ATOM      2  C   UNL     1       3.682   9.316  -7.432  1.00  0.00     0.202 C 
BRANCH   2   3
ATOM      3  C   UNL     1       4.426   8.171  -8.126  1.00  0.00     0.261 C 
BRANCH   3   4
ATOM      4  O   UNL     1       3.711   6.929  -8.060  1.00  0.00    -0.458 OA
BRANCH   4   5
ATOM      5  C   UNL     1       4.158   6.047  -7.113  1.00  0.00     0.358 C 
ATOM      6  O   UNL     1       5.184   6.190  -6.459  1.00  0.00    -0.244 OA
BRANCH   5   7
ATOM      7  C   UNL     1       3.208   4.944  -6.912  1.00  0.00     0.171 A 
ATOM      8  N   UNL     1       2.134   3.378  -5.922  1.00  0.00    -0.231 N 
ATOM      9  N   UNL     1       2.952   4.432  -5.692  1.00  0.00    -0.160 NA
ATOM     10  C   UNL     1       1.818   3.245  -7.263  1.00  0.00     0.085 A 
ATOM     11  C   UNL     1       2.429   4.303  -7.902  1.00  0.00     0.068 A 
BRANCH   8  12
ATOM     12  C   UNL     1       1.850   2.476  -4.872  1.00  0.00     0.065 A 
ATOM     13  C   UNL     1       1.114   0.647  -2.922  1.00  0.00     0.082 A 
ATOM     14  C   UNL     1       1.884   0.223  -4.010  1.00  0.00     0.024 A 
ATOM     15  C   UNL     1       0.731   1.988  -2.790  1.00  0.00     0.024 A 
ATOM     16  C   UNL     1       2.242   1.138  -4.997  1.00  0.00     0.030 A 
ATOM     17  C   UNL     1       1.126   2.918  -3.757  1.00  0.00     0.030 A 
BRANCH  13  18
ATOM     18  S   UNL     1       0.608  -0.544  -1.718  1.00  0.00     0.238 S 
ATOM     19  O   UNL     1       1.288  -1.792  -1.956  1.00  0.00    -0.207 OA
ATOM     20  O   UNL     1      -0.827  -0.460  -1.543  1.00  0.00    -0.207 OA
BRANCH  18  21
ATOM     21  N   UNL     1       1.283   0.053  -0.300  1.00  0.00    -0.225 NA
ATOM     22  H   UNL     1       1.050  -0.568   0.475  1.00  0.00     0.137 HD
ATOM     23  H   UNL     1       0.912   0.985  -0.113  1.00  0.00     0.137 HD
ENDBRANCH  18  21
ENDBRANCH  13  18
ENDBRANCH   8  12
BRANCH  10  24
ATOM     24  C   UNL     1       1.024   2.207  -7.852  1.00  0.00     0.054 A 
ATOM     25  C   UNL     1       1.379   1.453  -8.955  1.00  0.00     0.024 A 
ATOM     26  S   UNL     1      -0.527   1.770  -7.267  1.00  0.00    -0.122 S 
ATOM     27  C   UNL     1       0.394   0.478  -9.284  1.00  0.00     0.033 A 
ATOM     28  C   UNL     1      -0.676   0.552  -8.431  1.00  0.00     0.094 A 
ATOM     29  Cl  UNL     1      -2.069  -0.449  -8.454  1.00  0.00    -0.072 Cl
ENDBRANCH  10  24
ENDBRANCH   5   7
ENDBRANCH   4   5
ENDBRANCH   3   4
ENDBRANCH   2   3
ENDBRANCH   1   2
BRANCH   1  30
ATOM     30  C   UNL     1       2.471   8.320  -5.536  1.00  0.00     0.202 C 
BRANCH  30  31
ATOM     31  C   UNL     1       1.008   8.648  -5.783  1.00  0.00     0.261 C 
BRANCH  31  32
ATOM     32  O   UNL     1       0.680   8.750  -7.161  1.00  0.00    -0.460 OA
BRANCH  32  33
ATOM     33  C   UNL     1       0.494  10.028  -7.565  1.00  0.00     0.338 C 
ATOM     34  O   UNL     1       1.014  11.027  -7.094  1.00  0.00    -0.246 OA
BRANCH  33  35
ATOM     35  C   UNL     1      -0.590  10.064  -8.547  1.00  0.00     0.060 A 
ATOM     36  C   UNL     1      -0.894  11.307  -9.105  1.00  0.00     0.016 A 
ATOM     37  C   UNL     1      -1.434   8.953  -8.705  1.00  0.00     0.016 A 
ATOM     38  C   UNL     1      -2.131  11.478  -9.686  1.00  0.00     0.010 A 
ATOM     39  C   UNL     1      -2.674   9.130  -9.273  1.00  0.00     0.010 A 
ATOM     40  C   UNL     1      -3.034  10.405  -9.699  1.00  0.00    -0.014 A 
BRANCH  40  41
ATOM     41  C   UNL     1      -4.281  10.578 -10.421  1.00  0.00     0.031 A 
ATOM     42  C   UNL     1      -4.006  10.672 -11.874  1.00  0.00     0.074 A 
ATOM     43  C   UNL     1      -5.496  10.560  -9.835  1.00  0.00     0.049 A 
ATOM     44  N   UNL     1      -3.999  11.751 -12.585  1.00  0.00    -0.248 NA
ATOM     45  C   UNL     1      -3.390   9.516 -12.552  1.00  0.00     0.031 C 
ATOM     46  C   UNL     1      -5.797  10.234  -8.437  1.00  0.00     0.029 A 
ATOM     47  N   UNL     1      -6.738  10.711 -10.381  1.00  0.00    -0.354 N 
ATOM     48  C   UNL     1      -3.727  11.314 -13.876  1.00  0.00     0.074 A 
ATOM     49  C   UNL     1      -3.077  10.042 -13.739  1.00  0.00     0.031 C 
ATOM     50  C   UNL     1      -7.117   9.960  -8.315  1.00  0.00     0.029 A 
ATOM     51  C   UNL     1      -7.773  10.209  -9.586  1.00  0.00     0.049 A 
ATOM     52  H   UNL     1      -6.891  11.135 -11.256  1.00  0.00     0.167 HD
ATOM     53  C   UNL     1      -4.458  11.816 -14.908  1.00  0.00     0.034 A 
ATOM     54  C   UNL     1      -9.054   9.958  -9.970  1.00  0.00     0.034 A 
ATOM     55  C   UNL     1      -5.107  13.045 -14.509  1.00  0.00     0.049 A 
ATOM     56  C   UNL     1      -9.302  10.757 -11.185  1.00  0.00     0.074 A 
ATOM     57  C   UNL     1      -4.713  14.282 -14.045  1.00  0.00     0.029 A 
ATOM     58  N   UNL     1      -6.416  12.875 -14.146  1.00  0.00    -0.354 N 
ATOM     59  N   UNL     1      -9.382  12.056 -11.180  1.00  0.00    -0.248 NA
ATOM     60  C   UNL     1      -9.075  10.143 -12.483  1.00  0.00     0.031 C 
ATOM     61  C   UNL     1      -5.749  14.706 -13.158  1.00  0.00     0.029 A 
ATOM     62  C   UNL     1      -6.775  13.761 -13.177  1.00  0.00     0.049 A 
ATOM     63  H   UNL     1      -7.019  12.200 -14.535  1.00  0.00     0.167 HD
ATOM     64  C   UNL     1      -8.708  12.425 -12.332  1.00  0.00     0.074 A 
ATOM     65  C   UNL     1      -8.713  11.228 -13.171  1.00  0.00     0.031 C 
ATOM     66  C   UNL     1      -7.931  13.548 -12.334  1.00  0.00     0.034 A 
BRANCH  53  67
ATOM     67  C   UNL     1      -5.061  10.956 -16.016  1.00  0.00     0.023 A 
ATOM     68  C   UNL     1      -5.787  11.638 -17.020  1.00  0.00     0.012 A 
ATOM     69  C   UNL     1      -5.234   9.551 -15.961  1.00  0.00     0.148 A 
ATOM     70  C   UNL     1      -6.674  10.968 -17.873  1.00  0.00     0.002 A 
ATOM     71  C   UNL     1      -6.052   8.880 -16.862  1.00  0.00     0.091 A 
ATOM     72  F   UNL     1      -4.724   8.843 -14.956  1.00  0.00    -0.205 F 
ATOM     73  C   UNL     1      -6.802   9.587 -17.800  1.00  0.00     0.022 A 
BRANCH  71  74
ATOM     74  S   UNL     1      -6.223   7.088 -16.826  1.00  0.00     0.127 S 
ATOM     75  O   UNL     1      -7.618   6.937 -16.423  1.00  0.00    -0.237 OA
ATOM     76  O   UNL     1      -5.934   6.741 -18.217  1.00  0.00    -0.237 OA
ATOM     77  O   UNL     1      -5.231   6.610 -15.871  1.00  0.00    -0.744 OA
ENDBRANCH  71  74
ENDBRANCH  53  67
BRANCH  54  78
ATOM     78  C   UNL     1     -10.038   8.929  -9.540  1.00  0.00     0.023 A 
ATOM     79  C   UNL     1     -11.399   9.067  -9.899  1.00  0.00     0.012 A 
ATOM     80  C   UNL     1      -9.605   7.670  -9.076  1.00  0.00     0.148 A 
ATOM     81  C   UNL     1     -12.280   7.977  -9.852  1.00  0.00     0.002 A 
ATOM     82  C   UNL     1     -10.483   6.589  -9.032  1.00  0.00     0.091 A 
ATOM     83  F   UNL     1      -8.312   7.509  -8.769  1.00  0.00    -0.205 F 
ATOM     84  C   UNL     1     -11.817   6.734  -9.433  1.00  0.00     0.022 A 
BRANCH  82  85
ATOM     85  S   UNL     1      -9.947   4.943  -8.547  1.00  0.00     0.127 S 
ATOM     86  O   UNL     1     -10.946   4.587  -7.537  1.00  0.00    -0.237 OA
ATOM     87  O   UNL     1     -10.058   4.207  -9.803  1.00  0.00    -0.237 OA
ATOM     88  O   UNL     1      -8.596   5.101  -8.025  1.00  0.00    -0.744 OA
ENDBRANCH  82  85
ENDBRANCH  54  78
BRANCH  66  89
ATOM     89  C   UNL     1      -8.214  14.590 -11.288  1.00  0.00     0.023 A 
ATOM     90  C   UNL     1      -8.060  14.383  -9.902  1.00  0.00     0.012 A 
ATOM     91  C   UNL     1      -8.568  15.867 -11.752  1.00  0.00     0.148 A 
ATOM     92  C   UNL     1      -8.286  15.428  -9.000  1.00  0.00     0.002 A 
ATOM     93  C   UNL     1      -8.743  16.912 -10.859  1.00  0.00     0.091 A 
ATOM     94  F   UNL     1      -8.721  16.040 -13.074  1.00  0.00    -0.205 F 
ATOM     95  C   UNL     1      -8.616  16.696  -9.479  1.00  0.00     0.022 A 
BRANCH  93  96
ATOM     96  S   UNL     1      -9.062  18.575 -11.443  1.00  0.00     0.127 S 
ATOM     97  O   UNL     1     -10.496  18.713 -11.201  1.00  0.00    -0.237 OA
ATOM     98  O   UNL     1      -8.211  19.384 -10.569  1.00  0.00    -0.237 OA
ATOM     99  O   UNL     1      -8.655  18.591 -12.843  1.00  0.00    -0.744 OA
ENDBRANCH  93  96
ENDBRANCH  66  89
ENDBRANCH  40  41
ENDBRANCH  33  35
ENDBRANCH  32  33
ENDBRANCH  31  32
ENDBRANCH  30  31
ENDBRANCH   1  30
TORSDOF 21
