REMARK SMILES Cc1ccc(S(=O)(=O)n2cc(C(=O)C(=O)N[C@@H](Cc3c[nH]c4ccccc34)C(=O)NCC(=O)OCCOCCOC(=O)c3ccc(-c4c5nc(c(-c6cccc(S(=O)(=O)[O-])c6F)c6ccc([nH]6)c(-c6cccc(S(=O)(=O)[O-])c6F)c6nc(c(-c7cccc(S(=O)(=O)[O-])c7F)c7ccc4[nH]7)C=C6)C=C5)cc3)c3ccccc32)cc1
REMARK SMILES IDX 35 1 34 2 32 3 33 4 31 5 30 6 28 7 29 8 17 10 16 11 14 12
REMARK SMILES IDX 15 13 12 15 13 16 11 17 9 18 10 19 111 20 106 21 110 22
REMARK SMILES IDX 107 23 109 24 108 25 6 26 7 27 8 28 5 29 1 30 2 31 3 32
REMARK SMILES IDX 113 33 4 34 112 35 18 36 19 37 20 38 27 39 21 40 22 41 26 42
REMARK SMILES IDX 23 44 25 45 24 46 36 47 37 48 38 49 39 50 40 51 41 52 42 53
REMARK SMILES IDX 43 54 44 55 105 56 45 57 104 58 46 59 47 60 48 61 98 62
REMARK SMILES IDX 49 63 103 64 97 65 99 66 50 67 102 68 96 69 95 70 51 72
REMARK SMILES IDX 83 73 63 74 82 75 64 76 67 77 81 78 100 79 65 80 66 81 80 83
REMARK SMILES IDX 101 84 68 85 52 86 53 87 61 88 54 89 56 90 62 91 55 92 57 93
REMARK SMILES IDX 58 94 59 95 60 96 84 97 85 98 93 99 86 100 88 101 94 102
REMARK SMILES IDX 87 103 89 104 90 105 91 106 92 107 69 108 70 109 78 110
REMARK SMILES IDX 71 111 73 112 79 113 72 114 74 115 75 116 76 117 77 118
REMARK H PARENT 30 9 16 14 21 43 99 71 67 82
REMARK Flexibility Score: inf
ROOT
ATOM      1  C   UNL     1     -11.967   5.804  -3.264  1.00  0.00     0.261 C 
ENDROOT
BRANCH   1   2
ATOM      2  O   UNL     1     -11.844   4.590  -2.564  1.00  0.00    -0.462 OA
BRANCH   2   3
ATOM      3  C   UNL     1     -12.382   4.778  -1.335  1.00  0.00     0.325 C 
ATOM      4  O   UNL     1     -12.582   5.835  -0.785  1.00  0.00    -0.250 OA
BRANCH   3   5
ATOM      5  C   UNL     1     -12.861   3.484  -0.804  1.00  0.00     0.238 C 
BRANCH   5   6
ATOM      6  N   UNL     1     -12.559   2.243  -1.461  1.00  0.00    -0.343 N 
ATOM      7  C   UNL     1     -11.975   1.166  -0.869  1.00  0.00     0.243 C 
ATOM      8  O   UNL     1     -12.061   0.082  -1.453  1.00  0.00    -0.273 OA
ATOM      9  H   UNL     1     -12.794   2.165  -2.414  1.00  0.00     0.164 HD
BRANCH   7  10
ATOM     10  C   UNL     1     -11.299   1.284   0.534  1.00  0.00     0.176 C 
BRANCH  10  11
ATOM     11  N   UNL     1     -10.166   2.250   0.615  1.00  0.00    -0.337 N 
ATOM     12  C   UNL     1      -8.791   2.033   0.467  1.00  0.00     0.293 C 
ATOM     13  O   UNL     1      -8.000   2.812   0.990  1.00  0.00    -0.265 OA
ATOM     14  H   UNL     1     -10.424   3.181   0.801  1.00  0.00     0.164 HD
BRANCH  12  15
ATOM     15  C   UNL     1      -8.221   0.839  -0.337  1.00  0.00     0.252 C 
ATOM     16  O   UNL     1      -8.981   0.317  -1.150  1.00  0.00    -0.283 OA
BRANCH  15  17
ATOM     17  C   UNL     1      -6.877   0.240  -0.074  1.00  0.00     0.054 A 
ATOM     18  N   UNL     1      -4.777  -0.285   0.627  1.00  0.00    -0.240 N 
ATOM     19  C   UNL     1      -5.601   0.772   0.217  1.00  0.00     0.117 A 
ATOM     20  C   UNL     1      -5.599  -1.431   0.690  1.00  0.00     0.065 A 
ATOM     21  C   UNL     1      -6.650  -1.166  -0.177  1.00  0.00     0.012 A 
ATOM     22  C   UNL     1      -5.317  -2.741   1.130  1.00  0.00     0.028 A 
ATOM     23  C   UNL     1      -7.272  -2.255  -0.823  1.00  0.00     0.011 A 
ATOM     24  C   UNL     1      -5.878  -3.795   0.415  1.00  0.00     0.002 A 
ATOM     25  C   UNL     1      -6.805  -3.553  -0.589  1.00  0.00     0.001 A 
BRANCH  18  26
ATOM     26  S   UNL     1      -3.165  -0.755   0.158  1.00  0.00     0.268 S 
ATOM     27  O   UNL     1      -3.396  -1.349  -1.152  1.00  0.00    -0.201 OA
ATOM     28  O   UNL     1      -2.828  -1.597   1.307  1.00  0.00    -0.201 OA
BRANCH  26  29
ATOM     29  C   UNL     1      -1.596   0.009  -0.035  1.00  0.00     0.088 A 
ATOM     30  C   UNL     1       2.694   0.646  -0.049  1.00  0.00     0.044 C 
ATOM     31  C   UNL     1       1.202   0.481  -0.110  1.00  0.00    -0.051 A 
ATOM     32  C   UNL     1       0.730  -0.806  -0.287  1.00  0.00     0.005 A 
ATOM     33  C   UNL     1       0.267   1.532   0.051  1.00  0.00     0.005 A 
ATOM     34  C   UNL     1      -0.634  -1.021  -0.269  1.00  0.00     0.022 A 
ATOM     35  C   UNL     1      -1.143   1.306   0.098  1.00  0.00     0.022 A 
ENDBRANCH  26  29
ENDBRANCH  18  26
ENDBRANCH  15  17
ENDBRANCH  12  15
ENDBRANCH  10  11
BRANCH  10  36
ATOM     36  C   UNL     1     -12.290   1.357   1.772  1.00  0.00     0.072 C 
BRANCH  36  37
ATOM     37  C   UNL     1     -13.358   2.442   1.903  1.00  0.00    -0.020 A 
ATOM     38  C   UNL     1     -14.700   2.326   1.566  1.00  0.00     0.087 A 
ATOM     39  C   UNL     1     -13.188   3.821   2.315  1.00  0.00     0.003 A 
ATOM     40  N   UNL     1     -15.284   3.570   1.614  1.00  0.00    -0.361 N 
ATOM     41  C   UNL     1     -14.352   4.514   1.963  1.00  0.00     0.046 A 
ATOM     42  C   UNL     1     -12.097   4.570   2.784  1.00  0.00     0.010 A 
ATOM     43  H   UNL     1     -16.233   3.756   1.427  1.00  0.00     0.166 HD
ATOM     44  C   UNL     1     -14.440   5.914   1.925  1.00  0.00     0.026 A 
ATOM     45  C   UNL     1     -12.196   5.965   2.804  1.00  0.00     0.001 A 
ATOM     46  C   UNL     1     -13.319   6.631   2.325  1.00  0.00     0.002 A 
ENDBRANCH  36  37
ENDBRANCH  10  36
ENDBRANCH   7  10
ENDBRANCH   5   6
ENDBRANCH   3   5
ENDBRANCH   2   3
ENDBRANCH   1   2
BRANCH   1  47
ATOM     47  C   UNL     1     -13.451   6.215  -3.394  1.00  0.00     0.202 C 
BRANCH  47  48
ATOM     48  O   UNL     1     -14.293   5.091  -3.519  1.00  0.00    -0.374 OA
BRANCH  48  49
ATOM     49  C   UNL     1     -14.155   4.398  -4.753  1.00  0.00     0.202 C 
BRANCH  49  50
ATOM     50  C   UNL     1     -13.065   4.782  -5.841  1.00  0.00     0.261 C 
BRANCH  50  51
ATOM     51  O   UNL     1     -12.999   6.247  -6.182  1.00  0.00    -0.460 OA
BRANCH  51  52
ATOM     52  C   UNL     1     -11.915   7.059  -6.509  1.00  0.00     0.338 C 
ATOM     53  O   UNL     1     -11.541   7.249  -7.659  1.00  0.00    -0.246 OA
BRANCH  52  54
ATOM     54  C   UNL     1     -11.444   8.005  -5.418  1.00  0.00     0.060 A 
ATOM     55  C   UNL     1     -10.084   8.181  -5.128  1.00  0.00     0.016 A 
ATOM     56  C   UNL     1     -12.345   8.662  -4.591  1.00  0.00     0.016 A 
ATOM     57  C   UNL     1      -9.660   8.613  -3.852  1.00  0.00     0.010 A 
ATOM     58  C   UNL     1     -11.947   9.003  -3.297  1.00  0.00     0.010 A 
ATOM     59  C   UNL     1     -10.610   8.855  -2.875  1.00  0.00    -0.014 A 
BRANCH  59  60
ATOM     60  C   UNL     1     -10.389   8.788  -1.411  1.00  0.00     0.031 A 
ATOM     61  C   UNL     1     -10.980   9.884  -0.593  1.00  0.00     0.074 A 
ATOM     62  C   UNL     1      -9.922   7.667  -0.790  1.00  0.00     0.049 A 
ATOM     63  N   UNL     1     -11.216   9.819   0.667  1.00  0.00    -0.248 NA
ATOM     64  C   UNL     1     -11.400  11.162  -1.170  1.00  0.00     0.031 C 
ATOM     65  C   UNL     1     -10.138   7.295   0.613  1.00  0.00     0.029 A 
ATOM     66  N   UNL     1      -9.136   6.610  -1.257  1.00  0.00    -0.354 N 
ATOM     67  C   UNL     1     -11.885  10.949   1.054  1.00  0.00     0.074 A 
ATOM     68  C   UNL     1     -12.034  11.734  -0.140  1.00  0.00     0.031 C 
ATOM     69  C   UNL     1      -9.436   6.200   0.935  1.00  0.00     0.029 A 
ATOM     70  C   UNL     1      -8.540   5.955  -0.164  1.00  0.00     0.049 A 
ATOM     71  H   UNL     1      -9.017   6.363  -2.203  1.00  0.00     0.167 HD
ATOM     72  C   UNL     1     -12.226  11.071   2.361  1.00  0.00     0.034 A 
ATOM     73  C   UNL     1      -7.186   5.990   0.018  1.00  0.00     0.034 A 
ATOM     74  C   UNL     1     -11.324  10.238   3.189  1.00  0.00     0.049 A 
ATOM     75  C   UNL     1      -6.813   6.901   1.183  1.00  0.00     0.074 A 
ATOM     76  C   UNL     1     -11.470   9.193   4.080  1.00  0.00     0.029 A 
ATOM     77  N   UNL     1      -9.936  10.371   2.993  1.00  0.00    -0.354 N 
ATOM     78  N   UNL     1      -7.586   7.872   1.618  1.00  0.00    -0.248 NA
ATOM     79  C   UNL     1      -5.667   6.687   2.065  1.00  0.00     0.031 C 
ATOM     80  C   UNL     1     -10.180   8.607   4.283  1.00  0.00     0.029 A 
ATOM     81  C   UNL     1      -9.232   9.325   3.566  1.00  0.00     0.049 A 
ATOM     82  H   UNL     1      -9.516  11.117   2.507  1.00  0.00     0.167 HD
ATOM     83  C   UNL     1      -7.125   8.349   2.810  1.00  0.00     0.074 A 
ATOM     84  C   UNL     1      -5.896   7.597   3.031  1.00  0.00     0.031 C 
ATOM     85  C   UNL     1      -7.768   9.287   3.574  1.00  0.00     0.034 A 
BRANCH  72  86
ATOM     86  C   UNL     1     -13.399  11.893   2.876  1.00  0.00     0.023 A 
ATOM     87  C   UNL     1     -13.636  11.897   4.268  1.00  0.00     0.012 A 
ATOM     88  C   UNL     1     -14.376  12.562   2.085  1.00  0.00     0.148 A 
ATOM     89  C   UNL     1     -14.756  12.517   4.842  1.00  0.00     0.002 A 
ATOM     90  C   UNL     1     -15.458  13.240   2.663  1.00  0.00     0.091 A 
ATOM     91  F   UNL     1     -14.328  12.479   0.752  1.00  0.00    -0.205 F 
ATOM     92  C   UNL     1     -15.659  13.204   4.043  1.00  0.00     0.022 A 
BRANCH  90  93
ATOM     93  S   UNL     1     -16.651  14.193   1.698  1.00  0.00     0.127 S 
ATOM     94  O   UNL     1     -17.888  13.441   1.906  1.00  0.00    -0.237 OA
ATOM     95  O   UNL     1     -16.616  15.498   2.359  1.00  0.00    -0.237 OA
ATOM     96  O   UNL     1     -16.157  14.199   0.326  1.00  0.00    -0.744 OA
ENDBRANCH  90  93
ENDBRANCH  72  86
BRANCH  73  97
ATOM     97  C   UNL     1      -6.474   5.609  -1.240  1.00  0.00     0.023 A 
ATOM     98  C   UNL     1      -6.675   4.255  -1.622  1.00  0.00     0.012 A 
ATOM     99  C   UNL     1      -6.213   6.545  -2.251  1.00  0.00     0.148 A 
ATOM    100  C   UNL     1      -6.895   3.892  -2.949  1.00  0.00     0.002 A 
ATOM    101  C   UNL     1      -6.374   6.162  -3.587  1.00  0.00     0.091 A 
ATOM    102  F   UNL     1      -5.914   7.801  -1.897  1.00  0.00    -0.205 F 
ATOM    103  C   UNL     1      -6.793   4.863  -3.928  1.00  0.00     0.022 A 
BRANCH 101 104
ATOM    104  S   UNL     1      -6.181   7.307  -4.955  1.00  0.00     0.127 S 
ATOM    105  O   UNL     1      -4.864   6.938  -5.465  1.00  0.00    -0.237 OA
ATOM    106  O   UNL     1      -7.294   6.930  -5.826  1.00  0.00    -0.237 OA
ATOM    107  O   UNL     1      -6.289   8.635  -4.372  1.00  0.00    -0.744 OA
ENDBRANCH 101 104
ENDBRANCH  73  97
BRANCH  85 108
ATOM    108  C   UNL     1      -7.015  10.261   4.462  1.00  0.00     0.023 A 
ATOM    109  C   UNL     1      -5.626  10.460   4.316  1.00  0.00     0.012 A 
ATOM    110  C   UNL     1      -7.704  11.177   5.298  1.00  0.00     0.148 A 
ATOM    111  C   UNL     1      -4.945  11.471   4.999  1.00  0.00     0.002 A 
ATOM    112  C   UNL     1      -7.043  12.255   5.875  1.00  0.00     0.091 A 
ATOM    113  F   UNL     1      -9.010  11.014   5.546  1.00  0.00    -0.205 F 
ATOM    114  C   UNL     1      -5.658  12.386   5.756  1.00  0.00     0.022 A 
BRANCH 112 115
ATOM    115  S   UNL     1      -7.954  13.613   6.623  1.00  0.00     0.127 S 
ATOM    116  O   UNL     1      -7.842  13.300   8.046  1.00  0.00    -0.237 OA
ATOM    117  O   UNL     1      -7.180  14.778   6.190  1.00  0.00    -0.237 OA
ATOM    118  O   UNL     1      -9.293  13.542   6.054  1.00  0.00    -0.744 OA
ENDBRANCH 112 115
ENDBRANCH  85 108
ENDBRANCH  59  60
ENDBRANCH  52  54
ENDBRANCH  51  52
ENDBRANCH  50  51
ENDBRANCH  49  50
ENDBRANCH  48  49
ENDBRANCH  47  48
ENDBRANCH   1  47
TORSDOF 26
