REMARK SMILES C[C@H](NC(=O)c1cccc(NC(=O)c2ccccc2C(=O)OCCOCCOC(=O)c2ccc(-c3c4nc(c(-c5cccc(S(=O)(=O)[O-])c5F)c5ccc([nH]5)c(-c5cccc(S(=O)(=O)[O-])c5F)c5nc(c(-c6cccc(S(=O)(=O)[O-])c6F)c6ccc3[nH]6)C=C5)C=C4)cc2)c1)c1ccccc1
REMARK SMILES IDX 24 1 23 2 22 3 20 4 21 5 19 6 14 7 15 8 16 9 18 10 17 11
REMARK SMILES IDX 12 12 11 13 13 15 10 16 6 17 7 18 94 19 8 20 9 21 4 22 3 23
REMARK SMILES IDX 5 25 2 26 1 27 95 28 96 29 100 30 97 31 99 32 98 33 25 34
REMARK SMILES IDX 26 35 27 36 28 37 29 38 30 39 31 40 32 41 93 42 33 43 92 44
REMARK SMILES IDX 34 45 35 46 36 47 86 48 37 49 91 50 85 51 87 52 38 53 90 54
REMARK SMILES IDX 84 55 83 56 39 58 71 59 51 60 70 61 52 62 55 63 69 64 88 65
REMARK SMILES IDX 53 66 54 67 68 69 89 70 56 71 40 72 41 73 49 74 42 75 44 76
REMARK SMILES IDX 50 77 43 78 45 79 46 80 47 81 48 82 72 83 73 84 81 85 74 86
REMARK SMILES IDX 76 87 82 88 75 89 77 90 78 91 79 92 80 93 57 94 58 95 66 96
REMARK SMILES IDX 59 97 61 98 67 99 60 100 62 101 63 102 64 103 65 104
REMARK H PARENT 11 14 3 24 87 57 55 68
REMARK Flexibility Score: inf
ROOT
ATOM      1  C   UNL     1       0.513   1.970   5.315  1.00  0.00     0.202 C 
ENDROOT
BRANCH   1   2
ATOM      2  C   UNL     1       1.807   1.501   4.643  1.00  0.00     0.261 C 
BRANCH   2   3
ATOM      3  O   UNL     1       3.042   1.695   5.314  1.00  0.00    -0.460 OA
BRANCH   3   4
ATOM      4  C   UNL     1       3.709   2.788   4.901  1.00  0.00     0.339 C 
ATOM      5  O   UNL     1       3.260   3.739   4.269  1.00  0.00    -0.246 OA
BRANCH   4   6
ATOM      6  C   UNL     1       5.088   2.742   5.394  1.00  0.00     0.072 A 
ATOM      7  C   UNL     1       5.911   1.609   5.323  1.00  0.00     0.054 A 
ATOM      8  C   UNL     1       7.197   1.687   5.891  1.00  0.00     0.015 A 
ATOM      9  C   UNL     1       7.667   2.877   6.457  1.00  0.00     0.001 A 
ATOM     10  C   UNL     1       5.576   3.945   5.939  1.00  0.00     0.016 A 
ATOM     11  C   UNL     1       6.861   4.010   6.470  1.00  0.00     0.001 A 
BRANCH   7  12
ATOM     12  C   UNL     1       5.522   0.276   4.799  1.00  0.00     0.256 C 
ATOM     13  N   UNL     1       4.984   0.019   3.553  1.00  0.00    -0.322 N 
ATOM     14  H   UNL     1       4.759  -0.930   3.421  1.00  0.00     0.170 HD
ATOM     15  O   UNL     1       5.698  -0.676   5.565  1.00  0.00    -0.269 OA
BRANCH  13  16
ATOM     16  C   UNL     1       4.688   0.813   2.430  1.00  0.00     0.042 A 
ATOM     17  C   UNL     1       3.216   1.131   0.507  1.00  0.00     0.041 A 
ATOM     18  C   UNL     1       3.686   2.449   0.406  1.00  0.00     0.014 A 
ATOM     19  C   UNL     1       3.776   0.296   1.481  1.00  0.00     0.040 A 
ATOM     20  C   UNL     1       4.696   2.916   1.245  1.00  0.00     0.003 A 
ATOM     21  C   UNL     1       5.207   2.091   2.242  1.00  0.00     0.026 A 
BRANCH  17  22
ATOM     22  C   UNL     1       2.212   0.726  -0.515  1.00  0.00     0.251 C 
ATOM     23  N   UNL     1       1.039   0.058  -0.276  1.00  0.00    -0.346 N 
ATOM     24  H   UNL     1       0.453   0.068  -1.068  1.00  0.00     0.164 HD
ATOM     25  O   UNL     1       2.404   1.115  -1.671  1.00  0.00    -0.269 OA
BRANCH  23  26
ATOM     26  C   UNL     1       0.422  -0.663   0.833  1.00  0.00     0.109 C 
ATOM     27  C   UNL     1       0.710  -0.123   2.215  1.00  0.00     0.036 C 
BRANCH  26  28
ATOM     28  C   UNL     1      -1.105  -0.651   0.737  1.00  0.00    -0.026 A 
ATOM     29  C   UNL     1      -1.815   0.564   0.699  1.00  0.00     0.006 A 
ATOM     30  C   UNL     1      -1.819  -1.842   0.938  1.00  0.00     0.006 A 
ATOM     31  C   UNL     1      -3.193   0.589   0.920  1.00  0.00     0.000 A 
ATOM     32  C   UNL     1      -3.198  -1.813   1.153  1.00  0.00     0.000 A 
ATOM     33  C   UNL     1      -3.881  -0.598   1.161  1.00  0.00     0.000 A 
ENDBRANCH  26  28
ENDBRANCH  23  26
ENDBRANCH  17  22
ENDBRANCH  13  16
ENDBRANCH   7  12
ENDBRANCH   4   6
ENDBRANCH   3   4
ENDBRANCH   2   3
ENDBRANCH   1   2
BRANCH   1  34
ATOM     34  O   UNL     1       0.549   2.989   6.296  1.00  0.00    -0.374 OA
BRANCH  34  35
ATOM     35  C   UNL     1       1.426   2.837   7.402  1.00  0.00     0.202 C 
BRANCH  35  36
ATOM     36  C   UNL     1       1.367   1.563   8.258  1.00  0.00     0.261 C 
BRANCH  36  37
ATOM     37  O   UNL     1       1.508   0.320   7.547  1.00  0.00    -0.460 OA
BRANCH  37  38
ATOM     38  C   UNL     1       0.399  -0.461   7.550  1.00  0.00     0.338 C 
ATOM     39  O   UNL     1      -0.698  -0.169   8.003  1.00  0.00    -0.246 OA
BRANCH  38  40
ATOM     40  C   UNL     1       0.620  -1.724   6.820  1.00  0.00     0.060 A 
ATOM     41  C   UNL     1      -0.239  -2.033   5.758  1.00  0.00     0.016 A 
ATOM     42  C   UNL     1       1.528  -2.673   7.293  1.00  0.00     0.016 A 
ATOM     43  C   UNL     1      -0.233  -3.314   5.202  1.00  0.00     0.010 A 
ATOM     44  C   UNL     1       1.527  -3.959   6.738  1.00  0.00     0.010 A 
ATOM     45  C   UNL     1       0.618  -4.301   5.720  1.00  0.00    -0.014 A 
BRANCH  45  46
ATOM     46  C   UNL     1       0.470  -5.716   5.290  1.00  0.00     0.031 A 
ATOM     47  C   UNL     1      -0.252  -6.694   6.184  1.00  0.00     0.074 A 
ATOM     48  C   UNL     1       0.988  -6.138   4.121  1.00  0.00     0.049 A 
ATOM     49  N   UNL     1      -0.455  -7.975   6.015  1.00  0.00    -0.248 NA
ATOM     50  C   UNL     1      -0.818  -6.158   7.433  1.00  0.00     0.031 C 
ATOM     51  C   UNL     1       1.717  -5.300   3.170  1.00  0.00     0.029 A 
ATOM     52  N   UNL     1       1.007  -7.388   3.553  1.00  0.00    -0.354 N 
ATOM     53  C   UNL     1      -1.139  -8.407   7.146  1.00  0.00     0.074 A 
ATOM     54  C   UNL     1      -1.317  -7.250   7.997  1.00  0.00     0.031 C 
ATOM     55  C   UNL     1       2.146  -6.068   2.154  1.00  0.00     0.029 A 
ATOM     56  C   UNL     1       1.743  -7.453   2.393  1.00  0.00     0.049 A 
ATOM     57  H   UNL     1       0.540  -8.164   3.939  1.00  0.00     0.167 HD
ATOM     58  C   UNL     1      -1.591  -9.648   7.445  1.00  0.00     0.034 A 
ATOM     59  C   UNL     1       2.076  -8.512   1.626  1.00  0.00     0.034 A 
ATOM     60  C   UNL     1      -1.446 -10.795   6.588  1.00  0.00     0.049 A 
ATOM     61  C   UNL     1       1.569  -9.884   1.991  1.00  0.00     0.074 A 
ATOM     62  C   UNL     1      -1.938 -12.075   6.777  1.00  0.00     0.029 A 
ATOM     63  N   UNL     1      -0.749 -10.808   5.392  1.00  0.00    -0.354 N 
ATOM     64  N   UNL     1       0.795 -10.242   2.986  1.00  0.00    -0.248 NA
ATOM     65  C   UNL     1       1.954 -10.995   1.105  1.00  0.00     0.031 C 
ATOM     66  C   UNL     1      -1.514 -12.870   5.707  1.00  0.00     0.029 A 
ATOM     67  C   UNL     1      -0.783 -12.077   4.839  1.00  0.00     0.049 A 
ATOM     68  H   UNL     1      -0.295 -10.030   4.993  1.00  0.00     0.167 HD
ATOM     69  C   UNL     1       0.570 -11.606   2.823  1.00  0.00     0.074 A 
ATOM     70  C   UNL     1       1.270 -12.006   1.622  1.00  0.00     0.031 C 
ATOM     71  C   UNL     1      -0.140 -12.454   3.608  1.00  0.00     0.034 A 
BRANCH  58  72
ATOM     72  C   UNL     1      -2.327  -9.843   8.744  1.00  0.00     0.023 A 
ATOM     73  C   UNL     1      -3.655  -9.388   8.866  1.00  0.00     0.012 A 
ATOM     74  C   UNL     1      -1.743 -10.570   9.801  1.00  0.00     0.148 A 
ATOM     75  C   UNL     1      -4.386  -9.639  10.027  1.00  0.00     0.002 A 
ATOM     76  C   UNL     1      -2.491 -10.851  10.938  1.00  0.00     0.091 A 
ATOM     77  F   UNL     1      -0.473 -10.979   9.669  1.00  0.00    -0.205 F 
ATOM     78  C   UNL     1      -3.809 -10.380  11.056  1.00  0.00     0.022 A 
BRANCH  76  79
ATOM     79  S   UNL     1      -1.869 -11.864  12.285  1.00  0.00     0.127 S 
ATOM     80  O   UNL     1      -1.759 -10.883  13.365  1.00  0.00    -0.237 OA
ATOM     81  O   UNL     1      -2.944 -12.841  12.457  1.00  0.00    -0.237 OA
ATOM     82  O   UNL     1      -0.606 -12.421  11.822  1.00  0.00    -0.744 OA
ENDBRANCH  76  79
ENDBRANCH  58  72
BRANCH  59  83
ATOM     83  C   UNL     1       2.923  -8.322   0.414  1.00  0.00     0.023 A 
ATOM     84  C   UNL     1       2.369  -8.531  -0.864  1.00  0.00     0.012 A 
ATOM     85  C   UNL     1       4.277  -7.952   0.522  1.00  0.00     0.148 A 
ATOM     86  C   UNL     1       3.157  -8.413  -2.009  1.00  0.00     0.002 A 
ATOM     87  C   UNL     1       5.041  -7.778  -0.626  1.00  0.00     0.091 A 
ATOM     88  F   UNL     1       4.795  -7.780   1.746  1.00  0.00    -0.205 F 
ATOM     89  C   UNL     1       4.489  -8.027  -1.891  1.00  0.00     0.022 A 
BRANCH  87  90
ATOM     90  S   UNL     1       6.722  -7.150  -0.562  1.00  0.00     0.127 S 
ATOM     91  O   UNL     1       7.505  -8.364  -0.771  1.00  0.00    -0.237 OA
ATOM     92  O   UNL     1       6.739  -6.204  -1.679  1.00  0.00    -0.237 OA
ATOM     93  O   UNL     1       6.848  -6.523   0.748  1.00  0.00    -0.744 OA
ENDBRANCH  87  90
ENDBRANCH  59  83
BRANCH  71  94
ATOM     94  C   UNL     1      -0.243 -13.895   3.177  1.00  0.00     0.023 A 
ATOM     95  C   UNL     1       0.877 -14.743   3.289  1.00  0.00     0.012 A 
ATOM     96  C   UNL     1      -1.470 -14.428   2.733  1.00  0.00     0.148 A 
ATOM     97  C   UNL     1       0.786 -16.089   2.935  1.00  0.00     0.002 A 
ATOM     98  C   UNL     1      -1.566 -15.781   2.427  1.00  0.00     0.091 A 
ATOM     99  F   UNL     1      -2.521 -13.602   2.615  1.00  0.00    -0.205 F 
ATOM    100  C   UNL     1      -0.436 -16.610   2.516  1.00  0.00     0.022 A 
BRANCH  98 101
ATOM    101  S   UNL     1      -3.122 -16.556   1.972  1.00  0.00     0.127 S 
ATOM    102  O   UNL     1      -2.941 -16.767   0.537  1.00  0.00    -0.237 OA
ATOM    103  O   UNL     1      -3.107 -17.780   2.775  1.00  0.00    -0.237 OA
ATOM    104  O   UNL     1      -4.164 -15.607   2.340  1.00  0.00    -0.744 OA
ENDBRANCH  98 101
ENDBRANCH  71  94
ENDBRANCH  45  46
ENDBRANCH  38  40
ENDBRANCH  37  38
ENDBRANCH  36  37
ENDBRANCH  35  36
ENDBRANCH  34  35
ENDBRANCH   1  34
TORSDOF 22
