REMARK SMILES O=C1O[C@@H](c2ccc(O)c(O)c2)[C@H](C(=O)OCCOCCOC(=O)c2ccc(-c3c4nc(c(-c5cccc(S(=O)(=O)[O-])c5F)c5ccc([nH]5)c(-c5cccc(S(=O)(=O)[O-])c5F)c5nc(c(-c6cccc(S(=O)(=O)[O-])c6F)c6ccc3[nH]6)C=C5)C=C4)cc2)/C1=C\c1ccc(O)c(O)c1
REMARK SMILES IDX 20 1 19 2 18 3 17 4 16 5 14 6 15 7 13 8 1 9 2 10 3 11 88 12
REMARK SMILES IDX 4 13 89 14 5 15 6 16 12 17 7 18 10 19 8 20 11 21 9 23 90 25
REMARK SMILES IDX 91 26 97 27 92 28 95 29 93 30 96 31 94 33 21 35 22 36 23 37
REMARK SMILES IDX 24 38 25 39 26 40 87 41 27 42 86 43 28 44 29 45 30 46 80 47
REMARK SMILES IDX 31 48 85 49 79 50 81 51 32 52 84 53 78 54 77 55 33 57 65 58
REMARK SMILES IDX 45 59 64 60 46 61 49 62 63 63 82 64 47 65 48 66 62 68 83 69
REMARK SMILES IDX 50 70 34 71 35 72 43 73 36 74 38 75 44 76 37 77 39 78 40 79
REMARK SMILES IDX 41 80 42 81 66 82 67 83 75 84 68 85 70 86 76 87 69 88 71 89
REMARK SMILES IDX 72 90 73 91 74 92 51 93 52 94 60 95 53 96 55 97 61 98 54 99
REMARK SMILES IDX 56 100 57 101 58 102 59 103
REMARK H PARENT 11 22 9 24 96 32 94 34 81 56 49 67
REMARK Flexibility Score: inf
ROOT
ATOM      1  C   UNL     1       1.678   3.870   2.359  1.00  0.00     0.202 C 
ENDROOT
BRANCH   1   2
ATOM      2  O   UNL     1       1.843   3.551   3.735  1.00  0.00    -0.374 OA
BRANCH   2   3
ATOM      3  C   UNL     1       2.771   2.534   4.097  1.00  0.00     0.202 C 
BRANCH   3   4
ATOM      4  C   UNL     1       2.424   1.083   3.764  1.00  0.00     0.261 C 
BRANCH   4   5
ATOM      5  O   UNL     1       2.353   0.884   2.342  1.00  0.00    -0.463 OA
BRANCH   5   6
ATOM      6  C   UNL     1       1.112   0.588   1.860  1.00  0.00     0.317 C 
ATOM      7  O   UNL     1       0.132   0.345   2.550  1.00  0.00    -0.251 OA
BRANCH   6   8
ATOM      8  C   UNL     1       1.116   0.678   0.342  1.00  0.00     0.182 C 
ATOM      9  O   UNL     1      -1.866  -1.074  -0.442  1.00  0.00    -0.247 OA
ATOM     10  C   UNL     1      -0.722  -0.680  -0.286  1.00  0.00     0.335 C 
ATOM     11  O   UNL     1       0.388  -1.466  -0.234  1.00  0.00    -0.453 OA
ATOM     12  C   UNL     1      -0.293   0.727  -0.135  1.00  0.00     0.056 C 
ATOM     13  C   UNL     1       1.582  -0.656  -0.209  1.00  0.00     0.226 C 
ATOM     14  C   UNL     1      -1.129   1.741  -0.411  1.00  0.00     0.020 C 
BRANCH  13  15
ATOM     15  C   UNL     1       2.230  -0.578  -1.588  1.00  0.00    -0.002 A 
ATOM     16  C   UNL     1       3.364   0.234  -1.801  1.00  0.00     0.012 A 
ATOM     17  C   UNL     1       1.762  -1.362  -2.656  1.00  0.00     0.057 A 
ATOM     18  C   UNL     1       3.999   0.278  -3.050  1.00  0.00     0.050 A 
ATOM     19  C   UNL     1       2.398  -1.312  -3.889  1.00  0.00     0.157 A 
ATOM     20  C   UNL     1       3.509  -0.501  -4.089  1.00  0.00     0.157 A 
BRANCH  19  21
ATOM     21  O   UNL     1       1.932  -2.093  -4.909  1.00  0.00    -0.504 OA
ATOM     22  H   UNL     1       2.351  -2.070  -5.746  1.00  0.00     0.293 HD
ENDBRANCH  19  21
BRANCH  20  23
ATOM     23  O   UNL     1       4.096  -0.518  -5.324  1.00  0.00    -0.504 OA
ATOM     24  H   UNL     1       4.847   0.017  -5.493  1.00  0.00     0.293 HD
ENDBRANCH  20  23
ENDBRANCH  13  15
BRANCH  14  25
ATOM     25  C   UNL     1      -0.816   3.172  -0.341  1.00  0.00    -0.021 A 
ATOM     26  C   UNL     1       0.098   3.754  -1.235  1.00  0.00     0.012 A 
ATOM     27  C   UNL     1      -1.486   3.987   0.581  1.00  0.00     0.058 A 
ATOM     28  C   UNL     1       0.361   5.130  -1.197  1.00  0.00     0.051 A 
ATOM     29  C   UNL     1      -1.212   5.351   0.617  1.00  0.00     0.157 A 
ATOM     30  C   UNL     1      -0.289   5.920  -0.257  1.00  0.00     0.157 A 
BRANCH  29  31
ATOM     31  O   UNL     1      -1.833   6.132   1.549  1.00  0.00    -0.504 OA
ATOM     32  H   UNL     1      -1.657   7.052   1.583  1.00  0.00     0.293 HD
ENDBRANCH  29  31
BRANCH  30  33
ATOM     33  O   UNL     1      -0.040   7.258  -0.136  1.00  0.00    -0.504 OA
ATOM     34  H   UNL     1       0.575   7.674  -0.708  1.00  0.00     0.293 HD
ENDBRANCH  30  33
ENDBRANCH  14  25
ENDBRANCH   6   8
ENDBRANCH   5   6
ENDBRANCH   4   5
ENDBRANCH   3   4
ENDBRANCH   2   3
ENDBRANCH   1   2
BRANCH   1  35
ATOM     35  C   UNL     1       2.777   4.653   1.627  1.00  0.00     0.261 C 
BRANCH  35  36
ATOM     36  O   UNL     1       4.087   4.106   1.785  1.00  0.00    -0.460 OA
BRANCH  36  37
ATOM     37  C   UNL     1       4.839   4.756   2.709  1.00  0.00     0.338 C 
ATOM     38  O   UNL     1       4.539   5.748   3.348  1.00  0.00    -0.246 OA
BRANCH  37  39
ATOM     39  C   UNL     1       6.048   3.963   2.973  1.00  0.00     0.060 A 
ATOM     40  C   UNL     1       6.261   3.517   4.283  1.00  0.00     0.016 A 
ATOM     41  C   UNL     1       6.969   3.698   1.960  1.00  0.00     0.016 A 
ATOM     42  C   UNL     1       7.424   2.824   4.596  1.00  0.00     0.010 A 
ATOM     43  C   UNL     1       8.142   3.017   2.279  1.00  0.00     0.010 A 
ATOM     44  C   UNL     1       8.386   2.607   3.604  1.00  0.00    -0.014 A 
BRANCH  44  45
ATOM     45  C   UNL     1       9.720   2.092   3.973  1.00  0.00     0.031 A 
ATOM     46  C   UNL     1      10.863   3.062   4.061  1.00  0.00     0.074 A 
ATOM     47  C   UNL     1       9.908   0.781   4.198  1.00  0.00     0.049 A 
ATOM     48  N   UNL     1      12.131   2.827   4.261  1.00  0.00    -0.248 NA
ATOM     49  C   UNL     1      10.532   4.487   3.890  1.00  0.00     0.031 C 
ATOM     50  C   UNL     1       8.863  -0.241   4.156  1.00  0.00     0.029 A 
ATOM     51  N   UNL     1      11.055   0.082   4.471  1.00  0.00    -0.354 N 
ATOM     52  C   UNL     1      12.757   4.066   4.199  1.00  0.00     0.074 A 
ATOM     53  C   UNL     1      11.730   5.050   3.938  1.00  0.00     0.031 C 
ATOM     54  C   UNL     1       9.424  -1.445   4.357  1.00  0.00     0.029 A 
ATOM     55  C   UNL     1      10.869  -1.279   4.503  1.00  0.00     0.049 A 
ATOM     56  H   UNL     1      11.926   0.513   4.628  1.00  0.00     0.167 HD
ATOM     57  C   UNL     1      14.069   4.355   4.354  1.00  0.00     0.034 A 
ATOM     58  C   UNL     1      11.770  -2.276   4.597  1.00  0.00     0.034 A 
ATOM     59  C   UNL     1      15.076   3.368   4.630  1.00  0.00     0.049 A 
ATOM     60  C   UNL     1      13.230  -1.931   4.731  1.00  0.00     0.074 A 
ATOM     61  C   UNL     1      16.427   3.559   4.855  1.00  0.00     0.029 A 
ATOM     62  N   UNL     1      14.846   2.002   4.699  1.00  0.00    -0.354 N 
ATOM     63  N   UNL     1      13.798  -0.750   4.771  1.00  0.00    -0.248 NA
ATOM     64  C   UNL     1      14.171  -3.053   4.860  1.00  0.00     0.031 C 
ATOM     65  C   UNL     1      17.022   2.304   5.017  1.00  0.00     0.029 A 
ATOM     66  C   UNL     1      16.033   1.336   4.943  1.00  0.00     0.049 A 
ATOM     67  H   UNL     1      13.968   1.571   4.590  1.00  0.00     0.167 HD
ATOM     68  C   UNL     1      15.154  -0.984   4.974  1.00  0.00     0.074 A 
ATOM     69  C   UNL     1      15.320  -2.420   5.056  1.00  0.00     0.031 C 
ATOM     70  C   UNL     1      16.170  -0.092   5.076  1.00  0.00     0.034 A 
BRANCH  57  71
ATOM     71  C   UNL     1      14.491   5.794   4.231  1.00  0.00     0.023 A 
ATOM     72  C   UNL     1      14.148   6.719   5.237  1.00  0.00     0.012 A 
ATOM     73  C   UNL     1      15.276   6.218   3.141  1.00  0.00     0.148 A 
ATOM     74  C   UNL     1      14.552   8.051   5.144  1.00  0.00     0.002 A 
ATOM     75  C   UNL     1      15.715   7.534   3.079  1.00  0.00     0.091 A 
ATOM     76  F   UNL     1      15.570   5.328   2.182  1.00  0.00    -0.205 F 
ATOM     77  C   UNL     1      15.344   8.454   4.073  1.00  0.00     0.022 A 
BRANCH  75  78
ATOM     78  S   UNL     1      16.803   8.131   1.782  1.00  0.00     0.127 S 
ATOM     79  O   UNL     1      15.918   9.035   1.048  1.00  0.00    -0.237 OA
ATOM     80  O   UNL     1      17.856   8.797   2.548  1.00  0.00    -0.237 OA
ATOM     81  O   UNL     1      17.238   6.953   1.045  1.00  0.00    -0.744 OA
ENDBRANCH  75  78
ENDBRANCH  57  71
BRANCH  58  82
ATOM     82  C   UNL     1      11.316  -3.694   4.577  1.00  0.00     0.023 A 
ATOM     83  C   UNL     1      11.428  -4.480   5.740  1.00  0.00     0.012 A 
ATOM     84  C   UNL     1      10.756  -4.260   3.416  1.00  0.00     0.148 A 
ATOM     85  C   UNL     1      11.021  -5.814   5.737  1.00  0.00     0.002 A 
ATOM     86  C   UNL     1      10.300  -5.572   3.436  1.00  0.00     0.091 A 
ATOM     87  F   UNL     1      10.668  -3.498   2.317  1.00  0.00    -0.205 F 
ATOM     88  C   UNL     1      10.448  -6.357   4.589  1.00  0.00     0.022 A 
BRANCH  86  89
ATOM     89  S   UNL     1       9.433  -6.312   2.047  1.00  0.00     0.127 S 
ATOM     90  O   UNL     1      10.391  -7.321   1.601  1.00  0.00    -0.237 OA
ATOM     91  O   UNL     1       8.232  -6.841   2.693  1.00  0.00    -0.237 OA
ATOM     92  O   UNL     1       9.183  -5.222   1.113  1.00  0.00    -0.744 OA
ENDBRANCH  86  89
ENDBRANCH  58  82
BRANCH  70  93
ATOM     93  C   UNL     1      17.551  -0.625   5.351  1.00  0.00     0.023 A 
ATOM     94  C   UNL     1      18.271  -1.286   4.338  1.00  0.00     0.012 A 
ATOM     95  C   UNL     1      18.173  -0.371   6.591  1.00  0.00     0.148 A 
ATOM     96  C   UNL     1      19.581  -1.708   4.562  1.00  0.00     0.002 A 
ATOM     97  C   UNL     1      19.495  -0.745   6.788  1.00  0.00     0.091 A 
ATOM     98  F   UNL     1      17.462   0.248   7.545  1.00  0.00    -0.205 F 
ATOM     99  C   UNL     1      20.197  -1.425   5.780  1.00  0.00     0.022 A 
BRANCH  97 100
ATOM    100  S   UNL     1      20.403  -0.330   8.281  1.00  0.00     0.127 S 
ATOM    101  O   UNL     1      20.617  -1.649   8.875  1.00  0.00    -0.237 OA
ATOM    102  O   UNL     1      21.608   0.300   7.743  1.00  0.00    -0.237 OA
ATOM    103  O   UNL     1      19.541   0.561   9.046  1.00  0.00    -0.744 OA
ENDBRANCH  97 100
ENDBRANCH  70  93
ENDBRANCH  44  45
ENDBRANCH  37  39
ENDBRANCH  36  37
ENDBRANCH  35  36
ENDBRANCH   1  35
TORSDOF 23
