REMARK SMILES O=C(OCCOCCOC(=O)[C@H]1CC2=c3ccccc3=N[C@H]2[C@@H](c2ccccc2)[NH2+]1)c1ccc(-c2c3nc(c(-c4cccc(S(=O)(=O)[O-])c4F)c4ccc([nH]4)c(-c4cccc(S(=O)(=O)[O-])c4F)c4nc(c(-c5cccc(S(=O)(=O)[O-])c5F)c5ccc2[nH]5)C=C4)C=C3)cc1
REMARK SMILES IDX 5 1 4 2 3 3 2 4 1 5 31 6 32 7 93 8 33 9 92 10 34 11 35 12
REMARK SMILES IDX 36 13 86 14 37 15 91 16 85 17 87 18 38 19 90 20 84 21 83 22
REMARK SMILES IDX 39 24 71 25 51 26 70 27 52 28 55 29 69 30 88 31 53 32 54 33
REMARK SMILES IDX 68 35 89 36 56 37 40 38 41 39 49 40 42 41 44 42 50 43 43 44
REMARK SMILES IDX 45 45 46 46 47 47 48 48 72 49 73 50 81 51 74 52 76 53 82 54
REMARK SMILES IDX 75 55 77 56 78 57 79 58 80 59 57 60 58 61 66 62 59 63 61 64
REMARK SMILES IDX 67 65 60 66 62 67 63 68 64 69 65 70 6 71 7 72 8 73 9 74
REMARK SMILES IDX 10 75 11 76 12 77 13 78 30 79 14 80 23 81 15 84 22 85 16 86
REMARK SMILES IDX 20 87 21 88 17 89 19 90 18 91 24 92 25 93 29 94 26 95 28 96
REMARK SMILES IDX 27 97
REMARK H PARENT 87 23 55 34 30 82 30 83
REMARK Flexibility Score: inf
ROOT
ATOM      1  C   UNL     1       4.685   0.287  -1.513  1.00  0.00     0.202 C 
ENDROOT
BRANCH   1   2
ATOM      2  C   UNL     1       4.543  -1.050  -0.775  1.00  0.00     0.261 C 
BRANCH   2   3
ATOM      3  O   UNL     1       3.246  -1.315  -0.227  1.00  0.00    -0.460 OA
BRANCH   3   4
ATOM      4  C   UNL     1       2.808  -1.019   1.023  1.00  0.00     0.338 C 
ATOM      5  O   UNL     1       1.827  -1.623   1.457  1.00  0.00    -0.246 OA
BRANCH   4   6
ATOM      6  C   UNL     1       3.332   0.138   1.817  1.00  0.00     0.060 A 
ATOM      7  C   UNL     1       2.400   0.802   2.638  1.00  0.00     0.016 A 
ATOM      8  C   UNL     1       4.654   0.591   1.827  1.00  0.00     0.016 A 
ATOM      9  C   UNL     1       2.775   1.903   3.413  1.00  0.00     0.010 A 
ATOM     10  C   UNL     1       5.028   1.706   2.575  1.00  0.00     0.010 A 
ATOM     11  C   UNL     1       4.094   2.364   3.375  1.00  0.00    -0.014 A 
BRANCH  11  12
ATOM     12  C   UNL     1       4.564   3.427   4.282  1.00  0.00     0.031 A 
ATOM     13  C   UNL     1       4.758   4.829   3.798  1.00  0.00     0.074 A 
ATOM     14  C   UNL     1       4.925   3.065   5.526  1.00  0.00     0.049 A 
ATOM     15  N   UNL     1       5.094   5.886   4.486  1.00  0.00    -0.248 NA
ATOM     16  C   UNL     1       4.568   5.078   2.360  1.00  0.00     0.031 C 
ATOM     17  C   UNL     1       4.880   1.694   6.043  1.00  0.00     0.029 A 
ATOM     18  N   UNL     1       5.421   3.800   6.568  1.00  0.00    -0.354 N 
ATOM     19  C   UNL     1       5.162   6.928   3.571  1.00  0.00     0.074 A 
ATOM     20  C   UNL     1       4.852   6.373   2.271  1.00  0.00     0.031 C 
ATOM     21  C   UNL     1       5.327   1.688   7.307  1.00  0.00     0.029 A 
ATOM     22  C   UNL     1       5.678   3.051   7.691  1.00  0.00     0.049 A 
ATOM     23  H   UNL     1       5.579   4.771   6.518  1.00  0.00     0.167 HD
ATOM     24  C   UNL     1       5.436   8.231   3.813  1.00  0.00     0.034 A 
ATOM     25  C   UNL     1       6.119   3.428   8.905  1.00  0.00     0.034 A 
ATOM     26  C   UNL     1       5.721   8.754   5.122  1.00  0.00     0.049 A 
ATOM     27  C   UNL     1       6.355   4.886   9.164  1.00  0.00     0.074 A 
ATOM     28  C   UNL     1       5.880  10.073   5.504  1.00  0.00     0.029 A 
ATOM     29  N   UNL     1       5.909   7.979   6.257  1.00  0.00    -0.354 N 
ATOM     30  N   UNL     1       6.205   5.895   8.339  1.00  0.00    -0.248 NA
ATOM     31  C   UNL     1       6.782   5.268  10.516  1.00  0.00     0.031 C 
ATOM     32  C   UNL     1       6.183  10.095   6.869  1.00  0.00     0.029 A 
ATOM     33  C   UNL     1       6.204   8.790   7.337  1.00  0.00     0.049 A 
ATOM     34  H   UNL     1       5.843   6.997   6.289  1.00  0.00     0.167 HD
ATOM     35  C   UNL     1       6.496   7.035   9.075  1.00  0.00     0.074 A 
ATOM     36  C   UNL     1       6.827   6.593  10.416  1.00  0.00     0.031 C 
ATOM     37  C   UNL     1       6.496   8.328   8.671  1.00  0.00     0.034 A 
BRANCH  24  38
ATOM     38  C   UNL     1       5.366   9.203   2.668  1.00  0.00     0.023 A 
ATOM     39  C   UNL     1       4.101   9.630   2.215  1.00  0.00     0.012 A 
ATOM     40  C   UNL     1       6.529   9.782   2.125  1.00  0.00     0.148 A 
ATOM     41  C   UNL     1       3.994  10.613   1.232  1.00  0.00     0.002 A 
ATOM     42  C   UNL     1       6.414  10.780   1.163  1.00  0.00     0.091 A 
ATOM     43  F   UNL     1       7.721   9.353   2.565  1.00  0.00    -0.205 F 
ATOM     44  C   UNL     1       5.148  11.194   0.714  1.00  0.00     0.022 A 
BRANCH  42  45
ATOM     45  S   UNL     1       7.833  11.634   0.466  1.00  0.00     0.127 S 
ATOM     46  O   UNL     1       7.778  11.204  -0.931  1.00  0.00    -0.237 OA
ATOM     47  O   UNL     1       7.484  13.038   0.685  1.00  0.00    -0.237 OA
ATOM     48  O   UNL     1       8.993  11.167   1.212  1.00  0.00    -0.744 OA
ENDBRANCH  42  45
ENDBRANCH  24  38
BRANCH  25  49
ATOM     49  C   UNL     1       6.209   2.402   9.977  1.00  0.00     0.023 A 
ATOM     50  C   UNL     1       5.154   2.301  10.903  1.00  0.00     0.012 A 
ATOM     51  C   UNL     1       7.239   1.442   9.991  1.00  0.00     0.148 A 
ATOM     52  C   UNL     1       5.120   1.257  11.827  1.00  0.00     0.002 A 
ATOM     53  C   UNL     1       7.182   0.385  10.892  1.00  0.00     0.091 A 
ATOM     54  F   UNL     1       8.225   1.558   9.090  1.00  0.00    -0.205 F 
ATOM     55  C   UNL     1       6.126   0.294  11.814  1.00  0.00     0.022 A 
BRANCH  53  56
ATOM     56  S   UNL     1       8.365  -0.968  10.883  1.00  0.00     0.127 S 
ATOM     57  O   UNL     1       9.002  -0.815  12.190  1.00  0.00    -0.237 OA
ATOM     58  O   UNL     1       7.488  -2.132  10.758  1.00  0.00    -0.237 OA
ATOM     59  O   UNL     1       9.229  -0.732   9.735  1.00  0.00    -0.744 OA
ENDBRANCH  53  56
ENDBRANCH  25  49
BRANCH  37  60
ATOM     60  C   UNL     1       6.872   9.381   9.673  1.00  0.00     0.023 A 
ATOM     61  C   UNL     1       8.235   9.636   9.914  1.00  0.00     0.012 A 
ATOM     62  C   UNL     1       5.891  10.220  10.236  1.00  0.00     0.148 A 
ATOM     63  C   UNL     1       8.620  10.721  10.699  1.00  0.00     0.002 A 
ATOM     64  C   UNL     1       6.283  11.318  10.990  1.00  0.00     0.091 A 
ATOM     65  F   UNL     1       4.602   9.949   9.986  1.00  0.00    -0.205 F 
ATOM     66  C   UNL     1       7.646  11.568  11.225  1.00  0.00     0.022 A 
BRANCH  64  67
ATOM     67  S   UNL     1       5.113  12.514  11.643  1.00  0.00     0.127 S 
ATOM     68  O   UNL     1       5.341  12.398  13.083  1.00  0.00    -0.237 OA
ATOM     69  O   UNL     1       5.587  13.762  11.048  1.00  0.00    -0.237 OA
ATOM     70  O   UNL     1       3.796  12.081  11.194  1.00  0.00    -0.744 OA
ENDBRANCH  64  67
ENDBRANCH  37  60
ENDBRANCH  11  12
ENDBRANCH   4   6
ENDBRANCH   3   4
ENDBRANCH   2   3
ENDBRANCH   1   2
BRANCH   1  71
ATOM     71  O   UNL     1       4.028   1.421  -0.963  1.00  0.00    -0.374 OA
BRANCH  71  72
ATOM     72  C   UNL     1       2.630   1.576  -1.249  1.00  0.00     0.202 C 
BRANCH  72  73
ATOM     73  C   UNL     1       2.300   1.948  -2.701  1.00  0.00     0.261 C 
BRANCH  73  74
ATOM     74  O   UNL     1       2.287   0.739  -3.479  1.00  0.00    -0.459 OA
BRANCH  74  75
ATOM     75  C   UNL     1       2.721   0.884  -4.762  1.00  0.00     0.365 C 
ATOM     76  O   UNL     1       2.545   1.870  -5.462  1.00  0.00    -0.245 OA
BRANCH  75  77
ATOM     77  C   UNL     1       3.657  -0.279  -5.097  1.00  0.00     0.298 C 
ATOM     78  C   UNL     1       3.040  -1.401  -5.950  1.00  0.00     0.111 C 
ATOM     79  N   UNL     1       4.972   0.292  -5.543  1.00  0.00    -0.326 N 
ATOM     80  C   UNL     1       4.084  -2.478  -6.077  1.00  0.00    -0.024 C 
ATOM     81  C   UNL     1       5.747  -0.612  -6.458  1.00  0.00     0.243 C 
ATOM     82  H   UNL     1       5.540   0.475  -4.716  1.00  0.00     0.347 HD
ATOM     83  H   UNL     1       4.764   1.140  -6.070  1.00  0.00     0.347 HD
ATOM     84  C   UNL     1       4.058  -3.770  -6.378  1.00  0.00     0.002 A 
ATOM     85  C   UNL     1       5.510  -2.034  -5.873  1.00  0.00     0.196 C 
ATOM     86  C   UNL     1       3.065  -4.720  -6.752  1.00  0.00     0.010 A 
ATOM     87  C   UNL     1       5.498  -4.125  -6.377  1.00  0.00     0.066 A 
ATOM     88  N   UNL     1       6.370  -3.161  -6.305  1.00  0.00    -0.270 NA
ATOM     89  C   UNL     1       3.438  -6.002  -6.911  1.00  0.00     0.001 A 
ATOM     90  C   UNL     1       5.811  -5.567  -6.449  1.00  0.00     0.028 A 
ATOM     91  C   UNL     1       4.805  -6.433  -6.658  1.00  0.00     0.002 A 
BRANCH  81  92
ATOM     92  C   UNL     1       5.381  -0.282  -7.915  1.00  0.00     0.012 A 
ATOM     93  C   UNL     1       4.926  -1.228  -8.843  1.00  0.00     0.010 A 
ATOM     94  C   UNL     1       5.424   1.065  -8.340  1.00  0.00     0.010 A 
ATOM     95  C   UNL     1       4.388  -0.832 -10.073  1.00  0.00     0.001 A 
ATOM     96  C   UNL     1       4.891   1.462  -9.567  1.00  0.00     0.001 A 
ATOM     97  C   UNL     1       4.346   0.514 -10.424  1.00  0.00     0.000 A 
ENDBRANCH  81  92
ENDBRANCH  75  77
ENDBRANCH  74  75
ENDBRANCH  73  74
ENDBRANCH  72  73
ENDBRANCH  71  72
ENDBRANCH   1  71
TORSDOF 18
