REMARK SMILES CC(C)N(C(=O)c1c(C(=O)OCCOCCOC(=O)c2ccc(-c3c4nc(c(-c5cccc(S(=O)(=O)[O-])c5F)c5ccc([nH]5)c(-c5cccc(S(=O)(=O)[O-])c5F)c5nc(c(-c6cccc(S(=O)(=O)[O-])c6F)c6ccc3[nH]6)C=C5)C=C4)cc2)cnn1C)C(C)C
REMARK SMILES IDX 15 1 14 2 13 3 12 4 11 5 9 6 10 7 8 8 7 9 85 10 83 11 84 12
REMARK SMILES IDX 86 13 5 14 4 15 6 16 2 17 1 18 3 19 87 20 88 21 89 22 16 23
REMARK SMILES IDX 17 24 18 25 19 26 20 27 21 28 82 29 22 30 81 31 23 32 24 33
REMARK SMILES IDX 25 34 75 35 26 36 80 37 74 38 76 39 27 40 79 41 73 42 72 43
REMARK SMILES IDX 28 45 60 46 40 47 59 48 41 49 44 50 58 51 77 52 42 53 43 54
REMARK SMILES IDX 57 56 78 57 45 58 29 59 30 60 38 61 31 62 33 63 39 64 32 65
REMARK SMILES IDX 34 66 35 67 36 68 37 69 61 70 62 71 70 72 63 73 65 74 71 75
REMARK SMILES IDX 64 76 66 77 67 78 68 79 69 80 46 81 47 82 55 83 48 84 50 85
REMARK SMILES IDX 56 86 49 87 51 88 52 89 53 90 54 91
REMARK H PARENT 76 44 44 55
REMARK Flexibility Score: inf
ROOT
ATOM      1  C   UNL     1      -1.447   0.069  -5.068  1.00  0.00     0.202 C 
ENDROOT
BRANCH   1   2
ATOM      2  O   UNL     1      -2.757   0.178  -5.627  1.00  0.00    -0.374 OA
BRANCH   2   3
ATOM      3  C   UNL     1      -3.850   0.172  -4.702  1.00  0.00     0.202 C 
BRANCH   3   4
ATOM      4  C   UNL     1      -4.287  -1.215  -4.225  1.00  0.00     0.261 C 
BRANCH   4   5
ATOM      5  O   UNL     1      -3.260  -1.816  -3.418  1.00  0.00    -0.460 OA
BRANCH   5   6
ATOM      6  C   UNL     1      -2.682  -2.929  -3.942  1.00  0.00     0.342 C 
ATOM      7  O   UNL     1      -3.057  -3.488  -4.968  1.00  0.00    -0.246 OA
BRANCH   6   8
ATOM      8  C   UNL     1      -1.464  -3.344  -3.269  1.00  0.00     0.111 A 
ATOM      9  C   UNL     1      -1.018  -3.170  -1.955  1.00  0.00     0.140 A 
ATOM     10  N   UNL     1       0.063  -4.019  -1.874  1.00  0.00    -0.262 N 
ATOM     11  C   UNL     1      -0.429  -4.062  -3.908  1.00  0.00     0.151 A 
ATOM     12  N   UNL     1       0.548  -4.402  -3.071  1.00  0.00    -0.180 NA
ATOM     13  C   UNL     1       0.633  -4.636  -0.699  1.00  0.00     0.174 C 
BRANCH   9  14
ATOM     14  C   UNL     1      -1.697  -2.519  -0.850  1.00  0.00     0.273 C 
ATOM     15  N   UNL     1      -1.003  -1.613   0.010  1.00  0.00    -0.332 N 
ATOM     16  O   UNL     1      -2.890  -2.764  -0.679  1.00  0.00    -0.267 OA
BRANCH  15  17
ATOM     17  C   UNL     1       0.463  -1.347  -0.065  1.00  0.00     0.079 C 
ATOM     18  C   UNL     1       0.863   0.090  -0.408  1.00  0.00     0.031 C 
ATOM     19  C   UNL     1       1.224  -1.833   1.173  1.00  0.00     0.031 C 
ENDBRANCH  15  17
BRANCH  15  20
ATOM     20  C   UNL     1      -1.849  -0.994   1.082  1.00  0.00     0.079 C 
ATOM     21  C   UNL     1      -1.762  -1.745   2.413  1.00  0.00     0.031 C 
ATOM     22  C   UNL     1      -1.657   0.504   1.299  1.00  0.00     0.031 C 
ENDBRANCH  15  20
ENDBRANCH   9  14
ENDBRANCH   6   8
ENDBRANCH   5   6
ENDBRANCH   4   5
ENDBRANCH   3   4
ENDBRANCH   2   3
ENDBRANCH   1   2
BRANCH   1  23
ATOM     23  C   UNL     1      -0.837   1.372  -4.543  1.00  0.00     0.261 C 
BRANCH  23  24
ATOM     24  O   UNL     1      -1.560   1.878  -3.407  1.00  0.00    -0.460 OA
BRANCH  24  25
ATOM     25  C   UNL     1      -2.277   3.004  -3.646  1.00  0.00     0.338 C 
ATOM     26  O   UNL     1      -2.273   3.674  -4.666  1.00  0.00    -0.246 OA
BRANCH  25  27
ATOM     27  C   UNL     1      -3.225   3.244  -2.538  1.00  0.00     0.060 A 
ATOM     28  C   UNL     1      -4.549   3.545  -2.877  1.00  0.00     0.016 A 
ATOM     29  C   UNL     1      -2.826   3.223  -1.200  1.00  0.00     0.016 A 
ATOM     30  C   UNL     1      -5.466   3.874  -1.880  1.00  0.00     0.010 A 
ATOM     31  C   UNL     1      -3.750   3.547  -0.200  1.00  0.00     0.010 A 
ATOM     32  C   UNL     1      -5.064   3.912  -0.538  1.00  0.00    -0.014 A 
BRANCH  32  33
ATOM     33  C   UNL     1      -5.992   4.464   0.481  1.00  0.00     0.031 A 
ATOM     34  C   UNL     1      -5.808   5.881   0.954  1.00  0.00     0.074 A 
ATOM     35  C   UNL     1      -7.012   3.725   0.955  1.00  0.00     0.049 A 
ATOM     36  N   UNL     1      -6.551   6.584   1.769  1.00  0.00    -0.248 NA
ATOM     37  C   UNL     1      -4.628   6.601   0.445  1.00  0.00     0.031 C 
ATOM     38  C   UNL     1      -7.285   2.334   0.599  1.00  0.00     0.029 A 
ATOM     39  N   UNL     1      -8.004   4.046   1.848  1.00  0.00    -0.354 N 
ATOM     40  C   UNL     1      -5.927   7.820   1.882  1.00  0.00     0.074 A 
ATOM     41  C   UNL     1      -4.728   7.764   1.074  1.00  0.00     0.031 C 
ATOM     42  C   UNL     1      -8.369   1.916   1.275  1.00  0.00     0.029 A 
ATOM     43  C   UNL     1      -8.866   3.008   2.111  1.00  0.00     0.049 A 
ATOM     44  H   UNL     1      -8.091   4.935   2.260  1.00  0.00     0.167 HD
ATOM     45  C   UNL     1      -6.328   8.916   2.569  1.00  0.00     0.034 A 
ATOM     46  C   UNL     1      -9.936   2.947   2.929  1.00  0.00     0.034 A 
ATOM     47  C   UNL     1      -7.535   8.987   3.348  1.00  0.00     0.049 A 
ATOM     48  C   UNL     1     -10.367   4.183   3.675  1.00  0.00     0.074 A 
ATOM     49  C   UNL     1      -8.054  10.072   4.032  1.00  0.00     0.029 A 
ATOM     50  N   UNL     1      -8.407   7.931   3.552  1.00  0.00    -0.354 N 
ATOM     51  N   UNL     1      -9.851   5.388   3.647  1.00  0.00    -0.248 NA
ATOM     52  C   UNL     1     -11.555   4.061   4.535  1.00  0.00     0.031 C 
ATOM     53  C   UNL     1      -9.238   9.667   4.660  1.00  0.00     0.029 A 
ATOM     54  C   UNL     1      -9.458   8.333   4.359  1.00  0.00     0.049 A 
ATOM     55  H   UNL     1      -8.296   7.026   3.179  1.00  0.00     0.167 HD
ATOM     56  C   UNL     1     -10.664   6.172   4.460  1.00  0.00     0.074 A 
ATOM     57  C   UNL     1     -11.724   5.311   4.944  1.00  0.00     0.031 C 
ATOM     58  C   UNL     1     -10.535   7.481   4.791  1.00  0.00     0.034 A 
BRANCH  45  59
ATOM     59  C   UNL     1      -5.477  10.152   2.460  1.00  0.00     0.023 A 
ATOM     60  C   UNL     1      -5.522  10.916   1.277  1.00  0.00     0.012 A 
ATOM     61  C   UNL     1      -4.675  10.583   3.534  1.00  0.00     0.148 A 
ATOM     62  C   UNL     1      -4.762  12.078   1.153  1.00  0.00     0.002 A 
ATOM     63  C   UNL     1      -3.947  11.762   3.416  1.00  0.00     0.091 A 
ATOM     64  F   UNL     1      -4.623   9.826   4.639  1.00  0.00    -0.205 F 
ATOM     65  C   UNL     1      -3.983  12.506   2.225  1.00  0.00     0.022 A 
BRANCH  63  66
ATOM     66  S   UNL     1      -2.965  12.425   4.766  1.00  0.00     0.127 S 
ATOM     67  O   UNL     1      -1.608  12.090   4.336  1.00  0.00    -0.237 OA
ATOM     68  O   UNL     1      -3.286  13.851   4.714  1.00  0.00    -0.237 OA
ATOM     69  O   UNL     1      -3.430  11.744   5.966  1.00  0.00    -0.744 OA
ENDBRANCH  63  66
ENDBRANCH  45  59
BRANCH  46  70
ATOM     70  C   UNL     1     -10.720   1.685   3.032  1.00  0.00     0.023 A 
ATOM     71  C   UNL     1     -12.009   1.623   2.469  1.00  0.00     0.012 A 
ATOM     72  C   UNL     1     -10.191   0.545   3.666  1.00  0.00     0.148 A 
ATOM     73  C   UNL     1     -12.768   0.455   2.556  1.00  0.00     0.002 A 
ATOM     74  C   UNL     1     -10.932  -0.631   3.706  1.00  0.00     0.091 A 
ATOM     75  F   UNL     1      -8.973   0.631   4.218  1.00  0.00    -0.205 F 
ATOM     76  C   UNL     1     -12.226  -0.675   3.164  1.00  0.00     0.022 A 
BRANCH  74  77
ATOM     77  S   UNL     1     -10.260  -2.161   4.365  1.00  0.00     0.127 S 
ATOM     78  O   UNL     1     -10.929  -2.249   5.660  1.00  0.00    -0.237 OA
ATOM     79  O   UNL     1     -10.703  -3.143   3.374  1.00  0.00    -0.237 OA
ATOM     80  O   UNL     1      -8.817  -1.964   4.405  1.00  0.00    -0.744 OA
ENDBRANCH  74  77
ENDBRANCH  46  70
BRANCH  58  81
ATOM     81  C   UNL     1     -11.568   8.072   5.715  1.00  0.00     0.023 A 
ATOM     82  C   UNL     1     -11.541   7.743   7.085  1.00  0.00     0.012 A 
ATOM     83  C   UNL     1     -12.516   9.003   5.247  1.00  0.00     0.148 A 
ATOM     84  C   UNL     1     -12.461   8.307   7.968  1.00  0.00     0.002 A 
ATOM     85  C   UNL     1     -13.403   9.592   6.141  1.00  0.00     0.091 A 
ATOM     86  F   UNL     1     -12.544   9.289   3.937  1.00  0.00    -0.205 F 
ATOM     87  C   UNL     1     -13.384   9.239   7.500  1.00  0.00     0.022 A 
BRANCH  85  88
ATOM     88  S   UNL     1     -14.562  10.868   5.628  1.00  0.00     0.127 S 
ATOM     89  O   UNL     1     -15.795  10.102   5.459  1.00  0.00    -0.237 OA
ATOM     90  O   UNL     1     -14.562  11.777   6.776  1.00  0.00    -0.237 OA
ATOM     91  O   UNL     1     -13.999  11.441   4.413  1.00  0.00    -0.744 OA
ENDBRANCH  85  88
ENDBRANCH  58  81
ENDBRANCH  32  33
ENDBRANCH  25  27
ENDBRANCH  24  25
ENDBRANCH  23  24
ENDBRANCH   1  23
TORSDOF 20
