REMARK SMILES O=C(OCCOCCOC(=O)c1ccc(-c2c3nc(c(-c4cccc(S(=O)(=O)[O-])c4F)c4ccc([nH]4)c(-c4cccc(S(=O)(=O)[O-])c4F)c4nc(c(-c5cccc(S(=O)(=O)[O-])c5F)c5ccc2[nH]5)C=C4)C=C3)cc1)C1=Cc2c(Cl)cc(Cl)cc2O[C@@H]1C(F)(F)F
REMARK SMILES IDX 7 1 6 2 5 3 4 4 3 5 2 6 1 7 75 8 76 9 86 10 77 11 85 12
REMARK SMILES IDX 78 13 84 14 79 15 80 16 83 17 81 18 82 19 87 20 88 21 89 22
REMARK SMILES IDX 90 23 8 24 9 25 10 26 11 27 12 28 13 29 74 30 14 31 73 32
REMARK SMILES IDX 15 33 16 34 17 35 67 36 18 37 72 38 66 39 68 40 19 41 71 42
REMARK SMILES IDX 65 43 64 44 20 46 52 47 32 48 51 49 33 50 36 51 50 52 69 53
REMARK SMILES IDX 34 54 35 55 49 57 70 58 37 59 21 60 22 61 30 62 23 63 25 64
REMARK SMILES IDX 31 65 24 66 26 67 27 68 28 69 29 70 53 71 54 72 62 73 55 74
REMARK SMILES IDX 57 75 63 76 56 77 58 78 59 79 60 80 61 81 38 82 39 83 47 84
REMARK SMILES IDX 40 85 42 86 48 87 41 88 43 89 44 90 45 91 46 92
REMARK H PARENT 68 45 36 56
REMARK Flexibility Score: inf
ROOT
ATOM      1  C   UNL     1       3.001  -1.595   2.637  1.00  0.00     0.202 C 
ENDROOT
BRANCH   1   2
ATOM      2  O   UNL     1       4.230  -1.447   1.895  1.00  0.00    -0.374 OA
BRANCH   2   3
ATOM      3  C   UNL     1       4.442  -1.272   0.298  1.00  0.00     0.202 C 
BRANCH   3   4
ATOM      4  C   UNL     1       3.618   0.248  -1.041  1.00  0.00     0.261 C 
BRANCH   4   5
ATOM      5  O   UNL     1       2.636  -0.008  -2.206  1.00  0.00    -0.460 OA
BRANCH   5   6
ATOM      6  C   UNL     1       2.726  -1.240  -2.712  1.00  0.00     0.338 C 
ATOM      7  O   UNL     1       2.074  -1.786  -3.563  1.00  0.00    -0.246 OA
BRANCH   6   8
ATOM      8  C   UNL     1       3.592  -1.748  -1.677  1.00  0.00     0.087 C 
ATOM      9  C   UNL     1       4.992  -1.307  -1.904  1.00  0.00     0.029 C 
ATOM     10  C   UNL     1       2.494  -1.214  -0.170  1.00  0.00     0.316 C 
ATOM     11  C   UNL     1       5.824  -0.020  -0.913  1.00  0.00     0.036 A 
ATOM     12  O   UNL     1       3.327   0.183   0.862  1.00  0.00    -0.475 OA
ATOM     13  C   UNL     1       7.034   0.498  -1.303  1.00  0.00     0.053 A 
ATOM     14  C   UNL     1       5.005   0.754   0.411  1.00  0.00     0.130 A 
ATOM     15  Cl  UNL     1       7.982  -0.159  -2.569  1.00  0.00    -0.083 Cl
ATOM     16  C   UNL     1       7.447   1.658  -0.635  1.00  0.00     0.042 A 
ATOM     17  C   UNL     1       5.443   1.933   0.946  1.00  0.00     0.067 A 
ATOM     18  C   UNL     1       6.679   2.347   0.388  1.00  0.00     0.046 A 
ATOM     19  Cl  UNL     1       7.360   3.863   0.875  1.00  0.00    -0.084 Cl
BRANCH  10  20
ATOM     20  C   UNL     1       1.949  -2.635   0.275  1.00  0.00     0.430 C 
ATOM     21  F   UNL     1       1.024  -2.613   1.252  1.00  0.00    -0.167 F 
ATOM     22  F   UNL     1       1.318  -3.188  -0.802  1.00  0.00    -0.167 F 
ATOM     23  F   UNL     1       2.901  -3.535   0.611  1.00  0.00    -0.167 F 
ENDBRANCH  10  20
ENDBRANCH   6   8
ENDBRANCH   5   6
ENDBRANCH   4   5
ENDBRANCH   3   4
ENDBRANCH   2   3
ENDBRANCH   1   2
BRANCH   1  24
ATOM     24  C   UNL     1       3.026  -1.031   4.057  1.00  0.00     0.261 C 
BRANCH  24  25
ATOM     25  O   UNL     1       3.471   0.319   4.066  1.00  0.00    -0.460 OA
BRANCH  25  26
ATOM     26  C   UNL     1       4.807   0.434   4.232  1.00  0.00     0.338 C 
ATOM     27  O   UNL     1       5.623  -0.468   4.316  1.00  0.00    -0.246 OA
BRANCH  26  28
ATOM     28  C   UNL     1       5.161   1.859   4.311  1.00  0.00     0.060 A 
ATOM     29  C   UNL     1       6.490   2.197   4.038  1.00  0.00     0.016 A 
ATOM     30  C   UNL     1       4.224   2.843   4.660  1.00  0.00     0.016 A 
ATOM     31  C   UNL     1       6.890   3.519   4.133  1.00  0.00     0.010 A 
ATOM     32  C   UNL     1       4.626   4.170   4.757  1.00  0.00     0.010 A 
ATOM     33  C   UNL     1       5.966   4.498   4.516  1.00  0.00    -0.014 A 
BRANCH  33  34
ATOM     34  C   UNL     1       6.492   5.809   4.922  1.00  0.00     0.031 A 
ATOM     35  C   UNL     1       6.949   5.942   6.340  1.00  0.00     0.074 A 
ATOM     36  C   UNL     1       6.611   6.811   4.039  1.00  0.00     0.049 A 
ATOM     37  N   UNL     1       7.557   6.936   6.921  1.00  0.00    -0.248 NA
ATOM     38  C   UNL     1       6.691   4.786   7.220  1.00  0.00     0.031 C 
ATOM     39  C   UNL     1       6.203   6.758   2.638  1.00  0.00     0.029 A 
ATOM     40  N   UNL     1       7.118   8.071   4.198  1.00  0.00    -0.354 N 
ATOM     41  C   UNL     1       7.746   6.534   8.235  1.00  0.00     0.074 A 
ATOM     42  C   UNL     1       7.179   5.213   8.372  1.00  0.00     0.031 C 
ATOM     43  C   UNL     1       6.489   7.935   2.056  1.00  0.00     0.029 A 
ATOM     44  C   UNL     1       7.062   8.832   3.056  1.00  0.00     0.049 A 
ATOM     45  H   UNL     1       7.488   8.401   5.049  1.00  0.00     0.167 HD
ATOM     46  C   UNL     1       8.342   7.212   9.240  1.00  0.00     0.034 A 
ATOM     47  C   UNL     1       7.425  10.113   2.861  1.00  0.00     0.034 A 
ATOM     48  C   UNL     1       8.854   8.544   9.093  1.00  0.00     0.049 A 
ATOM     49  C   UNL     1       8.029  10.869   4.015  1.00  0.00     0.074 A 
ATOM     50  C   UNL     1       9.479   9.335  10.037  1.00  0.00     0.029 A 
ATOM     51  N   UNL     1       8.761   9.296   7.931  1.00  0.00    -0.354 N 
ATOM     52  N   UNL     1       8.294  10.451   5.230  1.00  0.00    -0.248 NA
ATOM     53  C   UNL     1       8.413  12.264   3.762  1.00  0.00     0.031 C 
ATOM     54  C   UNL     1       9.710  10.588   9.462  1.00  0.00     0.029 A 
ATOM     55  C   UNL     1       9.297  10.553   8.138  1.00  0.00     0.049 A 
ATOM     56  H   UNL     1       8.371   8.981   7.083  1.00  0.00     0.167 HD
ATOM     57  C   UNL     1       8.922  11.512   5.872  1.00  0.00     0.074 A 
ATOM     58  C   UNL     1       9.002  12.589   4.905  1.00  0.00     0.031 C 
ATOM     59  C   UNL     1       9.395  11.591   7.142  1.00  0.00     0.034 A 
BRANCH  46  60
ATOM     60  C   UNL     1       8.407   6.530  10.578  1.00  0.00     0.023 A 
ATOM     61  C   UNL     1       9.228   5.397  10.762  1.00  0.00     0.012 A 
ATOM     62  C   UNL     1       7.624   6.999  11.649  1.00  0.00     0.148 A 
ATOM     63  C   UNL     1       9.228   4.713  11.977  1.00  0.00     0.002 A 
ATOM     64  C   UNL     1       7.672   6.345  12.872  1.00  0.00     0.091 A 
ATOM     65  F   UNL     1       6.824   8.053  11.441  1.00  0.00    -0.205 F 
ATOM     66  C   UNL     1       8.458   5.192  13.033  1.00  0.00     0.022 A 
BRANCH  64  67
ATOM     67  S   UNL     1       6.774   6.930  14.310  1.00  0.00     0.127 S 
ATOM     68  O   UNL     1       5.765   5.885  14.474  1.00  0.00    -0.237 OA
ATOM     69  O   UNL     1       7.817   6.938  15.337  1.00  0.00    -0.237 OA
ATOM     70  O   UNL     1       6.258   8.245  13.957  1.00  0.00    -0.744 OA
ENDBRANCH  64  67
ENDBRANCH  46  60
BRANCH  47  71
ATOM     71  C   UNL     1       7.259  10.745   1.522  1.00  0.00     0.023 A 
ATOM     72  C   UNL     1       8.396  11.101   0.771  1.00  0.00     0.012 A 
ATOM     73  C   UNL     1       5.979  10.985   0.986  1.00  0.00     0.148 A 
ATOM     74  C   UNL     1       8.261  11.717  -0.474  1.00  0.00     0.002 A 
ATOM     75  C   UNL     1       5.852  11.551  -0.276  1.00  0.00     0.091 A 
ATOM     76  F   UNL     1       4.911  10.643   1.720  1.00  0.00    -0.205 F 
ATOM     77  C   UNL     1       6.991  11.935  -1.000  1.00  0.00     0.022 A 
BRANCH  75  78
ATOM     78  S   UNL     1       4.262  11.770  -1.082  1.00  0.00     0.127 S 
ATOM     79  O   UNL     1       4.184  13.224  -1.200  1.00  0.00    -0.237 OA
ATOM     80  O   UNL     1       4.468  11.058  -2.344  1.00  0.00    -0.237 OA
ATOM     81  O   UNL     1       3.279  11.160  -0.197  1.00  0.00    -0.744 OA
ENDBRANCH  75  78
ENDBRANCH  47  71
BRANCH  59  82
ATOM     82  C   UNL     1      10.104  12.858   7.542  1.00  0.00     0.023 A 
ATOM     83  C   UNL     1       9.390  14.060   7.708  1.00  0.00     0.012 A 
ATOM     84  C   UNL     1      11.484  12.827   7.828  1.00  0.00     0.148 A 
ATOM     85  C   UNL     1      10.047  15.223   8.109  1.00  0.00     0.002 A 
ATOM     86  C   UNL     1      12.119  13.972   8.287  1.00  0.00     0.091 A 
ATOM     87  F   UNL     1      12.149  11.676   7.649  1.00  0.00    -0.205 F 
ATOM     88  C   UNL     1      11.407  15.175   8.411  1.00  0.00     0.022 A 
BRANCH  86  89
ATOM     89  S   UNL     1      13.838  13.972   8.806  1.00  0.00     0.127 S 
ATOM     90  O   UNL     1      14.473  14.735   7.732  1.00  0.00    -0.237 OA
ATOM     91  O   UNL     1      13.771  14.668  10.092  1.00  0.00    -0.237 OA
ATOM     92  O   UNL     1      14.233  12.573   8.896  1.00  0.00    -0.744 OA
ENDBRANCH  86  89
ENDBRANCH  59  82
ENDBRANCH  33  34
ENDBRANCH  26  28
ENDBRANCH  25  26
ENDBRANCH  24  25
ENDBRANCH   1  24
TORSDOF 18
