REMARK SMILES C[C@@H]1Cc2ccccc2N1C(=O)CSc1ncc(C(=O)OCCOCCOC(=O)c2ccc(-c3c4nc(c(-c5cccc(S(=O)(=O)[O-])c5F)c5ccc([nH]5)c(-c5cccc(S(=O)(=O)[O-])c5F)c5nc(c(-c6cccc(S(=O)(=O)[O-])c6F)c6ccc3[nH]6)C=C5)C=C4)cc2)n1-c1ccc(F)cc1
REMARK SMILES IDX 23 1 22 2 21 3 19 4 20 5 18 6 15 7 16 8 93 9 17 10 14 11
REMARK SMILES IDX 13 12 11 13 12 14 10 15 1 16 2 17 3 18 4 19 9 20 5 21 8 22
REMARK SMILES IDX 6 23 7 24 94 25 95 26 100 27 96 28 99 29 97 30 98 31 24 32
REMARK SMILES IDX 25 33 26 34 27 35 28 36 29 37 30 38 31 39 92 40 32 41 91 42
REMARK SMILES IDX 33 43 34 44 35 45 85 46 36 47 90 48 84 49 86 50 37 51 89 52
REMARK SMILES IDX 83 53 82 54 38 56 70 57 50 58 69 59 51 60 54 61 68 62 87 63
REMARK SMILES IDX 52 64 53 65 67 67 88 68 55 69 39 70 40 71 48 72 41 73 43 74
REMARK SMILES IDX 49 75 42 76 44 77 45 78 46 79 47 80 71 81 72 82 80 83 73 84
REMARK SMILES IDX 75 85 81 86 74 87 76 88 77 89 78 90 79 91 56 92 57 93 65 94
REMARK SMILES IDX 58 95 60 96 66 97 59 98 61 99 62 100 63 101 64 102
REMARK H PARENT 86 55 54 66
REMARK Flexibility Score: inf
ROOT
ATOM      1  C   UNL     1      -7.773   6.322   4.132  1.00  0.00     0.202 C 
ENDROOT
BRANCH   1   2
ATOM      2  C   UNL     1      -7.440   5.591   2.828  1.00  0.00     0.261 C 
BRANCH   2   3
ATOM      3  O   UNL     1      -6.307   4.734   2.963  1.00  0.00    -0.459 OA
BRANCH   3   4
ATOM      4  C   UNL     1      -5.184   5.258   2.398  1.00  0.00     0.357 C 
ATOM      5  O   UNL     1      -5.130   6.253   1.711  1.00  0.00    -0.244 OA
BRANCH   4   6
ATOM      6  C   UNL     1      -4.044   4.518   2.845  1.00  0.00     0.152 A 
ATOM      7  C   UNL     1      -1.950   4.073   3.334  1.00  0.00     0.173 A 
ATOM      8  N   UNL     1      -2.556   2.918   3.463  1.00  0.00    -0.230 NA
ATOM      9  N   UNL     1      -2.814   5.099   3.054  1.00  0.00    -0.282 N 
ATOM     10  C   UNL     1      -3.871   3.190   3.177  1.00  0.00     0.148 A 
BRANCH   7  11
ATOM     11  S   UNL     1      -0.262   4.348   3.489  1.00  0.00    -0.078 SA
BRANCH  11  12
ATOM     12  C   UNL     1       0.245   4.149   1.750  1.00  0.00     0.178 C 
BRANCH  12  13
ATOM     13  C   UNL     1       0.236   2.712   1.264  1.00  0.00     0.237 C 
ATOM     14  O   UNL     1      -0.330   2.469   0.189  1.00  0.00    -0.274 OA
BRANCH  13  15
ATOM     15  N   UNL     1       0.875   1.710   1.966  1.00  0.00    -0.308 N 
ATOM     16  C   UNL     1      -0.879  -0.110   1.705  1.00  0.00     0.032 C 
ATOM     17  C   UNL     1       0.603   0.283   1.658  1.00  0.00     0.092 C 
ATOM     18  C   UNL     1       1.405  -0.551   2.683  1.00  0.00     0.063 C 
ATOM     19  C   UNL     1       2.066   0.504   3.512  1.00  0.00    -0.022 A 
ATOM     20  C   UNL     1       1.829   1.776   3.002  1.00  0.00     0.047 A 
ATOM     21  C   UNL     1       2.841   0.312   4.649  1.00  0.00     0.006 A 
ATOM     22  C   UNL     1       2.512   2.860   3.534  1.00  0.00     0.026 A 
ATOM     23  C   UNL     1       3.417   1.425   5.262  1.00  0.00     0.000 A 
ATOM     24  C   UNL     1       3.274   2.692   4.691  1.00  0.00     0.002 A 
ENDBRANCH  13  15
ENDBRANCH  12  13
ENDBRANCH  11  12
ENDBRANCH   7  11
BRANCH   9  25
ATOM     25  C   UNL     1      -2.545   6.477   3.201  1.00  0.00     0.049 A 
ATOM     26  C   UNL     1      -2.033   7.199   2.122  1.00  0.00     0.030 A 
ATOM     27  C   UNL     1      -2.749   7.080   4.448  1.00  0.00     0.030 A 
ATOM     28  C   UNL     1      -1.737   8.550   2.298  1.00  0.00     0.041 A 
ATOM     29  C   UNL     1      -2.492   8.440   4.601  1.00  0.00     0.041 A 
ATOM     30  C   UNL     1      -1.980   9.160   3.527  1.00  0.00     0.123 A 
ATOM     31  F   UNL     1      -1.698  10.460   3.684  1.00  0.00    -0.207 F 
ENDBRANCH   9  25
ENDBRANCH   4   6
ENDBRANCH   3   4
ENDBRANCH   2   3
ENDBRANCH   1   2
BRANCH   1  32
ATOM     32  O   UNL     1      -6.757   6.998   4.862  1.00  0.00    -0.374 OA
BRANCH  32  33
ATOM     33  C   UNL     1      -5.841   6.216   5.624  1.00  0.00     0.202 C 
BRANCH  33  34
ATOM     34  C   UNL     1      -6.305   5.372   6.827  1.00  0.00     0.261 C 
BRANCH  34  35
ATOM     35  O   UNL     1      -7.264   4.379   6.457  1.00  0.00    -0.460 OA
BRANCH  35  36
ATOM     36  C   UNL     1      -8.407   4.374   7.199  1.00  0.00     0.338 C 
ATOM     37  O   UNL     1      -8.545   4.765   8.344  1.00  0.00    -0.246 OA
BRANCH  36  38
ATOM     38  C   UNL     1      -9.499   4.191   6.220  1.00  0.00     0.060 A 
ATOM     39  C   UNL     1      -9.381   3.223   5.217  1.00  0.00     0.016 A 
ATOM     40  C   UNL     1     -10.395   5.268   6.093  1.00  0.00     0.016 A 
ATOM     41  C   UNL     1     -10.082   3.404   4.032  1.00  0.00     0.010 A 
ATOM     42  C   UNL     1     -11.069   5.459   4.891  1.00  0.00     0.010 A 
ATOM     43  C   UNL     1     -10.875   4.554   3.845  1.00  0.00    -0.014 A 
BRANCH  43  44
ATOM     44  C   UNL     1     -11.686   4.626   2.628  1.00  0.00     0.031 A 
ATOM     45  C   UNL     1     -12.741   3.575   2.641  1.00  0.00     0.074 A 
ATOM     46  C   UNL     1     -11.629   5.558   1.651  1.00  0.00     0.049 A 
ATOM     47  N   UNL     1     -12.846   2.549   1.863  1.00  0.00    -0.248 NA
ATOM     48  C   UNL     1     -13.667   3.568   3.787  1.00  0.00     0.031 C 
ATOM     49  C   UNL     1     -10.854   6.798   1.609  1.00  0.00     0.029 A 
ATOM     50  N   UNL     1     -12.372   5.637   0.503  1.00  0.00    -0.354 N 
ATOM     51  C   UNL     1     -13.988   1.883   2.297  1.00  0.00     0.074 A 
ATOM     52  C   UNL     1     -14.335   2.436   3.579  1.00  0.00     0.031 C 
ATOM     53  C   UNL     1     -11.341   7.604   0.636  1.00  0.00     0.029 A 
ATOM     54  C   UNL     1     -12.384   6.903  -0.089  1.00  0.00     0.049 A 
ATOM     55  H   UNL     1     -12.857   4.867   0.127  1.00  0.00     0.167 HD
ATOM     56  C   UNL     1     -14.722   1.093   1.471  1.00  0.00     0.034 A 
ATOM     57  C   UNL     1     -13.250   7.349  -1.040  1.00  0.00     0.034 A 
ATOM     58  C   UNL     1     -14.003   0.722   0.287  1.00  0.00     0.049 A 
ATOM     59  C   UNL     1     -13.819   6.150  -1.694  1.00  0.00     0.074 A 
ATOM     60  C   UNL     1     -12.845   0.018   0.027  1.00  0.00     0.029 A 
ATOM     61  N   UNL     1     -14.283   1.431  -0.854  1.00  0.00    -0.354 N 
ATOM     62  N   UNL     1     -13.125   5.328  -2.427  1.00  0.00    -0.248 NA
ATOM     63  C   UNL     1     -15.085   5.644  -1.194  1.00  0.00     0.031 C 
ATOM     64  C   UNL     1     -12.238   0.702  -1.065  1.00  0.00     0.029 A 
ATOM     65  C   UNL     1     -13.086   1.746  -1.438  1.00  0.00     0.049 A 
ATOM     66  H   UNL     1     -15.177   1.669  -1.189  1.00  0.00     0.167 HD
ATOM     67  C   UNL     1     -13.633   4.079  -2.103  1.00  0.00     0.074 A 
ATOM     68  C   UNL     1     -14.895   4.342  -1.415  1.00  0.00     0.031 C 
ATOM     69  C   UNL     1     -12.847   2.969  -2.167  1.00  0.00     0.034 A 
BRANCH  56  70
ATOM     70  C   UNL     1     -16.215   0.966   1.575  1.00  0.00     0.023 A 
ATOM     71  C   UNL     1     -16.842  -0.107   0.914  1.00  0.00     0.012 A 
ATOM     72  C   UNL     1     -17.044   1.998   2.076  1.00  0.00     0.148 A 
ATOM     73  C   UNL     1     -18.232  -0.150   0.759  1.00  0.00     0.002 A 
ATOM     74  C   UNL     1     -18.426   1.913   1.989  1.00  0.00     0.091 A 
ATOM     75  F   UNL     1     -16.493   3.133   2.522  1.00  0.00    -0.205 F 
ATOM     76  C   UNL     1     -19.026   0.851   1.311  1.00  0.00     0.022 A 
BRANCH  74  77
ATOM     77  S   UNL     1     -19.491   3.167   2.708  1.00  0.00     0.127 S 
ATOM     78  O   UNL     1     -19.972   3.860   1.516  1.00  0.00    -0.237 OA
ATOM     79  O   UNL     1     -20.490   2.350   3.398  1.00  0.00    -0.237 OA
ATOM     80  O   UNL     1     -18.635   3.939   3.599  1.00  0.00    -0.744 OA
ENDBRANCH  74  77
ENDBRANCH  56  70
BRANCH  57  81
ATOM     81  C   UNL     1     -13.886   8.684  -1.242  1.00  0.00     0.023 A 
ATOM     82  C   UNL     1     -14.652   8.910  -2.411  1.00  0.00     0.012 A 
ATOM     83  C   UNL     1     -14.033   9.599  -0.179  1.00  0.00     0.148 A 
ATOM     84  C   UNL     1     -15.584   9.955  -2.485  1.00  0.00     0.002 A 
ATOM     85  C   UNL     1     -14.955  10.642  -0.260  1.00  0.00     0.091 A 
ATOM     86  F   UNL     1     -13.348   9.393   0.952  1.00  0.00    -0.205 F 
ATOM     87  C   UNL     1     -15.747  10.811  -1.402  1.00  0.00     0.022 A 
BRANCH  85  88
ATOM     88  S   UNL     1     -15.228  11.776   1.109  1.00  0.00     0.127 S 
ATOM     89  O   UNL     1     -15.273  13.071   0.429  1.00  0.00    -0.237 OA
ATOM     90  O   UNL     1     -16.510  11.314   1.633  1.00  0.00    -0.237 OA
ATOM     91  O   UNL     1     -14.083  11.606   1.994  1.00  0.00    -0.744 OA
ENDBRANCH  85  88
ENDBRANCH  57  81
BRANCH  69  92
ATOM     92  C   UNL     1     -11.506   3.087  -2.840  1.00  0.00     0.023 A 
ATOM     93  C   UNL     1     -10.437   3.817  -2.278  1.00  0.00     0.012 A 
ATOM     94  C   UNL     1     -11.270   2.276  -3.960  1.00  0.00     0.148 A 
ATOM     95  C   UNL     1      -9.153   3.729  -2.825  1.00  0.00     0.002 A 
ATOM     96  C   UNL     1      -9.988   2.161  -4.476  1.00  0.00     0.091 A 
ATOM     97  F   UNL     1     -12.305   1.590  -4.468  1.00  0.00    -0.205 F 
ATOM     98  C   UNL     1      -8.925   2.887  -3.913  1.00  0.00     0.022 A 
BRANCH  96  99
ATOM     99  S   UNL     1      -9.607   1.018  -5.804  1.00  0.00     0.127 S 
ATOM    100  O   UNL     1      -9.225   1.924  -6.886  1.00  0.00    -0.237 OA
ATOM    101  O   UNL     1      -8.504   0.242  -5.235  1.00  0.00    -0.237 OA
ATOM    102  O   UNL     1     -10.822   0.249  -6.041  1.00  0.00    -0.744 OA
ENDBRANCH  96  99
ENDBRANCH  69  92
ENDBRANCH  43  44
ENDBRANCH  36  38
ENDBRANCH  35  36
ENDBRANCH  34  35
ENDBRANCH  33  34
ENDBRANCH  32  33
ENDBRANCH   1  32
TORSDOF 22
