REMARK SMILES CCCCn1cc(C(N)=O)c2cc(C(=O)OCCOCCOC(=O)c3ccc(-c4c5nc(c(-c6cccc(S(=O)(=O)[O-])c6F)c6ccc([nH]6)c(-c6cccc(S(=O)(=O)[O-])c6F)c6nc(c(-c7cccc(S(=O)(=O)[O-])c7F)c7ccc4[nH]7)C=C6)C=C5)cc3)cnc21
REMARK SMILES IDX 19 1 18 2 17 3 16 4 14 5 15 6 13 7 5 8 6 9 90 10 7 11 11 12
REMARK SMILES IDX 89 13 12 14 88 15 4 16 3 17 2 18 1 19 8 20 9 21 10 22 20 25
REMARK SMILES IDX 21 26 22 27 23 28 24 29 25 30 26 31 87 32 27 33 86 34 28 35
REMARK SMILES IDX 29 36 30 37 80 38 31 39 85 40 79 41 81 42 32 43 84 44 78 45
REMARK SMILES IDX 77 46 33 48 65 49 45 50 64 51 46 52 49 53 63 54 82 55 47 56
REMARK SMILES IDX 48 57 62 59 83 60 50 61 34 62 35 63 43 64 36 65 38 66 44 67
REMARK SMILES IDX 37 68 39 69 40 70 41 71 42 72 66 73 67 74 75 75 68 76 70 77
REMARK SMILES IDX 76 78 69 79 71 80 72 81 73 82 74 83 51 84 52 85 60 86 53 87
REMARK SMILES IDX 55 88 61 89 54 90 56 91 57 92 58 93 59 94
REMARK H PARENT 9 23 9 24 81 47 49 58
REMARK Flexibility Score: inf
ROOT
ATOM      1  O   UNL     1      -7.449  -6.659   3.647  1.00  0.00    -0.374 OA
ENDROOT
BRANCH   1   2
ATOM      2  C   UNL     1      -6.865  -7.960   3.723  1.00  0.00     0.202 C 
BRANCH   2   3
ATOM      3  C   UNL     1      -5.894  -8.396   2.625  1.00  0.00     0.261 C 
BRANCH   3   4
ATOM      4  O   UNL     1      -4.742  -7.541   2.519  1.00  0.00    -0.460 OA
BRANCH   4   5
ATOM      5  C   UNL     1      -4.708  -6.797   1.392  1.00  0.00     0.339 C 
ATOM      6  O   UNL     1      -5.501  -6.841   0.455  1.00  0.00    -0.246 OA
BRANCH   5   7
ATOM      7  C   UNL     1      -3.709  -5.729   1.492  1.00  0.00     0.079 A 
ATOM      8  N   UNL     1      -1.059  -2.679   1.289  1.00  0.00    -0.332 N 
ATOM      9  C   UNL     1      -1.851  -1.586   1.064  1.00  0.00     0.102 A 
ATOM     10  C   UNL     1      -1.853  -3.782   1.479  1.00  0.00     0.140 A 
ATOM     11  C   UNL     1      -3.165  -1.997   0.909  1.00  0.00     0.066 A 
ATOM     12  C   UNL     1      -3.163  -3.407   1.164  1.00  0.00     0.033 A 
ATOM     13  N   UNL     1      -1.423  -5.009   1.849  1.00  0.00    -0.237 NA
ATOM     14  C   UNL     1      -4.113  -4.439   1.130  1.00  0.00     0.030 A 
ATOM     15  C   UNL     1      -2.399  -5.949   1.877  1.00  0.00     0.129 A 
BRANCH   8  16
ATOM     16  C   UNL     1       0.394  -2.666   1.282  1.00  0.00     0.123 C 
BRANCH  16  17
ATOM     17  C   UNL     1       1.008  -2.526  -0.121  1.00  0.00     0.022 C 
BRANCH  17  18
ATOM     18  C   UNL     1       0.773  -1.195  -0.849  1.00  0.00    -0.002 C 
ATOM     19  C   UNL     1       1.261   0.029  -0.087  1.00  0.00     0.004 C 
ENDBRANCH  17  18
ENDBRANCH  16  17
ENDBRANCH   8  16
BRANCH  11  20
ATOM     20  C   UNL     1      -4.228  -1.078   0.530  1.00  0.00     0.250 C 
ATOM     21  N   UNL     1      -5.507  -1.474   0.769  1.00  0.00    -0.366 N 
ATOM     22  O   UNL     1      -4.016   0.027   0.027  1.00  0.00    -0.269 OA
ATOM     23  H   UNL     1      -5.683  -2.355   1.171  1.00  0.00     0.159 HD
ATOM     24  H   UNL     1      -6.257  -0.878   0.541  1.00  0.00     0.159 HD
ENDBRANCH  11  20
ENDBRANCH   5   7
ENDBRANCH   4   5
ENDBRANCH   3   4
ENDBRANCH   2   3
ENDBRANCH   1   2
BRANCH   1  25
ATOM     25  C   UNL     1      -6.646  -5.498   3.834  1.00  0.00     0.202 C 
BRANCH  25  26
ATOM     26  C   UNL     1      -6.064  -5.196   5.207  1.00  0.00     0.261 C 
BRANCH  26  27
ATOM     27  O   UNL     1      -5.289  -6.269   5.707  1.00  0.00    -0.460 OA
BRANCH  27  28
ATOM     28  C   UNL     1      -5.970  -7.038   6.577  1.00  0.00     0.338 C 
ATOM     29  O   UNL     1      -7.192  -7.070   6.741  1.00  0.00    -0.246 OA
BRANCH  28  30
ATOM     30  C   UNL     1      -5.033  -7.767   7.417  1.00  0.00     0.060 A 
ATOM     31  C   UNL     1      -5.602  -8.678   8.310  1.00  0.00     0.016 A 
ATOM     32  C   UNL     1      -3.754  -7.222   7.593  1.00  0.00     0.016 A 
ATOM     33  C   UNL     1      -5.001  -8.826   9.532  1.00  0.00     0.010 A 
ATOM     34  C   UNL     1      -3.177  -7.342   8.827  1.00  0.00     0.010 A 
ATOM     35  C   UNL     1      -3.860  -8.066   9.800  1.00  0.00    -0.014 A 
BRANCH  35  36
ATOM     36  C   UNL     1      -3.318  -8.119  11.131  1.00  0.00     0.031 A 
ATOM     37  C   UNL     1      -2.478  -9.314  11.326  1.00  0.00     0.074 A 
ATOM     38  C   UNL     1      -3.513  -7.136  12.025  1.00  0.00     0.049 A 
ATOM     39  N   UNL     1      -2.798 -10.394  11.956  1.00  0.00    -0.248 NA
ATOM     40  C   UNL     1      -1.243  -9.413  10.532  1.00  0.00     0.031 C 
ATOM     41  C   UNL     1      -4.084  -5.803  11.809  1.00  0.00     0.029 A 
ATOM     42  N   UNL     1      -3.105  -7.089  13.317  1.00  0.00    -0.354 N 
ATOM     43  C   UNL     1      -1.673 -11.199  11.853  1.00  0.00     0.074 A 
ATOM     44  C   UNL     1      -0.879 -10.672  10.775  1.00  0.00     0.031 C 
ATOM     45  C   UNL     1      -3.755  -5.010  12.857  1.00  0.00     0.029 A 
ATOM     46  C   UNL     1      -3.069  -5.809  13.858  1.00  0.00     0.049 A 
ATOM     47  H   UNL     1      -2.856  -7.893  13.828  1.00  0.00     0.167 HD
ATOM     48  C   UNL     1      -1.306 -12.025  12.866  1.00  0.00     0.034 A 
ATOM     49  C   UNL     1      -2.420  -5.460  14.998  1.00  0.00     0.034 A 
ATOM     50  C   UNL     1      -2.363 -12.220  13.820  1.00  0.00     0.049 A 
ATOM     51  C   UNL     1      -2.226  -6.715  15.771  1.00  0.00     0.074 A 
ATOM     52  C   UNL     1      -3.651 -12.711  13.763  1.00  0.00     0.029 A 
ATOM     53  N   UNL     1      -2.279 -11.484  14.977  1.00  0.00    -0.354 N 
ATOM     54  N   UNL     1      -3.204  -7.411  16.280  1.00  0.00    -0.248 NA
ATOM     55  C   UNL     1      -0.965  -7.424  15.618  1.00  0.00     0.031 C 
ATOM     56  C   UNL     1      -4.399 -11.890  14.655  1.00  0.00     0.029 A 
ATOM     57  C   UNL     1      -3.522 -10.977  15.245  1.00  0.00     0.049 A 
ATOM     58  H   UNL     1      -1.468 -11.345  15.517  1.00  0.00     0.167 HD
ATOM     59  C   UNL     1      -2.821  -8.733  16.092  1.00  0.00     0.074 A 
ATOM     60  C   UNL     1      -1.393  -8.678  15.789  1.00  0.00     0.031 C 
ATOM     61  C   UNL     1      -3.753  -9.711  15.906  1.00  0.00     0.034 A 
BRANCH  48  62
ATOM     62  C   UNL     1       0.130 -12.311  13.197  1.00  0.00     0.023 A 
ATOM     63  C   UNL     1       0.414 -13.428  14.001  1.00  0.00     0.012 A 
ATOM     64  C   UNL     1       1.181 -11.394  12.959  1.00  0.00     0.148 A 
ATOM     65  C   UNL     1       1.691 -13.629  14.534  1.00  0.00     0.002 A 
ATOM     66  C   UNL     1       2.468 -11.647  13.407  1.00  0.00     0.091 A 
ATOM     67  F   UNL     1       0.915 -10.198  12.423  1.00  0.00    -0.205 F 
ATOM     68  C   UNL     1       2.725 -12.752  14.217  1.00  0.00     0.022 A 
BRANCH  66  69
ATOM     69  S   UNL     1       3.833 -10.568  12.967  1.00  0.00     0.127 S 
ATOM     70  O   UNL     1       4.037  -9.833  14.211  1.00  0.00    -0.237 OA
ATOM     71  O   UNL     1       4.882 -11.532  12.633  1.00  0.00    -0.237 OA
ATOM     72  O   UNL     1       3.357  -9.792  11.828  1.00  0.00    -0.744 OA
ENDBRANCH  66  69
ENDBRANCH  48  62
BRANCH  49  73
ATOM     73  C   UNL     1      -1.675  -4.222  15.347  1.00  0.00     0.023 A 
ATOM     74  C   UNL     1      -1.226  -4.057  16.676  1.00  0.00     0.012 A 
ATOM     75  C   UNL     1      -1.133  -3.370  14.360  1.00  0.00     0.148 A 
ATOM     76  C   UNL     1      -0.221  -3.137  16.997  1.00  0.00     0.002 A 
ATOM     77  C   UNL     1      -0.141  -2.446  14.686  1.00  0.00     0.091 A 
ATOM     78  F   UNL     1      -1.509  -3.527  13.085  1.00  0.00    -0.205 F 
ATOM     79  C   UNL     1       0.332  -2.342  15.999  1.00  0.00     0.022 A 
BRANCH  77  80
ATOM     80  S   UNL     1       0.625  -1.391  13.446  1.00  0.00     0.127 S 
ATOM     81  O   UNL     1       0.663  -0.096  14.127  1.00  0.00    -0.237 OA
ATOM     82  O   UNL     1       1.926  -2.027  13.268  1.00  0.00    -0.237 OA
ATOM     83  O   UNL     1      -0.265  -1.430  12.292  1.00  0.00    -0.744 OA
ENDBRANCH  77  80
ENDBRANCH  49  73
BRANCH  61  84
ATOM     84  C   UNL     1      -5.194  -9.373  16.185  1.00  0.00     0.023 A 
ATOM     85  C   UNL     1      -5.944  -8.518  15.351  1.00  0.00     0.012 A 
ATOM     86  C   UNL     1      -5.850 -10.098  17.192  1.00  0.00     0.148 A 
ATOM     87  C   UNL     1      -7.327  -8.392  15.520  1.00  0.00     0.002 A 
ATOM     88  C   UNL     1      -7.227 -10.000  17.332  1.00  0.00     0.091 A 
ATOM     89  F   UNL     1      -5.113 -10.911  17.963  1.00  0.00    -0.205 F 
ATOM     90  C   UNL     1      -7.970  -9.146  16.500  1.00  0.00     0.022 A 
BRANCH  88  91
ATOM     91  S   UNL     1      -8.132 -11.024  18.494  1.00  0.00     0.127 S 
ATOM     92  O   UNL     1      -8.632 -10.036  19.448  1.00  0.00    -0.237 OA
ATOM     93  O   UNL     1      -9.158 -11.627  17.642  1.00  0.00    -0.237 OA
ATOM     94  O   UNL     1      -7.168 -11.975  19.035  1.00  0.00    -0.744 OA
ENDBRANCH  88  91
ENDBRANCH  61  84
ENDBRANCH  35  36
ENDBRANCH  28  30
ENDBRANCH  27  28
ENDBRANCH  26  27
ENDBRANCH  25  26
ENDBRANCH   1  25
TORSDOF 21
