REMARK SMILES O=C(CCC(=O)N1N=C(c2ccc(F)cc2)C[C@@H]1c1ccc2nccnc2c1)OCCOCCOC(=O)c1ccc(-c2c3nc(c(-c4cccc(S(=O)(=O)[O-])c4F)c4ccc([nH]4)c(-c4cccc(S(=O)(=O)[O-])c4F)c4nc(c(-c5cccc(S(=O)(=O)[O-])c5F)c5ccc2[nH]5)C=C4)C=C3)cc1
REMARK SMILES IDX 31 1 30 2 29 3 2 4 1 5 3 6 4 7 5 8 6 9 7 10 8 11 18 12 9 13
REMARK SMILES IDX 17 14 19 15 20 16 28 17 21 18 27 19 22 20 26 21 23 22 25 23
REMARK SMILES IDX 24 24 10 25 11 26 16 27 12 28 15 29 13 30 14 31 32 32 33 33
REMARK SMILES IDX 34 34 35 35 36 36 37 37 38 38 39 39 100 40 40 41 99 42 41 43
REMARK SMILES IDX 42 44 43 45 93 46 44 47 98 48 92 49 94 50 45 51 97 52 91 53
REMARK SMILES IDX 90 54 46 56 78 57 58 58 77 59 59 60 62 61 76 62 95 63 60 64
REMARK SMILES IDX 61 65 75 67 96 68 63 69 47 70 48 71 56 72 49 73 51 74 57 75
REMARK SMILES IDX 50 76 52 77 53 78 54 79 55 80 79 81 80 82 88 83 81 84 83 85
REMARK SMILES IDX 89 86 82 87 84 88 85 89 86 90 87 91 64 92 65 93 73 94 66 95
REMARK SMILES IDX 68 96 74 97 67 98 69 99 70 100 71 101 72 102
REMARK H PARENT 94 55 62 66
REMARK Flexibility Score: inf
ROOT
ATOM      1  C   UNL     1       5.320   0.185  -2.898  1.00  0.00     0.202 C 
ENDROOT
BRANCH   1   2
ATOM      2  C   UNL     1       5.086   1.212  -1.799  1.00  0.00     0.261 C 
BRANCH   2   3
ATOM      3  O   UNL     1       3.832   0.873  -1.188  1.00  0.00    -0.463 OA
BRANCH   3   4
ATOM      4  C   UNL     1       2.745   1.663  -1.313  1.00  0.00     0.306 C 
ATOM      5  O   UNL     1       1.649   1.238  -1.658  1.00  0.00    -0.252 OA
BRANCH   4   6
ATOM      6  C   UNL     1       2.921   2.964  -0.611  1.00  0.00     0.132 C 
BRANCH   6   7
ATOM      7  C   UNL     1       3.002   2.649   0.874  1.00  0.00     0.114 C 
BRANCH   7   8
ATOM      8  C   UNL     1       4.262   1.868   1.214  1.00  0.00     0.243 C 
ATOM      9  O   UNL     1       5.344   2.463   1.111  1.00  0.00    -0.273 OA
BRANCH   8  10
ATOM     10  N   UNL     1       4.153   0.580   1.734  1.00  0.00    -0.225 N 
ATOM     11  N   UNL     1       4.805   0.493   2.931  1.00  0.00    -0.174 NA
ATOM     12  C   UNL     1       3.109  -0.488   1.618  1.00  0.00     0.147 C 
ATOM     13  C   UNL     1       4.164  -0.342   3.681  1.00  0.00     0.071 C 
ATOM     14  C   UNL     1       3.071  -1.118   3.016  1.00  0.00     0.091 C 
BRANCH  12  15
ATOM     15  C   UNL     1       3.301  -1.587   0.550  1.00  0.00    -0.021 A 
ATOM     16  C   UNL     1       1.872  -2.603   0.164  1.00  0.00     0.008 A 
ATOM     17  C   UNL     1       4.786  -1.794  -0.441  1.00  0.00     0.036 A 
ATOM     18  C   UNL     1       1.921  -3.799  -1.184  1.00  0.00     0.031 A 
ATOM     19  C   UNL     1       4.894  -3.022  -1.788  1.00  0.00     0.089 A 
ATOM     20  C   UNL     1       3.408  -3.996  -2.207  1.00  0.00     0.089 A 
ATOM     21  N   UNL     1       5.998  -3.266  -2.506  1.00  0.00    -0.253 NA
ATOM     22  N   UNL     1       3.475  -4.828  -3.249  1.00  0.00    -0.253 NA
ATOM     23  C   UNL     1       5.864  -4.214  -3.480  1.00  0.00     0.132 A 
ATOM     24  C   UNL     1       4.698  -4.927  -3.829  1.00  0.00     0.132 A 
ENDBRANCH  12  15
BRANCH  13  25
ATOM     25  C   UNL     1       4.459  -0.412   5.119  1.00  0.00    -0.002 A 
ATOM     26  C   UNL     1       4.345  -1.588   5.856  1.00  0.00     0.013 A 
ATOM     27  C   UNL     1       4.932   0.772   5.716  1.00  0.00     0.013 A 
ATOM     28  C   UNL     1       4.803  -1.594   7.175  1.00  0.00     0.040 A 
ATOM     29  C   UNL     1       5.389   0.756   7.023  1.00  0.00     0.040 A 
ATOM     30  C   UNL     1       5.361  -0.438   7.720  1.00  0.00     0.123 A 
ATOM     31  F   UNL     1       5.969  -0.483   8.904  1.00  0.00    -0.207 F 
ENDBRANCH  13  25
ENDBRANCH   8  10
ENDBRANCH   7   8
ENDBRANCH   6   7
ENDBRANCH   4   6
ENDBRANCH   3   4
ENDBRANCH   2   3
ENDBRANCH   1   2
BRANCH   1  32
ATOM     32  O   UNL     1       4.064  -0.137  -3.487  1.00  0.00    -0.374 OA
BRANCH  32  33
ATOM     33  C   UNL     1       3.531  -1.453  -3.249  1.00  0.00     0.202 C 
BRANCH  33  34
ATOM     34  C   UNL     1       2.944  -1.900  -1.736  1.00  0.00     0.261 C 
BRANCH  34  35
ATOM     35  O   UNL     1       3.610  -3.272  -0.417  1.00  0.00    -0.460 OA
BRANCH  35  36
ATOM     36  C   UNL     1       3.915  -4.527   0.194  1.00  0.00     0.338 C 
ATOM     37  O   UNL     1       3.635  -5.642  -0.239  1.00  0.00    -0.246 OA
BRANCH  36  38
ATOM     38  C   UNL     1       4.665  -4.495   1.460  1.00  0.00     0.060 A 
ATOM     39  C   UNL     1       6.008  -4.106   1.498  1.00  0.00     0.016 A 
ATOM     40  C   UNL     1       4.106  -5.225   2.516  1.00  0.00     0.016 A 
ATOM     41  C   UNL     1       6.806  -4.491   2.576  1.00  0.00     0.010 A 
ATOM     42  C   UNL     1       4.901  -5.605   3.590  1.00  0.00     0.010 A 
ATOM     43  C   UNL     1       6.266  -5.285   3.595  1.00  0.00    -0.014 A 
BRANCH  43  44
ATOM     44  C   UNL     1       7.134  -5.910   4.614  1.00  0.00     0.031 A 
ATOM     45  C   UNL     1       7.473  -7.370   4.495  1.00  0.00     0.074 A 
ATOM     46  C   UNL     1       7.532  -5.185   5.672  1.00  0.00     0.049 A 
ATOM     47  N   UNL     1       8.113  -8.135   5.337  1.00  0.00    -0.248 NA
ATOM     48  C   UNL     1       7.046  -8.058   3.263  1.00  0.00     0.031 C 
ATOM     49  C   UNL     1       7.280  -3.757   5.853  1.00  0.00     0.029 A 
ATOM     50  N   UNL     1       8.174  -5.563   6.822  1.00  0.00    -0.354 N 
ATOM     51  C   UNL     1       8.179  -9.388   4.738  1.00  0.00     0.074 A 
ATOM     52  C   UNL     1       7.476  -9.295   3.478  1.00  0.00     0.031 C 
ATOM     53  C   UNL     1       7.671  -3.401   7.087  1.00  0.00     0.029 A 
ATOM     54  C   UNL     1       8.177  -4.577   7.779  1.00  0.00     0.049 A 
ATOM     55  H   UNL     1       8.588  -6.447   6.949  1.00  0.00     0.167 HD
ATOM     56  C   UNL     1       8.807 -10.499   5.190  1.00  0.00     0.034 A 
ATOM     57  C   UNL     1       8.514  -4.627   9.080  1.00  0.00     0.034 A 
ATOM     58  C   UNL     1       9.514 -10.548   6.442  1.00  0.00     0.049 A 
ATOM     59  C   UNL     1       9.125  -5.891   9.602  1.00  0.00     0.074 A 
ATOM     60  C   UNL     1      10.275 -11.578   6.963  1.00  0.00     0.029 A 
ATOM     61  N   UNL     1       9.532  -9.521   7.375  1.00  0.00    -0.354 N 
ATOM     62  N   UNL     1       9.304  -7.029   8.975  1.00  0.00    -0.248 NA
ATOM     63  C   UNL     1       9.651  -5.861  10.971  1.00  0.00     0.031 C 
ATOM     64  C   UNL     1      10.733 -11.181   8.224  1.00  0.00     0.029 A 
ATOM     65  C   UNL     1      10.275  -9.897   8.479  1.00  0.00     0.049 A 
ATOM     66  H   UNL     1       9.081  -8.653   7.267  1.00  0.00     0.167 HD
ATOM     67  C   UNL     1      10.022  -7.833   9.847  1.00  0.00     0.074 A 
ATOM     68  C   UNL     1      10.221  -7.058  11.058  1.00  0.00     0.031 C 
ATOM     69  C   UNL     1      10.490  -9.090   9.654  1.00  0.00     0.034 A 
BRANCH  56  70
ATOM     70  C   UNL     1       8.825 -11.719   4.306  1.00  0.00     0.023 A 
ATOM     71  C   UNL     1       9.639 -11.723   3.154  1.00  0.00     0.012 A 
ATOM     72  C   UNL     1       8.114 -12.886   4.650  1.00  0.00     0.148 A 
ATOM     73  C   UNL     1       9.727 -12.857   2.347  1.00  0.00     0.002 A 
ATOM     74  C   UNL     1       8.235 -14.025   3.859  1.00  0.00     0.091 A 
ATOM     75  F   UNL     1       7.329 -12.860   5.736  1.00  0.00    -0.205 F 
ATOM     76  C   UNL     1       9.035 -14.010   2.704  1.00  0.00     0.022 A 
BRANCH  74  77
ATOM     77  S   UNL     1       7.439 -15.583   4.273  1.00  0.00     0.127 S 
ATOM     78  O   UNL     1       6.377 -15.648   3.270  1.00  0.00    -0.237 OA
ATOM     79  O   UNL     1       8.522 -16.547   4.077  1.00  0.00    -0.237 OA
ATOM     80  O   UNL     1       6.991 -15.449   5.652  1.00  0.00    -0.744 OA
ENDBRANCH  74  77
ENDBRANCH  56  70
BRANCH  57  81
ATOM     81  C   UNL     1       8.320  -3.425   9.931  1.00  0.00     0.023 A 
ATOM     82  C   UNL     1       9.394  -2.542  10.139  1.00  0.00     0.012 A 
ATOM     83  C   UNL     1       7.049  -3.101  10.450  1.00  0.00     0.148 A 
ATOM     84  C   UNL     1       9.206  -1.355  10.850  1.00  0.00     0.002 A 
ATOM     85  C   UNL     1       6.866  -1.911  11.149  1.00  0.00     0.091 A 
ATOM     86  F   UNL     1       6.036  -3.953  10.237  1.00  0.00    -0.205 F 
ATOM     87  C   UNL     1       7.943  -1.034  11.347  1.00  0.00     0.022 A 
BRANCH  85  88
ATOM     88  S   UNL     1       5.229  -1.401  11.707  1.00  0.00     0.127 S 
ATOM     89  O   UNL     1       5.177  -1.973  13.049  1.00  0.00    -0.237 OA
ATOM     90  O   UNL     1       5.306   0.062  11.676  1.00  0.00    -0.237 OA
ATOM     91  O   UNL     1       4.303  -1.972  10.734  1.00  0.00    -0.744 OA
ENDBRANCH  85  88
ENDBRANCH  57  81
BRANCH  69  92
ATOM     92  C   UNL     1      11.304  -9.704  10.756  1.00  0.00     0.023 A 
ATOM     93  C   UNL     1      10.659 -10.227  11.890  1.00  0.00     0.012 A 
ATOM     94  C   UNL     1      12.695  -9.866  10.603  1.00  0.00     0.148 A 
ATOM     95  C   UNL     1      11.391 -10.899  12.867  1.00  0.00     0.002 A 
ATOM     96  C   UNL     1      13.411 -10.575  11.557  1.00  0.00     0.091 A 
ATOM     97  F   UNL     1      13.284  -9.340   9.519  1.00  0.00    -0.205 F 
ATOM     98  C   UNL     1      12.762 -11.085  12.693  1.00  0.00     0.022 A 
BRANCH  96  99
ATOM     99  S   UNL     1      15.156 -10.950  11.370  1.00  0.00     0.127 S 
ATOM    100  O   UNL     1      15.751 -10.135  12.428  1.00  0.00    -0.237 OA
ATOM    101  O   UNL     1      15.190 -12.392  11.618  1.00  0.00    -0.237 OA
ATOM    102  O   UNL     1      15.512 -10.561  10.012  1.00  0.00    -0.744 OA
ENDBRANCH  96  99
ENDBRANCH  69  92
ENDBRANCH  43  44
ENDBRANCH  36  38
ENDBRANCH  35  36
ENDBRANCH  34  35
ENDBRANCH  33  34
ENDBRANCH  32  33
ENDBRANCH   1  32
TORSDOF 22
