REMARK SMILES CC(C)(C)c1ccc(OCC(=O)NNC(=O)[C@H]2[C@@H](C(=O)OCCOCCOC(=O)c3ccc(-c4c5nc(c(-c6cccc(S(=O)(=O)[O-])c6F)c6ccc([nH]6)c(-c6cccc(S(=O)(=O)[O-])c6F)c6nc(c(-c7cccc(S(=O)(=O)[O-])c7F)c7ccc4[nH]7)C=C6)C=C5)cc3)[C@@H]3C=C[C@H]2C3)cc1
REMARK SMILES IDX 22 1 21 2 19 3 20 4 18 5 17 6 96 7 93 8 95 9 97 10 94 11
REMARK SMILES IDX 15 12 14 13 16 15 13 16 11 17 12 18 10 20 9 21 8 22 5 23
REMARK SMILES IDX 6 24 99 25 7 26 98 27 2 28 1 29 3 30 4 31 23 32 24 33 25 34
REMARK SMILES IDX 26 35 27 36 28 37 29 38 30 39 31 40 92 41 32 42 91 43 33 44
REMARK SMILES IDX 34 45 35 46 85 47 36 48 90 49 84 50 86 51 37 52 89 53 83 54
REMARK SMILES IDX 82 55 38 57 70 58 50 59 69 60 51 61 54 62 68 63 87 64 52 65
REMARK SMILES IDX 53 66 67 68 88 69 55 70 39 71 40 72 48 73 41 74 43 75 49 76
REMARK SMILES IDX 42 77 44 78 45 79 46 80 47 81 71 82 72 83 80 84 73 85 75 86
REMARK SMILES IDX 81 87 74 88 76 89 77 90 78 91 79 92 56 93 57 94 65 95 58 96
REMARK SMILES IDX 60 97 66 98 59 99 61 100 62 101 63 102 64 103
REMARK H PARENT 14 14 13 19 86 56 54 67
REMARK Flexibility Score: inf
ROOT
ATOM      1  C   UNL     1       8.657  -1.875  -0.777  1.00  0.00     0.261 C 
ENDROOT
BRANCH   1   2
ATOM      2  O   UNL     1       7.862  -2.893  -1.389  1.00  0.00    -0.463 OA
BRANCH   2   3
ATOM      3  C   UNL     1       8.427  -4.131  -1.404  1.00  0.00     0.310 C 
ATOM      4  O   UNL     1       9.619  -4.361  -1.256  1.00  0.00    -0.252 OA
BRANCH   3   5
ATOM      5  C   UNL     1       7.356  -5.185  -1.640  1.00  0.00     0.119 C 
ATOM      6  C   UNL     1       6.937  -6.103  -0.427  1.00  0.00     0.102 C 
ATOM      7  C   UNL     1       7.391  -7.509  -0.920  1.00  0.00     0.025 C 
ATOM      8  C   UNL     1       7.893  -6.205  -2.668  1.00  0.00     0.027 C 
ATOM      9  C   UNL     1       6.459  -7.899  -2.047  1.00  0.00    -0.027 C 
ATOM     10  C   UNL     1       8.630  -7.194  -1.759  1.00  0.00     0.017 C 
ATOM     11  C   UNL     1       6.747  -7.102  -3.088  1.00  0.00    -0.027 C 
BRANCH   6  12
ATOM     12  C   UNL     1       7.472  -5.761   0.957  1.00  0.00     0.242 C 
ATOM     13  N   UNL     1       7.032  -6.472   2.046  1.00  0.00    -0.267 N 
ATOM     14  H   UNL     1       7.431  -6.237   2.914  1.00  0.00     0.191 HD
ATOM     15  O   UNL     1       8.236  -4.825   1.175  1.00  0.00    -0.273 OA
BRANCH  13  16
ATOM     16  N   UNL     1       6.083  -7.487   2.053  1.00  0.00    -0.265 N 
ATOM     17  C   UNL     1       5.577  -8.026   3.216  1.00  0.00     0.276 C 
ATOM     18  O   UNL     1       4.794  -8.978   3.162  1.00  0.00    -0.269 OA
ATOM     19  H   UNL     1       5.759  -7.835   1.192  1.00  0.00     0.191 HD
BRANCH  17  20
ATOM     20  C   UNL     1       5.961  -7.386   4.562  1.00  0.00     0.331 C 
BRANCH  20  21
ATOM     21  O   UNL     1       7.326  -7.050   4.760  1.00  0.00    -0.484 OA
BRANCH  21  22
ATOM     22  C   UNL     1       8.234  -8.071   4.811  1.00  0.00     0.120 A 
ATOM     23  C   UNL     1      10.322  -9.998   4.809  1.00  0.00    -0.042 A 
ATOM     24  C   UNL     1      10.598  -8.619   4.781  1.00  0.00     0.008 A 
ATOM     25  C   UNL     1       8.972 -10.378   4.852  1.00  0.00     0.008 A 
ATOM     26  C   UNL     1       9.569  -7.671   4.786  1.00  0.00     0.047 A 
ATOM     27  C   UNL     1       7.940  -9.429   4.860  1.00  0.00     0.047 A 
BRANCH  23  28
ATOM     28  C   UNL     1      11.470 -11.022   4.778  1.00  0.00    -0.013 C 
ATOM     29  C   UNL     1      12.236 -10.896   3.444  1.00  0.00     0.016 C 
ATOM     30  C   UNL     1      10.995 -12.488   4.900  1.00  0.00     0.016 C 
ATOM     31  C   UNL     1      12.442 -10.761   5.949  1.00  0.00     0.016 C 
ENDBRANCH  23  28
ENDBRANCH  21  22
ENDBRANCH  20  21
ENDBRANCH  17  20
ENDBRANCH  13  16
ENDBRANCH   6  12
ENDBRANCH   3   5
ENDBRANCH   2   3
ENDBRANCH   1   2
BRANCH   1  32
ATOM     32  C   UNL     1       7.816  -1.019   0.177  1.00  0.00     0.202 C 
BRANCH  32  33
ATOM     33  O   UNL     1       6.992  -1.680   1.135  1.00  0.00    -0.374 OA
BRANCH  33  34
ATOM     34  C   UNL     1       5.894  -2.463   0.669  1.00  0.00     0.202 C 
BRANCH  34  35
ATOM     35  C   UNL     1       4.711  -1.746   0.007  1.00  0.00     0.261 C 
BRANCH  35  36
ATOM     36  O   UNL     1       5.057  -1.078  -1.215  1.00  0.00    -0.460 OA
BRANCH  36  37
ATOM     37  C   UNL     1       5.030   0.273  -1.149  1.00  0.00     0.338 C 
ATOM     38  O   UNL     1       4.736   0.963  -0.178  1.00  0.00    -0.246 OA
BRANCH  37  39
ATOM     39  C   UNL     1       5.588   0.844  -2.382  1.00  0.00     0.060 A 
ATOM     40  C   UNL     1       6.723   1.661  -2.280  1.00  0.00     0.016 A 
ATOM     41  C   UNL     1       4.942   0.662  -3.604  1.00  0.00     0.016 A 
ATOM     42  C   UNL     1       7.193   2.341  -3.399  1.00  0.00     0.010 A 
ATOM     43  C   UNL     1       5.405   1.356  -4.722  1.00  0.00     0.010 A 
ATOM     44  C   UNL     1       6.505   2.228  -4.612  1.00  0.00    -0.014 A 
BRANCH  44  45
ATOM     45  C   UNL     1       6.806   3.159  -5.721  1.00  0.00     0.031 A 
ATOM     46  C   UNL     1       5.891   4.332  -5.935  1.00  0.00     0.074 A 
ATOM     47  C   UNL     1       7.853   2.944  -6.535  1.00  0.00     0.049 A 
ATOM     48  N   UNL     1       5.876   5.205  -6.906  1.00  0.00    -0.248 NA
ATOM     49  C   UNL     1       4.842   4.540  -4.920  1.00  0.00     0.031 C 
ATOM     50  C   UNL     1       8.816   1.853  -6.404  1.00  0.00     0.029 A 
ATOM     51  N   UNL     1       8.255   3.618  -7.660  1.00  0.00    -0.354 N 
ATOM     52  C   UNL     1       4.793   6.037  -6.647  1.00  0.00     0.074 A 
ATOM     53  C   UNL     1       4.173   5.564  -5.429  1.00  0.00     0.031 C 
ATOM     54  C   UNL     1       9.675   1.905  -7.436  1.00  0.00     0.029 A 
ATOM     55  C   UNL     1       9.298   3.009  -8.315  1.00  0.00     0.049 A 
ATOM     56  H   UNL     1       7.837   4.454  -7.968  1.00  0.00     0.167 HD
ATOM     57  C   UNL     1       4.360   7.103  -7.358  1.00  0.00     0.034 A 
ATOM     58  C   UNL     1       9.857   3.293  -9.508  1.00  0.00     0.034 A 
ATOM     59  C   UNL     1       4.997   7.574  -8.557  1.00  0.00     0.049 A 
ATOM     60  C   UNL     1       9.340   4.470 -10.295  1.00  0.00     0.074 A 
ATOM     61  C   UNL     1       4.666   8.669  -9.334  1.00  0.00     0.029 A 
ATOM     62  N   UNL     1       6.088   6.967  -9.161  1.00  0.00    -0.354 N 
ATOM     63  N   UNL     1       8.374   5.305  -9.995  1.00  0.00    -0.248 NA
ATOM     64  C   UNL     1      10.009   4.763 -11.571  1.00  0.00     0.031 C 
ATOM     65  C   UNL     1       5.538   8.706 -10.426  1.00  0.00     0.029 A 
ATOM     66  C   UNL     1       6.439   7.659 -10.306  1.00  0.00     0.049 A 
ATOM     67  H   UNL     1       6.545   6.163  -8.824  1.00  0.00     0.167 HD
ATOM     68  C   UNL     1       8.353   6.249 -11.016  1.00  0.00     0.074 A 
ATOM     69  C   UNL     1       9.407   5.885 -11.941  1.00  0.00     0.031 C 
ATOM     70  C   UNL     1       7.532   7.316 -11.179  1.00  0.00     0.034 A 
BRANCH  57  71
ATOM     71  C   UNL     1       3.145   7.836  -6.854  1.00  0.00     0.023 A 
ATOM     72  C   UNL     1       3.230   8.622  -5.687  1.00  0.00     0.012 A 
ATOM     73  C   UNL     1       1.929   7.784  -7.565  1.00  0.00     0.148 A 
ATOM     74  C   UNL     1       2.116   9.316  -5.216  1.00  0.00     0.002 A 
ATOM     75  C   UNL     1       0.838   8.517  -7.116  1.00  0.00     0.091 A 
ATOM     76  F   UNL     1       1.861   7.012  -8.659  1.00  0.00    -0.205 F 
ATOM     77  C   UNL     1       0.925   9.273  -5.936  1.00  0.00     0.022 A 
BRANCH  75  78
ATOM     78  S   UNL     1      -0.715   8.591  -8.016  1.00  0.00     0.127 S 
ATOM     79  O   UNL     1      -1.607   7.849  -7.126  1.00  0.00    -0.237 OA
ATOM     80  O   UNL     1      -0.969  10.031  -8.072  1.00  0.00    -0.237 OA
ATOM     81  O   UNL     1      -0.463   7.967  -9.307  1.00  0.00    -0.744 OA
ENDBRANCH  75  78
ENDBRANCH  57  71
BRANCH  58  82
ATOM     82  C   UNL     1      10.982   2.462 -10.021  1.00  0.00     0.023 A 
ATOM     83  C   UNL     1      12.273   3.019 -10.109  1.00  0.00     0.012 A 
ATOM     84  C   UNL     1      10.784   1.122 -10.408  1.00  0.00     0.148 A 
ATOM     85  C   UNL     1      13.339   2.268 -10.604  1.00  0.00     0.002 A 
ATOM     86  C   UNL     1      11.862   0.363 -10.848  1.00  0.00     0.091 A 
ATOM     87  F   UNL     1       9.546   0.615 -10.329  1.00  0.00    -0.205 F 
ATOM     88  C   UNL     1      13.136   0.939 -10.964  1.00  0.00     0.022 A 
BRANCH  86  89
ATOM     89  S   UNL     1      11.721  -1.390 -11.217  1.00  0.00     0.127 S 
ATOM     90  O   UNL     1      11.916  -1.407 -12.665  1.00  0.00    -0.237 OA
ATOM     91  O   UNL     1      12.826  -1.950 -10.439  1.00  0.00    -0.237 OA
ATOM     92  O   UNL     1      10.398  -1.786 -10.754  1.00  0.00    -0.744 OA
ENDBRANCH  86  89
ENDBRANCH  58  82
BRANCH  70  93
ATOM     93  C   UNL     1       7.776   8.219 -12.360  1.00  0.00     0.023 A 
ATOM     94  C   UNL     1       7.440   7.793 -13.660  1.00  0.00     0.012 A 
ATOM     95  C   UNL     1       8.250   9.531 -12.161  1.00  0.00     0.148 A 
ATOM     96  C   UNL     1       7.601   8.652 -14.747  1.00  0.00     0.002 A 
ATOM     97  C   UNL     1       8.357  10.397 -13.241  1.00  0.00     0.091 A 
ATOM     98  F   UNL     1       8.579   9.909 -10.917  1.00  0.00    -0.205 F 
ATOM     99  C   UNL     1       8.045   9.956 -14.537  1.00  0.00     0.022 A 
BRANCH  97 100
ATOM    100  S   UNL     1       8.819  12.122 -13.050  1.00  0.00     0.127 S 
ATOM    101  O   UNL     1      10.148  12.143 -13.658  1.00  0.00    -0.237 OA
ATOM    102  O   UNL     1       7.783  12.807 -13.824  1.00  0.00    -0.237 OA
ATOM    103  O   UNL     1       8.784  12.394 -11.620  1.00  0.00    -0.744 OA
ENDBRANCH  97 100
ENDBRANCH  70  93
ENDBRANCH  44  45
ENDBRANCH  37  39
ENDBRANCH  36  37
ENDBRANCH  35  36
ENDBRANCH  34  35
ENDBRANCH  33  34
ENDBRANCH  32  33
ENDBRANCH   1  32
TORSDOF 23
