REMARK SMILES O=C(NCC(=O)OCCOCCOC(=O)c1ccc(-c2c3nc(c(-c4cccc(S(=O)(=O)[O-])c4F)c4ccc([nH]4)c(-c4cccc(S(=O)(=O)[O-])c4F)c4nc(c(-c5cccc(S(=O)(=O)[O-])c5F)c5ccc2[nH]5)C=C4)C=C3)cc1)Nc1cccc2c1CCCC2
REMARK SMILES IDX 11 1 10 2 9 3 8 4 7 5 5 6 6 7 4 8 3 9 1 10 2 11 79 12 80 15
REMARK SMILES IDX 81 16 85 17 82 18 84 19 86 20 83 21 89 22 87 23 88 24 12 25
REMARK SMILES IDX 13 26 14 27 15 28 16 29 17 30 78 31 18 32 77 33 19 34 20 35
REMARK SMILES IDX 21 36 71 37 22 38 76 39 70 40 72 41 23 42 75 43 69 44 68 45
REMARK SMILES IDX 24 47 56 48 36 49 55 50 37 51 40 52 54 53 73 54 38 55 39 56
REMARK SMILES IDX 53 58 74 59 41 60 25 61 26 62 34 63 27 64 29 65 35 66 28 67
REMARK SMILES IDX 30 68 31 69 32 70 33 71 57 72 58 73 66 74 59 75 61 76 67 77
REMARK SMILES IDX 60 78 62 79 63 80 64 81 65 82 42 83 43 84 51 85 44 86 46 87
REMARK SMILES IDX 52 88 45 89 47 90 48 91 49 92 50 93
REMARK H PARENT 3 13 79 14 72 46 40 57
REMARK Flexibility Score: inf
ROOT
ATOM      1  C   UNL     1       4.205  -3.820  -1.762  1.00  0.00     0.202 C 
ENDROOT
BRANCH   1   2
ATOM      2  O   UNL     1       5.241  -4.596  -1.169  1.00  0.00    -0.374 OA
BRANCH   2   3
ATOM      3  C   UNL     1       5.283  -4.687   0.253  1.00  0.00     0.202 C 
BRANCH   3   4
ATOM      4  C   UNL     1       5.567  -3.400   1.036  1.00  0.00     0.261 C 
BRANCH   4   5
ATOM      5  O   UNL     1       4.603  -2.354   0.790  1.00  0.00    -0.462 OA
BRANCH   5   6
ATOM      6  C   UNL     1       5.128  -1.176   0.357  1.00  0.00     0.325 C 
ATOM      7  O   UNL     1       6.324  -0.970   0.166  1.00  0.00    -0.250 OA
BRANCH   6   8
ATOM      8  C   UNL     1       4.084  -0.113   0.006  1.00  0.00     0.240 C 
BRANCH   8   9
ATOM      9  N   UNL     1       2.672  -0.334   0.300  1.00  0.00    -0.327 N 
ATOM     10  O   UNL     1       0.600   0.126   1.005  1.00  0.00    -0.248 OA
ATOM     11  C   UNL     1       1.732   0.543   0.786  1.00  0.00     0.319 C 
ATOM     12  N   UNL     1       2.168   1.827   0.998  1.00  0.00    -0.308 N 
ATOM     13  H   UNL     1       2.345  -1.246   0.124  1.00  0.00     0.166 HD
ATOM     14  H   UNL     1       2.851   2.173   0.380  1.00  0.00     0.171 HD
BRANCH  12  15
ATOM     15  C   UNL     1       1.724   2.712   2.033  1.00  0.00     0.046 A 
ATOM     16  C   UNL     1       2.731   3.605   2.387  1.00  0.00     0.026 A 
ATOM     17  C   UNL     1       0.982   2.214   3.094  1.00  0.00    -0.021 A 
ATOM     18  C   UNL     1       3.354   3.397   3.621  1.00  0.00     0.002 A 
ATOM     19  C   UNL     1       1.715   1.711   4.167  1.00  0.00    -0.043 A 
ATOM     20  C   UNL     1      -0.308   2.919   3.567  1.00  0.00     0.038 C 
ATOM     21  C   UNL     1       2.914   2.360   4.460  1.00  0.00     0.004 A 
ATOM     22  C   UNL     1       0.942   0.895   5.160  1.00  0.00     0.036 C 
ATOM     23  C   UNL     1      -0.356   3.097   5.112  1.00  0.00     0.005 C 
ATOM     24  C   UNL     1      -0.006   1.826   5.911  1.00  0.00     0.005 C 
ENDBRANCH  12  15
ENDBRANCH   8   9
ENDBRANCH   6   8
ENDBRANCH   5   6
ENDBRANCH   4   5
ENDBRANCH   3   4
ENDBRANCH   2   3
ENDBRANCH   1   2
BRANCH   1  25
ATOM     25  C   UNL     1       2.756  -4.308  -1.610  1.00  0.00     0.261 C 
BRANCH  25  26
ATOM     26  O   UNL     1       2.316  -4.415  -0.244  1.00  0.00    -0.460 OA
BRANCH  26  27
ATOM     27  C   UNL     1       2.036  -5.684   0.154  1.00  0.00     0.338 C 
ATOM     28  O   UNL     1       2.100  -6.695  -0.524  1.00  0.00    -0.246 OA
BRANCH  27  29
ATOM     29  C   UNL     1       1.800  -5.740   1.610  1.00  0.00     0.060 A 
ATOM     30  C   UNL     1       2.612  -6.599   2.363  1.00  0.00     0.016 A 
ATOM     31  C   UNL     1       0.732  -5.071   2.208  1.00  0.00     0.016 A 
ATOM     32  C   UNL     1       2.325  -6.835   3.706  1.00  0.00     0.010 A 
ATOM     33  C   UNL     1       0.442  -5.315   3.557  1.00  0.00     0.010 A 
ATOM     34  C   UNL     1       1.211  -6.229   4.301  1.00  0.00    -0.014 A 
BRANCH  34  35
ATOM     35  C   UNL     1       0.791  -6.655   5.661  1.00  0.00     0.031 A 
ATOM     36  C   UNL     1      -0.384  -7.585   5.816  1.00  0.00     0.074 A 
ATOM     37  C   UNL     1       1.462  -6.235   6.748  1.00  0.00     0.049 A 
ATOM     38  N   UNL     1      -0.906  -8.084   6.906  1.00  0.00    -0.248 NA
ATOM     39  C   UNL     1      -1.062  -8.008   4.579  1.00  0.00     0.031 C 
ATOM     40  C   UNL     1       2.611  -5.330   6.733  1.00  0.00     0.029 A 
ATOM     41  N   UNL     1       1.258  -6.498   8.081  1.00  0.00    -0.354 N 
ATOM     42  C   UNL     1      -1.991  -8.849   6.494  1.00  0.00     0.074 A 
ATOM     43  C   UNL     1      -2.057  -8.745   5.053  1.00  0.00     0.031 C 
ATOM     44  C   UNL     1       2.993  -5.090   7.999  1.00  0.00     0.029 A 
ATOM     45  C   UNL     1       2.105  -5.805   8.913  1.00  0.00     0.049 A 
ATOM     46  H   UNL     1       0.572  -7.123   8.408  1.00  0.00     0.167 HD
ATOM     47  C   UNL     1      -2.848  -9.582   7.245  1.00  0.00     0.034 A 
ATOM     48  C   UNL     1       2.145  -5.738  10.259  1.00  0.00     0.034 A 
ATOM     49  C   UNL     1      -2.768  -9.707   8.676  1.00  0.00     0.049 A 
ATOM     50  C   UNL     1       1.183  -6.567  11.069  1.00  0.00     0.074 A 
ATOM     51  C   UNL     1      -3.553 -10.476   9.517  1.00  0.00     0.029 A 
ATOM     52  N   UNL     1      -1.861  -9.036   9.481  1.00  0.00    -0.354 N 
ATOM     53  N   UNL     1       0.248  -7.388  10.657  1.00  0.00    -0.248 NA
ATOM     54  C   UNL     1       1.310  -6.493  12.533  1.00  0.00     0.031 C 
ATOM     55  C   UNL     1      -3.143 -10.244  10.834  1.00  0.00     0.029 A 
ATOM     56  C   UNL     1      -2.075  -9.363  10.810  1.00  0.00     0.049 A 
ATOM     57  H   UNL     1      -1.167  -8.418   9.156  1.00  0.00     0.167 HD
ATOM     58  C   UNL     1      -0.296  -7.957  11.804  1.00  0.00     0.074 A 
ATOM     59  C   UNL     1       0.430  -7.403  12.928  1.00  0.00     0.031 C 
ATOM     60  C   UNL     1      -1.312  -8.848  11.918  1.00  0.00     0.034 A 
BRANCH  47  61
ATOM     61  C   UNL     1      -3.947 -10.329   6.534  1.00  0.00     0.023 A 
ATOM     62  C   UNL     1      -3.639 -11.476   5.774  1.00  0.00     0.012 A 
ATOM     63  C   UNL     1      -5.293  -9.938   6.681  1.00  0.00     0.148 A 
ATOM     64  C   UNL     1      -4.651 -12.205   5.149  1.00  0.00     0.002 A 
ATOM     65  C   UNL     1      -6.299 -10.697   6.095  1.00  0.00     0.091 A 
ATOM     66  F   UNL     1      -5.563  -8.834   7.392  1.00  0.00    -0.205 F 
ATOM     67  C   UNL     1      -5.979 -11.823   5.319  1.00  0.00     0.022 A 
BRANCH  65  68
ATOM     68  S   UNL     1      -8.044 -10.337   6.324  1.00  0.00     0.127 S 
ATOM     69  O   UNL     1      -8.433  -9.898   4.985  1.00  0.00    -0.237 OA
ATOM     70  O   UNL     1      -8.577 -11.642   6.716  1.00  0.00    -0.237 OA
ATOM     71  O   UNL     1      -8.113  -9.316   7.360  1.00  0.00    -0.744 OA
ENDBRANCH  65  68
ENDBRANCH  47  61
BRANCH  48  72
ATOM     72  C   UNL     1       3.153  -4.869  10.931  1.00  0.00     0.023 A 
ATOM     73  C   UNL     1       4.197  -5.453  11.674  1.00  0.00     0.012 A 
ATOM     74  C   UNL     1       3.081  -3.466  10.832  1.00  0.00     0.148 A 
ATOM     75  C   UNL     1       5.129  -4.654  12.338  1.00  0.00     0.002 A 
ATOM     76  C   UNL     1       4.048  -2.678  11.446  1.00  0.00     0.091 A 
ATOM     77  F   UNL     1       2.071  -2.929  10.135  1.00  0.00    -0.205 F 
ATOM     78  C   UNL     1       5.061  -3.269  12.216  1.00  0.00     0.022 A 
BRANCH  76  79
ATOM     79  S   UNL     1       4.114  -0.896  11.229  1.00  0.00     0.127 S 
ATOM     80  O   UNL     1       3.711  -0.419  12.549  1.00  0.00    -0.237 OA
ATOM     81  O   UNL     1       5.524  -0.685  10.900  1.00  0.00    -0.237 OA
ATOM     82  O   UNL     1       3.195  -0.598  10.139  1.00  0.00    -0.744 OA
ENDBRANCH  76  79
ENDBRANCH  48  72
BRANCH  60  83
ATOM     83  C   UNL     1      -1.672  -9.328  13.302  1.00  0.00     0.023 A 
ATOM     84  C   UNL     1      -2.303  -8.456  14.212  1.00  0.00     0.012 A 
ATOM     85  C   UNL     1      -1.433 -10.664  13.682  1.00  0.00     0.148 A 
ATOM     86  C   UNL     1      -2.649  -8.893  15.490  1.00  0.00     0.002 A 
ATOM     87  C   UNL     1      -1.829 -11.107  14.938  1.00  0.00     0.091 A 
ATOM     88  F   UNL     1      -0.816 -11.476  12.812  1.00  0.00    -0.205 F 
ATOM     89  C   UNL     1      -2.423 -10.220  15.849  1.00  0.00     0.022 A 
BRANCH  87  90
ATOM     90  S   UNL     1      -1.666 -12.823  15.446  1.00  0.00     0.127 S 
ATOM     91  O   UNL     1      -0.533 -12.755  16.367  1.00  0.00    -0.237 OA
ATOM     92  O   UNL     1      -2.957 -13.083  16.085  1.00  0.00    -0.237 OA
ATOM     93  O   UNL     1      -1.437 -13.581  14.223  1.00  0.00    -0.744 OA
ENDBRANCH  87  90
ENDBRANCH  60  83
ENDBRANCH  34  35
ENDBRANCH  27  29
ENDBRANCH  26  27
ENDBRANCH  25  26
ENDBRANCH   1  25
TORSDOF 19
