REMARK SMILES CC(C)C[C@H](CNC(=O)Nc1ccccc1Br)C(=O)OCCOCCOC(=O)c1ccc(-c2c3nc(c(-c4cccc(S(=O)(=O)[O-])c4F)c4ccc([nH]4)c(-c4cccc(S(=O)(=O)[O-])c4F)c4nc(c(-c5cccc(S(=O)(=O)[O-])c5F)c5ccc2[nH]5)C=C4)C=C3)cc1
REMARK SMILES IDX 23 1 22 2 21 3 20 4 18 5 19 6 5 7 4 8 2 9 1 10 3 11 6 12
REMARK SMILES IDX 7 13 8 14 9 16 10 17 11 19 12 20 16 21 13 22 15 23 17 24
REMARK SMILES IDX 14 25 24 26 25 27 26 28 27 29 28 30 29 31 30 32 91 33 31 34
REMARK SMILES IDX 90 35 32 36 33 37 34 38 84 39 35 40 89 41 83 42 85 43 36 44
REMARK SMILES IDX 88 45 82 46 81 47 37 49 69 50 49 51 68 52 50 53 53 54 67 55
REMARK SMILES IDX 86 56 51 57 52 58 66 60 87 61 54 62 38 63 39 64 47 65 40 66
REMARK SMILES IDX 42 67 48 68 41 69 43 70 44 71 45 72 46 73 70 74 71 75 79 76
REMARK SMILES IDX 72 77 74 78 80 79 73 80 75 81 76 82 77 83 78 84 55 85 56 86
REMARK SMILES IDX 64 87 57 88 59 89 65 90 58 91 60 92 61 93 62 94 63 95
REMARK H PARENT 7 15 10 18 85 48 53 59
REMARK Flexibility Score: inf
ROOT
ATOM      1  O   UNL     1      -5.476   0.200  -0.299  1.00  0.00    -0.374 OA
ENDROOT
BRANCH   1   2
ATOM      2  C   UNL     1      -5.794  -0.610   0.833  1.00  0.00     0.202 C 
BRANCH   2   3
ATOM      3  C   UNL     1      -5.150  -1.998   0.900  1.00  0.00     0.261 C 
BRANCH   3   4
ATOM      4  O   UNL     1      -3.744  -1.955   1.212  1.00  0.00    -0.463 OA
BRANCH   4   5
ATOM      5  C   UNL     1      -2.926  -2.103   0.143  1.00  0.00     0.310 C 
ATOM      6  O   UNL     1      -3.301  -2.146  -1.025  1.00  0.00    -0.252 OA
BRANCH   5   7
ATOM      7  C   UNL     1      -1.462  -2.171   0.512  1.00  0.00     0.119 C 
BRANCH   7   8
ATOM      8  C   UNL     1      -0.948  -3.457   1.172  1.00  0.00     0.020 C 
BRANCH   8   9
ATOM      9  C   UNL     1      -1.851  -4.702   1.148  1.00  0.00    -0.017 C 
ATOM     10  C   UNL     1      -2.166  -5.222  -0.255  1.00  0.00     0.007 C 
ATOM     11  C   UNL     1      -1.167  -5.819   1.944  1.00  0.00     0.007 C 
ENDBRANCH   8   9
ENDBRANCH   7   8
BRANCH   7  12
ATOM     12  C   UNL     1      -0.976  -0.858   1.149  1.00  0.00     0.133 C 
BRANCH  12  13
ATOM     13  N   UNL     1      -0.702  -0.856   2.579  1.00  0.00    -0.337 N 
ATOM     14  C   UNL     1       0.411  -0.529   3.280  1.00  0.00     0.319 C 
ATOM     15  H   UNL     1      -1.461  -1.145   3.137  1.00  0.00     0.165 HD
ATOM     16  O   UNL     1       0.479  -0.852   4.466  1.00  0.00    -0.249 OA
ATOM     17  N   UNL     1       1.497   0.030   2.692  1.00  0.00    -0.307 N 
ATOM     18  H   UNL     1       2.344  -0.104   3.176  1.00  0.00     0.171 HD
BRANCH  17  19
ATOM     19  C   UNL     1       1.608   0.768   1.505  1.00  0.00     0.057 A 
ATOM     20  C   UNL     1       2.582   0.329   0.599  1.00  0.00     0.027 A 
ATOM     21  C   UNL     1       0.753   1.823   1.143  1.00  0.00     0.041 A 
ATOM     22  C   UNL     1       2.606   0.834  -0.702  1.00  0.00     0.002 A 
ATOM     23  C   UNL     1       0.797   2.339  -0.156  1.00  0.00     0.018 A 
ATOM     24  Br  UNL     1      -0.431   2.656   2.374  1.00  0.00    -0.049 Br
ATOM     25  C   UNL     1       1.701   1.821  -1.085  1.00  0.00     0.001 A 
ENDBRANCH  17  19
ENDBRANCH  12  13
ENDBRANCH   7  12
ENDBRANCH   5   7
ENDBRANCH   4   5
ENDBRANCH   3   4
ENDBRANCH   2   3
ENDBRANCH   1   2
BRANCH   1  26
ATOM     26  C   UNL     1      -4.253   0.932  -0.248  1.00  0.00     0.202 C 
BRANCH  26  27
ATOM     27  C   UNL     1      -4.253   2.212   0.596  1.00  0.00     0.261 C 
BRANCH  27  28
ATOM     28  O   UNL     1      -4.423   1.932   1.997  1.00  0.00    -0.460 OA
BRANCH  28  29
ATOM     29  C   UNL     1      -5.616   2.318   2.506  1.00  0.00     0.338 C 
ATOM     30  O   UNL     1      -6.487   2.962   1.930  1.00  0.00    -0.246 OA
BRANCH  29  31
ATOM     31  C   UNL     1      -5.850   1.686   3.817  1.00  0.00     0.060 A 
ATOM     32  C   UNL     1      -7.066   1.010   3.989  1.00  0.00     0.016 A 
ATOM     33  C   UNL     1      -4.951   1.810   4.879  1.00  0.00     0.016 A 
ATOM     34  C   UNL     1      -7.424   0.524   5.243  1.00  0.00     0.010 A 
ATOM     35  C   UNL     1      -5.318   1.328   6.141  1.00  0.00     0.010 A 
ATOM     36  C   UNL     1      -6.576   0.728   6.338  1.00  0.00    -0.014 A 
BRANCH  36  37
ATOM     37  C   UNL     1      -7.095   0.474   7.704  1.00  0.00     0.031 A 
ATOM     38  C   UNL     1      -7.609   1.636   8.512  1.00  0.00     0.074 A 
ATOM     39  C   UNL     1      -7.147  -0.772   8.204  1.00  0.00     0.049 A 
ATOM     40  N   UNL     1      -8.127   1.646   9.712  1.00  0.00    -0.248 NA
ATOM     41  C   UNL     1      -7.529   2.966   7.882  1.00  0.00     0.031 C 
ATOM     42  C   UNL     1      -6.689  -1.978   7.517  1.00  0.00     0.029 A 
ATOM     43  N   UNL     1      -7.596  -1.226   9.420  1.00  0.00    -0.354 N 
ATOM     44  C   UNL     1      -8.409   2.977   9.993  1.00  0.00     0.074 A 
ATOM     45  C   UNL     1      -7.996   3.750   8.842  1.00  0.00     0.031 C 
ATOM     46  C   UNL     1      -6.854  -3.033   8.333  1.00  0.00     0.029 A 
ATOM     47  C   UNL     1      -7.413  -2.575   9.604  1.00  0.00     0.049 A 
ATOM     48  H   UNL     1      -8.009  -0.640  10.095  1.00  0.00     0.167 HD
ATOM     49  C   UNL     1      -8.978   3.509  11.101  1.00  0.00     0.034 A 
ATOM     50  C   UNL     1      -7.652  -3.348  10.683  1.00  0.00     0.034 A 
ATOM     51  C   UNL     1      -9.413   2.738  12.233  1.00  0.00     0.049 A 
ATOM     52  C   UNL     1      -8.273  -2.730  11.910  1.00  0.00     0.074 A 
ATOM     53  C   UNL     1     -10.047   3.179  13.381  1.00  0.00     0.029 A 
ATOM     54  N   UNL     1      -9.248   1.368  12.368  1.00  0.00    -0.354 N 
ATOM     55  N   UNL     1      -8.651  -1.490  12.109  1.00  0.00    -0.248 NA
ATOM     56  C   UNL     1      -8.532  -3.624  13.048  1.00  0.00     0.031 C 
ATOM     57  C   UNL     1     -10.245   2.078  14.221  1.00  0.00     0.029 A 
ATOM     58  C   UNL     1      -9.757   0.948  13.585  1.00  0.00     0.049 A 
ATOM     59  H   UNL     1      -8.831   0.781  11.697  1.00  0.00     0.167 HD
ATOM     60  C   UNL     1      -9.223  -1.463  13.377  1.00  0.00     0.074 A 
ATOM     61  C   UNL     1      -9.160  -2.816  13.891  1.00  0.00     0.031 C 
ATOM     62  C   UNL     1      -9.739  -0.411  14.061  1.00  0.00     0.034 A 
BRANCH  49  63
ATOM     63  C   UNL     1      -9.192   4.998  11.131  1.00  0.00     0.023 A 
ATOM     64  C   UNL     1     -10.218   5.571  10.352  1.00  0.00     0.012 A 
ATOM     65  C   UNL     1      -8.419   5.823  11.972  1.00  0.00     0.148 A 
ATOM     66  C   UNL     1     -10.455   6.945  10.390  1.00  0.00     0.002 A 
ATOM     67  C   UNL     1      -8.687   7.185  12.034  1.00  0.00     0.091 A 
ATOM     68  F   UNL     1      -7.432   5.262  12.685  1.00  0.00    -0.205 F 
ATOM     69  C   UNL     1      -9.697   7.749  11.238  1.00  0.00     0.022 A 
BRANCH  67  70
ATOM     70  S   UNL     1      -7.818   8.292  13.150  1.00  0.00     0.127 S 
ATOM     71  O   UNL     1      -6.993   9.061  12.220  1.00  0.00    -0.237 OA
ATOM     72  O   UNL     1      -8.916   9.045  13.756  1.00  0.00    -0.237 OA
ATOM     73  O   UNL     1      -7.087   7.437  14.075  1.00  0.00    -0.744 OA
ENDBRANCH  67  70
ENDBRANCH  49  63
BRANCH  50  74
ATOM     74  C   UNL     1      -7.338  -4.804  10.637  1.00  0.00     0.023 A 
ATOM     75  C   UNL     1      -8.387  -5.744  10.631  1.00  0.00     0.012 A 
ATOM     76  C   UNL     1      -6.006  -5.260  10.579  1.00  0.00     0.148 A 
ATOM     77  C   UNL     1      -8.114  -7.112  10.596  1.00  0.00     0.002 A 
ATOM     78  C   UNL     1      -5.744  -6.622  10.488  1.00  0.00     0.091 A 
ATOM     79  F   UNL     1      -5.022  -4.351  10.607  1.00  0.00    -0.205 F 
ATOM     80  C   UNL     1      -6.795  -7.551  10.513  1.00  0.00     0.022 A 
BRANCH  78  81
ATOM     81  S   UNL     1      -4.085  -7.268  10.248  1.00  0.00     0.127 S 
ATOM     82  O   UNL     1      -3.812  -7.881  11.545  1.00  0.00    -0.237 OA
ATOM     83  O   UNL     1      -4.287  -8.214   9.149  1.00  0.00    -0.237 OA
ATOM     84  O   UNL     1      -3.262  -6.117   9.903  1.00  0.00    -0.744 OA
ENDBRANCH  78  81
ENDBRANCH  50  74
BRANCH  62  85
ATOM     85  C   UNL     1     -10.310  -0.676  15.430  1.00  0.00     0.023 A 
ATOM     86  C   UNL     1      -9.445  -0.936  16.511  1.00  0.00     0.012 A 
ATOM     87  C   UNL     1     -11.697  -0.586  15.661  1.00  0.00     0.148 A 
ATOM     88  C   UNL     1      -9.953  -1.134  17.794  1.00  0.00     0.002 A 
ATOM     89  C   UNL     1     -12.193  -0.737  16.951  1.00  0.00     0.091 A 
ATOM     90  F   UNL     1     -12.507  -0.355  14.618  1.00  0.00    -0.205 F 
ATOM     91  C   UNL     1     -11.324  -1.023  18.017  1.00  0.00     0.022 A 
BRANCH  89  92
ATOM     92  S   UNL     1     -13.932  -0.516  17.344  1.00  0.00     0.127 S 
ATOM     93  O   UNL     1     -14.371  -1.896  17.544  1.00  0.00    -0.237 OA
ATOM     94  O   UNL     1     -13.877   0.289  18.566  1.00  0.00    -0.237 OA
ATOM     95  O   UNL     1     -14.516   0.169  16.199  1.00  0.00    -0.744 OA
ENDBRANCH  89  92
ENDBRANCH  62  85
ENDBRANCH  36  37
ENDBRANCH  29  31
ENDBRANCH  28  29
ENDBRANCH  27  28
ENDBRANCH  26  27
ENDBRANCH   1  26
TORSDOF 22
