REMARK SMILES Cn1cc(SCC[C@@H]2CCC[C@@]2([NH3+])C(=O)OCCOCCOC(=O)c2ccc(-c3c4nc(c(-c5cccc(S(=O)(=O)[O-])c5F)c5ccc([nH]5)c(-c5cccc(S(=O)(=O)[O-])c5F)c5nc(c(-c6cccc(S(=O)(=O)[O-])c6F)c6ccc3[nH]6)C=C5)C=C4)cc2)cn1
REMARK SMILES IDX 18 1 17 2 16 3 14 4 15 5 12 6 8 7 9 8 10 9 11 10 7 11 6 12
REMARK SMILES IDX 5 13 4 14 1 15 2 16 3 17 89 18 88 19 13 20 19 24 20 25 21 26
REMARK SMILES IDX 22 27 23 28 24 29 25 30 26 31 87 32 27 33 86 34 28 35 29 36
REMARK SMILES IDX 30 37 80 38 31 39 85 40 79 41 81 42 32 43 84 44 78 45 77 46
REMARK SMILES IDX 33 48 65 49 45 50 64 51 46 52 49 53 63 54 82 55 47 56 48 57
REMARK SMILES IDX 62 59 83 60 50 61 34 62 35 63 43 64 36 65 38 66 44 67 37 68
REMARK SMILES IDX 39 69 40 70 41 71 42 72 66 73 67 74 75 75 68 76 70 77 76 78
REMARK SMILES IDX 69 79 71 80 72 81 73 82 74 83 51 84 52 85 60 86 53 87 55 88
REMARK SMILES IDX 61 89 54 90 56 91 57 92 58 93 59 94
REMARK H PARENT 13 21 13 22 13 23 81 47 49 58
REMARK Flexibility Score: inf
ROOT
ATOM      1  C   UNL     1      -2.589  -6.858   2.098  1.00  0.00     0.202 C 
ENDROOT
BRANCH   1   2
ATOM      2  C   UNL     1      -2.565  -5.644   1.157  1.00  0.00     0.261 C 
BRANCH   2   3
ATOM      3  O   UNL     1      -1.476  -4.739   1.403  1.00  0.00    -0.459 OA
BRANCH   3   4
ATOM      4  C   UNL     1      -1.786  -3.740   2.275  1.00  0.00     0.368 C 
ATOM      5  O   UNL     1      -2.913  -3.555   2.731  1.00  0.00    -0.245 OA
BRANCH   4   6
ATOM      6  C   UNL     1      -0.558  -2.900   2.720  1.00  0.00     0.195 C 
ATOM      7  C   UNL     1       0.444  -2.444   1.626  1.00  0.00     0.063 C 
ATOM      8  C   UNL     1       1.083  -1.206   2.291  1.00  0.00     0.011 C 
ATOM      9  C   UNL     1      -0.040  -0.506   3.035  1.00  0.00     0.008 C 
ATOM     10  C   UNL     1      -1.151  -1.532   3.149  1.00  0.00     0.081 C 
BRANCH   7  11
ATOM     11  C   UNL     1       1.521  -3.436   1.143  1.00  0.00     0.022 C 
BRANCH  11  12
ATOM     12  C   UNL     1       2.022  -3.259  -0.313  1.00  0.00     0.075 C 
BRANCH  12  13
ATOM     13  S   UNL     1       2.770  -1.667  -0.818  1.00  0.00    -0.123 SA
BRANCH  13  14
ATOM     14  C   UNL     1       1.394  -0.618  -1.016  1.00  0.00     0.045 A 
ATOM     15  C   UNL     1      -2.058   0.166  -0.740  1.00  0.00     0.173 C 
ATOM     16  N   UNL     1      -0.639   0.158  -1.009  1.00  0.00    -0.275 N 
ATOM     17  C   UNL     1       0.103  -0.936  -1.355  1.00  0.00     0.123 A 
ATOM     18  N   UNL     1       0.107   1.240  -0.707  1.00  0.00    -0.181 NA
ATOM     19  C   UNL     1       1.358   0.762  -0.729  1.00  0.00     0.150 A 
ENDBRANCH  13  14
ENDBRANCH  12  13
ENDBRANCH  11  12
ENDBRANCH   7  11
BRANCH   6  20
ATOM     20  N   UNL     1       0.124  -3.543   3.867  1.00  0.00    -0.343 N 
ATOM     21  H   UNL     1       0.927  -2.978   4.145  1.00  0.00     0.345 HD
ATOM     22  H   UNL     1       0.441  -4.474   3.596  1.00  0.00     0.345 HD
ATOM     23  H   UNL     1      -0.525  -3.619   4.649  1.00  0.00     0.345 HD
ENDBRANCH   6  20
ENDBRANCH   4   6
ENDBRANCH   3   4
ENDBRANCH   2   3
ENDBRANCH   1   2
BRANCH   1  24
ATOM     24  O   UNL     1      -2.387  -6.624   3.491  1.00  0.00    -0.374 OA
BRANCH  24  25
ATOM     25  C   UNL     1      -1.027  -6.442   3.894  1.00  0.00     0.202 C 
BRANCH  25  26
ATOM     26  C   UNL     1      -0.230  -7.707   4.213  1.00  0.00     0.261 C 
BRANCH  26  27
ATOM     27  O   UNL     1       0.041  -8.451   3.015  1.00  0.00    -0.460 OA
BRANCH  27  28
ATOM     28  C   UNL     1      -0.732  -9.546   2.843  1.00  0.00     0.338 C 
ATOM     29  O   UNL     1      -1.512 -10.034   3.651  1.00  0.00    -0.246 OA
BRANCH  28  30
ATOM     30  C   UNL     1      -0.669  -9.970   1.433  1.00  0.00     0.060 A 
ATOM     31  C   UNL     1      -1.886 -10.231   0.789  1.00  0.00     0.016 A 
ATOM     32  C   UNL     1       0.543 -10.127   0.757  1.00  0.00     0.016 A 
ATOM     33  C   UNL     1      -1.895 -10.717  -0.513  1.00  0.00     0.010 A 
ATOM     34  C   UNL     1       0.533 -10.623  -0.549  1.00  0.00     0.010 A 
ATOM     35  C   UNL     1      -0.683 -10.961  -1.170  1.00  0.00    -0.014 A 
BRANCH  35  36
ATOM     36  C   UNL     1      -0.688 -11.722  -2.440  1.00  0.00     0.031 A 
ATOM     37  C   UNL     1      -0.327 -13.181  -2.409  1.00  0.00     0.074 A 
ATOM     38  C   UNL     1      -1.022 -11.125  -3.597  1.00  0.00     0.049 A 
ATOM     39  N   UNL     1      -0.238 -14.032  -3.396  1.00  0.00    -0.248 NA
ATOM     40  C   UNL     1      -0.021 -13.757  -1.088  1.00  0.00     0.031 C 
ATOM     41  C   UNL     1      -1.397  -9.720  -3.745  1.00  0.00     0.029 A 
ATOM     42  N   UNL     1      -1.071 -11.625  -4.873  1.00  0.00    -0.354 N 
ATOM     43  C   UNL     1       0.166 -15.233  -2.825  1.00  0.00     0.074 A 
ATOM     44  C   UNL     1       0.315 -14.999  -1.405  1.00  0.00     0.031 C 
ATOM     45  C   UNL     1      -1.609  -9.461  -5.046  1.00  0.00     0.029 A 
ATOM     46  C   UNL     1      -1.356 -10.674  -5.823  1.00  0.00     0.049 A 
ATOM     47  H   UNL     1      -0.917 -12.573  -5.088  1.00  0.00     0.167 HD
ATOM     48  C   UNL     1       0.383 -16.425  -3.427  1.00  0.00     0.034 A 
ATOM     49  C   UNL     1      -1.381 -10.767  -7.167  1.00  0.00     0.034 A 
ATOM     50  C   UNL     1       0.214 -16.655  -4.836  1.00  0.00     0.049 A 
ATOM     51  C   UNL     1      -1.112 -12.100  -7.815  1.00  0.00     0.074 A 
ATOM     52  C   UNL     1       0.355 -17.840  -5.536  1.00  0.00     0.029 A 
ATOM     53  N   UNL     1      -0.114 -15.678  -5.763  1.00  0.00    -0.354 N 
ATOM     54  N   UNL     1      -0.846 -13.254  -7.251  1.00  0.00    -0.248 NA
ATOM     55  C   UNL     1      -1.179 -12.152  -9.283  1.00  0.00     0.031 C 
ATOM     56  C   UNL     1       0.149 -17.571  -6.893  1.00  0.00     0.029 A 
ATOM     57  C   UNL     1      -0.162 -16.227  -7.032  1.00  0.00     0.049 A 
ATOM     58  H   UNL     1      -0.287 -14.733  -5.550  1.00  0.00     0.167 HD
ATOM     59  C   UNL     1      -0.751 -14.174  -8.290  1.00  0.00     0.074 A 
ATOM     60  C   UNL     1      -1.008 -13.446  -9.515  1.00  0.00     0.031 C 
ATOM     61  C   UNL     1      -0.466 -15.499  -8.237  1.00  0.00     0.034 A 
BRANCH  48  62
ATOM     62  C   UNL     1       0.816 -17.579  -2.562  1.00  0.00     0.023 A 
ATOM     63  C   UNL     1      -0.102 -18.179  -1.676  1.00  0.00     0.012 A 
ATOM     64  C   UNL     1       2.118 -18.106  -2.669  1.00  0.00     0.148 A 
ATOM     65  C   UNL     1       0.278 -19.264  -0.887  1.00  0.00     0.002 A 
ATOM     66  C   UNL     1       2.475 -19.218  -1.915  1.00  0.00     0.091 A 
ATOM     67  F   UNL     1       2.983 -17.507  -3.499  1.00  0.00    -0.205 F 
ATOM     68  C   UNL     1       1.561 -19.790  -1.016  1.00  0.00     0.022 A 
BRANCH  66  69
ATOM     69  S   UNL     1       4.075 -20.018  -2.067  1.00  0.00     0.127 S 
ATOM     70  O   UNL     1       4.689 -19.698  -0.779  1.00  0.00    -0.237 OA
ATOM     71  O   UNL     1       3.701 -21.422  -2.233  1.00  0.00    -0.237 OA
ATOM     72  O   UNL     1       4.717 -19.418  -3.229  1.00  0.00    -0.744 OA
ENDBRANCH  66  69
ENDBRANCH  48  62
BRANCH  49  73
ATOM     73  C   UNL     1      -1.688  -9.564  -7.991  1.00  0.00     0.023 A 
ATOM     74  C   UNL     1      -2.893  -9.503  -8.717  1.00  0.00     0.012 A 
ATOM     75  C   UNL     1      -0.798  -8.474  -8.043  1.00  0.00     0.148 A 
ATOM     76  C   UNL     1      -3.190  -8.392  -9.508  1.00  0.00     0.002 A 
ATOM     77  C   UNL     1      -1.127  -7.346  -8.784  1.00  0.00     0.091 A 
ATOM     78  F   UNL     1       0.350  -8.558  -7.356  1.00  0.00    -0.205 F 
ATOM     79  C   UNL     1      -2.313  -7.310  -9.533  1.00  0.00     0.022 A 
BRANCH  77  80
ATOM     80  S   UNL     1      -0.126  -5.855  -8.765  1.00  0.00     0.127 S 
ATOM     81  O   UNL     1       0.407  -5.835 -10.124  1.00  0.00    -0.237 OA
ATOM     82  O   UNL     1      -1.127  -4.827  -8.477  1.00  0.00    -0.237 OA
ATOM     83  O   UNL     1       0.852  -6.052  -7.704  1.00  0.00    -0.744 OA
ENDBRANCH  77  80
ENDBRANCH  49  73
BRANCH  61  84
ATOM     84  C   UNL     1      -0.459 -16.267  -9.534  1.00  0.00     0.023 A 
ATOM     85  C   UNL     1       0.581 -16.072 -10.464  1.00  0.00     0.012 A 
ATOM     86  C   UNL     1      -1.448 -17.236  -9.796  1.00  0.00     0.148 A 
ATOM     87  C   UNL     1       0.617 -16.804 -11.651  1.00  0.00     0.002 A 
ATOM     88  C   UNL     1      -1.376 -17.999 -10.955  1.00  0.00     0.091 A 
ATOM     89  F   UNL     1      -2.438 -17.396  -8.906  1.00  0.00    -0.205 F 
ATOM     90  C   UNL     1      -0.353 -17.774 -11.890  1.00  0.00     0.022 A 
BRANCH  88  91
ATOM     91  S   UNL     1      -2.522 -19.339 -11.300  1.00  0.00     0.127 S 
ATOM     92  O   UNL     1      -3.307 -18.782 -12.401  1.00  0.00    -0.237 OA
ATOM     93  O   UNL     1      -1.621 -20.426 -11.683  1.00  0.00    -0.237 OA
ATOM     94  O   UNL     1      -3.257 -19.569 -10.064  1.00  0.00    -0.744 OA
ENDBRANCH  88  91
ENDBRANCH  61  84
ENDBRANCH  35  36
ENDBRANCH  28  30
ENDBRANCH  27  28
ENDBRANCH  26  27
ENDBRANCH  25  26
ENDBRANCH  24  25
ENDBRANCH   1  24
TORSDOF 22
