REMARK SMILES CCCC(=O)Nc1cccc(C(=O)N[C@@H](C(=O)OCCOCCOC(=O)c2ccc(-c3c4nc(c(-c5cccc(S(=O)(=O)[O-])c5F)c5ccc([nH]5)c(-c5cccc(S(=O)(=O)[O-])c5F)c5nc(c(-c6cccc(S(=O)(=O)[O-])c6F)c6ccc3[nH]6)C=C5)C=C4)cc2)C2=C(C)N=N[C@@H]2C)c1
REMARK SMILES IDX 20 1 19 2 18 3 16 4 17 5 15 6 14 7 12 8 13 9 11 11 7 12 8 13
REMARK SMILES IDX 97 14 9 15 10 16 6 17 4 18 5 19 3 21 2 22 1 23 90 24 91 25
REMARK SMILES IDX 95 26 92 27 93 28 94 29 96 30 21 31 22 32 23 33 24 34 25 35
REMARK SMILES IDX 26 36 27 37 28 38 89 39 29 40 88 41 30 42 31 43 32 44 82 45
REMARK SMILES IDX 33 46 87 47 81 48 83 49 34 50 86 51 80 52 79 53 35 55 67 56
REMARK SMILES IDX 47 57 66 58 48 59 51 60 65 61 84 62 49 63 50 64 64 66 85 67
REMARK SMILES IDX 52 68 36 69 37 70 45 71 38 72 40 73 46 74 39 75 41 76 42 77
REMARK SMILES IDX 43 78 44 79 68 80 69 81 77 82 70 83 72 84 78 85 71 86 73 87
REMARK SMILES IDX 74 88 75 89 76 90 53 91 54 92 62 93 55 94 57 95 63 96 56 97
REMARK SMILES IDX 58 98 59 99 60 100 61 101
REMARK H PARENT 14 10 6 20 83 54 51 65
REMARK Flexibility Score: inf
ROOT
ATOM      1  C   UNL     1      -4.673   1.798  -1.521  1.00  0.00     0.202 C 
ENDROOT
BRANCH   1   2
ATOM      2  C   UNL     1      -3.781   1.514  -0.307  1.00  0.00     0.261 C 
BRANCH   2   3
ATOM      3  O   UNL     1      -2.409   1.318  -0.670  1.00  0.00    -0.461 OA
BRANCH   3   4
ATOM      4  C   UNL     1      -1.940   0.041  -0.544  1.00  0.00     0.333 C 
ATOM      5  O   UNL     1      -2.572  -0.865  -0.018  1.00  0.00    -0.249 OA
BRANCH   4   6
ATOM      6  C   UNL     1      -0.526  -0.136  -1.183  1.00  0.00     0.223 C 
BRANCH   6   7
ATOM      7  N   UNL     1       0.014   1.186  -1.521  1.00  0.00    -0.335 N 
ATOM      8  C   UNL     1       0.805   2.071  -0.823  1.00  0.00     0.252 C 
ATOM      9  O   UNL     1       1.039   3.162  -1.340  1.00  0.00    -0.269 OA
ATOM     10  H   UNL     1      -0.238   1.501  -2.419  1.00  0.00     0.165 HD
BRANCH   8  11
ATOM     11  C   UNL     1       1.447   1.728   0.473  1.00  0.00     0.041 A 
ATOM     12  C   UNL     1       1.611   0.345   2.439  1.00  0.00     0.041 A 
ATOM     13  C   UNL     1       2.917   0.771   2.662  1.00  0.00     0.026 A 
ATOM     14  C   UNL     1       0.843   0.904   1.419  1.00  0.00     0.040 A 
ATOM     15  C   UNL     1       3.469   1.739   1.823  1.00  0.00     0.003 A 
ATOM     16  C   UNL     1       2.747   2.195   0.714  1.00  0.00     0.014 A 
BRANCH  12  17
ATOM     17  N   UNL     1       1.044  -0.702   3.173  1.00  0.00    -0.326 N 
ATOM     18  C   UNL     1       1.102  -2.018   2.781  1.00  0.00     0.224 C 
ATOM     19  O   UNL     1       0.175  -2.773   3.083  1.00  0.00    -0.275 OA
ATOM     20  H   UNL     1       0.579  -0.484   4.014  1.00  0.00     0.169 HD
BRANCH  18  21
ATOM     21  C   UNL     1       2.278  -2.527   1.957  1.00  0.00     0.100 C 
BRANCH  21  22
ATOM     22  C   UNL     1       1.968  -2.622   0.464  1.00  0.00     0.006 C 
ATOM     23  C   UNL     1       2.806  -1.686  -0.398  1.00  0.00     0.004 C 
ENDBRANCH  21  22
ENDBRANCH  18  21
ENDBRANCH  12  17
ENDBRANCH   8  11
ENDBRANCH   6   7
BRANCH   6  24
ATOM     24  C   UNL     1      -0.533  -1.086  -2.362  1.00  0.00     0.012 C 
ATOM     25  C   UNL     1      -0.272  -0.975  -3.677  1.00  0.00     0.064 C 
ATOM     26  C   UNL     1      -0.685  -2.582  -2.166  1.00  0.00     0.156 C 
ATOM     27  C   UNL     1       0.176   0.167  -4.526  1.00  0.00     0.069 C 
ATOM     28  N   UNL     1      -0.396  -2.169  -4.349  1.00  0.00    -0.160 NA
ATOM     29  N   UNL     1      -0.662  -3.103  -3.557  1.00  0.00    -0.181 NA
ATOM     30  C   UNL     1      -1.907  -3.164  -1.477  1.00  0.00     0.040 C 
ENDBRANCH   6  24
ENDBRANCH   4   6
ENDBRANCH   3   4
ENDBRANCH   2   3
ENDBRANCH   1   2
BRANCH   1  31
ATOM     31  O   UNL     1      -4.551   0.943  -2.655  1.00  0.00    -0.374 OA
BRANCH  31  32
ATOM     32  C   UNL     1      -3.377   1.042  -3.460  1.00  0.00     0.202 C 
BRANCH  32  33
ATOM     33  C   UNL     1      -3.072   2.365  -4.171  1.00  0.00     0.261 C 
BRANCH  33  34
ATOM     34  O   UNL     1      -2.787   3.429  -3.248  1.00  0.00    -0.460 OA
BRANCH  34  35
ATOM     35  C   UNL     1      -3.611   4.500  -3.371  1.00  0.00     0.338 C 
ATOM     36  O   UNL     1      -4.486   4.659  -4.206  1.00  0.00    -0.246 OA
BRANCH  35  37
ATOM     37  C   UNL     1      -3.470   5.398  -2.213  1.00  0.00     0.060 A 
ATOM     38  C   UNL     1      -4.615   5.615  -1.434  1.00  0.00     0.016 A 
ATOM     39  C   UNL     1      -2.298   6.117  -1.980  1.00  0.00     0.016 A 
ATOM     40  C   UNL     1      -4.613   6.605  -0.459  1.00  0.00     0.010 A 
ATOM     41  C   UNL     1      -2.304   7.125  -1.009  1.00  0.00     0.010 A 
ATOM     42  C   UNL     1      -3.477   7.403  -0.283  1.00  0.00    -0.014 A 
BRANCH  42  43
ATOM     43  C   UNL     1      -3.598   8.639   0.524  1.00  0.00     0.031 A 
ATOM     44  C   UNL     1      -3.846   9.944  -0.185  1.00  0.00     0.074 A 
ATOM     45  C   UNL     1      -3.545   8.589   1.867  1.00  0.00     0.049 A 
ATOM     46  N   UNL     1      -4.007  11.140   0.316  1.00  0.00    -0.248 NA
ATOM     47  C   UNL     1      -3.930   9.892  -1.655  1.00  0.00     0.031 C 
ATOM     48  C   UNL     1      -3.325   7.379   2.657  1.00  0.00     0.029 A 
ATOM     49  N   UNL     1      -3.657   9.587   2.800  1.00  0.00    -0.354 N 
ATOM     50  C   UNL     1      -4.195  11.984  -0.772  1.00  0.00     0.074 A 
ATOM     51  C   UNL     1      -4.112  11.168  -1.963  1.00  0.00     0.031 C 
ATOM     52  C   UNL     1      -3.285   7.712   3.959  1.00  0.00     0.029 A 
ATOM     53  C   UNL     1      -3.461   9.156   4.090  1.00  0.00     0.049 A 
ATOM     54  H   UNL     1      -3.859  10.523   2.568  1.00  0.00     0.167 HD
ATOM     55  C   UNL     1      -4.437  13.316  -0.779  1.00  0.00     0.034 A 
ATOM     56  C   UNL     1      -3.412   9.856   5.241  1.00  0.00     0.034 A 
ATOM     57  C   UNL     1      -4.532  14.120   0.409  1.00  0.00     0.049 A 
ATOM     58  C   UNL     1      -3.670  11.340   5.204  1.00  0.00     0.074 A 
ATOM     59  C   UNL     1      -4.778  15.477   0.513  1.00  0.00     0.029 A 
ATOM     60  N   UNL     1      -4.385  13.639   1.701  1.00  0.00    -0.354 N 
ATOM     61  N   UNL     1      -3.940  12.106   4.175  1.00  0.00    -0.248 NA
ATOM     62  C   UNL     1      -3.661  12.050   6.492  1.00  0.00     0.031 C 
ATOM     63  C   UNL     1      -4.768  15.819   1.870  1.00  0.00     0.029 A 
ATOM     64  C   UNL     1      -4.541  14.670   2.610  1.00  0.00     0.049 A 
ATOM     65  H   UNL     1      -4.197  12.701   1.936  1.00  0.00     0.167 HD
ATOM     66  C   UNL     1      -4.174  13.375   4.693  1.00  0.00     0.074 A 
ATOM     67  C   UNL     1      -4.034  13.270   6.131  1.00  0.00     0.031 C 
ATOM     68  C   UNL     1      -4.464  14.528   4.041  1.00  0.00     0.034 A 
BRANCH  55  69
ATOM     69  C   UNL     1      -4.655  13.984  -2.111  1.00  0.00     0.023 A 
ATOM     70  C   UNL     1      -5.870  13.780  -2.796  1.00  0.00     0.012 A 
ATOM     71  C   UNL     1      -3.696  14.863  -2.650  1.00  0.00     0.148 A 
ATOM     72  C   UNL     1      -6.118  14.422  -4.009  1.00  0.00     0.002 A 
ATOM     73  C   UNL     1      -3.967  15.531  -3.839  1.00  0.00     0.091 A 
ATOM     74  F   UNL     1      -2.539  15.026  -1.992  1.00  0.00    -0.205 F 
ATOM     75  C   UNL     1      -5.172  15.305  -4.524  1.00  0.00     0.022 A 
BRANCH  73  76
ATOM     76  S   UNL     1      -2.848  16.743  -4.549  1.00  0.00     0.127 S 
ATOM     77  O   UNL     1      -2.404  16.060  -5.763  1.00  0.00    -0.237 OA
ATOM     78  O   UNL     1      -3.736  17.882  -4.781  1.00  0.00    -0.237 OA
ATOM     79  O   UNL     1      -1.813  16.971  -3.550  1.00  0.00    -0.744 OA
ENDBRANCH  73  76
ENDBRANCH  55  69
BRANCH  56  80
ATOM     80  C   UNL     1      -3.138   9.157   6.529  1.00  0.00     0.023 A 
ATOM     81  C   UNL     1      -4.148   9.063   7.505  1.00  0.00     0.012 A 
ATOM     82  C   UNL     1      -1.879   8.580   6.788  1.00  0.00     0.148 A 
ATOM     83  C   UNL     1      -3.898   8.442   8.730  1.00  0.00     0.002 A 
ATOM     84  C   UNL     1      -1.655   7.911   7.986  1.00  0.00     0.091 A 
ATOM     85  F   UNL     1      -0.921   8.696   5.857  1.00  0.00    -0.205 F 
ATOM     86  C   UNL     1      -2.656   7.857   8.967  1.00  0.00     0.022 A 
BRANCH  84  87
ATOM     87  S   UNL     1      -0.131   7.015   8.305  1.00  0.00     0.127 S 
ATOM     88  O   UNL     1       0.570   7.925   9.207  1.00  0.00    -0.237 OA
ATOM     89  O   UNL     1      -0.622   5.785   8.928  1.00  0.00    -0.237 OA
ATOM     90  O   UNL     1       0.480   6.814   6.997  1.00  0.00    -0.744 OA
ENDBRANCH  84  87
ENDBRANCH  56  80
BRANCH  68  91
ATOM     91  C   UNL     1      -4.705  15.760   4.873  1.00  0.00     0.023 A 
ATOM     92  C   UNL     1      -3.622  16.404   5.504  1.00  0.00     0.012 A 
ATOM     93  C   UNL     1      -5.995  16.319   4.968  1.00  0.00     0.148 A 
ATOM     94  C   UNL     1      -3.827  17.566   6.248  1.00  0.00     0.002 A 
ATOM     95  C   UNL     1      -6.182  17.502   5.671  1.00  0.00     0.091 A 
ATOM     96  F   UNL     1      -7.015  15.680   4.377  1.00  0.00    -0.205 F 
ATOM     97  C   UNL     1      -5.103  18.120   6.322  1.00  0.00     0.022 A 
BRANCH  95  98
ATOM     98  S   UNL     1      -7.773  18.334   5.737  1.00  0.00     0.127 S 
ATOM     99  O   UNL     1      -8.229  18.001   7.085  1.00  0.00    -0.237 OA
ATOM    100  O   UNL     1      -7.401  19.737   5.548  1.00  0.00    -0.237 OA
ATOM    101  O   UNL     1      -8.561  17.771   4.649  1.00  0.00    -0.744 OA
ENDBRANCH  95  98
ENDBRANCH  68  91
ENDBRANCH  42  43
ENDBRANCH  35  37
ENDBRANCH  34  35
ENDBRANCH  33  34
ENDBRANCH  32  33
ENDBRANCH  31  32
ENDBRANCH   1  31
TORSDOF 23
