REMARK SMILES Cc1cccc(C[NH+]2CCC(OCC(=O)OCCOCCOC(=O)c3ccc(-c4c5nc(c(-c6cccc(S(=O)(=O)[O-])c6F)c6ccc([nH]6)c(-c6cccc(S(=O)(=O)[O-])c6F)c6nc(c(-c7cccc(S(=O)(=O)[O-])c7F)c7ccc4[nH]7)C=C6)C=C5)cc3)CC2)n1
REMARK SMILES IDX 18 1 17 2 16 3 14 4 15 5 13 6 12 7 11 8 8 9 9 10 89 11 10 13
REMARK SMILES IDX 88 14 7 15 6 16 1 17 2 18 3 19 90 20 4 21 5 22 19 23 20 24
REMARK SMILES IDX 21 25 22 26 23 27 24 28 25 29 26 30 87 31 27 32 86 33 28 34
REMARK SMILES IDX 29 35 30 36 80 37 31 38 85 39 79 40 81 41 32 42 84 43 78 44
REMARK SMILES IDX 77 45 33 47 65 48 45 49 64 50 46 51 49 52 63 53 82 54 47 55
REMARK SMILES IDX 48 56 62 58 83 59 50 60 34 61 35 62 43 63 36 64 38 65 44 66
REMARK SMILES IDX 37 67 39 68 40 69 41 70 42 71 66 72 67 73 75 74 68 75 70 76
REMARK SMILES IDX 76 77 69 78 71 79 72 80 73 81 74 82 51 83 52 84 60 85 53 86
REMARK SMILES IDX 55 87 61 88 54 89 56 90 57 91 58 92 59 93
REMARK H PARENT 8 12 81 46 49 57
REMARK Flexibility Score: inf
ROOT
ATOM      1  C   UNL     1       1.749   7.565   0.797  1.00  0.00     0.202 C 
ENDROOT
BRANCH   1   2
ATOM      2  C   UNL     1       1.244   8.042   2.167  1.00  0.00     0.261 C 
BRANCH   2   3
ATOM      3  O   UNL     1       0.888   6.985   3.092  1.00  0.00    -0.462 OA
BRANCH   3   4
ATOM      4  C   UNL     1      -0.406   6.979   3.525  1.00  0.00     0.332 C 
ATOM      5  O   UNL     1      -1.316   7.620   3.006  1.00  0.00    -0.250 OA
BRANCH   4   6
ATOM      6  C   UNL     1      -0.609   6.191   4.849  1.00  0.00     0.283 C 
BRANCH   6   7
ATOM      7  O   UNL     1      -0.132   4.910   5.208  1.00  0.00    -0.366 OA
BRANCH   7   8
ATOM      8  C   UNL     1      -0.529   3.771   4.437  1.00  0.00     0.130 C 
ATOM      9  N   UNL     1      -1.666   2.731   1.983  1.00  0.00    -0.330 N 
ATOM     10  C   UNL     1      -2.371   2.471   3.236  1.00  0.00     0.265 C 
ATOM     11  C   UNL     1      -0.215   2.672   2.189  1.00  0.00     0.265 C 
ATOM     12  H   UNL     1      -1.909   3.684   1.713  1.00  0.00     0.348 HD
ATOM     13  C   UNL     1      -2.042   3.589   4.243  1.00  0.00     0.093 C 
ATOM     14  C   UNL     1       0.218   3.777   3.124  1.00  0.00     0.093 C 
BRANCH   9  15
ATOM     15  C   UNL     1      -2.134   1.945   0.819  1.00  0.00     0.319 C 
BRANCH  15  16
ATOM     16  C   UNL     1      -1.424   0.641   0.485  1.00  0.00     0.095 A 
ATOM     17  C   UNL     1       2.064  -0.215  -0.316  1.00  0.00     0.067 C 
ATOM     18  C   UNL     1       0.592  -0.394  -0.100  1.00  0.00     0.038 A 
ATOM     19  C   UNL     1      -0.019  -1.635  -0.163  1.00  0.00     0.023 A 
ATOM     20  N   UNL     1      -0.104   0.727   0.177  1.00  0.00    -0.252 NA
ATOM     21  C   UNL     1      -1.386  -1.718   0.099  1.00  0.00     0.004 A 
ATOM     22  C   UNL     1      -2.100  -0.569   0.438  1.00  0.00     0.030 A 
ENDBRANCH  15  16
ENDBRANCH   9  15
ENDBRANCH   7   8
ENDBRANCH   6   7
ENDBRANCH   4   6
ENDBRANCH   3   4
ENDBRANCH   2   3
ENDBRANCH   1   2
BRANCH   1  23
ATOM     23  O   UNL     1       0.725   7.180  -0.127  1.00  0.00    -0.374 OA
BRANCH  23  24
ATOM     24  C   UNL     1       0.288   5.824  -0.028  1.00  0.00     0.202 C 
BRANCH  24  25
ATOM     25  C   UNL     1       1.226   4.819  -0.700  1.00  0.00     0.261 C 
BRANCH  25  26
ATOM     26  O   UNL     1       2.444   4.715   0.052  1.00  0.00    -0.460 OA
BRANCH  26  27
ATOM     27  C   UNL     1       3.490   4.279  -0.682  1.00  0.00     0.338 C 
ATOM     28  O   UNL     1       3.453   3.714  -1.761  1.00  0.00    -0.246 OA
BRANCH  27  29
ATOM     29  C   UNL     1       4.722   4.824  -0.096  1.00  0.00     0.060 A 
ATOM     30  C   UNL     1       5.330   5.885  -0.775  1.00  0.00     0.016 A 
ATOM     31  C   UNL     1       5.321   4.249   1.028  1.00  0.00     0.016 A 
ATOM     32  C   UNL     1       6.591   6.319  -0.384  1.00  0.00     0.010 A 
ATOM     33  C   UNL     1       6.587   4.692   1.423  1.00  0.00     0.010 A 
ATOM     34  C   UNL     1       7.249   5.686   0.680  1.00  0.00    -0.014 A 
BRANCH  34  35
ATOM     35  C   UNL     1       8.698   5.943   0.861  1.00  0.00     0.031 A 
ATOM     36  C   UNL     1       9.679   4.975   0.252  1.00  0.00     0.074 A 
ATOM     37  C   UNL     1       9.122   7.058   1.482  1.00  0.00     0.049 A 
ATOM     38  N   UNL     1      10.982   5.049   0.184  1.00  0.00    -0.248 NA
ATOM     39  C   UNL     1       9.114   3.764  -0.370  1.00  0.00     0.031 C 
ATOM     40  C   UNL     1       8.253   8.051   2.113  1.00  0.00     0.029 A 
ATOM     41  N   UNL     1      10.389   7.541   1.684  1.00  0.00    -0.354 N 
ATOM     42  C   UNL     1      11.392   3.900  -0.484  1.00  0.00     0.074 A 
ATOM     43  C   UNL     1      10.205   3.128  -0.773  1.00  0.00     0.031 C 
ATOM     44  C   UNL     1       9.016   9.021   2.646  1.00  0.00     0.029 A 
ATOM     45  C   UNL     1      10.423   8.718   2.394  1.00  0.00     0.049 A 
ATOM     46  H   UNL     1      11.198   7.088   1.353  1.00  0.00     0.167 HD
ATOM     47  C   UNL     1      12.643   3.536  -0.852  1.00  0.00     0.034 A 
ATOM     48  C   UNL     1      11.474   9.465   2.788  1.00  0.00     0.034 A 
ATOM     49  C   UNL     1      13.813   4.319  -0.569  1.00  0.00     0.049 A 
ATOM     50  C   UNL     1      12.856   9.046   2.355  1.00  0.00     0.074 A 
ATOM     51  C   UNL     1      15.131   4.050  -0.888  1.00  0.00     0.029 A 
ATOM     52  N   UNL     1      13.801   5.533   0.103  1.00  0.00    -0.354 N 
ATOM     53  N   UNL     1      13.214   8.010   1.633  1.00  0.00    -0.248 NA
ATOM     54  C   UNL     1      13.972   9.917   2.748  1.00  0.00     0.031 C 
ATOM     55  C   UNL     1      15.917   5.103  -0.405  1.00  0.00     0.029 A 
ATOM     56  C   UNL     1      15.086   6.031   0.205  1.00  0.00     0.049 A 
ATOM     57  H   UNL     1      12.995   5.974   0.456  1.00  0.00     0.167 HD
ATOM     58  C   UNL     1      14.590   8.116   1.466  1.00  0.00     0.074 A 
ATOM     59  C   UNL     1      14.996   9.335   2.138  1.00  0.00     0.031 C 
ATOM     60  C   UNL     1      15.447   7.274   0.836  1.00  0.00     0.034 A 
BRANCH  47  61
ATOM     61  C   UNL     1      12.794   2.264  -1.646  1.00  0.00     0.023 A 
ATOM     62  C   UNL     1      12.407   2.252  -3.002  1.00  0.00     0.012 A 
ATOM     63  C   UNL     1      13.347   1.101  -1.075  1.00  0.00     0.148 A 
ATOM     64  C   UNL     1      12.541   1.096  -3.771  1.00  0.00     0.002 A 
ATOM     65  C   UNL     1      13.509  -0.038  -1.858  1.00  0.00     0.091 A 
ATOM     66  F   UNL     1      13.690   1.126   0.220  1.00  0.00    -0.205 F 
ATOM     67  C   UNL     1      13.099  -0.045  -3.201  1.00  0.00     0.022 A 
BRANCH  65  68
ATOM     68  S   UNL     1      14.265  -1.546  -1.238  1.00  0.00     0.127 S 
ATOM     69  O   UNL     1      13.124  -2.459  -1.210  1.00  0.00    -0.237 OA
ATOM     70  O   UNL     1      15.256  -1.841  -2.274  1.00  0.00    -0.237 OA
ATOM     71  O   UNL     1      14.826  -1.210   0.063  1.00  0.00    -0.744 OA
ENDBRANCH  65  68
ENDBRANCH  47  61
BRANCH  48  72
ATOM     72  C   UNL     1      11.247  10.710   3.578  1.00  0.00     0.023 A 
ATOM     73  C   UNL     1      11.492  11.968   2.995  1.00  0.00     0.012 A 
ATOM     74  C   UNL     1      10.742  10.655   4.892  1.00  0.00     0.148 A 
ATOM     75  C   UNL     1      11.261  13.144   3.712  1.00  0.00     0.002 A 
ATOM     76  C   UNL     1      10.459  11.831   5.580  1.00  0.00     0.091 A 
ATOM     77  F   UNL     1      10.538   9.452   5.448  1.00  0.00    -0.205 F 
ATOM     78  C   UNL     1      10.731  13.077   4.998  1.00  0.00     0.022 A 
BRANCH  76  79
ATOM     79  S   UNL     1       9.635  11.805   7.177  1.00  0.00     0.127 S 
ATOM     80  O   UNL     1      10.762  11.890   8.101  1.00  0.00    -0.237 OA
ATOM     81  O   UNL     1       8.796  13.003   7.118  1.00  0.00    -0.237 OA
ATOM     82  O   UNL     1       8.882  10.557   7.189  1.00  0.00    -0.744 OA
ENDBRANCH  76  79
ENDBRANCH  48  72
BRANCH  60  83
ATOM     83  C   UNL     1      16.904   7.646   0.835  1.00  0.00     0.023 A 
ATOM     84  C   UNL     1      17.664   7.466   2.007  1.00  0.00     0.012 A 
ATOM     85  C   UNL     1      17.536   8.089  -0.342  1.00  0.00     0.148 A 
ATOM     86  C   UNL     1      19.028   7.747   2.015  1.00  0.00     0.002 A 
ATOM     87  C   UNL     1      18.905   8.329  -0.338  1.00  0.00     0.091 A 
ATOM     88  F   UNL     1      16.789   8.272  -1.441  1.00  0.00    -0.205 F 
ATOM     89  C   UNL     1      19.651   8.167   0.841  1.00  0.00     0.022 A 
BRANCH  87  90
ATOM     90  S   UNL     1      19.798   8.787  -1.827  1.00  0.00     0.127 S 
ATOM     91  O   UNL     1      19.987  10.223  -1.631  1.00  0.00    -0.237 OA
ATOM     92  O   UNL     1      21.021   7.990  -1.717  1.00  0.00    -0.237 OA
ATOM     93  O   UNL     1      18.935   8.410  -2.939  1.00  0.00    -0.744 OA
ENDBRANCH  87  90
ENDBRANCH  60  83
ENDBRANCH  34  35
ENDBRANCH  27  29
ENDBRANCH  26  27
ENDBRANCH  25  26
ENDBRANCH  24  25
ENDBRANCH  23  24
ENDBRANCH   1  23
TORSDOF 21
