REMARK SMILES [NH3+][C@@]1(C(=O)OCCOCCOC(=O)c2ccc(-c3c4nc(c(-c5cccc(S(=O)(=O)[O-])c5F)c5ccc([nH]5)c(-c5cccc(S(=O)(=O)[O-])c5F)c5nc(c(-c6cccc(S(=O)(=O)[O-])c6F)c6ccc3[nH]6)C=C5)C=C4)cc2)CC[C@H](SC2CCOCC2)C1
REMARK SMILES IDX 9 1 8 2 7 3 6 4 5 5 3 6 4 7 2 8 77 9 87 10 78 11 79 12 1 13
REMARK SMILES IDX 80 17 81 18 82 19 86 20 83 21 85 22 84 23 10 24 11 25 12 26
REMARK SMILES IDX 13 27 14 28 15 29 76 30 16 31 75 32 17 33 18 34 19 35 69 36
REMARK SMILES IDX 20 37 74 38 68 39 70 40 21 41 73 42 67 43 66 44 22 46 54 47
REMARK SMILES IDX 34 48 53 49 35 50 38 51 52 52 71 53 36 54 37 55 51 57 72 58
REMARK SMILES IDX 39 59 23 60 24 61 32 62 25 63 27 64 33 65 26 66 28 67 29 68
REMARK SMILES IDX 30 69 31 70 55 71 56 72 64 73 57 74 59 75 65 76 58 77 60 78
REMARK SMILES IDX 61 79 62 80 63 81 40 82 41 83 49 84 42 85 44 86 50 87 43 88
REMARK SMILES IDX 45 89 46 90 47 91 48 92
REMARK H PARENT 1 14 1 15 1 16 70 45 38 56
REMARK Flexibility Score: inf
ROOT
ATOM      1  C   UNL     1      -1.390   1.965   2.036  1.00  0.00     0.202 C 
ENDROOT
BRANCH   1   2
ATOM      2  O   UNL     1      -2.775   1.688   1.843  1.00  0.00    -0.374 OA
BRANCH   2   3
ATOM      3  C   UNL     1      -3.276   0.449   2.352  1.00  0.00     0.202 C 
BRANCH   3   4
ATOM      4  C   UNL     1      -2.927  -0.809   1.552  1.00  0.00     0.261 C 
BRANCH   4   5
ATOM      5  O   UNL     1      -1.518  -1.094   1.613  1.00  0.00    -0.459 OA
BRANCH   5   6
ATOM      6  C   UNL     1      -0.850  -1.079   0.428  1.00  0.00     0.368 C 
ATOM      7  O   UNL     1      -1.389  -0.942  -0.666  1.00  0.00    -0.245 OA
BRANCH   6   8
ATOM      8  C   UNL     1       0.697  -1.217   0.616  1.00  0.00     0.193 C 
ATOM      9  C   UNL     1       1.089  -2.678   0.405  1.00  0.00     0.082 C 
ATOM     10  C   UNL     1       1.230  -0.894   2.027  1.00  0.00     0.095 C 
ATOM     11  C   UNL     1       0.883  -3.298   1.781  1.00  0.00     0.022 C 
ATOM     12  C   UNL     1       1.417  -2.247   2.750  1.00  0.00     0.054 C 
BRANCH   8  13
ATOM     13  N   UNL     1       1.358  -0.362  -0.400  1.00  0.00    -0.343 N 
ATOM     14  H   UNL     1       0.993  -0.589  -1.325  1.00  0.00     0.345 HD
ATOM     15  H   UNL     1       2.364  -0.528  -0.381  1.00  0.00     0.345 HD
ATOM     16  H   UNL     1       1.171   0.619  -0.192  1.00  0.00     0.345 HD
ENDBRANCH   8  13
BRANCH  12  17
ATOM     17  S   UNL     1       0.608  -2.202   4.390  1.00  0.00    -0.155 SA
BRANCH  17  18
ATOM     18  C   UNL     1       1.033  -3.828   5.147  1.00  0.00     0.051 C 
ATOM     19  C   UNL     1       2.519  -4.181   5.079  1.00  0.00     0.043 C 
ATOM     20  C   UNL     1       0.149  -4.965   4.632  1.00  0.00     0.043 C 
ATOM     21  C   UNL     1       2.755  -5.544   5.717  1.00  0.00     0.161 C 
ATOM     22  C   UNL     1       0.554  -6.288   5.271  1.00  0.00     0.161 C 
ATOM     23  O   UNL     1       1.950  -6.528   5.071  1.00  0.00    -0.381 OA
ENDBRANCH  17  18
ENDBRANCH  12  17
ENDBRANCH   6   8
ENDBRANCH   5   6
ENDBRANCH   4   5
ENDBRANCH   3   4
ENDBRANCH   2   3
ENDBRANCH   1   2
BRANCH   1  24
ATOM     24  C   UNL     1      -0.953   2.400   3.441  1.00  0.00     0.261 C 
BRANCH  24  25
ATOM     25  O   UNL     1      -1.238   1.413   4.446  1.00  0.00    -0.460 OA
BRANCH  25  26
ATOM     26  C   UNL     1      -2.206   1.774   5.320  1.00  0.00     0.338 C 
ATOM     27  O   UNL     1      -2.761   2.865   5.386  1.00  0.00    -0.246 OA
BRANCH  26  28
ATOM     28  C   UNL     1      -2.666   0.625   6.121  1.00  0.00     0.060 A 
ATOM     29  C   UNL     1      -4.050   0.428   6.200  1.00  0.00     0.016 A 
ATOM     30  C   UNL     1      -1.794  -0.166   6.873  1.00  0.00     0.016 A 
ATOM     31  C   UNL     1      -4.574  -0.490   7.104  1.00  0.00     0.010 A 
ATOM     32  C   UNL     1      -2.323  -1.091   7.783  1.00  0.00     0.010 A 
ATOM     33  C   UNL     1      -3.715  -1.209   7.946  1.00  0.00    -0.014 A 
BRANCH  33  34
ATOM     34  C   UNL     1      -4.305  -1.916   9.110  1.00  0.00     0.031 A 
ATOM     35  C   UNL     1      -4.274  -1.252  10.461  1.00  0.00     0.074 A 
ATOM     36  C   UNL     1      -4.924  -3.100   8.961  1.00  0.00     0.049 A 
ATOM     37  N   UNL     1      -4.827  -1.633  11.584  1.00  0.00    -0.248 NA
ATOM     38  C   UNL     1      -3.519   0.007  10.560  1.00  0.00     0.031 C 
ATOM     39  C   UNL     1      -5.006  -3.857   7.714  1.00  0.00     0.029 A 
ATOM     40  N   UNL     1      -5.592  -3.875   9.875  1.00  0.00    -0.354 N 
ATOM     41  C   UNL     1      -4.473  -0.674  12.525  1.00  0.00     0.074 A 
ATOM     42  C   UNL     1      -3.635   0.292  11.849  1.00  0.00     0.031 C 
ATOM     43  C   UNL     1      -5.666  -5.004   7.947  1.00  0.00     0.029 A 
ATOM     44  C   UNL     1      -6.053  -5.061   9.357  1.00  0.00     0.049 A 
ATOM     45  H   UNL     1      -5.729  -3.607  10.812  1.00  0.00     0.167 HD
ATOM     46  C   UNL     1      -4.833  -0.585  13.828  1.00  0.00     0.034 A 
ATOM     47  C   UNL     1      -6.710  -6.077   9.951  1.00  0.00     0.034 A 
ATOM     48  C   UNL     1      -5.687  -1.528  14.497  1.00  0.00     0.049 A 
ATOM     49  C   UNL     1      -7.123  -5.949  11.394  1.00  0.00     0.074 A 
ATOM     50  C   UNL     1      -6.160  -1.491  15.796  1.00  0.00     0.029 A 
ATOM     51  N   UNL     1      -6.188  -2.686  13.922  1.00  0.00    -0.354 N 
ATOM     52  N   UNL     1      -6.913  -4.960  12.228  1.00  0.00    -0.248 NA
ATOM     53  C   UNL     1      -7.908  -7.055  11.963  1.00  0.00     0.031 C 
ATOM     54  C   UNL     1      -6.932  -2.639  16.013  1.00  0.00     0.029 A 
ATOM     55  C   UNL     1      -6.956  -3.379  14.842  1.00  0.00     0.049 A 
ATOM     56  H   UNL     1      -6.021  -2.973  12.995  1.00  0.00     0.167 HD
ATOM     57  C   UNL     1      -7.561  -5.308  13.409  1.00  0.00     0.074 A 
ATOM     58  C   UNL     1      -8.191  -6.591  13.173  1.00  0.00     0.031 C 
ATOM     59  C   UNL     1      -7.618  -4.633  14.584  1.00  0.00     0.034 A 
BRANCH  46  60
ATOM     60  C   UNL     1      -4.322   0.601  14.603  1.00  0.00     0.023 A 
ATOM     61  C   UNL     1      -4.861   1.881  14.352  1.00  0.00     0.012 A 
ATOM     62  C   UNL     1      -3.327   0.452  15.586  1.00  0.00     0.148 A 
ATOM     63  C   UNL     1      -4.387   2.998  15.039  1.00  0.00     0.002 A 
ATOM     64  C   UNL     1      -2.889   1.565  16.297  1.00  0.00     0.091 A 
ATOM     65  F   UNL     1      -2.803  -0.765  15.791  1.00  0.00    -0.205 F 
ATOM     66  C   UNL     1      -3.409   2.839  16.017  1.00  0.00     0.022 A 
BRANCH  64  67
ATOM     67  S   UNL     1      -1.684   1.436  17.622  1.00  0.00     0.127 S 
ATOM     68  O   UNL     1      -0.456   1.857  16.949  1.00  0.00    -0.237 OA
ATOM     69  O   UNL     1      -2.196   2.391  18.607  1.00  0.00    -0.237 OA
ATOM     70  O   UNL     1      -1.725   0.046  18.056  1.00  0.00    -0.744 OA
ENDBRANCH  64  67
ENDBRANCH  46  60
BRANCH  47  71
ATOM     71  C   UNL     1      -7.056  -7.283   9.150  1.00  0.00     0.023 A 
ATOM     72  C   UNL     1      -8.393  -7.524   8.782  1.00  0.00     0.012 A 
ATOM     73  C   UNL     1      -6.048  -8.158   8.700  1.00  0.00     0.148 A 
ATOM     74  C   UNL     1      -8.722  -8.625   7.990  1.00  0.00     0.002 A 
ATOM     75  C   UNL     1      -6.375  -9.219   7.865  1.00  0.00     0.091 A 
ATOM     76  F   UNL     1      -4.785  -7.918   9.078  1.00  0.00    -0.205 F 
ATOM     77  C   UNL     1      -7.713  -9.464   7.521  1.00  0.00     0.022 A 
BRANCH  75  78
ATOM     78  S   UNL     1      -5.126 -10.259   7.100  1.00  0.00     0.127 S 
ATOM     79  O   UNL     1      -5.330 -11.530   7.791  1.00  0.00    -0.237 OA
ATOM     80  O   UNL     1      -5.542 -10.245   5.697  1.00  0.00    -0.237 OA
ATOM     81  O   UNL     1      -3.854  -9.597   7.354  1.00  0.00    -0.744 OA
ENDBRANCH  75  78
ENDBRANCH  47  71
BRANCH  59  82
ATOM     82  C   UNL     1      -8.402  -5.254  15.712  1.00  0.00     0.023 A 
ATOM     83  C   UNL     1      -7.883  -6.376  16.389  1.00  0.00     0.012 A 
ATOM     84  C   UNL     1      -9.615  -4.686  16.149  1.00  0.00     0.148 A 
ATOM     85  C   UNL     1      -8.574  -6.941  17.460  1.00  0.00     0.002 A 
ATOM     86  C   UNL     1     -10.276  -5.228  17.246  1.00  0.00     0.091 A 
ATOM     87  F   UNL     1     -10.107  -3.632  15.482  1.00  0.00    -0.205 F 
ATOM     88  C   UNL     1      -9.763  -6.362  17.896  1.00  0.00     0.022 A 
BRANCH  86  89
ATOM     89  S   UNL     1     -11.763  -4.482  17.926  1.00  0.00     0.127 S 
ATOM     90  O   UNL     1     -12.808  -5.340  17.372  1.00  0.00    -0.237 OA
ATOM     91  O   UNL     1     -11.558  -4.626  19.369  1.00  0.00    -0.237 OA
ATOM     92  O   UNL     1     -11.762  -3.103  17.457  1.00  0.00    -0.744 OA
ENDBRANCH  86  89
ENDBRANCH  59  82
ENDBRANCH  33  34
ENDBRANCH  26  28
ENDBRANCH  25  26
ENDBRANCH  24  25
ENDBRANCH   1  24
TORSDOF 20
