REMARK SMILES O=C(OCCOCCOC(=O)[C@H]1C[C@H]2CCCC[C@@H]2[N@@H+]1CC[C@@H]1CCCO1)c1ccc(-c2c3nc(c(-c4cccc(S(=O)(=O)[O-])c4F)c4ccc([nH]4)c(-c4cccc(S(=O)(=O)[O-])c4F)c4nc(c(-c5cccc(S(=O)(=O)[O-])c5F)c5ccc2[nH]5)C=C4)C=C3)cc1
REMARK SMILES IDX 6 1 5 2 4 3 3 4 2 5 1 6 28 7 29 8 90 9 30 10 89 11 31 12
REMARK SMILES IDX 32 13 33 14 83 15 34 16 88 17 82 18 84 19 35 20 87 21 81 22
REMARK SMILES IDX 80 23 36 25 68 26 48 27 67 28 49 29 52 30 66 31 85 32 50 33
REMARK SMILES IDX 51 34 65 36 86 37 53 38 37 39 38 40 46 41 39 42 41 43 47 44
REMARK SMILES IDX 40 45 42 46 43 47 44 48 45 49 69 50 70 51 78 52 71 53 73 54
REMARK SMILES IDX 79 55 72 56 74 57 75 58 76 59 77 60 54 61 55 62 63 63 56 64
REMARK SMILES IDX 58 65 64 66 57 67 59 68 60 69 61 70 62 71 7 72 8 73 9 74
REMARK SMILES IDX 10 75 11 76 12 77 13 78 20 79 14 80 19 81 15 83 18 84 16 85
REMARK SMILES IDX 17 86 21 87 22 88 23 89 24 90 27 91 25 92 26 93
REMARK H PARENT 84 24 52 35 20 82
REMARK Flexibility Score: inf
ROOT
ATOM      1  O   UNL     1       6.131  -2.181   2.558  1.00  0.00    -0.374 OA
ENDROOT
BRANCH   1   2
ATOM      2  C   UNL     1       4.802  -2.698   2.599  1.00  0.00     0.202 C 
BRANCH   2   3
ATOM      3  C   UNL     1       4.025  -2.383   3.879  1.00  0.00     0.261 C 
BRANCH   3   4
ATOM      4  O   UNL     1       3.939  -0.968   4.082  1.00  0.00    -0.460 OA
BRANCH   4   5
ATOM      5  C   UNL     1       4.899  -0.177   4.619  1.00  0.00     0.338 C 
ATOM      6  O   UNL     1       4.808   1.039   4.461  1.00  0.00    -0.246 OA
BRANCH   5   7
ATOM      7  C   UNL     1       6.015  -0.702   5.464  1.00  0.00     0.060 A 
ATOM      8  C   UNL     1       6.645  -1.942   5.309  1.00  0.00     0.016 A 
ATOM      9  C   UNL     1       6.509   0.168   6.448  1.00  0.00     0.016 A 
ATOM     10  C   UNL     1       7.718  -2.323   6.085  1.00  0.00     0.010 A 
ATOM     11  C   UNL     1       7.587  -0.206   7.248  1.00  0.00     0.010 A 
ATOM     12  C   UNL     1       8.179  -1.459   7.063  1.00  0.00    -0.014 A 
BRANCH  12  13
ATOM     13  C   UNL     1       9.179  -1.984   7.989  1.00  0.00     0.031 A 
ATOM     14  C   UNL     1       8.689  -2.484   9.303  1.00  0.00     0.074 A 
ATOM     15  C   UNL     1      10.455  -2.084   7.592  1.00  0.00     0.049 A 
ATOM     16  N   UNL     1       9.369  -2.863  10.344  1.00  0.00    -0.248 NA
ATOM     17  C   UNL     1       7.225  -2.574   9.464  1.00  0.00     0.031 C 
ATOM     18  C   UNL     1      10.951  -1.742   6.257  1.00  0.00     0.029 A 
ATOM     19  N   UNL     1      11.566  -2.485   8.276  1.00  0.00    -0.354 N 
ATOM     20  C   UNL     1       8.421  -3.158  11.312  1.00  0.00     0.074 A 
ATOM     21  C   UNL     1       7.117  -2.958  10.725  1.00  0.00     0.031 C 
ATOM     22  C   UNL     1      12.283  -1.903   6.234  1.00  0.00     0.029 A 
ATOM     23  C   UNL     1      12.727  -2.286   7.569  1.00  0.00     0.049 A 
ATOM     24  H   UNL     1      11.538  -2.876   9.179  1.00  0.00     0.167 HD
ATOM     25  C   UNL     1       8.642  -3.532  12.591  1.00  0.00     0.034 A 
ATOM     26  C   UNL     1      14.001  -2.336   7.996  1.00  0.00     0.034 A 
ATOM     27  C   UNL     1       9.966  -3.702  13.118  1.00  0.00     0.049 A 
ATOM     28  C   UNL     1      14.230  -2.699   9.437  1.00  0.00     0.074 A 
ATOM     29  C   UNL     1      10.353  -4.046  14.396  1.00  0.00     0.029 A 
ATOM     30  N   UNL     1      11.128  -3.515  12.375  1.00  0.00    -0.354 N 
ATOM     31  N   UNL     1      13.341  -2.973  10.364  1.00  0.00    -0.248 NA
ATOM     32  C   UNL     1      15.621  -2.778   9.893  1.00  0.00     0.031 C 
ATOM     33  C   UNL     1      11.751  -4.028  14.435  1.00  0.00     0.029 A 
ATOM     34  C   UNL     1      12.236  -3.725  13.168  1.00  0.00     0.049 A 
ATOM     35  H   UNL     1      11.155  -3.268  11.422  1.00  0.00     0.167 HD
ATOM     36  C   UNL     1      14.060  -3.291  11.506  1.00  0.00     0.074 A 
ATOM     37  C   UNL     1      15.463  -3.176  11.149  1.00  0.00     0.031 C 
ATOM     38  C   UNL     1      13.612  -3.644  12.737  1.00  0.00     0.034 A 
BRANCH  25  39
ATOM     39  C   UNL     1       7.437  -3.682  13.477  1.00  0.00     0.023 A 
ATOM     40  C   UNL     1       6.523  -4.737  13.274  1.00  0.00     0.012 A 
ATOM     41  C   UNL     1       7.173  -2.724  14.474  1.00  0.00     0.148 A 
ATOM     42  C   UNL     1       5.340  -4.802  14.011  1.00  0.00     0.002 A 
ATOM     43  C   UNL     1       6.017  -2.823  15.238  1.00  0.00     0.091 A 
ATOM     44  F   UNL     1       8.033  -1.706  14.628  1.00  0.00    -0.205 F 
ATOM     45  C   UNL     1       5.090  -3.849  14.995  1.00  0.00     0.022 A 
BRANCH  43  46
ATOM     46  S   UNL     1       5.643  -1.680  16.570  1.00  0.00     0.127 S 
ATOM     47  O   UNL     1       4.540  -0.909  15.998  1.00  0.00    -0.237 OA
ATOM     48  O   UNL     1       5.253  -2.588  17.651  1.00  0.00    -0.237 OA
ATOM     49  O   UNL     1       6.867  -0.934  16.817  1.00  0.00    -0.744 OA
ENDBRANCH  43  46
ENDBRANCH  25  39
BRANCH  26  50
ATOM     50  C   UNL     1      15.106  -2.008   7.055  1.00  0.00     0.023 A 
ATOM     51  C   UNL     1      15.970  -3.023   6.607  1.00  0.00     0.012 A 
ATOM     52  C   UNL     1      15.248  -0.705   6.531  1.00  0.00     0.148 A 
ATOM     53  C   UNL     1      16.963  -2.745   5.664  1.00  0.00     0.002 A 
ATOM     54  C   UNL     1      16.203  -0.447   5.555  1.00  0.00     0.091 A 
ATOM     55  F   UNL     1      14.419   0.251   6.976  1.00  0.00    -0.205 F 
ATOM     56  C   UNL     1      17.071  -1.463   5.130  1.00  0.00     0.022 A 
BRANCH  54  57
ATOM     57  S   UNL     1      16.329   1.139   4.718  1.00  0.00     0.127 S 
ATOM     58  O   UNL     1      17.640   1.608   5.165  1.00  0.00    -0.237 OA
ATOM     59  O   UNL     1      16.267   0.740   3.311  1.00  0.00    -0.237 OA
ATOM     60  O   UNL     1      15.193   1.923   5.175  1.00  0.00    -0.744 OA
ENDBRANCH  54  57
ENDBRANCH  26  50
BRANCH  38  61
ATOM     61  C   UNL     1      14.642  -3.999  13.770  1.00  0.00     0.023 A 
ATOM     62  C   UNL     1      15.368  -2.986  14.422  1.00  0.00     0.012 A 
ATOM     63  C   UNL     1      14.766  -5.337  14.190  1.00  0.00     0.148 A 
ATOM     64  C   UNL     1      16.217  -3.306  15.479  1.00  0.00     0.002 A 
ATOM     65  C   UNL     1      15.567  -5.639  15.280  1.00  0.00     0.091 A 
ATOM     66  F   UNL     1      14.073  -6.279  13.535  1.00  0.00    -0.205 F 
ATOM     67  C   UNL     1      16.302  -4.627  15.920  1.00  0.00     0.022 A 
BRANCH  65  68
ATOM     68  S   UNL     1      15.638  -7.286  15.990  1.00  0.00     0.127 S 
ATOM     69  O   UNL     1      17.009  -7.686  15.675  1.00  0.00    -0.237 OA
ATOM     70  O   UNL     1      15.388  -7.020  17.406  1.00  0.00    -0.237 OA
ATOM     71  O   UNL     1      14.598  -8.059  15.325  1.00  0.00    -0.744 OA
ENDBRANCH  65  68
ENDBRANCH  38  61
ENDBRANCH  12  13
ENDBRANCH   5   7
ENDBRANCH   4   5
ENDBRANCH   3   4
ENDBRANCH   2   3
ENDBRANCH   1   2
BRANCH   1  72
ATOM     72  C   UNL     1       6.303  -0.984   1.802  1.00  0.00     0.202 C 
BRANCH  72  73
ATOM     73  C   UNL     1       6.854  -1.293   0.411  1.00  0.00     0.261 C 
BRANCH  73  74
ATOM     74  O   UNL     1       5.952  -2.164  -0.299  1.00  0.00    -0.459 OA
BRANCH  74  75
ATOM     75  C   UNL     1       6.234  -3.498  -0.174  1.00  0.00     0.365 C 
ATOM     76  O   UNL     1       7.235  -3.953   0.367  1.00  0.00    -0.245 OA
BRANCH  75  77
ATOM     77  C   UNL     1       5.101  -4.352  -0.775  1.00  0.00     0.295 C 
ATOM     78  C   UNL     1       5.678  -5.723  -1.197  1.00  0.00     0.087 C 
ATOM     79  N   UNL     1       4.089  -4.660   0.258  1.00  0.00    -0.320 N 
ATOM     80  C   UNL     1       4.869  -6.739  -0.406  1.00  0.00     0.054 C 
ATOM     81  C   UNL     1       4.403  -5.966   0.814  1.00  0.00     0.188 C 
ATOM     82  H   UNL     1       4.150  -3.986   1.020  1.00  0.00     0.349 HD
ATOM     83  C   UNL     1       5.558  -8.024   0.015  1.00  0.00     0.010 C 
ATOM     84  C   UNL     1       3.375  -6.747   1.619  1.00  0.00     0.065 C 
ATOM     85  C   UNL     1       4.569  -8.891   0.804  1.00  0.00     0.001 C 
ATOM     86  C   UNL     1       3.883  -8.154   1.963  1.00  0.00     0.006 C 
BRANCH  79  87
ATOM     87  C   UNL     1       2.736  -4.138   0.173  1.00  0.00     0.265 C 
BRANCH  87  88
ATOM     88  C   UNL     1       1.919  -4.148  -1.132  1.00  0.00     0.093 C 
BRANCH  88  89
ATOM     89  C   UNL     1       1.119  -5.395  -1.510  1.00  0.00     0.123 C 
ATOM     90  C   UNL     1       0.011  -5.808  -0.553  1.00  0.00     0.034 C 
ATOM     91  O   UNL     1       1.963  -6.518  -1.711  1.00  0.00    -0.378 OA
ATOM     92  C   UNL     1       0.155  -7.303  -0.392  1.00  0.00     0.031 C 
ATOM     93  C   UNL     1       1.267  -7.702  -1.333  1.00  0.00     0.160 C 
ENDBRANCH  88  89
ENDBRANCH  87  88
ENDBRANCH  79  87
ENDBRANCH  75  77
ENDBRANCH  74  75
ENDBRANCH  73  74
ENDBRANCH  72  73
ENDBRANCH   1  72
TORSDOF 20
