REMARK SMILES CCC[C@@H](C)C[C@H](C(=O)OCCOCCOC(=O)c1ccc(-c2c3nc(c(-c4cccc(S(=O)(=O)[O-])c4F)c4ccc([nH]4)c(-c4cccc(S(=O)(=O)[O-])c4F)c4nc(c(-c5cccc(S(=O)(=O)[O-])c5F)c5ccc2[nH]5)C=C4)C=C3)cc1)c1ccccc1C
REMARK SMILES IDX 12 1 11 2 10 3 8 4 9 5 7 6 6 7 4 8 5 9 3 10 2 11 1 12 82 13
REMARK SMILES IDX 83 14 87 15 84 16 86 17 88 18 85 19 13 20 14 21 15 22 16 23
REMARK SMILES IDX 17 24 18 25 19 26 20 27 81 28 21 29 80 30 22 31 23 32 24 33
REMARK SMILES IDX 74 34 25 35 79 36 73 37 75 38 26 39 78 40 72 41 71 42 27 44
REMARK SMILES IDX 59 45 39 46 58 47 40 48 43 49 57 50 76 51 41 52 42 53 56 55
REMARK SMILES IDX 77 56 44 57 28 58 29 59 37 60 30 61 32 62 38 63 31 64 33 65
REMARK SMILES IDX 34 66 35 67 36 68 60 69 61 70 69 71 62 72 64 73 70 74 63 75
REMARK SMILES IDX 65 76 66 77 67 78 68 79 45 80 46 81 54 82 47 83 49 84 55 85
REMARK SMILES IDX 48 86 50 87 51 88 52 89 53 90
REMARK H PARENT 75 43 43 54
REMARK Flexibility Score: inf
ROOT
ATOM      1  C   UNL     1      -1.942   0.783  -5.225  1.00  0.00     0.202 C 
ENDROOT
BRANCH   1   2
ATOM      2  C   UNL     1      -1.288  -0.263  -4.317  1.00  0.00     0.261 C 
BRANCH   2   3
ATOM      3  O   UNL     1       0.124  -0.109  -4.135  1.00  0.00    -0.463 OA
BRANCH   3   4
ATOM      4  C   UNL     1       0.892  -0.947  -4.898  1.00  0.00     0.313 C 
ATOM      5  O   UNL     1       0.454  -1.720  -5.743  1.00  0.00    -0.252 OA
BRANCH   4   6
ATOM      6  C   UNL     1       2.363  -0.837  -4.504  1.00  0.00     0.130 C 
BRANCH   6   7
ATOM      7  C   UNL     1       2.802  -2.017  -3.587  1.00  0.00     0.023 C 
BRANCH   7   8
ATOM      8  C   UNL     1       1.945  -2.251  -2.310  1.00  0.00    -0.013 C 
ATOM      9  C   UNL     1       2.793  -2.984  -1.260  1.00  0.00     0.007 C 
BRANCH   8  10
ATOM     10  C   UNL     1       0.677  -3.088  -2.604  1.00  0.00     0.003 C 
BRANCH  10  11
ATOM     11  C   UNL     1      -0.352  -3.215  -1.475  1.00  0.00    -0.003 C 
ATOM     12  C   UNL     1      -0.630  -1.929  -0.713  1.00  0.00     0.004 C 
ENDBRANCH  10  11
ENDBRANCH   8  10
ENDBRANCH   7   8
ENDBRANCH   6   7
BRANCH   6  13
ATOM     13  C   UNL     1       3.216  -0.710  -5.781  1.00  0.00    -0.031 A 
ATOM     14  C   UNL     1       3.386  -1.863  -6.583  1.00  0.00     0.005 A 
ATOM     15  C   UNL     1       3.733   0.513  -6.268  1.00  0.00    -0.047 A 
ATOM     16  C   UNL     1       4.035  -1.821  -7.817  1.00  0.00     0.000 A 
ATOM     17  C   UNL     1       4.386   0.534  -7.521  1.00  0.00     0.004 A 
ATOM     18  C   UNL     1       3.631   1.842  -5.567  1.00  0.00     0.044 C 
ATOM     19  C   UNL     1       4.532  -0.618  -8.290  1.00  0.00     0.000 A 
ENDBRANCH   6  13
ENDBRANCH   4   6
ENDBRANCH   3   4
ENDBRANCH   2   3
ENDBRANCH   1   2
BRANCH   1  20
ATOM     20  O   UNL     1      -1.302   1.091  -6.455  1.00  0.00    -0.374 OA
BRANCH  20  21
ATOM     21  C   UNL     1      -0.099   1.860  -6.411  1.00  0.00     0.202 C 
BRANCH  21  22
ATOM     22  C   UNL     1      -0.189   3.281  -5.845  1.00  0.00     0.261 C 
BRANCH  22  23
ATOM     23  O   UNL     1      -0.403   3.300  -4.419  1.00  0.00    -0.460 OA
BRANCH  23  24
ATOM     24  C   UNL     1      -1.510   3.974  -4.027  1.00  0.00     0.338 C 
ATOM     25  O   UNL     1      -2.315   4.550  -4.750  1.00  0.00    -0.246 OA
BRANCH  24  26
ATOM     26  C   UNL     1      -1.747   3.828  -2.582  1.00  0.00     0.060 A 
ATOM     27  C   UNL     1      -2.976   3.293  -2.173  1.00  0.00     0.016 A 
ATOM     28  C   UNL     1      -0.867   4.382  -1.650  1.00  0.00     0.016 A 
ATOM     29  C   UNL     1      -3.364   3.381  -0.837  1.00  0.00     0.010 A 
ATOM     30  C   UNL     1      -1.261   4.473  -0.310  1.00  0.00     0.010 A 
ATOM     31  C   UNL     1      -2.532   4.022   0.090  1.00  0.00    -0.014 A 
BRANCH  31  32
ATOM     32  C   UNL     1      -3.062   4.363   1.434  1.00  0.00     0.031 A 
ATOM     33  C   UNL     1      -3.573   5.757   1.688  1.00  0.00     0.074 A 
ATOM     34  C   UNL     1      -3.092   3.444   2.414  1.00  0.00     0.049 A 
ATOM     35  N   UNL     1      -4.077   6.267   2.782  1.00  0.00    -0.248 NA
ATOM     36  C   UNL     1      -3.507   6.702   0.561  1.00  0.00     0.031 C 
ATOM     37  C   UNL     1      -2.621   2.066   2.292  1.00  0.00     0.029 A 
ATOM     38  N   UNL     1      -3.520   3.542   3.714  1.00  0.00    -0.354 N 
ATOM     39  C   UNL     1      -4.365   7.594   2.486  1.00  0.00     0.074 A 
ATOM     40  C   UNL     1      -3.969   7.816   1.112  1.00  0.00     0.031 C 
ATOM     41  C   UNL     1      -2.758   1.454   3.481  1.00  0.00     0.029 A 
ATOM     42  C   UNL     1      -3.313   2.399   4.448  1.00  0.00     0.049 A 
ATOM     43  H   UNL     1      -3.936   4.354   4.085  1.00  0.00     0.167 HD
ATOM     44  C   UNL     1      -4.927   8.538   3.277  1.00  0.00     0.034 A 
ATOM     45  C   UNL     1      -3.533   2.150   5.754  1.00  0.00     0.034 A 
ATOM     46  C   UNL     1      -5.349   8.310   4.632  1.00  0.00     0.049 A 
ATOM     47  C   UNL     1      -4.155   3.218   6.615  1.00  0.00     0.074 A 
ATOM     48  C   UNL     1      -5.982   9.187   5.496  1.00  0.00     0.029 A 
ATOM     49  N   UNL     1      -5.173   7.123   5.325  1.00  0.00    -0.354 N 
ATOM     50  N   UNL     1      -4.549   4.423   6.280  1.00  0.00    -0.248 NA
ATOM     51  C   UNL     1      -4.396   2.881   8.026  1.00  0.00     0.031 C 
ATOM     52  C   UNL     1      -6.176   8.533   6.717  1.00  0.00     0.029 A 
ATOM     53  C   UNL     1      -5.675   7.246   6.609  1.00  0.00     0.049 A 
ATOM     54  H   UNL     1      -4.753   6.312   4.958  1.00  0.00     0.167 HD
ATOM     55  C   UNL     1      -5.112   4.975   7.426  1.00  0.00     0.074 A 
ATOM     56  C   UNL     1      -5.027   3.964   8.460  1.00  0.00     0.031 C 
ATOM     57  C   UNL     1      -5.636   6.212   7.611  1.00  0.00     0.034 A 
BRANCH  44  58
ATOM     58  C   UNL     1      -5.163   9.900   2.680  1.00  0.00     0.023 A 
ATOM     59  C   UNL     1      -6.229  10.083   1.776  1.00  0.00     0.012 A 
ATOM     60  C   UNL     1      -4.375  11.006   3.055  1.00  0.00     0.148 A 
ATOM     61  C   UNL     1      -6.492  11.341   1.234  1.00  0.00     0.002 A 
ATOM     62  C   UNL     1      -4.666  12.263   2.537  1.00  0.00     0.091 A 
ATOM     63  F   UNL     1      -3.350  10.806   3.895  1.00  0.00    -0.205 F 
ATOM     64  C   UNL     1      -5.718  12.431   1.622  1.00  0.00     0.022 A 
BRANCH  62  65
ATOM     65  S   UNL     1      -3.767  13.739   3.029  1.00  0.00     0.127 S 
ATOM     66  O   UNL     1      -2.929  13.979   1.855  1.00  0.00    -0.237 OA
ATOM     67  O   UNL     1      -4.843  14.712   3.219  1.00  0.00    -0.237 OA
ATOM     68  O   UNL     1      -3.054  13.382   4.248  1.00  0.00    -0.744 OA
ENDBRANCH  62  65
ENDBRANCH  44  58
BRANCH  45  69
ATOM     69  C   UNL     1      -3.207   0.809   6.315  1.00  0.00     0.023 A 
ATOM     70  C   UNL     1      -4.250  -0.060   6.688  1.00  0.00     0.012 A 
ATOM     71  C   UNL     1      -1.873   0.378   6.448  1.00  0.00     0.148 A 
ATOM     72  C   UNL     1      -3.970  -1.326   7.204  1.00  0.00     0.002 A 
ATOM     73  C   UNL     1      -1.602  -0.904   6.912  1.00  0.00     0.091 A 
ATOM     74  F   UNL     1      -0.892   1.228   6.110  1.00  0.00    -0.205 F 
ATOM     75  C   UNL     1      -2.648  -1.752   7.305  1.00  0.00     0.022 A 
BRANCH  73  76
ATOM     76  S   UNL     1       0.065  -1.575   6.945  1.00  0.00     0.127 S 
ATOM     77  O   UNL     1       0.389  -1.504   8.366  1.00  0.00    -0.237 OA
ATOM     78  O   UNL     1      -0.140  -2.928   6.425  1.00  0.00    -0.237 OA
ATOM     79  O   UNL     1       0.846  -0.713   6.067  1.00  0.00    -0.744 OA
ENDBRANCH  73  76
ENDBRANCH  45  69
BRANCH  57  80
ATOM     80  C   UNL     1      -6.182   6.545   8.975  1.00  0.00     0.023 A 
ATOM     81  C   UNL     1      -5.291   6.808  10.034  1.00  0.00     0.012 A 
ATOM     82  C   UNL     1      -7.568   6.680   9.187  1.00  0.00     0.148 A 
ATOM     83  C   UNL     1      -5.772   7.175  11.290  1.00  0.00     0.002 A 
ATOM     84  C   UNL     1      -8.038   7.088  10.431  1.00  0.00     0.091 A 
ATOM     85  F   UNL     1      -8.402   6.406   8.173  1.00  0.00    -0.205 F 
ATOM     86  C   UNL     1      -7.143   7.327  11.485  1.00  0.00     0.022 A 
BRANCH  84  87
ATOM     87  S   UNL     1      -9.782   7.394  10.740  1.00  0.00     0.127 S 
ATOM     88  O   UNL     1     -10.173   6.187  11.465  1.00  0.00    -0.237 OA
ATOM     89  O   UNL     1      -9.749   8.610  11.553  1.00  0.00    -0.237 OA
ATOM     90  O   UNL     1     -10.391   7.567   9.428  1.00  0.00    -0.744 OA
ENDBRANCH  84  87
ENDBRANCH  57  80
ENDBRANCH  31  32
ENDBRANCH  24  26
ENDBRANCH  23  24
ENDBRANCH  22  23
ENDBRANCH  21  22
ENDBRANCH  20  21
ENDBRANCH   1  20
TORSDOF 22
