REMARK SMILES O=C(OCCOCCOC(=O)c1ccc(-c2c3nc(c(-c4cccc(S(=O)(=O)[O-])c4F)c4ccc([nH]4)c(-c4cccc(S(=O)(=O)[O-])c4F)c4nc(c(-c5cccc(S(=O)(=O)[O-])c5F)c5ccc2[nH]5)C=C4)C=C3)cc1)c1ccc(CNC(=O)c2ccccc2I)cc1
REMARK SMILES IDX 6 1 5 2 4 3 3 4 2 5 1 6 75 7 76 8 91 9 77 10 90 11 78 12
REMARK SMILES IDX 79 13 80 14 81 15 82 17 83 18 84 19 88 20 85 21 87 22 89 23
REMARK SMILES IDX 86 24 7 25 8 26 9 27 10 28 11 29 12 30 13 31 74 32 14 33
REMARK SMILES IDX 73 34 15 35 16 36 17 37 67 38 18 39 72 40 66 41 68 42 19 43
REMARK SMILES IDX 71 44 65 45 64 46 20 48 52 49 32 50 51 51 33 52 36 53 50 54
REMARK SMILES IDX 69 55 34 56 35 57 49 59 70 60 37 61 21 62 22 63 30 64 23 65
REMARK SMILES IDX 25 66 31 67 24 68 26 69 27 70 28 71 29 72 53 73 54 74 62 75
REMARK SMILES IDX 55 76 57 77 63 78 56 79 58 80 59 81 60 82 61 83 38 84 39 85
REMARK SMILES IDX 47 86 40 87 42 88 48 89 41 90 43 91 44 92 45 93 46 94
REMARK H PARENT 80 16 68 47 36 58
REMARK Flexibility Score: inf
ROOT
ATOM      1  O   UNL     1       4.010  -1.446  -0.816  1.00  0.00    -0.374 OA
ENDROOT
BRANCH   1   2
ATOM      2  C   UNL     1       4.379  -1.376   0.564  1.00  0.00     0.202 C 
BRANCH   2   3
ATOM      3  C   UNL     1       4.125  -0.004   1.190  1.00  0.00     0.261 C 
BRANCH   3   4
ATOM      4  O   UNL     1       2.732   0.339   1.074  1.00  0.00    -0.460 OA
BRANCH   4   5
ATOM      5  C   UNL     1       2.192   1.253   0.238  1.00  0.00     0.338 C 
ATOM      6  O   UNL     1       0.974   1.415   0.205  1.00  0.00    -0.246 OA
BRANCH   5   7
ATOM      7  C   UNL     1       3.027   2.119  -0.634  1.00  0.00     0.060 A 
ATOM      8  C   UNL     1       4.014   1.632  -1.493  1.00  0.00     0.016 A 
ATOM      9  C   UNL     1       2.684   3.474  -0.704  1.00  0.00     0.016 A 
ATOM     10  C   UNL     1       4.677   2.478  -2.379  1.00  0.00     0.006 A 
ATOM     11  C   UNL     1       3.332   4.322  -1.607  1.00  0.00     0.006 A 
ATOM     12  C   UNL     1       4.336   3.829  -2.452  1.00  0.00    -0.029 A 
BRANCH  12  13
ATOM     13  C   UNL     1       4.950   4.694  -3.517  1.00  0.00     0.152 C 
BRANCH  13  14
ATOM     14  N   UNL     1       6.398   4.679  -3.480  1.00  0.00    -0.348 N 
ATOM     15  C   UNL     1       7.304   4.248  -4.415  1.00  0.00     0.252 C 
ATOM     16  H   UNL     1       6.795   5.035  -2.652  1.00  0.00     0.164 HD
ATOM     17  O   UNL     1       8.506   4.292  -4.167  1.00  0.00    -0.269 OA
BRANCH  15  18
ATOM     18  C   UNL     1       6.860   3.636  -5.686  1.00  0.00     0.053 A 
ATOM     19  C   UNL     1       7.272   2.308  -5.895  1.00  0.00     0.015 A 
ATOM     20  C   UNL     1       6.143   4.298  -6.690  1.00  0.00     0.026 A 
ATOM     21  C   UNL     1       6.912   1.626  -7.058  1.00  0.00     0.001 A 
ATOM     22  C   UNL     1       5.746   3.593  -7.836  1.00  0.00     0.015 A 
ATOM     23  I   UNL     1       5.727   6.358  -6.671  1.00  0.00    -0.043 I 
ATOM     24  C   UNL     1       6.127   2.261  -8.016  1.00  0.00     0.001 A 
ENDBRANCH  15  18
ENDBRANCH  13  14
ENDBRANCH  12  13
ENDBRANCH   5   7
ENDBRANCH   4   5
ENDBRANCH   3   4
ENDBRANCH   2   3
ENDBRANCH   1   2
BRANCH   1  25
ATOM     25  C   UNL     1       2.632  -1.756  -1.067  1.00  0.00     0.202 C 
BRANCH  25  26
ATOM     26  C   UNL     1       2.542  -2.866  -2.116  1.00  0.00     0.261 C 
BRANCH  26  27
ATOM     27  O   UNL     1       3.118  -4.051  -1.553  1.00  0.00    -0.460 OA
BRANCH  27  28
ATOM     28  C   UNL     1       4.470  -4.118  -1.685  1.00  0.00     0.338 C 
ATOM     29  O   UNL     1       5.147  -3.601  -2.545  1.00  0.00    -0.246 OA
BRANCH  28  30
ATOM     30  C   UNL     1       5.016  -4.773  -0.473  1.00  0.00     0.060 A 
ATOM     31  C   UNL     1       6.299  -4.398  -0.054  1.00  0.00     0.016 A 
ATOM     32  C   UNL     1       4.278  -5.709   0.259  1.00  0.00     0.016 A 
ATOM     33  C   UNL     1       6.874  -5.013   1.055  1.00  0.00     0.010 A 
ATOM     34  C   UNL     1       4.849  -6.318   1.374  1.00  0.00     0.010 A 
ATOM     35  C   UNL     1       6.167  -6.009   1.741  1.00  0.00    -0.014 A 
BRANCH  35  36
ATOM     36  C   UNL     1       6.880  -6.864   2.712  1.00  0.00     0.031 A 
ATOM     37  C   UNL     1       7.348  -8.218   2.256  1.00  0.00     0.074 A 
ATOM     38  C   UNL     1       7.115  -6.433   3.963  1.00  0.00     0.049 A 
ATOM     39  N   UNL     1       8.015  -9.128   2.913  1.00  0.00    -0.248 NA
ATOM     40  C   UNL     1       7.011  -8.602   0.873  1.00  0.00     0.031 C 
ATOM     41  C   UNL     1       6.675  -5.151   4.512  1.00  0.00     0.029 A 
ATOM     42  N   UNL     1       7.765  -7.043   5.003  1.00  0.00    -0.354 N 
ATOM     43  C   UNL     1       8.171 -10.191   2.032  1.00  0.00     0.074 A 
ATOM     44  C   UNL     1       7.498  -9.832   0.804  1.00  0.00     0.031 C 
ATOM     45  C   UNL     1       7.047  -5.081   5.802  1.00  0.00     0.029 A 
ATOM     46  C   UNL     1       7.740  -6.314   6.167  1.00  0.00     0.049 A 
ATOM     47  H   UNL     1       8.206  -7.919   4.924  1.00  0.00     0.167 HD
ATOM     48  C   UNL     1       8.841 -11.352   2.218  1.00  0.00     0.034 A 
ATOM     49  C   UNL     1       8.217  -6.620   7.390  1.00  0.00     0.034 A 
ATOM     50  C   UNL     1       9.511 -11.696   3.441  1.00  0.00     0.049 A 
ATOM     51  C   UNL     1       8.963  -7.917   7.570  1.00  0.00     0.074 A 
ATOM     52  C   UNL     1      10.243 -12.832   3.734  1.00  0.00     0.029 A 
ATOM     53  N   UNL     1       9.522 -10.906   4.581  1.00  0.00    -0.354 N 
ATOM     54  N   UNL     1       9.212  -8.858   6.690  1.00  0.00    -0.248 NA
ATOM     55  C   UNL     1       9.535  -8.172   8.899  1.00  0.00     0.031 C 
ATOM     56  C   UNL     1      10.682 -12.737   5.059  1.00  0.00     0.029 A 
ATOM     57  C   UNL     1      10.247 -11.529   5.582  1.00  0.00     0.049 A 
ATOM     58  H   UNL     1       9.080 -10.031   4.666  1.00  0.00     0.167 HD
ATOM     59  C   UNL     1       9.990  -9.803   7.349  1.00  0.00     0.074 A 
ATOM     60  C   UNL     1      10.201  -9.300   8.692  1.00  0.00     0.031 C 
ATOM     61  C   UNL     1      10.472 -10.988   6.898  1.00  0.00     0.034 A 
BRANCH  48  62
ATOM     62  C   UNL     1       8.913 -12.308   1.056  1.00  0.00     0.023 A 
ATOM     63  C   UNL     1       9.717 -11.985  -0.057  1.00  0.00     0.012 A 
ATOM     64  C   UNL     1       8.227 -13.537   1.080  1.00  0.00     0.148 A 
ATOM     65  C   UNL     1       9.813 -12.856  -1.142  1.00  0.00     0.002 A 
ATOM     66  C   UNL     1       8.363 -14.420   0.014  1.00  0.00     0.091 A 
ATOM     67  F   UNL     1       7.448 -13.814   2.135  1.00  0.00    -0.205 F 
ATOM     68  C   UNL     1       9.145 -14.077  -1.101  1.00  0.00     0.022 A 
BRANCH  66  69
ATOM     69  S   UNL     1       7.604 -16.047  -0.003  1.00  0.00     0.127 S 
ATOM     70  O   UNL     1       6.619 -15.903  -1.074  1.00  0.00    -0.237 OA
ATOM     71  O   UNL     1       8.739 -16.910  -0.330  1.00  0.00    -0.237 OA
ATOM     72  O   UNL     1       7.049 -16.248   1.328  1.00  0.00    -0.744 OA
ENDBRANCH  66  69
ENDBRANCH  48  62
BRANCH  49  73
ATOM     73  C   UNL     1       8.039  -5.667   8.521  1.00  0.00     0.023 A 
ATOM     74  C   UNL     1       9.155  -5.000   9.061  1.00  0.00     0.012 A 
ATOM     75  C   UNL     1       6.760  -5.405   9.052  1.00  0.00     0.148 A 
ATOM     76  C   UNL     1       9.006  -4.118  10.133  1.00  0.00     0.002 A 
ATOM     77  C   UNL     1       6.612  -4.481  10.079  1.00  0.00     0.091 A 
ATOM     78  F   UNL     1       5.712  -6.063   8.537  1.00  0.00    -0.205 F 
ATOM     79  C   UNL     1       7.735  -3.850  10.634  1.00  0.00     0.022 A 
BRANCH  77  80
ATOM     80  S   UNL     1       4.998  -3.977  10.686  1.00  0.00     0.127 S 
ATOM     81  O   UNL     1       4.947  -4.638  11.987  1.00  0.00    -0.237 OA
ATOM     82  O   UNL     1       5.137  -2.520  10.740  1.00  0.00    -0.237 OA
ATOM     83  O   UNL     1       4.043  -4.449   9.693  1.00  0.00    -0.744 OA
ENDBRANCH  77  80
ENDBRANCH  49  73
BRANCH  61  84
ATOM     84  C   UNL     1      11.290 -11.809   7.861  1.00  0.00     0.023 A 
ATOM     85  C   UNL     1      10.661 -12.439   8.953  1.00  0.00     0.012 A 
ATOM     86  C   UNL     1      12.672 -11.991   7.659  1.00  0.00     0.148 A 
ATOM     87  C   UNL     1      11.403 -13.196   9.858  1.00  0.00     0.002 A 
ATOM     88  C   UNL     1      13.396 -12.790   8.536  1.00  0.00     0.091 A 
ATOM     89  F   UNL     1      13.257 -11.370   6.624  1.00  0.00    -0.205 F 
ATOM     90  C   UNL     1      12.767 -13.380   9.644  1.00  0.00     0.022 A 
BRANCH  88  91
ATOM     91  S   UNL     1      15.135 -13.158   8.281  1.00  0.00     0.127 S 
ATOM     92  O   UNL     1      15.772 -12.291   9.270  1.00  0.00    -0.237 OA
ATOM     93  O   UNL     1      15.201 -14.587   8.589  1.00  0.00    -0.237 OA
ATOM     94  O   UNL     1      15.410 -12.831   6.888  1.00  0.00    -0.744 OA
ENDBRANCH  88  91
ENDBRANCH  61  84
ENDBRANCH  35  36
ENDBRANCH  28  30
ENDBRANCH  27  28
ENDBRANCH  26  27
ENDBRANCH  25  26
ENDBRANCH   1  25
TORSDOF 20
