REMARK SMILES COC(=O)/C=C(/CC(C)C)C(=O)OCCOCCOC(=O)c1ccc(-c2c3nc(c(-c4cccc(S(=O)(=O)[O-])c4F)c4ccc([nH]4)c(-c4cccc(S(=O)(=O)[O-])c4F)c4nc(c(-c5cccc(S(=O)(=O)[O-])c5F)c5ccc2[nH]5)C=C4)C=C3)cc1
REMARK SMILES IDX 17 1 16 2 15 3 14 4 13 5 11 6 12 7 6 8 5 9 3 10 4 11 2 12
REMARK SMILES IDX 1 13 7 14 8 15 9 16 10 17 18 18 19 19 20 20 21 21 22 22
REMARK SMILES IDX 23 23 84 24 24 25 83 26 25 27 26 28 27 29 77 30 28 31 82 32
REMARK SMILES IDX 76 33 78 34 29 35 81 36 75 37 74 38 30 40 62 41 42 42 61 43
REMARK SMILES IDX 43 44 46 45 60 46 79 47 44 48 45 49 59 51 80 52 47 53 31 54
REMARK SMILES IDX 32 55 40 56 33 57 35 58 41 59 34 60 36 61 37 62 38 63 39 64
REMARK SMILES IDX 63 65 64 66 72 67 65 68 67 69 73 70 66 71 68 72 69 73 70 74
REMARK SMILES IDX 71 75 48 76 49 77 57 78 50 79 52 80 58 81 51 82 53 83 54 84
REMARK SMILES IDX 55 85 56 86
REMARK H PARENT 78 39 46 50
REMARK Flexibility Score: inf
ROOT
ATOM      1  C   UNL     1       0.960  -1.328  -3.305  1.00  0.00     0.202 C 
ENDROOT
BRANCH   1   2
ATOM      2  O   UNL     1       0.084  -2.227  -2.621  1.00  0.00    -0.374 OA
BRANCH   2   3
ATOM      3  C   UNL     1      -1.214  -2.419  -3.197  1.00  0.00     0.202 C 
BRANCH   3   4
ATOM      4  C   UNL     1      -2.254  -1.356  -2.825  1.00  0.00     0.261 C 
BRANCH   4   5
ATOM      5  O   UNL     1      -1.937  -0.159  -3.546  1.00  0.00    -0.460 OA
BRANCH   5   6
ATOM      6  C   UNL     1      -1.841   0.983  -2.841  1.00  0.00     0.334 C 
ATOM      7  O   UNL     1      -2.297   1.213  -1.734  1.00  0.00    -0.247 OA
BRANCH   6   8
ATOM      8  C   UNL     1      -0.956   1.902  -3.603  1.00  0.00     0.045 C 
ATOM      9  C   UNL     1       0.117   2.440  -2.987  1.00  0.00     0.104 C 
BRANCH   9  10
ATOM     10  C   UNL     1       0.651   2.152  -1.633  1.00  0.00     0.331 C 
ATOM     11  O   UNL     1       1.339   2.959  -1.025  1.00  0.00    -0.247 OA
BRANCH  10  12
ATOM     12  O   UNL     1       0.412   0.876  -1.261  1.00  0.00    -0.466 OA
ATOM     13  C   UNL     1       0.971   0.488  -0.005  1.00  0.00     0.282 C 
ENDBRANCH  10  12
ENDBRANCH   9  10
BRANCH   8  14
ATOM     14  C   UNL     1      -1.375   2.289  -5.005  1.00  0.00     0.046 C 
BRANCH  14  15
ATOM     15  C   UNL     1      -0.680   1.555  -6.183  1.00  0.00    -0.013 C 
ATOM     16  C   UNL     1      -1.147   0.113  -6.381  1.00  0.00     0.008 C 
ATOM     17  C   UNL     1      -0.946   2.310  -7.491  1.00  0.00     0.008 C 
ENDBRANCH  14  15
ENDBRANCH   8  14
ENDBRANCH   6   8
ENDBRANCH   5   6
ENDBRANCH   4   5
ENDBRANCH   3   4
ENDBRANCH   2   3
ENDBRANCH   1   2
BRANCH   1  18
ATOM     18  C   UNL     1       1.825  -1.933  -4.416  1.00  0.00     0.261 C 
BRANCH  18  19
ATOM     19  O   UNL     1       1.041  -2.359  -5.537  1.00  0.00    -0.460 OA
BRANCH  19  20
ATOM     20  C   UNL     1       0.721  -3.674  -5.539  1.00  0.00     0.338 C 
ATOM     21  O   UNL     1       1.114  -4.529  -4.762  1.00  0.00    -0.246 OA
BRANCH  20  22
ATOM     22  C   UNL     1      -0.353  -3.905  -6.525  1.00  0.00     0.060 A 
ATOM     23  C   UNL     1      -1.438  -4.696  -6.127  1.00  0.00     0.016 A 
ATOM     24  C   UNL     1      -0.299  -3.371  -7.814  1.00  0.00     0.016 A 
ATOM     25  C   UNL     1      -2.450  -5.002  -7.034  1.00  0.00     0.010 A 
ATOM     26  C   UNL     1      -1.314  -3.677  -8.722  1.00  0.00     0.010 A 
ATOM     27  C   UNL     1      -2.372  -4.527  -8.349  1.00  0.00    -0.014 A 
BRANCH  27  28
ATOM     28  C   UNL     1      -3.297  -5.048  -9.384  1.00  0.00     0.031 A 
ATOM     29  C   UNL     1      -2.778  -6.063 -10.366  1.00  0.00     0.074 A 
ATOM     30  C   UNL     1      -4.569  -4.619  -9.459  1.00  0.00     0.049 A 
ATOM     31  N   UNL     1      -3.372  -6.593 -11.401  1.00  0.00    -0.248 NA
ATOM     32  C   UNL     1      -1.398  -6.536 -10.155  1.00  0.00     0.031 C 
ATOM     33  C   UNL     1      -5.193  -3.653  -8.556  1.00  0.00     0.029 A 
ATOM     34  N   UNL     1      -5.558  -4.925 -10.361  1.00  0.00    -0.354 N 
ATOM     35  C   UNL     1      -2.432  -7.433 -11.986  1.00  0.00     0.074 A 
ATOM     36  C   UNL     1      -1.222  -7.331 -11.200  1.00  0.00     0.031 C 
ATOM     37  C   UNL     1      -6.452  -3.422  -8.968  1.00  0.00     0.029 A 
ATOM     38  C   UNL     1      -6.710  -4.196 -10.181  1.00  0.00     0.049 A 
ATOM     39  H   UNL     1      -5.452  -5.601 -11.069  1.00  0.00     0.167 HD
ATOM     40  C   UNL     1      -2.567  -8.230 -13.072  1.00  0.00     0.034 A 
ATOM     41  C   UNL     1      -7.830  -4.139 -10.928  1.00  0.00     0.034 A 
ATOM     42  C   UNL     1      -3.776  -8.344 -13.839  1.00  0.00     0.049 A 
ATOM     43  C   UNL     1      -7.941  -5.004 -12.159  1.00  0.00     0.074 A 
ATOM     44  C   UNL     1      -4.027  -9.155 -14.932  1.00  0.00     0.029 A 
ATOM     45  N   UNL     1      -4.933  -7.618 -13.604  1.00  0.00    -0.354 N 
ATOM     46  N   UNL     1      -7.080  -5.867 -12.643  1.00  0.00    -0.248 NA
ATOM     47  C   UNL     1      -9.189  -4.909 -12.931  1.00  0.00     0.031 C 
ATOM     48  C   UNL     1      -5.324  -8.891 -15.381  1.00  0.00     0.029 A 
ATOM     49  C   UNL     1      -5.897  -7.951 -14.539  1.00  0.00     0.049 A 
ATOM     50  H   UNL     1      -5.052  -6.963 -12.880  1.00  0.00     0.167 HD
ATOM     51  C   UNL     1      -7.700  -6.449 -13.745  1.00  0.00     0.074 A 
ATOM     52  C   UNL     1      -9.013  -5.848 -13.851  1.00  0.00     0.031 C 
ATOM     53  C   UNL     1      -7.223  -7.391 -14.596  1.00  0.00     0.034 A 
BRANCH  40  54
ATOM     54  C   UNL     1      -1.378  -9.056 -13.487  1.00  0.00     0.023 A 
ATOM     55  C   UNL     1      -0.978 -10.155 -12.699  1.00  0.00     0.012 A 
ATOM     56  C   UNL     1      -0.693  -8.779 -14.686  1.00  0.00     0.148 A 
ATOM     57  C   UNL     1       0.107 -10.943 -13.080  1.00  0.00     0.002 A 
ATOM     58  C   UNL     1       0.357  -9.598 -15.083  1.00  0.00     0.091 A 
ATOM     59  F   UNL     1      -1.075  -7.717 -15.410  1.00  0.00    -0.205 F 
ATOM     60  C   UNL     1       0.766 -10.672 -14.276  1.00  0.00     0.022 A 
BRANCH  58  61
ATOM     61  S   UNL     1       1.217  -9.382 -16.645  1.00  0.00     0.127 S 
ATOM     62  O   UNL     1       2.538  -8.945 -16.195  1.00  0.00    -0.237 OA
ATOM     63  O   UNL     1       1.179 -10.733 -17.204  1.00  0.00    -0.237 OA
ATOM     64  O   UNL     1       0.455  -8.391 -17.392  1.00  0.00    -0.744 OA
ENDBRANCH  58  61
ENDBRANCH  40  54
BRANCH  41  65
ATOM     65  C   UNL     1      -8.954  -3.244 -10.529  1.00  0.00     0.023 A 
ATOM     66  C   UNL     1     -10.174  -3.806 -10.106  1.00  0.00     0.012 A 
ATOM     67  C   UNL     1      -8.822  -1.842 -10.572  1.00  0.00     0.148 A 
ATOM     68  C   UNL     1     -11.255  -2.990  -9.769  1.00  0.00     0.002 A 
ATOM     69  C   UNL     1      -9.884  -1.035 -10.180  1.00  0.00     0.091 A 
ATOM     70  F   UNL     1      -7.659  -1.326 -10.991  1.00  0.00    -0.205 F 
ATOM     71  C   UNL     1     -11.107  -1.606  -9.797  1.00  0.00     0.022 A 
BRANCH  69  72
ATOM     72  S   UNL     1      -9.745   0.752 -10.068  1.00  0.00     0.127 S 
ATOM     73  O   UNL     1     -10.625   1.189 -11.148  1.00  0.00    -0.237 OA
ATOM     74  O   UNL     1     -10.251   1.007  -8.718  1.00  0.00    -0.237 OA
ATOM     75  O   UNL     1      -8.330   1.051 -10.245  1.00  0.00    -0.744 OA
ENDBRANCH  69  72
ENDBRANCH  41  65
BRANCH  53  76
ATOM     76  C   UNL     1      -8.137  -7.891 -15.685  1.00  0.00     0.023 A 
ATOM     77  C   UNL     1      -8.437  -7.072 -16.791  1.00  0.00     0.012 A 
ATOM     78  C   UNL     1      -8.616  -9.216 -15.654  1.00  0.00     0.148 A 
ATOM     79  C   UNL     1      -9.222  -7.557 -17.837  1.00  0.00     0.002 A 
ATOM     80  C   UNL     1      -9.353  -9.709 -16.724  1.00  0.00     0.091 A 
ATOM     81  F   UNL     1      -8.331  -9.974 -14.585  1.00  0.00    -0.205 F 
ATOM     82  C   UNL     1      -9.668  -8.877 -17.810  1.00  0.00     0.022 A 
BRANCH  80  83
ATOM     83  S   UNL     1      -9.883 -11.422 -16.826  1.00  0.00     0.127 S 
ATOM     84  O   UNL     1     -11.334 -11.293 -16.701  1.00  0.00    -0.237 OA
ATOM     85  O   UNL     1      -9.416 -11.810 -18.157  1.00  0.00    -0.237 OA
ATOM     86  O   UNL     1      -9.225 -12.116 -15.726  1.00  0.00    -0.744 OA
ENDBRANCH  80  83
ENDBRANCH  53  76
ENDBRANCH  27  28
ENDBRANCH  20  22
ENDBRANCH  19  20
ENDBRANCH  18  19
ENDBRANCH   1  18
TORSDOF 21
