REMARK SMILES Cc1cccc(-c2cc(OCC(=O)OCCOCCOCCOC(=O)c3ccc(-c4c5nc(c(-c6cccc(S(=O)(=O)[O-])c6F)c6ccc([nH]6)c(-c6cccc(S(=O)(=O)[O-])c6F)c6nc(c(-c7cccc(S(=O)(=O)[O-])c7F)c7ccc4[nH]7)C=C6)C=C5)cc3)nc(Nc3ccccc3C)n2)c1
REMARK SMILES IDX 18 1 17 2 16 3 15 4 14 5 12 6 13 7 11 8 10 9 9 10 7 11 8 12
REMARK SMILES IDX 99 13 90 14 89 15 6 16 1 17 2 18 3 19 100 20 4 21 5 22 91 23
REMARK SMILES IDX 92 25 93 26 97 27 94 28 96 29 98 30 95 31 19 32 20 33 21 34
REMARK SMILES IDX 22 35 23 36 24 37 25 38 26 39 27 40 88 41 28 42 87 43 29 44
REMARK SMILES IDX 30 45 31 46 81 47 32 48 86 49 80 50 82 51 33 52 85 53 79 54
REMARK SMILES IDX 78 55 34 57 66 58 46 59 65 60 47 61 50 62 64 63 83 64 48 65
REMARK SMILES IDX 49 66 63 68 84 69 51 70 35 71 36 72 44 73 37 74 39 75 45 76
REMARK SMILES IDX 38 77 40 78 41 79 42 80 43 81 67 82 68 83 76 84 69 85 71 86
REMARK SMILES IDX 77 87 70 88 72 89 73 90 74 91 75 92 52 93 53 94 61 95 54 96
REMARK SMILES IDX 56 97 62 98 55 99 57 100 58 101 59 102 60 103
REMARK H PARENT 91 24 82 56 50 67
REMARK Flexibility Score: inf
ROOT
ATOM      1  C   UNL     1       2.436   2.444  -0.027  1.00  0.00     0.188 C 
ENDROOT
BRANCH   1   2
ATOM      2  O   UNL     1       3.687   2.839  -0.533  1.00  0.00    -0.376 OA
BRANCH   2   3
ATOM      3  C   UNL     1       3.714   4.209  -0.794  1.00  0.00     0.202 C 
BRANCH   3   4
ATOM      4  C   UNL     1       2.374   4.821  -1.234  1.00  0.00     0.261 C 
BRANCH   4   5
ATOM      5  O   UNL     1       1.115   3.859  -2.139  1.00  0.00    -0.461 OA
BRANCH   5   6
ATOM      6  C   UNL     1       0.085   4.076  -3.535  1.00  0.00     0.344 C 
ATOM      7  O   UNL     1       0.159   3.205  -4.379  1.00  0.00    -0.248 OA
BRANCH   6   8
ATOM      8  C   UNL     1      -1.284   5.434  -3.666  1.00  0.00     0.353 C 
BRANCH   8   9
ATOM      9  O   UNL     1      -2.212   6.047  -2.284  1.00  0.00    -0.466 OA
BRANCH   9  10
ATOM     10  C   UNL     1      -2.168   5.343  -0.705  1.00  0.00     0.219 A 
ATOM     11  C   UNL     1      -1.777   2.264   0.386  1.00  0.00     0.080 A 
ATOM     12  C   UNL     1      -0.971   3.753  -0.288  1.00  0.00     0.097 A 
ATOM     13  N   UNL     1      -3.416   2.444   0.919  1.00  0.00    -0.212 NA
ATOM     14  C   UNL     1      -4.268   3.946   0.823  1.00  0.00     0.231 A 
ATOM     15  N   UNL     1      -3.756   5.349  -0.032  1.00  0.00    -0.177 NA
BRANCH  11  16
ATOM     16  C   UNL     1      -1.233   0.863   0.351  1.00  0.00     0.001 A 
ATOM     17  C   UNL     1       2.135  -0.924   0.992  1.00  0.00     0.044 C 
ATOM     18  C   UNL     1       0.679  -0.717   0.675  1.00  0.00    -0.050 A 
ATOM     19  C   UNL     1      -0.091  -1.764   0.207  1.00  0.00     0.003 A 
ATOM     20  C   UNL     1       0.051   0.533   0.812  1.00  0.00     0.013 A 
ATOM     21  C   UNL     1      -1.430  -1.535  -0.119  1.00  0.00     0.001 A 
ATOM     22  C   UNL     1      -1.985  -0.236  -0.077  1.00  0.00     0.010 A 
ENDBRANCH  11  16
BRANCH  14  23
ATOM     23  N   UNL     1      -4.900   4.317   2.074  1.00  0.00    -0.324 N 
ATOM     24  H   UNL     1      -5.298   5.216   2.125  1.00  0.00     0.170 HD
BRANCH  23  25
ATOM     25  C   UNL     1      -4.997   3.502   3.232  1.00  0.00     0.044 A 
ATOM     26  C   UNL     1      -6.048   2.573   3.235  1.00  0.00     0.026 A 
ATOM     27  C   UNL     1      -4.078   3.447   4.314  1.00  0.00    -0.027 A 
ATOM     28  C   UNL     1      -6.128   1.544   4.176  1.00  0.00     0.002 A 
ATOM     29  C   UNL     1      -4.099   2.317   5.172  1.00  0.00     0.005 A 
ATOM     30  C   UNL     1      -2.982   4.436   4.635  1.00  0.00     0.046 C 
ATOM     31  C   UNL     1      -5.109   1.368   5.098  1.00  0.00     0.000 A 
ENDBRANCH  23  25
ENDBRANCH  14  23
ENDBRANCH   9  10
ENDBRANCH   8   9
ENDBRANCH   6   8
ENDBRANCH   5   6
ENDBRANCH   4   5
ENDBRANCH   3   4
ENDBRANCH   2   3
ENDBRANCH   1   2
BRANCH   1  32
ATOM     32  C   UNL     1       1.728   3.395   0.946  1.00  0.00     0.188 C 
BRANCH  32  33
ATOM     33  O   UNL     1       2.526   4.237   1.753  1.00  0.00    -0.376 OA
BRANCH  33  34
ATOM     34  C   UNL     1       1.766   5.006   2.693  1.00  0.00     0.202 C 
BRANCH  34  35
ATOM     35  C   UNL     1       0.879   4.105   3.526  1.00  0.00     0.261 C 
BRANCH  35  36
ATOM     36  O   UNL     1      -0.449   3.733   2.972  1.00  0.00    -0.460 OA
BRANCH  36  37
ATOM     37  C   UNL     1      -1.629   3.452   2.417  1.00  0.00     0.338 C 
ATOM     38  O   UNL     1      -2.099   2.424   2.890  1.00  0.00    -0.246 OA
BRANCH  37  39
ATOM     39  C   UNL     1      -2.193   4.339   1.024  1.00  0.00     0.060 A 
ATOM     40  C   UNL     1      -2.779   3.594  -0.763  1.00  0.00     0.016 A 
ATOM     41  C   UNL     1      -1.015   5.611   1.118  1.00  0.00     0.016 A 
ATOM     42  C   UNL     1      -1.639   4.004  -2.101  1.00  0.00     0.010 A 
ATOM     43  C   UNL     1      -0.134   6.075  -0.195  1.00  0.00     0.010 A 
ATOM     44  C   UNL     1      -0.282   5.330  -1.732  1.00  0.00    -0.014 A 
BRANCH  44  45
ATOM     45  C   UNL     1       1.037   6.031  -2.878  1.00  0.00     0.031 A 
ATOM     46  C   UNL     1       0.763   7.454  -3.170  1.00  0.00     0.074 A 
ATOM     47  C   UNL     1       2.211   5.326  -3.580  1.00  0.00     0.049 A 
ATOM     48  N   UNL     1       0.990   7.922  -4.345  1.00  0.00    -0.248 NA
ATOM     49  C   UNL     1      -0.070   8.367  -2.370  1.00  0.00     0.031 C 
ATOM     50  C   UNL     1       3.646   5.685  -3.829  1.00  0.00     0.029 A 
ATOM     51  N   UNL     1       2.500   3.904  -3.643  1.00  0.00    -0.354 N 
ATOM     52  C   UNL     1       0.901   9.277  -4.177  1.00  0.00     0.074 A 
ATOM     53  C   UNL     1      -0.089   9.448  -3.159  1.00  0.00     0.031 C 
ATOM     54  C   UNL     1       4.405   4.592  -4.205  1.00  0.00     0.029 A 
ATOM     55  C   UNL     1       3.585   3.379  -4.258  1.00  0.00     0.049 A 
ATOM     56  H   UNL     1       1.868   3.283  -3.212  1.00  0.00     0.167 HD
ATOM     57  C   UNL     1       1.986  10.016  -4.531  1.00  0.00     0.034 A 
ATOM     58  C   UNL     1       3.283   2.444  -5.226  1.00  0.00     0.034 A 
ATOM     59  C   UNL     1       3.029   9.130  -5.121  1.00  0.00     0.049 A 
ATOM     60  C   UNL     1       3.153   3.304  -6.445  1.00  0.00     0.074 A 
ATOM     61  C   UNL     1       4.300   8.730  -4.746  1.00  0.00     0.029 A 
ATOM     62  N   UNL     1       2.660   8.237  -6.130  1.00  0.00    -0.354 N 
ATOM     63  N   UNL     1       3.083   4.601  -6.356  1.00  0.00    -0.248 NA
ATOM     64  C   UNL     1       3.125   2.833  -7.810  1.00  0.00     0.031 C 
ATOM     65  C   UNL     1       4.725   7.687  -5.647  1.00  0.00     0.029 A 
ATOM     66  C   UNL     1       3.670   7.365  -6.493  1.00  0.00     0.049 A 
ATOM     67  H   UNL     1       1.767   8.229  -6.543  1.00  0.00     0.167 HD
ATOM     68  C   UNL     1       3.191   5.168  -7.557  1.00  0.00     0.074 A 
ATOM     69  C   UNL     1       3.032   4.015  -8.450  1.00  0.00     0.031 C 
ATOM     70  C   UNL     1       3.458   6.506  -7.672  1.00  0.00     0.034 A 
BRANCH  57  71
ATOM     71  C   UNL     1       2.230  11.468  -4.144  1.00  0.00     0.023 A 
ATOM     72  C   UNL     1       3.482  12.002  -4.510  1.00  0.00     0.012 A 
ATOM     73  C   UNL     1       1.337  12.374  -3.510  1.00  0.00     0.148 A 
ATOM     74  C   UNL     1       3.834  13.335  -4.278  1.00  0.00     0.002 A 
ATOM     75  C   UNL     1       1.682  13.712  -3.284  1.00  0.00     0.091 A 
ATOM     76  F   UNL     1       0.129  11.975  -3.116  1.00  0.00    -0.205 F 
ATOM     77  C   UNL     1       2.931  14.195  -3.674  1.00  0.00     0.022 A 
BRANCH  75  78
ATOM     78  S   UNL     1       0.565  14.903  -2.509  1.00  0.00     0.127 S 
ATOM     79  O   UNL     1       1.363  15.374  -1.375  1.00  0.00    -0.237 OA
ATOM     80  O   UNL     1       0.376  15.891  -3.570  1.00  0.00    -0.237 OA
ATOM     81  O   UNL     1      -0.634  14.165  -2.132  1.00  0.00    -0.744 OA
ENDBRANCH  75  78
ENDBRANCH  57  71
BRANCH  58  82
ATOM     82  C   UNL     1       2.276   1.310  -4.871  1.00  0.00     0.023 A 
ATOM     83  C   UNL     1       2.538   0.588  -3.679  1.00  0.00     0.012 A 
ATOM     84  C   UNL     1       0.971   1.161  -5.427  1.00  0.00     0.148 A 
ATOM     85  C   UNL     1       1.504  -0.008  -2.942  1.00  0.00     0.002 A 
ATOM     86  C   UNL     1      -0.082   0.627  -4.644  1.00  0.00     0.091 A 
ATOM     87  F   UNL     1       0.710   1.694  -6.629  1.00  0.00    -0.205 F 
ATOM     88  C   UNL     1       0.190   0.085  -3.381  1.00  0.00     0.022 A 
BRANCH  86  89
ATOM     89  S   UNL     1      -1.851   1.015  -4.968  1.00  0.00     0.127 S 
ATOM     90  O   UNL     1      -2.327  -0.218  -5.589  1.00  0.00    -0.237 OA
ATOM     91  O   UNL     1      -2.385   1.246  -3.620  1.00  0.00    -0.237 OA
ATOM     92  O   UNL     1      -1.886   2.197  -5.819  1.00  0.00    -0.744 OA
ENDBRANCH  86  89
ENDBRANCH  58  82
BRANCH  70  93
ATOM     93  C   UNL     1       3.473   7.147  -9.013  1.00  0.00     0.023 A 
ATOM     94  C   UNL     1       3.761   6.409 -10.163  1.00  0.00     0.012 A 
ATOM     95  C   UNL     1       3.170   8.512  -9.173  1.00  0.00     0.148 A 
ATOM     96  C   UNL     1       3.468   6.908 -11.421  1.00  0.00     0.002 A 
ATOM     97  C   UNL     1       2.968   9.041 -10.423  1.00  0.00     0.091 A 
ATOM     98  F   UNL     1       3.104   9.332  -8.124  1.00  0.00    -0.205 F 
ATOM     99  C   UNL     1       3.044   8.223 -11.549  1.00  0.00     0.022 A 
BRANCH  97 100
ATOM    100  S   UNL     1       2.673  10.789 -10.649  1.00  0.00     0.127 S 
ATOM    101  O   UNL     1       3.868  11.174 -11.399  1.00  0.00    -0.237 OA
ATOM    102  O   UNL     1       1.432  10.779 -11.420  1.00  0.00    -0.237 OA
ATOM    103  O   UNL     1       2.568  11.377  -9.321  1.00  0.00    -0.744 OA
ENDBRANCH  97 100
ENDBRANCH  70  93
ENDBRANCH  44  45
ENDBRANCH  37  39
ENDBRANCH  36  37
ENDBRANCH  35  36
ENDBRANCH  34  35
ENDBRANCH  33  34
ENDBRANCH  32  33
ENDBRANCH   1  32
TORSDOF 25
