REMARK SMILES COc1ccc(/C=C(/Sc2nc(C)n[nH]2)C(=O)OCCOCCOCCOC(=O)c2ccc(-c3c4nc(c(-c5cccc(S(=O)(=O)[O-])c5F)c5ccc([nH]5)c(-c5cccc(S(=O)(=O)[O-])c5F)c5nc(c(-c6cccc(S(=O)(=O)[O-])c6F)c6ccc3[nH]6)C=C5)C=C4)cc2)cc1OC
REMARK SMILES IDX 23 1 22 2 21 3 20 4 19 5 18 6 16 7 17 8 8 9 7 10 6 11 3 12
REMARK SMILES IDX 4 13 94 14 5 15 93 16 2 17 1 18 95 19 96 20 9 21 10 22 11 23
REMARK SMILES IDX 15 24 12 25 14 26 13 28 24 29 25 30 26 31 27 32 28 33 29 34
REMARK SMILES IDX 30 35 31 36 92 37 32 38 91 39 33 40 34 41 35 42 85 43 36 44
REMARK SMILES IDX 90 45 84 46 86 47 37 48 89 49 83 50 82 51 38 53 70 54 50 55
REMARK SMILES IDX 69 56 51 57 54 58 68 59 87 60 52 61 53 62 67 64 88 65 55 66
REMARK SMILES IDX 39 67 40 68 48 69 41 70 43 71 49 72 42 73 44 74 45 75 46 76
REMARK SMILES IDX 47 77 71 78 72 79 80 80 73 81 75 82 81 83 74 84 76 85 77 86
REMARK SMILES IDX 78 87 79 88 56 89 57 90 65 91 58 92 60 93 66 94 59 95 61 96
REMARK SMILES IDX 62 97 63 98 64 99
REMARK H PARENT 15 27 86 52 54 63
REMARK Flexibility Score: inf
ROOT
ATOM      1  C   UNL     1       0.296   7.060   4.512  1.00  0.00     0.188 C 
ENDROOT
BRANCH   1   2
ATOM      2  C   UNL     1      -0.532   6.123   3.607  1.00  0.00     0.188 C 
BRANCH   2   3
ATOM      3  O   UNL     1      -1.942   6.243   3.721  1.00  0.00    -0.376 OA
BRANCH   3   4
ATOM      4  C   UNL     1      -2.613   5.187   4.400  1.00  0.00     0.202 C 
BRANCH   4   5
ATOM      5  C   UNL     1      -2.317   5.096   5.899  1.00  0.00     0.261 C 
BRANCH   5   6
ATOM      6  O   UNL     1      -0.916   4.918   6.148  1.00  0.00    -0.459 OA
BRANCH   6   7
ATOM      7  C   UNL     1      -0.415   3.678   6.349  1.00  0.00     0.345 C 
ATOM      8  O   UNL     1      -1.045   2.639   6.439  1.00  0.00    -0.246 OA
BRANCH   7   9
ATOM      9  C   UNL     1       1.075   3.798   6.386  1.00  0.00     0.101 C 
ATOM     10  C   UNL     1       1.857   3.366   5.374  1.00  0.00     0.031 C 
BRANCH  10  11
ATOM     11  C   UNL     1       1.570   2.665   4.090  1.00  0.00    -0.020 A 
ATOM     12  C   UNL     1       1.269   1.508   1.505  1.00  0.00     0.160 A 
ATOM     13  C   UNL     1       0.156   1.913   2.244  1.00  0.00     0.051 A 
ATOM     14  C   UNL     1       2.542   1.650   2.062  1.00  0.00     0.161 A 
ATOM     15  C   UNL     1       0.307   2.459   3.528  1.00  0.00     0.012 A 
ATOM     16  C   UNL     1       2.676   2.239   3.332  1.00  0.00     0.058 A 
BRANCH  12  17
ATOM     17  O   UNL     1       1.137   1.093   0.209  1.00  0.00    -0.493 OA
ATOM     18  C   UNL     1       0.160   0.079   0.001  1.00  0.00     0.278 C 
ENDBRANCH  12  17
BRANCH  14  19
ATOM     19  O   UNL     1       3.743   1.294   1.503  1.00  0.00    -0.493 OA
ATOM     20  C   UNL     1       3.716   0.335   0.453  1.00  0.00     0.278 C 
ENDBRANCH  14  19
ENDBRANCH  10  11
BRANCH   9  21
ATOM     21  S   UNL     1       1.601   4.690   7.800  1.00  0.00    -0.043 SA
BRANCH  21  22
ATOM     22  C   UNL     1       3.315   4.593   7.788  1.00  0.00     0.188 A 
ATOM     23  N   UNL     1       4.161   5.592   7.837  1.00  0.00    -0.206 NA
ATOM     24  N   UNL     1       3.982   3.421   7.959  1.00  0.00    -0.254 N 
ATOM     25  C   UNL     1       5.369   4.968   8.027  1.00  0.00     0.148 A 
ATOM     26  N   UNL     1       5.304   3.630   8.097  1.00  0.00    -0.158 NA
ATOM     27  H   UNL     1       3.554   2.535   7.980  1.00  0.00     0.192 HD
ATOM     28  C   UNL     1       6.626   5.724   8.210  1.00  0.00     0.092 C 
ENDBRANCH  21  22
ENDBRANCH   9  21
ENDBRANCH   7   9
ENDBRANCH   6   7
ENDBRANCH   5   6
ENDBRANCH   4   5
ENDBRANCH   3   4
ENDBRANCH   2   3
ENDBRANCH   1   2
BRANCH   1  29
ATOM     29  O   UNL     1      -0.324   8.065   5.306  1.00  0.00    -0.376 OA
BRANCH  29  30
ATOM     30  C   UNL     1      -1.442   8.791   4.816  1.00  0.00     0.202 C 
BRANCH  30  31
ATOM     31  C   UNL     1      -1.292   9.622   3.547  1.00  0.00     0.261 C 
BRANCH  31  32
ATOM     32  O   UNL     1      -0.821   8.886   2.426  1.00  0.00    -0.460 OA
BRANCH  32  33
ATOM     33  C   UNL     1       0.488   9.082   2.148  1.00  0.00     0.338 C 
ATOM     34  O   UNL     1       1.309   9.655   2.842  1.00  0.00    -0.246 OA
BRANCH  33  35
ATOM     35  C   UNL     1       0.797   8.539   0.819  1.00  0.00     0.060 A 
ATOM     36  C   UNL     1       2.150   8.425   0.482  1.00  0.00     0.016 A 
ATOM     37  C   UNL     1      -0.217   8.387  -0.136  1.00  0.00     0.016 A 
ATOM     38  C   UNL     1       2.496   8.355  -0.850  1.00  0.00     0.010 A 
ATOM     39  C   UNL     1       0.131   8.324  -1.469  1.00  0.00     0.010 A 
ATOM     40  C   UNL     1       1.482   8.402  -1.810  1.00  0.00    -0.014 A 
BRANCH  40  41
ATOM     41  C   UNL     1       1.874   8.663  -3.181  1.00  0.00     0.031 A 
ATOM     42  C   UNL     1       2.351   7.507  -3.966  1.00  0.00     0.074 A 
ATOM     43  C   UNL     1       1.697   9.883  -3.728  1.00  0.00     0.049 A 
ATOM     44  N   UNL     1       3.492   7.364  -4.555  1.00  0.00    -0.248 NA
ATOM     45  C   UNL     1       1.467   6.337  -4.051  1.00  0.00     0.031 C 
ATOM     46  C   UNL     1       0.940  11.004  -3.160  1.00  0.00     0.029 A 
ATOM     47  N   UNL     1       2.016  10.318  -4.979  1.00  0.00    -0.354 N 
ATOM     48  C   UNL     1       3.392   6.170  -5.261  1.00  0.00     0.074 A 
ATOM     49  C   UNL     1       2.194   5.514  -4.804  1.00  0.00     0.031 C 
ATOM     50  C   UNL     1       0.636  11.870  -4.150  1.00  0.00     0.029 A 
ATOM     51  C   UNL     1       1.279  11.426  -5.374  1.00  0.00     0.049 A 
ATOM     52  H   UNL     1       2.700   9.891  -5.544  1.00  0.00     0.167 HD
ATOM     53  C   UNL     1       4.177   5.898  -6.336  1.00  0.00     0.034 A 
ATOM     54  C   UNL     1       1.121  11.880  -6.639  1.00  0.00     0.034 A 
ATOM     55  C   UNL     1       5.335   6.743  -6.410  1.00  0.00     0.049 A 
ATOM     56  C   UNL     1       2.203  11.304  -7.470  1.00  0.00     0.074 A 
ATOM     57  C   UNL     1       6.403   7.012  -5.580  1.00  0.00     0.029 A 
ATOM     58  N   UNL     1       5.345   7.723  -7.370  1.00  0.00    -0.354 N 
ATOM     59  N   UNL     1       3.461  11.632  -7.374  1.00  0.00    -0.248 NA
ATOM     60  C   UNL     1       1.932  10.076  -8.200  1.00  0.00     0.031 C 
ATOM     61  C   UNL     1       6.727   8.379  -5.819  1.00  0.00     0.029 A 
ATOM     62  C   UNL     1       5.842   8.858  -6.786  1.00  0.00     0.049 A 
ATOM     63  H   UNL     1       5.049   7.628  -8.305  1.00  0.00     0.167 HD
ATOM     64  C   UNL     1       4.151  10.458  -7.647  1.00  0.00     0.074 A 
ATOM     65  C   UNL     1       3.170   9.584  -8.281  1.00  0.00     0.031 C 
ATOM     66  C   UNL     1       5.364  10.195  -7.073  1.00  0.00     0.034 A 
BRANCH  53  67
ATOM     67  C   UNL     1       3.732   5.050  -7.495  1.00  0.00     0.023 A 
ATOM     68  C   UNL     1       4.716   4.561  -8.379  1.00  0.00     0.012 A 
ATOM     69  C   UNL     1       2.382   4.906  -7.887  1.00  0.00     0.148 A 
ATOM     70  C   UNL     1       4.371   3.964  -9.596  1.00  0.00     0.002 A 
ATOM     71  C   UNL     1       2.043   4.225  -9.048  1.00  0.00     0.091 A 
ATOM     72  F   UNL     1       1.417   5.540  -7.209  1.00  0.00    -0.205 F 
ATOM     73  C   UNL     1       3.033   3.775  -9.922  1.00  0.00     0.022 A 
BRANCH  71  74
ATOM     74  S   UNL     1       0.323   3.876  -9.428  1.00  0.00     0.127 S 
ATOM     75  O   UNL     1      -0.027   4.998 -10.291  1.00  0.00    -0.237 OA
ATOM     76  O   UNL     1       0.411   2.579 -10.102  1.00  0.00    -0.237 OA
ATOM     77  O   UNL     1      -0.336   3.819  -8.128  1.00  0.00    -0.744 OA
ENDBRANCH  71  74
ENDBRANCH  53  67
BRANCH  54  78
ATOM     78  C   UNL     1      -0.029  12.601  -7.229  1.00  0.00     0.023 A 
ATOM     79  C   UNL     1       0.160  13.375  -8.389  1.00  0.00     0.012 A 
ATOM     80  C   UNL     1      -1.353  12.353  -6.801  1.00  0.00     0.148 A 
ATOM     81  C   UNL     1      -0.933  13.872  -9.109  1.00  0.00     0.002 A 
ATOM     82  C   UNL     1      -2.436  12.870  -7.506  1.00  0.00     0.091 A 
ATOM     83  F   UNL     1      -1.558  11.535  -5.760  1.00  0.00    -0.205 F 
ATOM     84  C   UNL     1      -2.230  13.620  -8.668  1.00  0.00     0.022 A 
BRANCH  82  85
ATOM     85  S   UNL     1      -4.132  12.588  -6.977  1.00  0.00     0.127 S 
ATOM     86  O   UNL     1      -4.748  13.896  -7.207  1.00  0.00    -0.237 OA
ATOM     87  O   UNL     1      -4.567  11.538  -7.893  1.00  0.00    -0.237 OA
ATOM     88  O   UNL     1      -4.045  12.214  -5.570  1.00  0.00    -0.744 OA
ENDBRANCH  82  85
ENDBRANCH  54  78
BRANCH  66  89
ATOM     89  C   UNL     1       6.096  11.322  -6.383  1.00  0.00     0.023 A 
ATOM     90  C   UNL     1       5.534  12.007  -5.286  1.00  0.00     0.012 A 
ATOM     91  C   UNL     1       7.442  11.565  -6.713  1.00  0.00     0.148 A 
ATOM     92  C   UNL     1       6.283  12.933  -4.556  1.00  0.00     0.002 A 
ATOM     93  C   UNL     1       8.200  12.449  -5.951  1.00  0.00     0.091 A 
ATOM     94  F   UNL     1       7.974  10.903  -7.753  1.00  0.00    -0.205 F 
ATOM     95  C   UNL     1       7.620  13.143  -4.879  1.00  0.00     0.022 A 
BRANCH  93  96
ATOM     96  S   UNL     1       9.964  12.646  -6.230  1.00  0.00     0.127 S 
ATOM     97  O   UNL     1      10.014  13.855  -7.049  1.00  0.00    -0.237 OA
ATOM     98  O   UNL     1      10.489  12.807  -4.872  1.00  0.00    -0.237 OA
ATOM     99  O   UNL     1      10.396  11.417  -6.886  1.00  0.00    -0.744 OA
ENDBRANCH  93  96
ENDBRANCH  66  89
ENDBRANCH  40  41
ENDBRANCH  33  35
ENDBRANCH  32  33
ENDBRANCH  31  32
ENDBRANCH  30  31
ENDBRANCH  29  30
ENDBRANCH   1  29
TORSDOF 25
