REMARK SMILES Cc1nn(Cc2ccc(Cl)cc2Cl)c(C)c1NC(=O)c1c(C(=O)OCCOCCOCCOC(=O)c2ccc(-c3c4nc(c(-c5cccc(S(=O)(=O)[O-])c5F)c5ccc([nH]5)c(-c5cccc(S(=O)(=O)[O-])c5F)c5nc(c(-c6cccc(S(=O)(=O)[O-])c6F)c6ccc3[nH]6)C=C5)C=C4)cc2)cnn1C
REMARK SMILES IDX 28 1 27 2 26 3 25 4 24 5 22 6 23 7 21 8 20 9 101 10 99 11
REMARK SMILES IDX 100 12 102 13 18 14 17 15 19 17 16 18 1 19 2 20 3 21 4 22
REMARK SMILES IDX 14 23 15 24 5 25 6 26 7 27 12 28 8 29 11 30 13 31 9 32 10 33
REMARK SMILES IDX 29 34 30 35 31 36 32 37 33 38 34 39 35 40 36 41 37 42 98 43
REMARK SMILES IDX 38 44 97 45 39 46 40 47 41 48 91 49 42 50 96 51 90 52 92 53
REMARK SMILES IDX 43 54 95 55 89 56 88 57 44 59 76 60 56 61 75 62 57 63 60 64
REMARK SMILES IDX 74 65 93 66 58 67 59 68 73 70 94 71 61 72 45 73 46 74 54 75
REMARK SMILES IDX 47 76 49 77 55 78 48 79 50 80 51 81 52 82 53 83 77 84 78 85
REMARK SMILES IDX 86 86 79 87 81 88 87 89 80 90 82 91 83 92 84 93 85 94 62 95
REMARK SMILES IDX 63 96 71 97 64 98 66 99 72 100 65 101 67 102 68 103 69 104
REMARK SMILES IDX 70 105
REMARK H PARENT 17 16 92 58 60 69
REMARK Flexibility Score: inf
ROOT
ATOM      1  C   UNL     1      -2.601  -0.515  -1.345  1.00  0.00     0.188 C 
ENDROOT
BRANCH   1   2
ATOM      2  O   UNL     1      -4.000  -0.344  -1.125  1.00  0.00    -0.376 OA
BRANCH   2   3
ATOM      3  C   UNL     1      -4.910  -0.910  -2.049  1.00  0.00     0.202 C 
BRANCH   3   4
ATOM      4  C   UNL     1      -5.261  -0.026  -3.245  1.00  0.00     0.261 C 
BRANCH   4   5
ATOM      5  O   UNL     1      -4.157   0.377  -4.076  1.00  0.00    -0.460 OA
BRANCH   5   6
ATOM      6  C   UNL     1      -3.611   1.587  -3.782  1.00  0.00     0.342 C 
ATOM      7  O   UNL     1      -3.830   2.222  -2.740  1.00  0.00    -0.246 OA
BRANCH   6   8
ATOM      8  C   UNL     1      -2.824   2.139  -4.857  1.00  0.00     0.111 A 
ATOM      9  C   UNL     1      -1.751   3.015  -4.761  1.00  0.00     0.140 A 
ATOM     10  N   UNL     1      -1.555   3.492  -6.028  1.00  0.00    -0.262 N 
ATOM     11  C   UNL     1      -3.030   2.001  -6.247  1.00  0.00     0.151 A 
ATOM     12  N   UNL     1      -2.253   2.817  -6.966  1.00  0.00    -0.180 NA
ATOM     13  C   UNL     1      -0.643   4.538  -6.434  1.00  0.00     0.174 C 
BRANCH   9  14
ATOM     14  C   UNL     1      -1.024   3.478  -3.616  1.00  0.00     0.274 C 
ATOM     15  N   UNL     1      -0.111   2.646  -3.013  1.00  0.00    -0.317 N 
ATOM     16  H   UNL     1       0.255   2.993  -2.167  1.00  0.00     0.170 HD
ATOM     17  O   UNL     1      -1.199   4.604  -3.152  1.00  0.00    -0.267 OA
BRANCH  15  18
ATOM     18  C   UNL     1       0.387   1.407  -3.382  1.00  0.00     0.085 A 
ATOM     19  C   UNL     1       1.046   0.574  -0.998  1.00  0.00     0.071 C 
ATOM     20  C   UNL     1       0.896   0.442  -2.472  1.00  0.00     0.083 A 
ATOM     21  N   UNL     1       1.159  -0.722  -3.084  1.00  0.00    -0.175 NA
ATOM     22  N   UNL     1       0.859  -0.499  -4.378  1.00  0.00    -0.263 N 
ATOM     23  C   UNL     1       0.632   0.840  -4.619  1.00  0.00     0.060 A 
ATOM     24  C   UNL     1       0.790   1.388  -5.980  1.00  0.00     0.069 C 
BRANCH  22  25
ATOM     25  C   UNL     1       0.403  -1.612  -5.226  1.00  0.00     0.181 C 
BRANCH  25  26
ATOM     26  C   UNL     1       1.478  -2.466  -5.855  1.00  0.00    -0.008 A 
ATOM     27  C   UNL     1       1.950  -3.573  -5.133  1.00  0.00     0.009 A 
ATOM     28  C   UNL     1       1.977  -2.295  -7.152  1.00  0.00     0.047 A 
ATOM     29  C   UNL     1       2.923  -4.439  -5.636  1.00  0.00     0.021 A 
ATOM     30  C   UNL     1       2.965  -3.149  -7.664  1.00  0.00     0.041 A 
ATOM     31  Cl  UNL     1       1.332  -1.121  -8.239  1.00  0.00    -0.084 Cl
ATOM     32  C   UNL     1       3.440  -4.211  -6.901  1.00  0.00     0.042 A 
ATOM     33  Cl  UNL     1       4.629  -5.269  -7.549  1.00  0.00    -0.084 Cl
ENDBRANCH  25  26
ENDBRANCH  22  25
ENDBRANCH  15  18
ENDBRANCH   9  14
ENDBRANCH   6   8
ENDBRANCH   5   6
ENDBRANCH   4   5
ENDBRANCH   3   4
ENDBRANCH   2   3
ENDBRANCH   1   2
BRANCH   1  34
ATOM     34  C   UNL     1      -2.132  -1.632  -2.280  1.00  0.00     0.188 C 
BRANCH  34  35
ATOM     35  O   UNL     1      -2.650  -2.904  -1.878  1.00  0.00    -0.376 OA
BRANCH  35  36
ATOM     36  C   UNL     1      -2.054  -4.006  -2.571  1.00  0.00     0.202 C 
BRANCH  36  37
ATOM     37  C   UNL     1      -0.897  -4.568  -1.765  1.00  0.00     0.261 C 
BRANCH  37  38
ATOM     38  O   UNL     1       0.096  -3.553  -1.696  1.00  0.00    -0.460 OA
BRANCH  38  39
ATOM     39  C   UNL     1       1.369  -3.931  -1.738  1.00  0.00     0.338 C 
ATOM     40  O   UNL     1       1.836  -4.985  -2.189  1.00  0.00    -0.246 OA
BRANCH  39  41
ATOM     41  C   UNL     1       2.118  -2.921  -1.018  1.00  0.00     0.060 A 
ATOM     42  C   UNL     1       3.387  -2.535  -1.457  1.00  0.00     0.016 A 
ATOM     43  C   UNL     1       1.609  -2.574   0.245  1.00  0.00     0.016 A 
ATOM     44  C   UNL     1       4.234  -1.958  -0.537  1.00  0.00     0.010 A 
ATOM     45  C   UNL     1       2.448  -1.998   1.160  1.00  0.00     0.010 A 
ATOM     46  C   UNL     1       3.782  -1.842   0.784  1.00  0.00    -0.014 A 
BRANCH  46  47
ATOM     47  C   UNL     1       4.764  -2.070   1.826  1.00  0.00     0.031 A 
ATOM     48  C   UNL     1       5.301  -0.900   2.527  1.00  0.00     0.074 A 
ATOM     49  C   UNL     1       5.013  -3.347   2.191  1.00  0.00     0.049 A 
ATOM     50  N   UNL     1       6.508  -0.445   2.463  1.00  0.00    -0.248 NA
ATOM     51  C   UNL     1       4.381  -0.087   3.331  1.00  0.00     0.031 C 
ATOM     52  C   UNL     1       4.278  -4.551   1.761  1.00  0.00     0.029 A 
ATOM     53  N   UNL     1       5.878  -3.833   3.120  1.00  0.00    -0.354 N 
ATOM     54  C   UNL     1       6.561   0.551   3.428  1.00  0.00     0.074 A 
ATOM     55  C   UNL     1       5.199   0.869   3.773  1.00  0.00     0.031 C 
ATOM     56  C   UNL     1       4.570  -5.575   2.587  1.00  0.00     0.029 A 
ATOM     57  C   UNL     1       5.613  -5.144   3.493  1.00  0.00     0.049 A 
ATOM     58  H   UNL     1       6.621  -3.305   3.493  1.00  0.00     0.167 HD
ATOM     59  C   UNL     1       7.714   0.822   4.094  1.00  0.00     0.034 A 
ATOM     60  C   UNL     1       6.179  -5.828   4.510  1.00  0.00     0.034 A 
ATOM     61  C   UNL     1       8.863   0.220   3.472  1.00  0.00     0.049 A 
ATOM     62  C   UNL     1       7.466  -5.170   4.818  1.00  0.00     0.074 A 
ATOM     63  C   UNL     1       9.498   0.327   2.254  1.00  0.00     0.029 A 
ATOM     64  N   UNL     1       9.311  -0.940   4.055  1.00  0.00    -0.354 N 
ATOM     65  N   UNL     1       8.481  -5.152   3.998  1.00  0.00    -0.248 NA
ATOM     66  C   UNL     1       7.531  -4.209   5.908  1.00  0.00     0.031 C 
ATOM     67  C   UNL     1      10.064  -0.957   2.001  1.00  0.00     0.029 A 
ATOM     68  C   UNL     1       9.754  -1.792   3.077  1.00  0.00     0.049 A 
ATOM     69  H   UNL     1       9.314  -1.129   5.021  1.00  0.00     0.167 HD
ATOM     70  C   UNL     1       9.071  -3.914   4.204  1.00  0.00     0.074 A 
ATOM     71  C   UNL     1       8.566  -3.471   5.498  1.00  0.00     0.031 C 
ATOM     72  C   UNL     1       9.660  -3.238   3.174  1.00  0.00     0.034 A 
BRANCH  59  73
ATOM     73  C   UNL     1       7.759   1.305   5.519  1.00  0.00     0.023 A 
ATOM     74  C   UNL     1       8.962   1.871   5.985  1.00  0.00     0.012 A 
ATOM     75  C   UNL     1       6.768   1.010   6.483  1.00  0.00     0.148 A 
ATOM     76  C   UNL     1       9.166   2.134   7.344  1.00  0.00     0.002 A 
ATOM     77  C   UNL     1       6.937   1.363   7.815  1.00  0.00     0.091 A 
ATOM     78  F   UNL     1       5.711   0.258   6.151  1.00  0.00    -0.205 F 
ATOM     79  C   UNL     1       8.143   1.903   8.258  1.00  0.00     0.022 A 
BRANCH  77  80
ATOM     80  S   UNL     1       5.589   1.159   8.983  1.00  0.00     0.127 S 
ATOM     81  O   UNL     1       5.869  -0.163   9.531  1.00  0.00    -0.237 OA
ATOM     82  O   UNL     1       5.806   2.274   9.906  1.00  0.00    -0.237 OA
ATOM     83  O   UNL     1       4.384   1.291   8.171  1.00  0.00    -0.744 OA
ENDBRANCH  77  80
ENDBRANCH  59  73
BRANCH  60  84
ATOM     84  C   UNL     1       5.597  -6.907   5.332  1.00  0.00     0.023 A 
ATOM     85  C   UNL     1       6.438  -7.837   5.968  1.00  0.00     0.012 A 
ATOM     86  C   UNL     1       4.228  -6.883   5.689  1.00  0.00     0.148 A 
ATOM     87  C   UNL     1       5.939  -8.696   6.953  1.00  0.00     0.002 A 
ATOM     88  C   UNL     1       3.736  -7.745   6.663  1.00  0.00     0.091 A 
ATOM     89  F   UNL     1       3.432  -5.959   5.135  1.00  0.00    -0.205 F 
ATOM     90  C   UNL     1       4.593  -8.645   7.307  1.00  0.00     0.022 A 
BRANCH  88  91
ATOM     91  S   UNL     1       2.013  -7.726   7.179  1.00  0.00     0.127 S 
ATOM     92  O   UNL     1       1.682  -9.151   7.191  1.00  0.00    -0.237 OA
ATOM     93  O   UNL     1       2.100  -7.107   8.499  1.00  0.00    -0.237 OA
ATOM     94  O   UNL     1       1.303  -6.958   6.163  1.00  0.00    -0.744 OA
ENDBRANCH  88  91
ENDBRANCH  60  84
BRANCH  72  95
ATOM     95  C   UNL     1       9.967  -4.017   1.917  1.00  0.00     0.023 A 
ATOM     96  C   UNL     1       8.939  -4.524   1.095  1.00  0.00     0.012 A 
ATOM     97  C   UNL     1      11.297  -4.114   1.474  1.00  0.00     0.148 A 
ATOM     98  C   UNL     1       9.230  -5.139  -0.125  1.00  0.00     0.002 A 
ATOM     99  C   UNL     1      11.581  -4.690   0.240  1.00  0.00     0.091 A 
ATOM    100  F   UNL     1      12.265  -3.615   2.259  1.00  0.00    -0.205 F 
ATOM    101  C   UNL     1      10.551  -5.212  -0.558  1.00  0.00     0.022 A 
BRANCH  99 102
ATOM    102  S   UNL     1      13.244  -4.707  -0.436  1.00  0.00     0.127 S 
ATOM    103  O   UNL     1      13.646  -6.097  -0.230  1.00  0.00    -0.237 OA
ATOM    104  O   UNL     1      13.021  -4.338  -1.835  1.00  0.00    -0.237 OA
ATOM    105  O   UNL     1      13.994  -3.716   0.325  1.00  0.00    -0.744 OA
ENDBRANCH  99 102
ENDBRANCH  72  95
ENDBRANCH  46  47
ENDBRANCH  39  41
ENDBRANCH  38  39
ENDBRANCH  37  38
ENDBRANCH  36  37
ENDBRANCH  35  36
ENDBRANCH  34  35
ENDBRANCH   1  34
TORSDOF 24
