REMARK SMILES C[C@@H]1CN(C(=O)NC[C@@H]2CC[C@H](C(=O)OCCOCCOCCOC(=O)c3ccc(-c4c5nc(c(-c6cccc(S(=O)(=O)[O-])c6F)c6ccc([nH]6)c(-c6cccc(S(=O)(=O)[O-])c6F)c6nc(c(-c7cccc(S(=O)(=O)[O-])c7F)c7ccc4[nH]7)C=C6)C=C5)cc3)O2)CC(C)(C)O1
REMARK SMILES IDX 19 1 18 2 17 3 16 4 15 5 13 6 14 7 12 8 9 9 10 10 90 11
REMARK SMILES IDX 11 12 8 13 7 14 5 15 6 16 4 18 1 19 2 20 3 21 95 22 92 23
REMARK SMILES IDX 91 24 93 25 94 26 20 27 21 28 22 29 23 30 24 31 25 32 26 33
REMARK SMILES IDX 27 34 28 35 89 36 29 37 88 38 30 39 31 40 32 41 82 42 33 43
REMARK SMILES IDX 87 44 81 45 83 46 34 47 86 48 80 49 79 50 35 52 67 53 47 54
REMARK SMILES IDX 66 55 48 56 51 57 65 58 84 59 49 60 50 61 64 63 85 64 52 65
REMARK SMILES IDX 36 66 37 67 45 68 38 69 40 70 46 71 39 72 41 73 42 74 43 75
REMARK SMILES IDX 44 76 68 77 69 78 77 79 70 80 72 81 78 82 71 83 73 84 74 85
REMARK SMILES IDX 75 86 76 87 53 88 54 89 62 90 55 91 57 92 63 93 56 94 58 95
REMARK SMILES IDX 59 96 60 97 61 98
REMARK H PARENT 7 17 83 51 51 62
REMARK Flexibility Score: inf
ROOT
ATOM      1  C   UNL     1      -6.083  -0.389  -5.474  1.00  0.00     0.188 C 
ENDROOT
BRANCH   1   2
ATOM      2  O   UNL     1      -5.247  -0.025  -6.564  1.00  0.00    -0.376 OA
BRANCH   2   3
ATOM      3  C   UNL     1      -3.868  -0.383  -6.462  1.00  0.00     0.202 C 
BRANCH   3   4
ATOM      4  C   UNL     1      -3.146  -0.073  -5.139  1.00  0.00     0.261 C 
BRANCH   4   5
ATOM      5  O   UNL     1      -3.620  -0.830  -3.994  1.00  0.00    -0.461 OA
BRANCH   5   6
ATOM      6  C   UNL     1      -3.968  -0.098  -2.897  1.00  0.00     0.335 C 
ATOM      7  O   UNL     1      -3.907   1.127  -2.837  1.00  0.00    -0.249 OA
BRANCH   6   8
ATOM      8  C   UNL     1      -4.475  -0.935  -1.708  1.00  0.00     0.228 C 
ATOM      9  C   UNL     1      -2.796  -2.022  -0.511  1.00  0.00     0.138 C 
ATOM     10  C   UNL     1      -3.399  -3.041  -1.465  1.00  0.00     0.037 C 
ATOM     11  O   UNL     1      -3.572  -0.819  -0.595  1.00  0.00    -0.361 OA
ATOM     12  C   UNL     1      -4.710  -2.424  -1.865  1.00  0.00     0.047 C 
BRANCH   9  13
ATOM     13  C   UNL     1      -1.312  -1.768  -0.805  1.00  0.00     0.149 C 
BRANCH  13  14
ATOM     14  N   UNL     1      -1.064  -1.047  -2.045  1.00  0.00    -0.335 N 
ATOM     15  C   UNL     1      -0.742   0.209  -2.399  1.00  0.00     0.317 C 
ATOM     16  O   UNL     1      -0.458   0.345  -3.595  1.00  0.00    -0.249 OA
ATOM     17  H   UNL     1      -1.157  -1.632  -2.831  1.00  0.00     0.165 HD
BRANCH  15  18
ATOM     18  N   UNL     1      -0.675   1.250  -1.532  1.00  0.00    -0.319 N 
ATOM     19  C   UNL     1       1.312   0.136   0.591  1.00  0.00     0.040 C 
ATOM     20  C   UNL     1       0.482   1.418   0.603  1.00  0.00     0.135 C 
ATOM     21  C   UNL     1      -0.885   1.300  -0.094  1.00  0.00     0.153 C 
ATOM     22  O   UNL     1       1.251   2.531   0.103  1.00  0.00    -0.369 OA
ATOM     23  C   UNL     1       1.287   2.725  -1.333  1.00  0.00     0.081 C 
ATOM     24  C   UNL     1      -0.094   2.509  -2.003  1.00  0.00     0.156 C 
ATOM     25  C   UNL     1       2.361   1.839  -1.980  1.00  0.00     0.044 C 
ATOM     26  C   UNL     1       1.712   4.189  -1.511  1.00  0.00     0.044 C 
ENDBRANCH  15  18
ENDBRANCH  13  14
ENDBRANCH   9  13
ENDBRANCH   6   8
ENDBRANCH   5   6
ENDBRANCH   4   5
ENDBRANCH   3   4
ENDBRANCH   2   3
ENDBRANCH   1   2
BRANCH   1  27
ATOM     27  C   UNL     1      -6.246  -1.895  -5.251  1.00  0.00     0.188 C 
BRANCH  27  28
ATOM     28  O   UNL     1      -5.081  -2.646  -5.534  1.00  0.00    -0.376 OA
BRANCH  28  29
ATOM     29  C   UNL     1      -5.162  -3.900  -6.203  1.00  0.00     0.202 C 
BRANCH  29  30
ATOM     30  C   UNL     1      -6.175  -4.142  -7.344  1.00  0.00     0.261 C 
BRANCH  30  31
ATOM     31  O   UNL     1      -7.559  -3.860  -7.073  1.00  0.00    -0.460 OA
BRANCH  31  32
ATOM     32  C   UNL     1      -8.112  -4.410  -5.967  1.00  0.00     0.338 C 
ATOM     33  O   UNL     1      -7.650  -5.326  -5.308  1.00  0.00    -0.246 OA
BRANCH  32  34
ATOM     34  C   UNL     1      -9.216  -3.514  -5.520  1.00  0.00     0.060 A 
ATOM     35  C   UNL     1      -9.288  -3.193  -4.156  1.00  0.00     0.016 A 
ATOM     36  C   UNL     1     -10.090  -2.899  -6.424  1.00  0.00     0.016 A 
ATOM     37  C   UNL     1     -10.255  -2.297  -3.689  1.00  0.00     0.010 A 
ATOM     38  C   UNL     1     -11.068  -2.013  -5.953  1.00  0.00     0.010 A 
ATOM     39  C   UNL     1     -11.179  -1.734  -4.579  1.00  0.00    -0.014 A 
BRANCH  39  40
ATOM     40  C   UNL     1     -12.385  -1.039  -4.057  1.00  0.00     0.031 A 
ATOM     41  C   UNL     1     -13.665  -1.827  -3.958  1.00  0.00     0.074 A 
ATOM     42  C   UNL     1     -12.367   0.253  -3.680  1.00  0.00     0.049 A 
ATOM     43  N   UNL     1     -14.854  -1.442  -3.575  1.00  0.00    -0.248 NA
ATOM     44  C   UNL     1     -13.590  -3.246  -4.349  1.00  0.00     0.031 C 
ATOM     45  C   UNL     1     -11.201   1.133  -3.713  1.00  0.00     0.029 A 
ATOM     46  N   UNL     1     -13.382   1.058  -3.217  1.00  0.00    -0.354 N 
ATOM     47  C   UNL     1     -15.673  -2.556  -3.708  1.00  0.00     0.074 A 
ATOM     48  C   UNL     1     -14.850  -3.631  -4.217  1.00  0.00     0.031 C 
ATOM     49  C   UNL     1     -11.573   2.364  -3.317  1.00  0.00     0.029 A 
ATOM     50  C   UNL     1     -13.007   2.368  -3.028  1.00  0.00     0.049 A 
ATOM     51  H   UNL     1     -14.292   0.727  -3.039  1.00  0.00     0.167 HD
ATOM     52  C   UNL     1     -16.989  -2.685  -3.420  1.00  0.00     0.034 A 
ATOM     53  C   UNL     1     -13.742   3.447  -2.685  1.00  0.00     0.034 A 
ATOM     54  C   UNL     1     -17.812  -1.627  -2.903  1.00  0.00     0.049 A 
ATOM     55  C   UNL     1     -15.217   3.288  -2.404  1.00  0.00     0.074 A 
ATOM     56  C   UNL     1     -19.146  -1.676  -2.540  1.00  0.00     0.029 A 
ATOM     57  N   UNL     1     -17.387  -0.325  -2.691  1.00  0.00    -0.354 N 
ATOM     58  N   UNL     1     -15.950   2.201  -2.419  1.00  0.00    -0.248 NA
ATOM     59  C   UNL     1     -15.960   4.502  -2.028  1.00  0.00     0.031 C 
ATOM     60  C   UNL     1     -19.538  -0.394  -2.141  1.00  0.00     0.029 A 
ATOM     61  C   UNL     1     -18.437   0.443  -2.218  1.00  0.00     0.049 A 
ATOM     62  H   UNL     1     -16.474   0.005  -2.854  1.00  0.00     0.167 HD
ATOM     63  C   UNL     1     -17.226   2.592  -2.020  1.00  0.00     0.074 A 
ATOM     64  C   UNL     1     -17.161   4.013  -1.750  1.00  0.00     0.031 C 
ATOM     65  C   UNL     1     -18.352   1.845  -1.899  1.00  0.00     0.034 A 
BRANCH  52  66
ATOM     66  C   UNL     1     -17.621  -4.032  -3.647  1.00  0.00     0.023 A 
ATOM     67  C   UNL     1     -17.313  -5.104  -2.783  1.00  0.00     0.012 A 
ATOM     68  C   UNL     1     -18.552  -4.225  -4.685  1.00  0.00     0.148 A 
ATOM     69  C   UNL     1     -17.897  -6.355  -2.970  1.00  0.00     0.002 A 
ATOM     70  C   UNL     1     -19.166  -5.462  -4.836  1.00  0.00     0.091 A 
ATOM     71  F   UNL     1     -18.811  -3.201  -5.510  1.00  0.00    -0.205 F 
ATOM     72  C   UNL     1     -18.831  -6.531  -3.988  1.00  0.00     0.022 A 
BRANCH  70  73
ATOM     73  S   UNL     1     -20.438  -5.768  -6.066  1.00  0.00     0.127 S 
ATOM     74  O   UNL     1     -19.742  -6.656  -6.995  1.00  0.00    -0.237 OA
ATOM     75  O   UNL     1     -21.483  -6.413  -5.271  1.00  0.00    -0.237 OA
ATOM     76  O   UNL     1     -20.800  -4.463  -6.602  1.00  0.00    -0.744 OA
ENDBRANCH  70  73
ENDBRANCH  52  66
BRANCH  53  77
ATOM     77  C   UNL     1     -13.096   4.787  -2.564  1.00  0.00     0.023 A 
ATOM     78  C   UNL     1     -12.985   5.397  -1.298  1.00  0.00     0.012 A 
ATOM     79  C   UNL     1     -12.604   5.465  -3.696  1.00  0.00     0.148 A 
ATOM     80  C   UNL     1     -12.426   6.670  -1.167  1.00  0.00     0.002 A 
ATOM     81  C   UNL     1     -11.998   6.708  -3.552  1.00  0.00     0.091 A 
ATOM     82  F   UNL     1     -12.739   4.878  -4.894  1.00  0.00    -0.205 F 
ATOM     83  C   UNL     1     -11.924   7.320  -2.291  1.00  0.00     0.022 A 
BRANCH  81  84
ATOM     84  S   UNL     1     -11.223   7.569  -4.924  1.00  0.00     0.127 S 
ATOM     85  O   UNL     1     -12.111   8.716  -5.098  1.00  0.00    -0.237 OA
ATOM     86  O   UNL     1      -9.906   7.888  -4.371  1.00  0.00    -0.237 OA
ATOM     87  O   UNL     1     -11.200   6.616  -6.025  1.00  0.00    -0.744 OA
ENDBRANCH  81  84
ENDBRANCH  53  77
BRANCH  65  88
ATOM     88  C   UNL     1     -19.606   2.527  -1.410  1.00  0.00     0.023 A 
ATOM     89  C   UNL     1     -20.291   3.429  -2.248  1.00  0.00     0.012 A 
ATOM     90  C   UNL     1     -20.149   2.210  -0.148  1.00  0.00     0.148 A 
ATOM     91  C   UNL     1     -21.476   4.032  -1.824  1.00  0.00     0.002 A 
ATOM     92  C   UNL     1     -21.356   2.775   0.247  1.00  0.00     0.091 A 
ATOM     93  F   UNL     1     -19.477   1.361   0.642  1.00  0.00    -0.205 F 
ATOM     94  C   UNL     1     -22.014   3.696  -0.583  1.00  0.00     0.022 A 
BRANCH  92  95
ATOM     95  S   UNL     1     -22.174   2.326   1.783  1.00  0.00     0.127 S 
ATOM     96  O   UNL     1     -21.986   3.534   2.585  1.00  0.00    -0.237 OA
ATOM     97  O   UNL     1     -23.551   2.094   1.345  1.00  0.00    -0.237 OA
ATOM     98  O   UNL     1     -21.488   1.139   2.273  1.00  0.00    -0.744 OA
ENDBRANCH  92  95
ENDBRANCH  65  88
ENDBRANCH  39  40
ENDBRANCH  32  34
ENDBRANCH  31  32
ENDBRANCH  30  31
ENDBRANCH  29  30
ENDBRANCH  28  29
ENDBRANCH  27  28
ENDBRANCH   1  27
TORSDOF 23
