REMARK SMILES CCCCC[NH2+][C@](C)(C(=O)OCCOCCOCCOC(=O)c1ccc(-c2c3nc(c(-c4cccc(S(=O)(=O)[O-])c4F)c4ccc([nH]4)c(-c4cccc(S(=O)(=O)[O-])c4F)c4nc(c(-c5cccc(S(=O)(=O)[O-])c5F)c5ccc2[nH]5)C=C4)C=C3)cc1)C(F)(F)F
REMARK SMILES IDX 15 1 14 2 13 3 12 4 11 5 9 6 10 7 7 8 8 9 6 10 5 13 4 14
REMARK SMILES IDX 3 15 2 16 1 17 86 18 87 19 88 20 89 21 16 22 17 23 18 24
REMARK SMILES IDX 19 25 20 26 21 27 22 28 23 29 24 30 85 31 25 32 84 33 26 34
REMARK SMILES IDX 27 35 28 36 78 37 29 38 83 39 77 40 79 41 30 42 82 43 76 44
REMARK SMILES IDX 75 45 31 47 63 48 43 49 62 50 44 51 47 52 61 53 80 54 45 55
REMARK SMILES IDX 46 56 60 58 81 59 48 60 32 61 33 62 41 63 34 64 36 65 42 66
REMARK SMILES IDX 35 67 37 68 38 69 39 70 40 71 64 72 65 73 73 74 66 75 68 76
REMARK SMILES IDX 74 77 67 78 69 79 70 80 71 81 72 82 49 83 50 84 58 85 51 86
REMARK SMILES IDX 53 87 59 88 52 89 54 90 55 91 56 92 57 93
REMARK H PARENT 6 11 6 12 79 46 47 57
REMARK Flexibility Score: inf
ROOT
ATOM      1  C   UNL     1      -4.062   3.989   6.202  1.00  0.00     0.188 C 
ENDROOT
BRANCH   1   2
ATOM      2  O   UNL     1      -4.732   3.279   7.236  1.00  0.00    -0.376 OA
BRANCH   2   3
ATOM      3  C   UNL     1      -4.376   1.909   7.417  1.00  0.00     0.202 C 
BRANCH   3   4
ATOM      4  C   UNL     1      -4.525   0.994   6.195  1.00  0.00     0.261 C 
BRANCH   4   5
ATOM      5  O   UNL     1      -3.622   1.310   5.112  1.00  0.00    -0.458 OA
BRANCH   5   6
ATOM      6  C   UNL     1      -4.204   1.528   3.897  1.00  0.00     0.377 C 
ATOM      7  O   UNL     1      -5.417   1.489   3.704  1.00  0.00    -0.244 OA
BRANCH   6   8
ATOM      8  C   UNL     1      -3.198   1.703   2.747  1.00  0.00     0.287 C 
ATOM      9  C   UNL     1      -1.743   1.850   3.223  1.00  0.00     0.103 C 
BRANCH   8  10
ATOM     10  N   UNL     1      -3.397   0.464   1.911  1.00  0.00    -0.325 N 
ATOM     11  H   UNL     1      -3.347  -0.342   2.533  1.00  0.00     0.347 HD
ATOM     12  H   UNL     1      -4.301   0.585   1.454  1.00  0.00     0.347 HD
BRANCH  10  13
ATOM     13  C   UNL     1      -2.441   0.257   0.837  1.00  0.00     0.261 C 
BRANCH  13  14
ATOM     14  C   UNL     1      -2.958  -0.815  -0.130  1.00  0.00     0.061 C 
BRANCH  14  15
ATOM     15  C   UNL     1      -4.199  -0.419  -0.941  1.00  0.00     0.006 C 
BRANCH  15  16
ATOM     16  C   UNL     1      -4.082   0.894  -1.720  1.00  0.00    -0.003 C 
ATOM     17  C   UNL     1      -2.897   0.928  -2.672  1.00  0.00     0.004 C 
ENDBRANCH  15  16
ENDBRANCH  14  15
ENDBRANCH  13  14
ENDBRANCH  10  13
ENDBRANCH   8  10
BRANCH   8  18
ATOM     18  C   UNL     1      -3.622   3.042   2.087  1.00  0.00     0.455 C 
ATOM     19  F   UNL     1      -3.574   4.076   2.960  1.00  0.00    -0.164 F 
ATOM     20  F   UNL     1      -2.777   3.362   1.071  1.00  0.00    -0.164 F 
ATOM     21  F   UNL     1      -4.859   2.996   1.550  1.00  0.00    -0.164 F 
ENDBRANCH   8  18
ENDBRANCH   6   8
ENDBRANCH   5   6
ENDBRANCH   4   5
ENDBRANCH   3   4
ENDBRANCH   2   3
ENDBRANCH   1   2
BRANCH   1  22
ATOM     22  C   UNL     1      -2.557   4.185   6.398  1.00  0.00     0.188 C 
BRANCH  22  23
ATOM     23  O   UNL     1      -1.870   3.053   6.918  1.00  0.00    -0.376 OA
BRANCH  23  24
ATOM     24  C   UNL     1      -0.496   3.243   7.265  1.00  0.00     0.202 C 
BRANCH  24  25
ATOM     25  C   UNL     1      -0.198   4.407   8.232  1.00  0.00     0.261 C 
BRANCH  25  26
ATOM     26  O   UNL     1      -0.451   5.721   7.692  1.00  0.00    -0.460 OA
BRANCH  26  27
ATOM     27  C   UNL     1       0.102   6.024   6.494  1.00  0.00     0.338 C 
ATOM     28  O   UNL     1       1.028   5.438   5.957  1.00  0.00    -0.246 OA
BRANCH  27  29
ATOM     29  C   UNL     1      -0.780   7.007   5.809  1.00  0.00     0.060 A 
ATOM     30  C   UNL     1      -1.019   6.834   4.437  1.00  0.00     0.016 A 
ATOM     31  C   UNL     1      -1.444   8.020   6.507  1.00  0.00     0.016 A 
ATOM     32  C   UNL     1      -1.903   7.681   3.761  1.00  0.00     0.010 A 
ATOM     33  C   UNL     1      -2.317   8.876   5.825  1.00  0.00     0.010 A 
ATOM     34  C   UNL     1      -2.538   8.726   4.445  1.00  0.00    -0.014 A 
BRANCH  34  35
ATOM     35  C   UNL     1      -3.318   9.752   3.707  1.00  0.00     0.031 A 
ATOM     36  C   UNL     1      -2.641  11.044   3.335  1.00  0.00     0.074 A 
ATOM     37  C   UNL     1      -4.615   9.570   3.396  1.00  0.00     0.049 A 
ATOM     38  N   UNL     1      -3.140  12.107   2.760  1.00  0.00    -0.248 NA
ATOM     39  C   UNL     1      -1.208  11.147   3.655  1.00  0.00     0.031 C 
ATOM     40  C   UNL     1      -5.395   8.368   3.679  1.00  0.00     0.029 A 
ATOM     41  N   UNL     1      -5.513  10.423   2.798  1.00  0.00    -0.354 N 
ATOM     42  C   UNL     1      -2.093  13.015   2.670  1.00  0.00     0.074 A 
ATOM     43  C   UNL     1      -0.931  12.379   3.255  1.00  0.00     0.031 C 
ATOM     44  C   UNL     1      -6.667   8.574   3.289  1.00  0.00     0.029 A 
ATOM     45  C   UNL     1      -6.797   9.930   2.756  1.00  0.00     0.049 A 
ATOM     46  H   UNL     1      -5.262  11.302   2.434  1.00  0.00     0.167 HD
ATOM     47  C   UNL     1      -2.089  14.260   2.139  1.00  0.00     0.034 A 
ATOM     48  C   UNL     1      -7.948  10.515   2.363  1.00  0.00     0.034 A 
ATOM     49  C   UNL     1      -3.233  14.899   1.549  1.00  0.00     0.049 A 
ATOM     50  C   UNL     1      -7.930  11.930   1.836  1.00  0.00     0.074 A 
ATOM     51  C   UNL     1      -3.304  16.142   0.944  1.00  0.00     0.029 A 
ATOM     52  N   UNL     1      -4.510  14.363   1.508  1.00  0.00    -0.354 N 
ATOM     53  N   UNL     1      -6.909  12.727   1.637  1.00  0.00    -0.248 NA
ATOM     54  C   UNL     1      -9.227  12.517   1.459  1.00  0.00     0.031 C 
ATOM     55  C   UNL     1      -4.631  16.371   0.564  1.00  0.00     0.029 A 
ATOM     56  C   UNL     1      -5.381  15.259   0.911  1.00  0.00     0.049 A 
ATOM     57  H   UNL     1      -4.760  13.475   1.853  1.00  0.00     0.167 HD
ATOM     58  C   UNL     1      -7.435  13.895   1.089  1.00  0.00     0.074 A 
ATOM     59  C   UNL     1      -8.862  13.692   0.962  1.00  0.00     0.031 C 
ATOM     60  C   UNL     1      -6.794  15.038   0.740  1.00  0.00     0.034 A 
BRANCH  47  61
ATOM     61  C   UNL     1      -0.788  15.014   2.152  1.00  0.00     0.023 A 
ATOM     62  C   UNL     1       0.232  14.654   1.248  1.00  0.00     0.012 A 
ATOM     63  C   UNL     1      -0.597  16.109   3.016  1.00  0.00     0.148 A 
ATOM     64  C   UNL     1       1.435  15.357   1.222  1.00  0.00     0.002 A 
ATOM     65  C   UNL     1       0.589  16.830   2.956  1.00  0.00     0.091 A 
ATOM     66  F   UNL     1      -1.570  16.416   3.885  1.00  0.00    -0.205 F 
ATOM     67  C   UNL     1       1.609  16.451   2.067  1.00  0.00     0.022 A 
BRANCH  65  68
ATOM     68  S   UNL     1       0.880  18.295   3.953  1.00  0.00     0.127 S 
ATOM     69  O   UNL     1       1.862  17.803   4.919  1.00  0.00    -0.237 OA
ATOM     70  O   UNL     1       1.412  19.238   2.969  1.00  0.00    -0.237 OA
ATOM     71  O   UNL     1      -0.414  18.665   4.509  1.00  0.00    -0.744 OA
ENDBRANCH  65  68
ENDBRANCH  47  61
BRANCH  48  72
ATOM     72  C   UNL     1      -9.235   9.764   2.444  1.00  0.00     0.023 A 
ATOM     73  C   UNL     1      -9.895   9.390   1.257  1.00  0.00     0.012 A 
ATOM     74  C   UNL     1      -9.813   9.435   3.685  1.00  0.00     0.148 A 
ATOM     75  C   UNL     1     -11.121   8.726   1.306  1.00  0.00     0.002 A 
ATOM     76  C   UNL     1     -11.008   8.727   3.726  1.00  0.00     0.091 A 
ATOM     77  F   UNL     1      -9.183   9.825   4.802  1.00  0.00    -0.205 F 
ATOM     78  C   UNL     1     -11.673   8.385   2.538  1.00  0.00     0.022 A 
BRANCH  76  79
ATOM     79  S   UNL     1     -11.736   8.152   5.264  1.00  0.00     0.127 S 
ATOM     80  O   UNL     1     -12.918   9.004   5.372  1.00  0.00    -0.237 OA
ATOM     81  O   UNL     1     -12.015   6.748   4.960  1.00  0.00    -0.237 OA
ATOM     82  O   UNL     1     -10.715   8.357   6.283  1.00  0.00    -0.744 OA
ENDBRANCH  76  79
ENDBRANCH  48  72
BRANCH  60  83
ATOM     83  C   UNL     1      -7.617  16.167   0.169  1.00  0.00     0.023 A 
ATOM     84  C   UNL     1      -8.463  16.910   1.016  1.00  0.00     0.012 A 
ATOM     85  C   UNL     1      -7.490  16.548  -1.183  1.00  0.00     0.148 A 
ATOM     86  C   UNL     1      -9.192  17.993   0.523  1.00  0.00     0.002 A 
ATOM     87  C   UNL     1      -8.184  17.657  -1.657  1.00  0.00     0.091 A 
ATOM     88  F   UNL     1      -6.691  15.823  -1.979  1.00  0.00    -0.205 F 
ATOM     89  C   UNL     1      -9.043  18.373  -0.808  1.00  0.00     0.022 A 
BRANCH  87  90
ATOM     90  S   UNL     1      -7.987  18.279  -3.332  1.00  0.00     0.127 S 
ATOM     91  O   UNL     1      -9.269  17.921  -3.936  1.00  0.00    -0.237 OA
ATOM     92  O   UNL     1      -7.797  19.713  -3.111  1.00  0.00    -0.237 OA
ATOM     93  O   UNL     1      -6.825  17.593  -3.881  1.00  0.00    -0.744 OA
ENDBRANCH  87  90
ENDBRANCH  60  83
ENDBRANCH  34  35
ENDBRANCH  27  29
ENDBRANCH  26  27
ENDBRANCH  25  26
ENDBRANCH  24  25
ENDBRANCH  23  24
ENDBRANCH  22  23
ENDBRANCH   1  22
TORSDOF 26
