REMARK SMILES Cc1cccc(C[C@H](C(=O)OCCOCCOCCOC(=O)c2ccc(-c3c4nc(c(-c5cccc(S(=O)(=O)[O-])c5F)c5ccc([nH]5)c(-c5cccc(S(=O)(=O)[O-])c5F)c5nc(c(-c6cccc(S(=O)(=O)[O-])c6F)c6ccc3[nH]6)C=C5)C=C4)cc2)[C@@H]2CCCC[C@@H]2O)c1
REMARK SMILES IDX 16 1 15 2 14 3 13 4 12 5 11 6 9 7 10 8 8 9 7 10 6 11 1 12
REMARK SMILES IDX 2 13 3 14 93 15 4 16 5 17 86 18 87 19 91 20 88 21 90 22
REMARK SMILES IDX 89 23 92 24 17 26 18 27 19 28 20 29 21 30 22 31 23 32 24 33
REMARK SMILES IDX 85 34 25 35 84 36 26 37 27 38 28 39 78 40 29 41 83 42 77 43
REMARK SMILES IDX 79 44 30 45 82 46 76 47 75 48 31 50 63 51 43 52 62 53 44 54
REMARK SMILES IDX 47 55 61 56 80 57 45 58 46 59 60 61 81 62 48 63 32 64 33 65
REMARK SMILES IDX 41 66 34 67 36 68 42 69 35 70 37 71 38 72 39 73 40 74 64 75
REMARK SMILES IDX 65 76 73 77 66 78 68 79 74 80 67 81 69 82 70 83 71 84 72 85
REMARK SMILES IDX 49 86 50 87 58 88 51 89 53 90 59 91 52 92 54 93 55 94 56 95
REMARK SMILES IDX 57 96
REMARK H PARENT 92 25 79 49 47 60
REMARK Flexibility Score: inf
ROOT
ATOM      1  C   UNL     1      -5.711   0.310   4.892  1.00  0.00     0.188 C 
ENDROOT
BRANCH   1   2
ATOM      2  C   UNL     1      -4.269   0.679   4.533  1.00  0.00     0.188 C 
BRANCH   2   3
ATOM      3  O   UNL     1      -3.534   1.839   4.977  1.00  0.00    -0.376 OA
BRANCH   3   4
ATOM      4  C   UNL     1      -4.003   3.209   5.130  1.00  0.00     0.202 C 
BRANCH   4   5
ATOM      5  C   UNL     1      -3.877   4.536   4.024  1.00  0.00     0.261 C 
BRANCH   5   6
ATOM      6  O   UNL     1      -4.798   4.901   2.634  1.00  0.00    -0.463 OA
BRANCH   6   7
ATOM      7  C   UNL     1      -4.732   4.781   1.212  1.00  0.00     0.309 C 
ATOM      8  O   UNL     1      -3.821   4.213   0.604  1.00  0.00    -0.252 OA
BRANCH   7   9
ATOM      9  C   UNL     1      -5.635   5.455   0.183  1.00  0.00     0.109 C 
BRANCH   9  10
ATOM     10  C   UNL     1      -6.091   6.864   0.591  1.00  0.00     0.051 C 
BRANCH  10  11
ATOM     11  C   UNL     1      -6.184   7.117   2.094  1.00  0.00    -0.047 A 
ATOM     12  C   UNL     1      -3.846   8.570   4.744  1.00  0.00     0.044 C 
ATOM     13  C   UNL     1      -5.044   7.910   4.115  1.00  0.00    -0.051 A 
ATOM     14  C   UNL     1      -5.902   7.129   4.898  1.00  0.00     0.003 A 
ATOM     15  C   UNL     1      -5.212   7.925   2.720  1.00  0.00     0.007 A 
ATOM     16  C   UNL     1      -6.900   6.359   4.296  1.00  0.00     0.001 A 
ATOM     17  C   UNL     1      -7.055   6.365   2.902  1.00  0.00     0.004 A 
ENDBRANCH  10  11
ENDBRANCH   9  10
BRANCH   9  18
ATOM     18  C   UNL     1      -4.782   5.306  -1.309  1.00  0.00     0.032 C 
ATOM     19  C   UNL     1      -3.520   6.178  -1.565  1.00  0.00     0.007 C 
ATOM     20  C   UNL     1      -5.517   5.214  -2.644  1.00  0.00     0.118 C 
ATOM     21  C   UNL     1      -3.804   7.560  -2.128  1.00  0.00     0.001 C 
ATOM     22  C   UNL     1      -5.932   6.577  -3.162  1.00  0.00     0.032 C 
ATOM     23  C   UNL     1      -4.726   7.506  -3.341  1.00  0.00     0.003 C 
BRANCH  20  24
ATOM     24  O   UNL     1      -6.593   4.296  -2.567  1.00  0.00    -0.393 OA
ATOM     25  H   UNL     1      -7.239   4.609  -1.915  1.00  0.00     0.210 HD
ENDBRANCH  20  24
ENDBRANCH   9  18
ENDBRANCH   7   9
ENDBRANCH   6   7
ENDBRANCH   5   6
ENDBRANCH   4   5
ENDBRANCH   3   4
ENDBRANCH   2   3
ENDBRANCH   1   2
BRANCH   1  26
ATOM     26  O   UNL     1      -6.531   1.431   5.143  1.00  0.00    -0.376 OA
BRANCH  26  27
ATOM     27  C   UNL     1      -7.903   1.128   5.376  1.00  0.00     0.202 C 
BRANCH  27  28
ATOM     28  C   UNL     1      -8.692   0.479   4.205  1.00  0.00     0.261 C 
BRANCH  28  29
ATOM     29  O   UNL     1      -8.805   1.342   3.044  1.00  0.00    -0.460 OA
BRANCH  29  30
ATOM     30  C   UNL     1      -8.313   0.857   1.852  1.00  0.00     0.338 C 
ATOM     31  O   UNL     1      -8.854  -0.074   1.243  1.00  0.00    -0.246 OA
BRANCH  30  32
ATOM     32  C   UNL     1      -7.000   1.492   1.521  1.00  0.00     0.060 A 
ATOM     33  C   UNL     1      -6.039   1.186   0.546  1.00  0.00     0.016 A 
ATOM     34  C   UNL     1      -6.584   2.380   2.440  1.00  0.00     0.016 A 
ATOM     35  C   UNL     1      -4.632   1.631   0.645  1.00  0.00     0.010 A 
ATOM     36  C   UNL     1      -5.219   2.541   2.608  1.00  0.00     0.010 A 
ATOM     37  C   UNL     1      -4.119   2.280   1.774  1.00  0.00    -0.014 A 
BRANCH  37  38
ATOM     38  C   UNL     1      -2.574   2.924   2.109  1.00  0.00     0.031 A 
ATOM     39  C   UNL     1      -1.867   4.528   2.000  1.00  0.00     0.074 A 
ATOM     40  C   UNL     1      -1.777   2.036   2.730  1.00  0.00     0.049 A 
ATOM     41  N   UNL     1      -0.637   4.839   2.367  1.00  0.00    -0.248 NA
ATOM     42  C   UNL     1      -2.475   5.859   1.639  1.00  0.00     0.031 C 
ATOM     43  C   UNL     1      -0.477   2.190   3.370  1.00  0.00     0.029 A 
ATOM     44  N   UNL     1      -1.928   0.649   2.693  1.00  0.00    -0.354 N 
ATOM     45  C   UNL     1      -0.470   6.248   2.371  1.00  0.00     0.074 A 
ATOM     46  C   UNL     1      -1.569   6.798   1.738  1.00  0.00     0.031 C 
ATOM     47  C   UNL     1       0.192   1.030   3.207  1.00  0.00     0.029 A 
ATOM     48  C   UNL     1      -0.651   0.194   2.361  1.00  0.00     0.049 A 
ATOM     49  H   UNL     1      -2.740   0.118   2.860  1.00  0.00     0.167 HD
ATOM     50  C   UNL     1       0.559   6.931   2.930  1.00  0.00     0.034 A 
ATOM     51  C   UNL     1      -0.453  -0.155   1.057  1.00  0.00     0.034 A 
ATOM     52  C   UNL     1       1.655   5.991   2.990  1.00  0.00     0.049 A 
ATOM     53  C   UNL     1       0.624   0.733   0.442  1.00  0.00     0.074 A 
ATOM     54  C   UNL     1       2.028   4.995   3.870  1.00  0.00     0.029 A 
ATOM     55  N   UNL     1       2.119   5.602   1.743  1.00  0.00    -0.354 N 
ATOM     56  N   UNL     1       1.029   1.890   0.924  1.00  0.00    -0.248 NA
ATOM     57  C   UNL     1       1.451   0.289  -0.666  1.00  0.00     0.031 C 
ATOM     58  C   UNL     1       2.508   3.901   3.062  1.00  0.00     0.029 A 
ATOM     59  C   UNL     1       2.468   4.263   1.716  1.00  0.00     0.049 A 
ATOM     60  H   UNL     1       2.193   6.207   0.969  1.00  0.00     0.167 HD
ATOM     61  C   UNL     1       2.107   2.365   0.217  1.00  0.00     0.074 A 
ATOM     62  C   UNL     1       2.364   1.274  -0.717  1.00  0.00     0.031 C 
ATOM     63  C   UNL     1       2.702   3.598   0.416  1.00  0.00     0.034 A 
BRANCH  50  64
ATOM     64  C   UNL     1       0.530   8.407   3.416  1.00  0.00     0.023 A 
ATOM     65  C   UNL     1       1.543   8.758   4.332  1.00  0.00     0.012 A 
ATOM     66  C   UNL     1      -0.440   9.445   3.188  1.00  0.00     0.148 A 
ATOM     67  C   UNL     1       1.577   9.999   4.998  1.00  0.00     0.002 A 
ATOM     68  C   UNL     1      -0.411  10.682   3.857  1.00  0.00     0.091 A 
ATOM     69  F   UNL     1      -1.436   9.291   2.321  1.00  0.00    -0.205 F 
ATOM     70  C   UNL     1       0.598  10.957   4.773  1.00  0.00     0.022 A 
BRANCH  68  71
ATOM     71  S   UNL     1      -1.696  11.958   3.668  1.00  0.00     0.127 S 
ATOM     72  O   UNL     1      -2.095  12.192   5.059  1.00  0.00    -0.237 OA
ATOM     73  O   UNL     1      -0.961  13.063   3.057  1.00  0.00    -0.237 OA
ATOM     74  O   UNL     1      -2.745  11.379   2.839  1.00  0.00    -0.744 OA
ENDBRANCH  68  71
ENDBRANCH  50  64
BRANCH  51  75
ATOM     75  C   UNL     1      -1.653  -0.898   0.452  1.00  0.00     0.023 A 
ATOM     76  C   UNL     1      -2.256  -1.878   1.308  1.00  0.00     0.012 A 
ATOM     77  C   UNL     1      -2.382  -0.571  -0.711  1.00  0.00     0.148 A 
ATOM     78  C   UNL     1      -3.564  -2.344   1.142  1.00  0.00     0.002 A 
ATOM     79  C   UNL     1      -3.678  -1.112  -0.920  1.00  0.00     0.091 A 
ATOM     80  F   UNL     1      -1.860   0.303  -1.581  1.00  0.00    -0.205 F 
ATOM     81  C   UNL     1      -4.288  -1.940   0.037  1.00  0.00     0.022 A 
BRANCH  79  82
ATOM     82  S   UNL     1      -4.679  -0.696  -2.378  1.00  0.00     0.127 S 
ATOM     83  O   UNL     1      -4.116  -1.582  -3.391  1.00  0.00    -0.237 OA
ATOM     84  O   UNL     1      -6.041  -1.050  -1.970  1.00  0.00    -0.237 OA
ATOM     85  O   UNL     1      -4.482   0.734  -2.574  1.00  0.00    -0.744 OA
ENDBRANCH  79  82
ENDBRANCH  51  75
BRANCH  63  86
ATOM     86  C   UNL     1       3.504   4.325  -0.697  1.00  0.00     0.023 A 
ATOM     87  C   UNL     1       3.619   3.797  -1.998  1.00  0.00     0.012 A 
ATOM     88  C   UNL     1       4.034   5.639  -0.553  1.00  0.00     0.148 A 
ATOM     89  C   UNL     1       4.264   4.461  -3.049  1.00  0.00     0.002 A 
ATOM     90  C   UNL     1       4.525   6.365  -1.642  1.00  0.00     0.091 A 
ATOM     91  F   UNL     1       4.104   6.228   0.648  1.00  0.00    -0.205 F 
ATOM     92  C   UNL     1       4.688   5.764  -2.883  1.00  0.00     0.022 A 
BRANCH  90  93
ATOM     93  S   UNL     1       4.774   8.144  -1.510  1.00  0.00     0.127 S 
ATOM     94  O   UNL     1       6.142   8.225  -1.006  1.00  0.00    -0.237 OA
ATOM     95  O   UNL     1       4.606   8.597  -2.892  1.00  0.00    -0.237 OA
ATOM     96  O   UNL     1       3.718   8.582  -0.606  1.00  0.00    -0.744 OA
ENDBRANCH  90  93
ENDBRANCH  63  86
ENDBRANCH  37  38
ENDBRANCH  30  32
ENDBRANCH  29  30
ENDBRANCH  28  29
ENDBRANCH  27  28
ENDBRANCH  26  27
ENDBRANCH   1  26
TORSDOF 24
