REMARK SMILES O=C(OCCOCCOCCOC(=O)C1(Cc2ccncc2)Cc2ccccc2C1)c1ccc(-c2c3nc(c(-c4cccc(S(=O)(=O)[O-])c4F)c4ccc([nH]4)c(-c4cccc(S(=O)(=O)[O-])c4F)c4nc(c(-c5cccc(S(=O)(=O)[O-])c5F)c5ccc2[nH]5)C=C4)C=C3)cc1
REMARK SMILES IDX 7 1 6 2 5 3 4 4 3 5 2 6 1 7 31 8 32 9 93 10 33 11 92 12
REMARK SMILES IDX 34 13 35 14 36 15 86 16 37 17 91 18 85 19 87 20 38 21 90 22
REMARK SMILES IDX 84 23 83 24 39 26 71 27 51 28 70 29 52 30 55 31 69 32 88 33
REMARK SMILES IDX 53 34 54 35 68 37 89 38 56 39 40 40 41 41 49 42 42 43 44 44
REMARK SMILES IDX 50 45 43 46 45 47 46 48 47 49 48 50 72 51 73 52 81 53 74 54
REMARK SMILES IDX 76 55 82 56 75 57 77 58 78 59 79 60 80 61 57 62 58 63 66 64
REMARK SMILES IDX 59 65 61 66 67 67 60 68 62 69 63 70 64 71 65 72 8 73 9 74
REMARK SMILES IDX 10 75 11 76 12 77 13 78 14 79 15 80 23 81 30 82 24 83 29 84
REMARK SMILES IDX 25 85 28 86 26 87 27 88 16 89 17 90 18 91 22 92 19 93 21 94
REMARK SMILES IDX 20 95
REMARK H PARENT 87 25 55 36
REMARK Flexibility Score: inf
ROOT
ATOM      1  C   UNL     1       2.178  -0.763   2.833  1.00  0.00     0.188 C 
ENDROOT
BRANCH   1   2
ATOM      2  O   UNL     1       3.543  -0.755   2.436  1.00  0.00    -0.376 OA
BRANCH   2   3
ATOM      3  C   UNL     1       4.126   0.528   2.239  1.00  0.00     0.202 C 
BRANCH   3   4
ATOM      4  C   UNL     1       3.263   1.538   1.482  1.00  0.00     0.261 C 
BRANCH   4   5
ATOM      5  O   UNL     1       2.272   0.951   0.543  1.00  0.00    -0.460 OA
BRANCH   5   6
ATOM      6  C   UNL     1       1.991   0.115  -0.647  1.00  0.00     0.338 C 
ATOM      7  O   UNL     1       0.774  -0.070  -0.340  1.00  0.00    -0.246 OA
BRANCH   6   8
ATOM      8  C   UNL     1       3.185  -0.529  -2.327  1.00  0.00     0.060 A 
ATOM      9  C   UNL     1       4.687  -0.810  -2.370  1.00  0.00     0.016 A 
ATOM     10  C   UNL     1       2.810  -0.917  -3.719  1.00  0.00     0.016 A 
ATOM     11  C   UNL     1       5.310  -1.846  -3.023  1.00  0.00     0.010 A 
ATOM     12  C   UNL     1       3.449  -1.883  -4.499  1.00  0.00     0.010 A 
ATOM     13  C   UNL     1       4.626  -2.435  -4.041  1.00  0.00    -0.014 A 
BRANCH  13  14
ATOM     14  C   UNL     1       5.380  -3.359  -4.846  1.00  0.00     0.031 A 
ATOM     15  C   UNL     1       6.164  -2.713  -5.920  1.00  0.00     0.074 A 
ATOM     16  C   UNL     1       5.317  -4.659  -4.529  1.00  0.00     0.049 A 
ATOM     17  N   UNL     1       6.828  -3.277  -6.870  1.00  0.00    -0.248 NA
ATOM     18  C   UNL     1       6.234  -1.231  -5.918  1.00  0.00     0.031 C 
ATOM     19  C   UNL     1       4.668  -5.207  -3.339  1.00  0.00     0.029 A 
ATOM     20  N   UNL     1       5.753  -5.760  -5.188  1.00  0.00    -0.354 N 
ATOM     21  C   UNL     1       7.327  -2.230  -7.622  1.00  0.00     0.074 A 
ATOM     22  C   UNL     1       6.957  -0.991  -6.995  1.00  0.00     0.031 C 
ATOM     23  C   UNL     1       4.622  -6.545  -3.416  1.00  0.00     0.029 A 
ATOM     24  C   UNL     1       5.236  -6.926  -4.667  1.00  0.00     0.049 A 
ATOM     25  H   UNL     1       6.371  -5.730  -5.954  1.00  0.00     0.167 HD
ATOM     26  C   UNL     1       7.992  -2.348  -8.782  1.00  0.00     0.034 A 
ATOM     27  C   UNL     1       5.234  -8.148  -5.215  1.00  0.00     0.034 A 
ATOM     28  C   UNL     1       8.227  -3.640  -9.350  1.00  0.00     0.049 A 
ATOM     29  C   UNL     1       5.947  -8.234  -6.529  1.00  0.00     0.074 A 
ATOM     30  C   UNL     1       8.883  -3.969 -10.511  1.00  0.00     0.029 A 
ATOM     31  N   UNL     1       7.753  -4.826  -8.788  1.00  0.00    -0.354 N 
ATOM     32  N   UNL     1       6.489  -7.255  -7.221  1.00  0.00    -0.248 NA
ATOM     33  C   UNL     1       6.110  -9.563  -7.109  1.00  0.00     0.031 C 
ATOM     34  C   UNL     1       8.759  -5.352 -10.676  1.00  0.00     0.029 A 
ATOM     35  C   UNL     1       8.075  -5.893  -9.590  1.00  0.00     0.049 A 
ATOM     36  H   UNL     1       7.258  -4.889  -7.939  1.00  0.00     0.167 HD
ATOM     37  C   UNL     1       7.093  -7.845  -8.309  1.00  0.00     0.074 A 
ATOM     38  C   UNL     1       6.859  -9.277  -8.166  1.00  0.00     0.031 C 
ATOM     39  C   UNL     1       7.777  -7.283  -9.335  1.00  0.00     0.034 A 
BRANCH  26  40
ATOM     40  C   UNL     1       8.354  -1.084  -9.494  1.00  0.00     0.023 A 
ATOM     41  C   UNL     1       9.331  -0.212  -8.971  1.00  0.00     0.012 A 
ATOM     42  C   UNL     1       7.670  -0.734 -10.671  1.00  0.00     0.148 A 
ATOM     43  C   UNL     1       9.611   0.998  -9.606  1.00  0.00     0.002 A 
ATOM     44  C   UNL     1       7.993   0.444 -11.328  1.00  0.00     0.091 A 
ATOM     45  F   UNL     1       6.695  -1.544 -11.106  1.00  0.00    -0.205 F 
ATOM     46  C   UNL     1       8.954   1.318 -10.792  1.00  0.00     0.022 A 
BRANCH  44  47
ATOM     47  S   UNL     1       7.247   0.909 -12.891  1.00  0.00     0.127 S 
ATOM     48  O   UNL     1       6.679   2.219 -12.572  1.00  0.00    -0.237 OA
ATOM     49  O   UNL     1       8.411   0.946 -13.774  1.00  0.00    -0.237 OA
ATOM     50  O   UNL     1       6.268  -0.123 -13.197  1.00  0.00    -0.744 OA
ENDBRANCH  44  47
ENDBRANCH  26  40
BRANCH  27  51
ATOM     51  C   UNL     1       4.607  -9.320  -4.553  1.00  0.00     0.023 A 
ATOM     52  C   UNL     1       5.436 -10.260  -3.913  1.00  0.00     0.012 A 
ATOM     53  C   UNL     1       3.214  -9.536  -4.580  1.00  0.00     0.148 A 
ATOM     54  C   UNL     1       4.898 -11.417  -3.348  1.00  0.00     0.002 A 
ATOM     55  C   UNL     1       2.686 -10.704  -4.035  1.00  0.00     0.091 A 
ATOM     56  F   UNL     1       2.436  -8.607  -5.153  1.00  0.00    -0.205 F 
ATOM     57  C   UNL     1       3.526 -11.642  -3.414  1.00  0.00     0.022 A 
BRANCH  55  58
ATOM     58  S   UNL     1       0.946 -11.144  -4.136  1.00  0.00     0.127 S 
ATOM     59  O   UNL     1       0.977 -12.275  -5.059  1.00  0.00    -0.237 OA
ATOM     60  O   UNL     1       0.641 -11.492  -2.748  1.00  0.00    -0.237 OA
ATOM     61  O   UNL     1       0.262  -9.957  -4.629  1.00  0.00    -0.744 OA
ENDBRANCH  55  58
ENDBRANCH  27  51
BRANCH  39  62
ATOM     62  C   UNL     1       8.296  -8.241 -10.350  1.00  0.00     0.023 A 
ATOM     63  C   UNL     1       7.408  -8.825 -11.269  1.00  0.00     0.012 A 
ATOM     64  C   UNL     1       9.680  -8.457 -10.446  1.00  0.00     0.148 A 
ATOM     65  C   UNL     1       7.899  -9.646 -12.274  1.00  0.00     0.002 A 
ATOM     66  C   UNL     1      10.166  -9.215 -11.492  1.00  0.00     0.091 A 
ATOM     67  F   UNL     1      10.483  -7.888  -9.534  1.00  0.00    -0.205 F 
ATOM     68  C   UNL     1       9.278  -9.824 -12.397  1.00  0.00     0.022 A 
BRANCH  66  69
ATOM     69  S   UNL     1      11.921  -9.383 -11.803  1.00  0.00     0.127 S 
ATOM     70  O   UNL     1      12.129 -10.809 -11.558  1.00  0.00    -0.237 OA
ATOM     71  O   UNL     1      12.019  -8.979 -13.206  1.00  0.00    -0.237 OA
ATOM     72  O   UNL     1      12.589  -8.490 -10.865  1.00  0.00    -0.744 OA
ENDBRANCH  66  69
ENDBRANCH  39  62
ENDBRANCH  13  14
ENDBRANCH   6   8
ENDBRANCH   5   6
ENDBRANCH   4   5
ENDBRANCH   3   4
ENDBRANCH   2   3
ENDBRANCH   1   2
BRANCH   1  73
ATOM     73  C   UNL     1       1.786  -2.006   3.626  1.00  0.00     0.188 C 
BRANCH  73  74
ATOM     74  O   UNL     1       2.679  -2.480   4.626  1.00  0.00    -0.376 OA
BRANCH  74  75
ATOM     75  C   UNL     1       4.055  -2.638   4.296  1.00  0.00     0.202 C 
BRANCH  75  76
ATOM     76  C   UNL     1       4.481  -3.621   3.189  1.00  0.00     0.261 C 
BRANCH  76  77
ATOM     77  O   UNL     1       3.828  -3.508   1.912  1.00  0.00    -0.463 OA
BRANCH  77  78
ATOM     78  C   UNL     1       2.763  -4.335   1.750  1.00  0.00     0.313 C 
ATOM     79  O   UNL     1       2.299  -5.019   2.659  1.00  0.00    -0.252 OA
BRANCH  78  80
ATOM     80  C   UNL     1       2.276  -4.446   0.315  1.00  0.00     0.080 C 
ATOM     81  C   UNL     1       2.709  -5.928  -0.023  1.00  0.00     0.055 C 
ATOM     82  C   UNL     1       0.732  -4.438   0.212  1.00  0.00     0.055 C 
ATOM     83  C   UNL     1       1.512  -6.502  -0.697  1.00  0.00    -0.044 A 
ATOM     84  C   UNL     1       0.444  -5.606  -0.682  1.00  0.00    -0.044 A 
ATOM     85  C   UNL     1       1.380  -7.766  -1.241  1.00  0.00     0.004 A 
ATOM     86  C   UNL     1      -0.730  -5.894  -1.357  1.00  0.00     0.004 A 
ATOM     87  C   UNL     1       0.175  -8.086  -1.861  1.00  0.00     0.000 A 
ATOM     88  C   UNL     1      -0.853  -7.141  -1.967  1.00  0.00     0.000 A 
BRANCH  80  89
ATOM     89  C   UNL     1       2.874  -3.445  -0.708  1.00  0.00     0.055 C 
BRANCH  89  90
ATOM     90  C   UNL     1       2.524  -1.948  -0.788  1.00  0.00    -0.044 A 
ATOM     91  C   UNL     1       3.791  -0.770  -0.274  1.00  0.00     0.024 A 
ATOM     92  C   UNL     1       1.222  -1.423  -1.918  1.00  0.00     0.024 A 
ATOM     93  C   UNL     1       3.797   0.929  -1.004  1.00  0.00     0.111 A 
ATOM     94  C   UNL     1       1.183   0.304  -2.486  1.00  0.00     0.111 A 
ATOM     95  N   UNL     1       2.480   1.440  -2.071  1.00  0.00    -0.265 NA
ENDBRANCH  89  90
ENDBRANCH  80  89
ENDBRANCH  78  80
ENDBRANCH  77  78
ENDBRANCH  76  77
ENDBRANCH  75  76
ENDBRANCH  74  75
ENDBRANCH  73  74
ENDBRANCH   1  73
TORSDOF 22
