REMARK SMILES CC(C)[C@@H](CO)NC(=O)CC(C)(C)CC(=O)OCCOCCOCCOC(=O)c1ccc(-c2c3nc(c(-c4cccc(S(=O)(=O)[O-])c4F)c4ccc([nH]4)c(-c4cccc(S(=O)(=O)[O-])c4F)c4nc(c(-c5cccc(S(=O)(=O)[O-])c5F)c5ccc2[nH]5)C=C4)C=C3)cc1
REMARK SMILES IDX 20 1 19 2 18 3 17 4 15 5 16 6 14 7 11 8 12 9 13 10 10 11
REMARK SMILES IDX 8 12 7 13 9 15 4 16 2 17 1 18 3 19 5 20 6 21 21 23 22 24
REMARK SMILES IDX 23 25 24 26 25 27 26 28 27 29 28 30 29 31 30 32 91 33 31 34
REMARK SMILES IDX 90 35 32 36 33 37 34 38 84 39 35 40 89 41 83 42 85 43 36 44
REMARK SMILES IDX 88 45 82 46 81 47 37 49 69 50 49 51 68 52 50 53 53 54 67 55
REMARK SMILES IDX 86 56 51 57 52 58 66 60 87 61 54 62 38 63 39 64 47 65 40 66
REMARK SMILES IDX 42 67 48 68 41 69 43 70 44 71 45 72 46 73 70 74 71 75 79 76
REMARK SMILES IDX 72 77 74 78 80 79 73 80 75 81 76 82 77 83 78 84 55 85 56 86
REMARK SMILES IDX 64 87 57 88 59 89 65 90 58 91 60 92 61 93 62 94 63 95
REMARK H PARENT 7 14 6 22 85 48 53 59
REMARK Flexibility Score: inf
ROOT
ATOM      1  O   UNL     1      -3.217  -7.402  -3.985  1.00  0.00    -0.376 OA
ENDROOT
BRANCH   1   2
ATOM      2  C   UNL     1      -3.223  -8.062  -2.718  1.00  0.00     0.202 C 
BRANCH   2   3
ATOM      3  C   UNL     1      -2.010  -7.787  -1.806  1.00  0.00     0.261 C 
BRANCH   3   4
ATOM      4  O   UNL     1      -1.922  -6.401  -1.388  1.00  0.00    -0.463 OA
BRANCH   4   5
ATOM      5  C   UNL     1      -0.697  -5.810  -1.429  1.00  0.00     0.306 C 
ATOM      6  O   UNL     1       0.354  -6.410  -1.622  1.00  0.00    -0.252 OA
BRANCH   5   7
ATOM      7  C   UNL     1      -0.779  -4.280  -1.379  1.00  0.00     0.129 C 
BRANCH   7   8
ATOM      8  C   UNL     1      -1.380  -3.553  -0.140  1.00  0.00    -0.016 C 
ATOM      9  C   UNL     1      -0.251  -2.897   0.674  1.00  0.00     0.012 C 
ATOM     10  C   UNL     1      -2.070  -4.524   0.845  1.00  0.00     0.012 C 
BRANCH   8  11
ATOM     11  C   UNL     1      -2.443  -2.473  -0.511  1.00  0.00     0.107 C 
BRANCH  11  12
ATOM     12  C   UNL     1      -2.312  -1.457  -1.639  1.00  0.00     0.220 C 
ATOM     13  N   UNL     1      -1.131  -0.893  -1.998  1.00  0.00    -0.351 N 
ATOM     14  H   UNL     1      -0.717  -1.122  -2.861  1.00  0.00     0.163 HD
ATOM     15  O   UNL     1      -3.321  -0.998  -2.173  1.00  0.00    -0.275 OA
BRANCH  13  16
ATOM     16  C   UNL     1      -0.478   0.052  -1.102  1.00  0.00     0.110 C 
BRANCH  16  17
ATOM     17  C   UNL     1       1.044   0.182  -1.380  1.00  0.00     0.007 C 
ATOM     18  C   UNL     1       1.752   0.519  -0.064  1.00  0.00     0.009 C 
ATOM     19  C   UNL     1       1.707  -1.035  -2.038  1.00  0.00     0.009 C 
ENDBRANCH  16  17
BRANCH  16  20
ATOM     20  C   UNL     1      -1.195   1.433  -1.186  1.00  0.00     0.181 C 
BRANCH  20  21
ATOM     21  O   UNL     1      -0.952   2.071  -2.438  1.00  0.00    -0.394 OA
ATOM     22  H   UNL     1      -0.001   2.225  -2.543  1.00  0.00     0.210 HD
ENDBRANCH  20  21
ENDBRANCH  16  20
ENDBRANCH  13  16
ENDBRANCH  11  12
ENDBRANCH   8  11
ENDBRANCH   7   8
ENDBRANCH   5   7
ENDBRANCH   4   5
ENDBRANCH   3   4
ENDBRANCH   2   3
ENDBRANCH   1   2
BRANCH   1  23
ATOM     23  C   UNL     1      -3.009  -5.996  -3.957  1.00  0.00     0.188 C 
BRANCH  23  24
ATOM     24  C   UNL     1      -4.062  -5.182  -3.193  1.00  0.00     0.188 C 
BRANCH  24  25
ATOM     25  O   UNL     1      -4.565  -5.779  -2.006  1.00  0.00    -0.376 OA
BRANCH  25  26
ATOM     26  C   UNL     1      -5.611  -5.085  -1.329  1.00  0.00     0.202 C 
BRANCH  26  27
ATOM     27  C   UNL     1      -6.902  -4.853  -2.136  1.00  0.00     0.261 C 
BRANCH  27  28
ATOM     28  O   UNL     1      -6.759  -4.063  -3.333  1.00  0.00    -0.460 OA
BRANCH  28  29
ATOM     29  C   UNL     1      -6.203  -2.837  -3.192  1.00  0.00     0.338 C 
ATOM     30  O   UNL     1      -6.005  -2.263  -2.133  1.00  0.00    -0.246 OA
BRANCH  29  31
ATOM     31  C   UNL     1      -5.679  -2.418  -4.516  1.00  0.00     0.060 A 
ATOM     32  C   UNL     1      -4.310  -2.170  -4.659  1.00  0.00     0.016 A 
ATOM     33  C   UNL     1      -6.513  -2.292  -5.622  1.00  0.00     0.016 A 
ATOM     34  C   UNL     1      -3.772  -1.707  -5.854  1.00  0.00     0.010 A 
ATOM     35  C   UNL     1      -5.972  -1.857  -6.838  1.00  0.00     0.010 A 
ATOM     36  C   UNL     1      -4.607  -1.524  -6.951  1.00  0.00    -0.014 A 
BRANCH  36  37
ATOM     37  C   UNL     1      -4.097  -0.852  -8.169  1.00  0.00     0.031 A 
ATOM     38  C   UNL     1      -4.639   0.507  -8.505  1.00  0.00     0.074 A 
ATOM     39  C   UNL     1      -3.173  -1.428  -8.960  1.00  0.00     0.049 A 
ATOM     40  N   UNL     1      -4.561   1.180  -9.620  1.00  0.00    -0.248 NA
ATOM     41  C   UNL     1      -5.386   1.193  -7.435  1.00  0.00     0.031 C 
ATOM     42  C   UNL     1      -2.490  -2.693  -8.690  1.00  0.00     0.029 A 
ATOM     43  N   UNL     1      -2.676  -1.032 -10.178  1.00  0.00    -0.354 N 
ATOM     44  C   UNL     1      -5.315   2.329  -9.416  1.00  0.00     0.074 A 
ATOM     45  C   UNL     1      -5.828   2.271  -8.066  1.00  0.00     0.031 C 
ATOM     46  C   UNL     1      -1.690  -2.989  -9.728  1.00  0.00     0.029 A 
ATOM     47  C   UNL     1      -1.866  -1.976 -10.765  1.00  0.00     0.049 A 
ATOM     48  H   UNL     1      -2.879  -0.161 -10.588  1.00  0.00     0.167 HD
ATOM     49  C   UNL     1      -5.559   3.338 -10.285  1.00  0.00     0.034 A 
ATOM     50  C   UNL     1      -1.379  -2.048 -12.020  1.00  0.00     0.034 A 
ATOM     51  C   UNL     1      -5.002   3.397 -11.609  1.00  0.00     0.049 A 
ATOM     52  C   UNL     1      -1.718  -0.950 -12.995  1.00  0.00     0.074 A 
ATOM     53  C   UNL     1      -5.167   4.378 -12.569  1.00  0.00     0.029 A 
ATOM     54  N   UNL     1      -4.172   2.432 -12.159  1.00  0.00    -0.354 N 
ATOM     55  N   UNL     1      -2.426   0.138 -12.800  1.00  0.00    -0.248 NA
ATOM     56  C   UNL     1      -1.184  -1.080 -14.358  1.00  0.00     0.031 C 
ATOM     57  C   UNL     1      -4.467   3.987 -13.714  1.00  0.00     0.029 A 
ATOM     58  C   UNL     1      -3.824   2.787 -13.449  1.00  0.00     0.049 A 
ATOM     59  H   UNL     1      -3.874   1.614 -11.698  1.00  0.00     0.167 HD
ATOM     60  C   UNL     1      -2.384   0.841 -13.999  1.00  0.00     0.074 A 
ATOM     61  C   UNL     1      -1.575   0.060 -14.912  1.00  0.00     0.031 C 
ATOM     62  C   UNL     1      -2.966   2.023 -14.318  1.00  0.00     0.034 A 
BRANCH  49  63
ATOM     63  C   UNL     1      -6.481   4.441  -9.838  1.00  0.00     0.023 A 
ATOM     64  C   UNL     1      -6.069   5.359  -8.852  1.00  0.00     0.012 A 
ATOM     65  C   UNL     1      -7.755   4.583 -10.426  1.00  0.00     0.148 A 
ATOM     66  C   UNL     1      -6.925   6.376  -8.428  1.00  0.00     0.002 A 
ATOM     67  C   UNL     1      -8.581   5.630 -10.036  1.00  0.00     0.091 A 
ATOM     68  F   UNL     1      -8.138   3.687 -11.346  1.00  0.00    -0.205 F 
ATOM     69  C   UNL     1      -8.174   6.518  -9.027  1.00  0.00     0.022 A 
BRANCH  67  70
ATOM     70  S   UNL     1     -10.172   5.946 -10.805  1.00  0.00     0.127 S 
ATOM     71  O   UNL     1     -11.096   5.621  -9.719  1.00  0.00    -0.237 OA
ATOM     72  O   UNL     1     -10.082   7.371 -11.122  1.00  0.00    -0.237 OA
ATOM     73  O   UNL     1     -10.242   5.068 -11.965  1.00  0.00    -0.744 OA
ENDBRANCH  67  70
ENDBRANCH  49  63
BRANCH  50  74
ATOM     74  C   UNL     1      -0.538  -3.207 -12.436  1.00  0.00     0.023 A 
ATOM     75  C   UNL     1       0.820  -3.003 -12.745  1.00  0.00     0.012 A 
ATOM     76  C   UNL     1      -1.071  -4.510 -12.516  1.00  0.00     0.148 A 
ATOM     77  C   UNL     1       1.625  -4.067 -13.154  1.00  0.00     0.002 A 
ATOM     78  C   UNL     1      -0.250  -5.575 -12.869  1.00  0.00     0.091 A 
ATOM     79  F   UNL     1      -2.370  -4.683 -12.235  1.00  0.00    -0.205 F 
ATOM     80  C   UNL     1       1.094  -5.353 -13.206  1.00  0.00     0.022 A 
BRANCH  78  81
ATOM     81  S   UNL     1      -0.813  -7.280 -12.846  1.00  0.00     0.127 S 
ATOM     82  O   UNL     1      -0.779  -7.625 -14.265  1.00  0.00    -0.237 OA
ATOM     83  O   UNL     1       0.217  -7.925 -12.031  1.00  0.00    -0.237 OA
ATOM     84  O   UNL     1      -2.135  -7.253 -12.236  1.00  0.00    -0.744 OA
ENDBRANCH  78  81
ENDBRANCH  50  74
BRANCH  62  85
ATOM     85  C   UNL     1      -2.694   2.595 -15.685  1.00  0.00     0.023 A 
ATOM     86  C   UNL     1      -3.299   2.032 -16.825  1.00  0.00     0.012 A 
ATOM     87  C   UNL     1      -1.916   3.763 -15.816  1.00  0.00     0.148 A 
ATOM     88  C   UNL     1      -3.112   2.611 -18.080  1.00  0.00     0.002 A 
ATOM     89  C   UNL     1      -1.780   4.364 -17.060  1.00  0.00     0.091 A 
ATOM     90  F   UNL     1      -1.338   4.272 -14.718  1.00  0.00    -0.205 F 
ATOM     91  C   UNL     1      -2.367   3.782 -18.196  1.00  0.00     0.022 A 
BRANCH  89  92
ATOM     92  S   UNL     1      -0.928   5.928 -17.289  1.00  0.00     0.127 S 
ATOM     93  O   UNL     1       0.236   5.522 -18.076  1.00  0.00    -0.237 OA
ATOM     94  O   UNL     1      -1.919   6.713 -18.025  1.00  0.00    -0.237 OA
ATOM     95  O   UNL     1      -0.628   6.427 -15.953  1.00  0.00    -0.744 OA
ENDBRANCH  89  92
ENDBRANCH  62  85
ENDBRANCH  36  37
ENDBRANCH  29  31
ENDBRANCH  28  29
ENDBRANCH  27  28
ENDBRANCH  26  27
ENDBRANCH  25  26
ENDBRANCH  24  25
ENDBRANCH  23  24
ENDBRANCH   1  23
TORSDOF 27
