REMARK SMILES COC(=O)c1ccc([C@H]2Nc3c(C(=O)OCCOCCOCCOC(=O)c4ccc(-c5c6nc(c(-c7cccc(S(=O)(=O)[O-])c7F)c7ccc([nH]7)c(-c7cccc(S(=O)(=O)[O-])c7F)c7nc(c(-c8cccc(S(=O)(=O)[O-])c8F)c8ccc5[nH]8)C=C7)C=C6)cc4)cccc3[C@@H]3[C@@H]4CC[C@@H](C4)[C@@H]32)cc1
REMARK SMILES IDX 19 1 18 2 17 3 16 4 15 5 13 6 14 7 12 8 9 9 10 10 100 11
REMARK SMILES IDX 11 12 94 14 98 15 93 16 95 17 97 18 99 19 90 20 92 21 96 22
REMARK SMILES IDX 91 23 8 24 5 25 6 26 102 27 7 28 101 29 3 30 4 31 2 32 1 33
REMARK SMILES IDX 20 34 21 35 22 36 23 37 24 38 25 39 26 40 27 41 28 42 89 43
REMARK SMILES IDX 29 44 88 45 30 46 31 47 32 48 82 49 33 50 87 51 81 52 83 53
REMARK SMILES IDX 34 54 86 55 80 56 79 57 35 59 67 60 47 61 66 62 48 63 51 64
REMARK SMILES IDX 65 65 84 66 49 67 50 68 64 70 85 71 52 72 36 73 37 74 45 75
REMARK SMILES IDX 38 76 40 77 46 78 39 79 41 80 42 81 43 82 44 83 68 84 69 85
REMARK SMILES IDX 77 86 70 87 72 88 78 89 71 90 73 91 74 92 75 93 76 94 53 95
REMARK SMILES IDX 54 96 62 97 55 98 57 99 63 100 56 101 58 102 59 103 60 104
REMARK SMILES IDX 61 105
REMARK H PARENT 10 13 83 58 51 69
REMARK Flexibility Score: inf
ROOT
ATOM      1  C   UNL     1      -5.041   5.894  -0.808  1.00  0.00     0.188 C 
ENDROOT
BRANCH   1   2
ATOM      2  O   UNL     1      -6.218   5.085  -0.800  1.00  0.00    -0.376 OA
BRANCH   2   3
ATOM      3  C   UNL     1      -6.637   4.740   0.532  1.00  0.00     0.202 C 
BRANCH   3   4
ATOM      4  C   UNL     1      -5.693   3.781   1.279  1.00  0.00     0.261 C 
BRANCH   4   5
ATOM      5  O   UNL     1      -4.353   4.316   1.306  1.00  0.00    -0.460 OA
BRANCH   5   6
ATOM      6  C   UNL     1      -3.358   3.429   1.028  1.00  0.00     0.340 C 
ATOM      7  O   UNL     1      -3.443   2.216   1.142  1.00  0.00    -0.246 OA
BRANCH   6   8
ATOM      8  C   UNL     1      -2.209   4.113   0.356  1.00  0.00     0.083 A 
ATOM      9  C   UNL     1      -1.839   7.246   2.426  1.00  0.00     0.113 C 
ATOM     10  N   UNL     1      -2.397   6.154   1.646  1.00  0.00    -0.377 N 
ATOM     11  C   UNL     1      -0.805   8.033   1.592  1.00  0.00     0.027 C 
ATOM     12  C   UNL     1      -1.784   5.428   0.661  1.00  0.00     0.053 A 
ATOM     13  H   UNL     1      -3.327   5.907   1.851  1.00  0.00     0.161 HD
ATOM     14  C   UNL     1      -0.328   7.430   0.232  1.00  0.00     0.030 C 
ATOM     15  C   UNL     1       0.543   8.332   2.303  1.00  0.00    -0.005 C 
ATOM     16  C   UNL     1      -0.740   6.009  -0.065  1.00  0.00    -0.020 A 
ATOM     17  C   UNL     1       1.211   7.686   0.274  1.00  0.00    -0.003 C 
ATOM     18  C   UNL     1       1.355   7.046   2.575  1.00  0.00     0.004 C 
ATOM     19  C   UNL     1       1.326   8.947   1.137  1.00  0.00     0.008 C 
ATOM     20  C   UNL     1      -1.601   3.407  -0.689  1.00  0.00     0.018 A 
ATOM     21  C   UNL     1      -0.177   5.302  -1.140  1.00  0.00     0.006 A 
ATOM     22  C   UNL     1       1.904   6.669   1.194  1.00  0.00     0.004 C 
ATOM     23  C   UNL     1      -0.597   4.007  -1.443  1.00  0.00     0.001 A 
BRANCH   9  24
ATOM     24  C   UNL     1      -3.095   7.991   2.936  1.00  0.00    -0.025 A 
ATOM     25  C   UNL     1      -5.783   8.762   2.833  1.00  0.00     0.060 A 
ATOM     26  C   UNL     1      -5.439   7.562   3.455  1.00  0.00     0.016 A 
ATOM     27  C   UNL     1      -4.776   9.674   2.494  1.00  0.00     0.016 A 
ATOM     28  C   UNL     1      -4.096   7.202   3.553  1.00  0.00     0.007 A 
ATOM     29  C   UNL     1      -3.433   9.293   2.556  1.00  0.00     0.007 A 
BRANCH  25  30
ATOM     30  C   UNL     1      -7.194   8.950   2.404  1.00  0.00     0.337 C 
ATOM     31  O   UNL     1      -8.105   8.200   2.715  1.00  0.00    -0.246 OA
BRANCH  30  32
ATOM     32  O   UNL     1      -7.272   9.977   1.521  1.00  0.00    -0.465 OA
ATOM     33  C   UNL     1      -8.505  10.043   0.807  1.00  0.00     0.282 C 
ENDBRANCH  30  32
ENDBRANCH  25  30
ENDBRANCH   9  24
ENDBRANCH   6   8
ENDBRANCH   5   6
ENDBRANCH   4   5
ENDBRANCH   3   4
ENDBRANCH   2   3
ENDBRANCH   1   2
BRANCH   1  34
ATOM     34  C   UNL     1      -4.971   6.936  -1.914  1.00  0.00     0.188 C 
BRANCH  34  35
ATOM     35  O   UNL     1      -5.957   7.960  -1.842  1.00  0.00    -0.376 OA
BRANCH  35  36
ATOM     36  C   UNL     1      -7.292   7.556  -2.152  1.00  0.00     0.202 C 
BRANCH  36  37
ATOM     37  C   UNL     1      -7.556   7.220  -3.627  1.00  0.00     0.261 C 
BRANCH  37  38
ATOM     38  O   UNL     1      -7.001   5.950  -4.019  1.00  0.00    -0.460 OA
BRANCH  38  39
ATOM     39  C   UNL     1      -6.045   5.995  -4.980  1.00  0.00     0.338 C 
ATOM     40  O   UNL     1      -5.627   6.979  -5.566  1.00  0.00    -0.246 OA
BRANCH  39  41
ATOM     41  C   UNL     1      -5.431   4.662  -5.121  1.00  0.00     0.060 A 
ATOM     42  C   UNL     1      -4.091   4.489  -4.743  1.00  0.00     0.016 A 
ATOM     43  C   UNL     1      -6.147   3.617  -5.703  1.00  0.00     0.016 A 
ATOM     44  C   UNL     1      -3.459   3.264  -4.956  1.00  0.00     0.010 A 
ATOM     45  C   UNL     1      -5.506   2.398  -5.934  1.00  0.00     0.010 A 
ATOM     46  C   UNL     1      -4.156   2.222  -5.580  1.00  0.00    -0.014 A 
BRANCH  46  47
ATOM     47  C   UNL     1      -3.462   0.971  -5.959  1.00  0.00     0.031 A 
ATOM     48  C   UNL     1      -2.940   0.819  -7.359  1.00  0.00     0.074 A 
ATOM     49  C   UNL     1      -3.364  -0.040  -5.077  1.00  0.00     0.049 A 
ATOM     50  N   UNL     1      -2.401  -0.225  -7.931  1.00  0.00    -0.248 NA
ATOM     51  C   UNL     1      -3.040   2.001  -8.233  1.00  0.00     0.031 C 
ATOM     52  C   UNL     1      -3.834  -0.002  -3.692  1.00  0.00     0.029 A 
ATOM     53  N   UNL     1      -2.875  -1.313  -5.233  1.00  0.00    -0.354 N 
ATOM     54  C   UNL     1      -2.126   0.159  -9.238  1.00  0.00     0.074 A 
ATOM     55  C   UNL     1      -2.550   1.536  -9.375  1.00  0.00     0.031 C 
ATOM     56  C   UNL     1      -3.658  -1.214  -3.139  1.00  0.00     0.029 A 
ATOM     57  C   UNL     1      -3.089  -2.117  -4.137  1.00  0.00     0.049 A 
ATOM     58  H   UNL     1      -2.417  -1.620  -6.048  1.00  0.00     0.167 HD
ATOM     59  C   UNL     1      -1.564  -0.570 -10.230  1.00  0.00     0.034 A 
ATOM     60  C   UNL     1      -2.883  -3.439  -3.976  1.00  0.00     0.034 A 
ATOM     61  C   UNL     1      -1.130  -1.932 -10.084  1.00  0.00     0.049 A 
ATOM     62  C   UNL     1      -2.294  -4.234  -5.114  1.00  0.00     0.074 A 
ATOM     63  C   UNL     1      -0.484  -2.733 -11.008  1.00  0.00     0.029 A 
ATOM     64  N   UNL     1      -1.318  -2.702  -8.947  1.00  0.00    -0.354 N 
ATOM     65  N   UNL     1      -1.899  -3.820  -6.294  1.00  0.00    -0.248 NA
ATOM     66  C   UNL     1      -2.102  -5.675  -4.889  1.00  0.00     0.031 C 
ATOM     67  C   UNL     1      -0.302  -3.997 -10.437  1.00  0.00     0.029 A 
ATOM     68  C   UNL     1      -0.822  -3.977  -9.153  1.00  0.00     0.049 A 
ATOM     69  H   UNL     1      -1.741  -2.388  -8.115  1.00  0.00     0.167 HD
ATOM     70  C   UNL     1      -1.390  -4.941  -6.941  1.00  0.00     0.074 A 
ATOM     71  C   UNL     1      -1.501  -6.046  -6.012  1.00  0.00     0.031 C 
ATOM     72  C   UNL     1      -0.894  -5.053  -8.198  1.00  0.00     0.034 A 
BRANCH  59  73
ATOM     73  C   UNL     1      -1.354   0.097 -11.562  1.00  0.00     0.023 A 
ATOM     74  C   UNL     1      -0.282   0.996 -11.723  1.00  0.00     0.012 A 
ATOM     75  C   UNL     1      -2.162  -0.227 -12.669  1.00  0.00     0.148 A 
ATOM     76  C   UNL     1      -0.024   1.576 -12.965  1.00  0.00     0.002 A 
ATOM     77  C   UNL     1      -1.880   0.330 -13.911  1.00  0.00     0.091 A 
ATOM     78  F   UNL     1      -3.189  -1.068 -12.486  1.00  0.00    -0.205 F 
ATOM     79  C   UNL     1      -0.816   1.236 -14.059  1.00  0.00     0.022 A 
BRANCH  77  80
ATOM     80  S   UNL     1      -2.799  -0.089 -15.396  1.00  0.00     0.127 S 
ATOM     81  O   UNL     1      -3.491   1.168 -15.679  1.00  0.00    -0.237 OA
ATOM     82  O   UNL     1      -1.728  -0.420 -16.337  1.00  0.00    -0.237 OA
ATOM     83  O   UNL     1      -3.661  -1.206 -15.036  1.00  0.00    -0.744 OA
ENDBRANCH  77  80
ENDBRANCH  59  73
BRANCH  60  84
ATOM     84  C   UNL     1      -3.222  -4.100  -2.684  1.00  0.00     0.023 A 
ATOM     85  C   UNL     1      -2.185  -4.582  -1.862  1.00  0.00     0.012 A 
ATOM     86  C   UNL     1      -4.558  -4.258  -2.267  1.00  0.00     0.148 A 
ATOM     87  C   UNL     1      -2.474  -5.235  -0.663  1.00  0.00     0.002 A 
ATOM     88  C   UNL     1      -4.837  -4.866  -1.047  1.00  0.00     0.091 A 
ATOM     89  F   UNL     1      -5.535  -3.821  -3.075  1.00  0.00    -0.205 F 
ATOM     90  C   UNL     1      -3.797  -5.368  -0.250  1.00  0.00     0.022 A 
BRANCH  88  91
ATOM     91  S   UNL     1      -6.510  -4.972  -0.401  1.00  0.00     0.127 S 
ATOM     92  O   UNL     1      -6.877  -6.343  -0.741  1.00  0.00    -0.237 OA
ATOM     93  O   UNL     1      -6.309  -4.726   1.028  1.00  0.00    -0.237 OA
ATOM     94  O   UNL     1      -7.251  -3.921  -1.086  1.00  0.00    -0.744 OA
ENDBRANCH  88  91
ENDBRANCH  60  84
BRANCH  72  95
ATOM     95  C   UNL     1      -0.421  -6.410  -8.646  1.00  0.00     0.023 A 
ATOM     96  C   UNL     1      -1.369  -7.401  -8.968  1.00  0.00     0.012 A 
ATOM     97  C   UNL     1       0.950  -6.678  -8.828  1.00  0.00     0.148 A 
ATOM     98  C   UNL     1      -0.959  -8.647  -9.441  1.00  0.00     0.002 A 
ATOM     99  C   UNL     1       1.349  -7.906  -9.343  1.00  0.00     0.091 A 
ATOM    100  F   UNL     1       1.837  -5.728  -8.498  1.00  0.00    -0.205 F 
ATOM    101  C   UNL     1       0.397  -8.895  -9.640  1.00  0.00     0.022 A 
BRANCH  99 102
ATOM    102  S   UNL     1       3.067  -8.277  -9.719  1.00  0.00     0.127 S 
ATOM    103  O   UNL     1       3.427  -9.169  -8.619  1.00  0.00    -0.237 OA
ATOM    104  O   UNL     1       2.968  -8.927 -11.026  1.00  0.00    -0.237 OA
ATOM    105  O   UNL     1       3.756  -6.993  -9.737  1.00  0.00    -0.744 OA
ENDBRANCH  99 102
ENDBRANCH  72  95
ENDBRANCH  46  47
ENDBRANCH  39  41
ENDBRANCH  38  39
ENDBRANCH  37  38
ENDBRANCH  36  37
ENDBRANCH  35  36
ENDBRANCH  34  35
ENDBRANCH   1  34
TORSDOF 23
