REMARK SMILES O=C(Cc1ccc(F)c(F)c1)NC1(C(=O)OCCOCCOCCOC(=O)c2ccc(-c3c4nc(c(-c5cccc(S(=O)(=O)[O-])c5F)c5ccc([nH]5)c(-c5cccc(S(=O)(=O)[O-])c5F)c5nc(c(-c6cccc(S(=O)(=O)[O-])c6F)c6ccc3[nH]6)C=C5)C=C4)cc2)CCCC1
REMARK SMILES IDX 20 1 19 2 18 3 17 4 16 5 14 6 15 7 13 8 91 9 94 10 92 11
REMARK SMILES IDX 93 12 12 13 1 14 2 15 3 17 4 18 5 19 11 20 6 21 9 22 7 23
REMARK SMILES IDX 10 24 8 25 21 26 22 27 23 28 24 29 25 30 26 31 27 32 28 33
REMARK SMILES IDX 29 34 90 35 30 36 89 37 31 38 32 39 33 40 83 41 34 42 88 43
REMARK SMILES IDX 82 44 84 45 35 46 87 47 81 48 80 49 36 51 68 52 48 53 67 54
REMARK SMILES IDX 49 55 52 56 66 57 85 58 50 59 51 60 65 62 86 63 53 64 37 65
REMARK SMILES IDX 38 66 46 67 39 68 41 69 47 70 40 71 42 72 43 73 44 74 45 75
REMARK SMILES IDX 69 76 70 77 78 78 71 79 73 80 79 81 72 82 74 83 75 84 76 85
REMARK SMILES IDX 77 86 54 87 55 88 63 89 56 90 58 91 64 92 57 93 59 94 60 95
REMARK SMILES IDX 61 96 62 97
REMARK H PARENT 12 16 84 50 52 61
REMARK Flexibility Score: inf
ROOT
ATOM      1  C   UNL     1       2.523  -2.118   3.882  1.00  0.00     0.188 C 
ENDROOT
BRANCH   1   2
ATOM      2  O   UNL     1       1.711  -2.854   4.763  1.00  0.00    -0.376 OA
BRANCH   2   3
ATOM      3  C   UNL     1       0.334  -2.886   4.453  1.00  0.00     0.202 C 
BRANCH   3   4
ATOM      4  C   UNL     1      -0.156  -3.313   3.052  1.00  0.00     0.261 C 
BRANCH   4   5
ATOM      5  O   UNL     1       0.794  -3.317   1.968  1.00  0.00    -0.461 OA
BRANCH   5   6
ATOM      6  C   UNL     1       0.558  -2.428   0.961  1.00  0.00     0.331 C 
ATOM      7  O   UNL     1      -0.340  -1.596   1.021  1.00  0.00    -0.249 OA
BRANCH   6   8
ATOM      8  C   UNL     1       1.577  -2.523  -0.229  1.00  0.00     0.138 C 
ATOM      9  C   UNL     1       0.795  -2.715  -1.542  1.00  0.00     0.040 C 
ATOM     10  C   UNL     1       2.465  -3.788  -0.287  1.00  0.00     0.040 C 
ATOM     11  C   UNL     1       0.452  -4.203  -1.568  1.00  0.00     0.003 C 
ATOM     12  C   UNL     1       1.599  -4.903  -0.857  1.00  0.00     0.003 C 
BRANCH   8  13
ATOM     13  N   UNL     1       2.416  -1.304  -0.211  1.00  0.00    -0.340 N 
ATOM     14  O   UNL     1       0.806   0.175  -0.908  1.00  0.00    -0.275 OA
ATOM     15  C   UNL     1       1.925  -0.031  -0.449  1.00  0.00     0.225 C 
ATOM     16  H   UNL     1       3.376  -1.403  -0.020  1.00  0.00     0.164 HD
BRANCH  15  17
ATOM     17  C   UNL     1       2.890   1.114  -0.169  1.00  0.00     0.135 C 
BRANCH  17  18
ATOM     18  C   UNL     1       3.132   1.445   1.292  1.00  0.00    -0.036 A 
ATOM     19  C   UNL     1       3.773   0.537   2.148  1.00  0.00     0.007 A 
ATOM     20  C   UNL     1       2.877   2.740   1.782  1.00  0.00     0.046 A 
ATOM     21  C   UNL     1       4.158   0.913   3.441  1.00  0.00     0.043 A 
ATOM     22  C   UNL     1       3.289   3.111   3.067  1.00  0.00     0.159 A 
ATOM     23  C   UNL     1       3.932   2.204   3.890  1.00  0.00     0.158 A 
ATOM     24  F   UNL     1       3.112   4.373   3.471  1.00  0.00    -0.204 F 
ATOM     25  F   UNL     1       4.381   2.556   5.102  1.00  0.00    -0.204 F 
ENDBRANCH  17  18
ENDBRANCH  15  17
ENDBRANCH   8  13
ENDBRANCH   6   8
ENDBRANCH   5   6
ENDBRANCH   4   5
ENDBRANCH   3   4
ENDBRANCH   2   3
ENDBRANCH   1   2
BRANCH   1  26
ATOM     26  C   UNL     1       3.439  -3.017   3.057  1.00  0.00     0.188 C 
BRANCH  26  27
ATOM     27  O   UNL     1       3.381  -4.431   3.175  1.00  0.00    -0.376 OA
BRANCH  27  28
ATOM     28  C   UNL     1       3.383  -5.015   4.473  1.00  0.00     0.202 C 
BRANCH  28  29
ATOM     29  C   UNL     1       4.471  -4.633   5.497  1.00  0.00     0.261 C 
BRANCH  29  30
ATOM     30  O   UNL     1       5.239  -3.455   5.216  1.00  0.00    -0.460 OA
BRANCH  30  31
ATOM     31  C   UNL     1       6.311  -3.637   4.394  1.00  0.00     0.338 C 
ATOM     32  O   UNL     1       6.703  -4.685   3.932  1.00  0.00    -0.246 OA
BRANCH  31  33
ATOM     33  C   UNL     1       6.799  -2.295   3.961  1.00  0.00     0.060 A 
ATOM     34  C   UNL     1       6.949  -2.047   2.585  1.00  0.00     0.016 A 
ATOM     35  C   UNL     1       7.046  -1.275   4.878  1.00  0.00     0.016 A 
ATOM     36  C   UNL     1       7.371  -0.790   2.123  1.00  0.00     0.010 A 
ATOM     37  C   UNL     1       7.479  -0.024   4.415  1.00  0.00     0.010 A 
ATOM     38  C   UNL     1       7.672   0.226   3.037  1.00  0.00    -0.014 A 
BRANCH  38  39
ATOM     39  C   UNL     1       8.397   1.467   2.634  1.00  0.00     0.031 A 
ATOM     40  C   UNL     1       9.863   1.542   2.943  1.00  0.00     0.074 A 
ATOM     41  C   UNL     1       7.820   2.539   2.055  1.00  0.00     0.049 A 
ATOM     42  N   UNL     1      10.684   2.542   2.774  1.00  0.00    -0.248 NA
ATOM     43  C   UNL     1      10.492   0.316   3.462  1.00  0.00     0.031 C 
ATOM     44  C   UNL     1       6.476   2.590   1.516  1.00  0.00     0.029 A 
ATOM     45  N   UNL     1       8.281   3.826   1.880  1.00  0.00    -0.354 N 
ATOM     46  C   UNL     1      11.931   2.059   3.129  1.00  0.00     0.074 A 
ATOM     47  C   UNL     1      11.750   0.702   3.595  1.00  0.00     0.031 C 
ATOM     48  C   UNL     1       6.145   3.865   1.244  1.00  0.00     0.029 A 
ATOM     49  C   UNL     1       7.282   4.718   1.549  1.00  0.00     0.049 A 
ATOM     50  H   UNL     1       9.226   4.082   1.981  1.00  0.00     0.167 HD
ATOM     51  C   UNL     1      13.130   2.672   3.018  1.00  0.00     0.034 A 
ATOM     52  C   UNL     1       7.274   6.065   1.500  1.00  0.00     0.034 A 
ATOM     53  C   UNL     1      13.312   4.025   2.575  1.00  0.00     0.049 A 
ATOM     54  C   UNL     1       8.586   6.789   1.598  1.00  0.00     0.074 A 
ATOM     55  C   UNL     1      14.497   4.715   2.394  1.00  0.00     0.029 A 
ATOM     56  N   UNL     1      12.286   4.909   2.283  1.00  0.00    -0.354 N 
ATOM     57  N   UNL     1       9.781   6.289   1.792  1.00  0.00    -0.248 NA
ATOM     58  C   UNL     1       8.573   8.239   1.351  1.00  0.00     0.031 C 
ATOM     59  C   UNL     1      14.184   6.032   2.044  1.00  0.00     0.029 A 
ATOM     60  C   UNL     1      12.807   6.149   1.957  1.00  0.00     0.049 A 
ATOM     61  H   UNL     1      11.326   4.687   2.304  1.00  0.00     0.167 HD
ATOM     62  C   UNL     1      10.668   7.337   1.589  1.00  0.00     0.074 A 
ATOM     63  C   UNL     1       9.871   8.509   1.290  1.00  0.00     0.031 C 
ATOM     64  C   UNL     1      12.023   7.310   1.615  1.00  0.00     0.034 A 
BRANCH  51  65
ATOM     65  C   UNL     1      14.336   1.852   3.368  1.00  0.00     0.023 A 
ATOM     66  C   UNL     1      14.736   0.801   2.517  1.00  0.00     0.012 A 
ATOM     67  C   UNL     1      15.072   2.124   4.534  1.00  0.00     0.148 A 
ATOM     68  C   UNL     1      15.831   0.004   2.844  1.00  0.00     0.002 A 
ATOM     69  C   UNL     1      16.189   1.357   4.828  1.00  0.00     0.091 A 
ATOM     70  F   UNL     1      14.651   3.109   5.340  1.00  0.00    -0.205 F 
ATOM     71  C   UNL     1      16.562   0.289   3.994  1.00  0.00     0.022 A 
BRANCH  69  72
ATOM     72  S   UNL     1      17.235   1.685   6.247  1.00  0.00     0.127 S 
ATOM     73  O   UNL     1      16.984   0.507   7.076  1.00  0.00    -0.237 OA
ATOM     74  O   UNL     1      18.565   1.732   5.640  1.00  0.00    -0.237 OA
ATOM     75  O   UNL     1      16.774   2.948   6.805  1.00  0.00    -0.744 OA
ENDBRANCH  69  72
ENDBRANCH  51  65
BRANCH  52  76
ATOM     76  C   UNL     1       6.011   6.820   1.248  1.00  0.00     0.023 A 
ATOM     77  C   UNL     1       5.779   7.381  -0.023  1.00  0.00     0.012 A 
ATOM     78  C   UNL     1       5.063   7.024   2.274  1.00  0.00     0.148 A 
ATOM     79  C   UNL     1       4.648   8.162  -0.261  1.00  0.00     0.002 A 
ATOM     80  C   UNL     1       3.921   7.780   2.021  1.00  0.00     0.091 A 
ATOM     81  F   UNL     1       5.309   6.492   3.479  1.00  0.00    -0.205 F 
ATOM     82  C   UNL     1       3.720   8.360   0.758  1.00  0.00     0.022 A 
BRANCH  80  83
ATOM     83  S   UNL     1       2.637   8.079   3.245  1.00  0.00     0.127 S 
ATOM     84  O   UNL     1       2.656   9.537   3.347  1.00  0.00    -0.237 OA
ATOM     85  O   UNL     1       1.458   7.530   2.574  1.00  0.00    -0.237 OA
ATOM     86  O   UNL     1       3.052   7.373   4.447  1.00  0.00    -0.744 OA
ENDBRANCH  80  83
ENDBRANCH  52  76
BRANCH  64  87
ATOM     87  C   UNL     1      12.761   8.568   1.242  1.00  0.00     0.023 A 
ATOM     88  C   UNL     1      12.749   9.684   2.100  1.00  0.00     0.012 A 
ATOM     89  C   UNL     1      13.534   8.610   0.064  1.00  0.00     0.148 A 
ATOM     90  C   UNL     1      13.469  10.833   1.776  1.00  0.00     0.002 A 
ATOM     91  C   UNL     1      14.295   9.735  -0.224  1.00  0.00     0.091 A 
ATOM     92  F   UNL     1      13.515   7.545  -0.752  1.00  0.00    -0.205 F 
ATOM     93  C   UNL     1      14.252  10.854   0.624  1.00  0.00     0.022 A 
BRANCH  91  94
ATOM     94  S   UNL     1      15.415   9.811  -1.626  1.00  0.00     0.127 S 
ATOM     95  O   UNL     1      14.755  10.795  -2.482  1.00  0.00    -0.237 OA
ATOM     96  O   UNL     1      16.655  10.276  -1.004  1.00  0.00    -0.237 OA
ATOM     97  O   UNL     1      15.479   8.460  -2.167  1.00  0.00    -0.744 OA
ENDBRANCH  91  94
ENDBRANCH  64  87
ENDBRANCH  38  39
ENDBRANCH  31  33
ENDBRANCH  30  31
ENDBRANCH  29  30
ENDBRANCH  28  29
ENDBRANCH  27  28
ENDBRANCH  26  27
ENDBRANCH   1  26
TORSDOF 23
