REMARK SMILES C=CCN(CC(=O)OCCOCCOCCOC(=O)c1ccc(-c2c3nc(c(-c4cccc(S(=O)(=O)[O-])c4F)c4ccc([nH]4)c(-c4cccc(S(=O)(=O)[O-])c4F)c4nc(c(-c5cccc(S(=O)(=O)[O-])c5F)c5ccc2[nH]5)C=C4)C=C3)cc1)C(=O)[C@@H]1Oc2ccccc2O[C@H]1C
REMARK SMILES IDX 12 1 11 2 10 3 9 4 8 5 6 6 7 7 5 8 4 9 3 10 2 11 1 12 83 13
REMARK SMILES IDX 84 14 85 15 86 16 94 17 87 18 93 19 95 20 88 21 92 22 89 23
REMARK SMILES IDX 91 24 90 25 13 26 14 27 15 28 16 29 17 30 18 31 19 32 20 33
REMARK SMILES IDX 21 34 82 35 22 36 81 37 23 38 24 39 25 40 75 41 26 42 80 43
REMARK SMILES IDX 74 44 76 45 27 46 79 47 73 48 72 49 28 51 60 52 40 53 59 54
REMARK SMILES IDX 41 55 44 56 58 57 77 58 42 59 43 60 57 62 78 63 45 64 29 65
REMARK SMILES IDX 30 66 38 67 31 68 33 69 39 70 32 71 34 72 35 73 36 74 37 75
REMARK SMILES IDX 61 76 62 77 70 78 63 79 65 80 71 81 64 82 66 83 67 84 68 85
REMARK SMILES IDX 69 86 46 87 47 88 55 89 48 90 50 91 56 92 49 93 51 94 52 95
REMARK SMILES IDX 53 96 54 97
REMARK H PARENT 76 50 44 61
REMARK Flexibility Score: inf
ROOT
ATOM      1  C   UNL     1      -6.126  -3.521   2.157  1.00  0.00     0.188 C 
ENDROOT
BRANCH   1   2
ATOM      2  O   UNL     1      -7.227  -2.661   2.444  1.00  0.00    -0.376 OA
BRANCH   2   3
ATOM      3  C   UNL     1      -7.075  -1.292   2.071  1.00  0.00     0.202 C 
BRANCH   3   4
ATOM      4  C   UNL     1      -6.100  -0.454   2.918  1.00  0.00     0.261 C 
BRANCH   4   5
ATOM      5  O   UNL     1      -4.689  -0.741   2.739  1.00  0.00    -0.462 OA
BRANCH   5   6
ATOM      6  C   UNL     1      -3.915  -0.003   3.606  1.00  0.00     0.325 C 
ATOM      7  O   UNL     1      -4.382   0.849   4.360  1.00  0.00    -0.250 OA
BRANCH   6   8
ATOM      8  C   UNL     1      -2.444  -0.441   3.713  1.00  0.00     0.242 C 
BRANCH   8   9
ATOM      9  N   UNL     1      -1.692  -0.746   2.493  1.00  0.00    -0.325 N 
BRANCH   9  10
ATOM     10  C   UNL     1      -1.419   0.349   1.569  1.00  0.00     0.147 C 
BRANCH  10  11
ATOM     11  C   UNL     1       0.038   0.714   1.665  1.00  0.00    -0.014 C 
ATOM     12  C   UNL     1       0.867   0.867   0.623  1.00  0.00     0.006 C 
ENDBRANCH  10  11
ENDBRANCH   9  10
BRANCH   9  13
ATOM     13  C   UNL     1      -0.887  -1.889   2.489  1.00  0.00     0.268 C 
ATOM     14  O   UNL     1      -0.406  -2.340   3.530  1.00  0.00    -0.270 OA
BRANCH  13  15
ATOM     15  C   UNL     1      -0.890  -2.728   1.201  1.00  0.00     0.302 C 
ATOM     16  O   UNL     1      -0.461  -2.029   0.028  1.00  0.00    -0.473 OA
ATOM     17  C   UNL     1      -2.329  -3.265   1.151  1.00  0.00     0.221 C 
ATOM     18  C   UNL     1      -1.337  -2.072  -1.023  1.00  0.00     0.162 A 
ATOM     19  O   UNL     1      -2.573  -3.904  -0.103  1.00  0.00    -0.482 OA
ATOM     20  C   UNL     1      -2.647  -4.212   2.311  1.00  0.00     0.057 C 
ATOM     21  C   UNL     1      -1.175  -1.126  -2.031  1.00  0.00     0.050 A 
ATOM     22  C   UNL     1      -2.421  -2.942  -1.067  1.00  0.00     0.161 A 
ATOM     23  C   UNL     1      -2.166  -0.961  -2.999  1.00  0.00     0.004 A 
ATOM     24  C   UNL     1      -3.401  -2.806  -2.047  1.00  0.00     0.050 A 
ATOM     25  C   UNL     1      -3.293  -1.784  -2.991  1.00  0.00     0.004 A 
ENDBRANCH  13  15
ENDBRANCH   9  13
ENDBRANCH   8   9
ENDBRANCH   6   8
ENDBRANCH   5   6
ENDBRANCH   4   5
ENDBRANCH   3   4
ENDBRANCH   2   3
ENDBRANCH   1   2
BRANCH   1  26
ATOM     26  C   UNL     1      -5.827  -3.702   0.658  1.00  0.00     0.188 C 
BRANCH  26  27
ATOM     27  O   UNL     1      -6.527  -4.766   0.006  1.00  0.00    -0.376 OA
BRANCH  27  28
ATOM     28  C   UNL     1      -6.001  -6.073   0.282  1.00  0.00     0.202 C 
BRANCH  28  29
ATOM     29  C   UNL     1      -4.696  -6.424  -0.458  1.00  0.00     0.261 C 
BRANCH  29  30
ATOM     30  O   UNL     1      -3.796  -7.011   0.502  1.00  0.00    -0.460 OA
BRANCH  30  31
ATOM     31  C   UNL     1      -2.497  -7.144   0.135  1.00  0.00     0.338 C 
ATOM     32  O   UNL     1      -2.012  -6.900  -0.957  1.00  0.00    -0.246 OA
BRANCH  31  33
ATOM     33  C   UNL     1      -1.726  -7.510   1.350  1.00  0.00     0.060 A 
ATOM     34  C   UNL     1      -0.538  -6.827   1.636  1.00  0.00     0.016 A 
ATOM     35  C   UNL     1      -2.219  -8.461   2.250  1.00  0.00     0.016 A 
ATOM     36  C   UNL     1       0.108  -7.033   2.862  1.00  0.00     0.010 A 
ATOM     37  C   UNL     1      -1.545  -8.704   3.451  1.00  0.00     0.010 A 
ATOM     38  C   UNL     1      -0.386  -7.982   3.772  1.00  0.00    -0.014 A 
BRANCH  38  39
ATOM     39  C   UNL     1       0.420  -8.366   4.959  1.00  0.00     0.031 A 
ATOM     40  C   UNL     1       1.548  -9.337   4.750  1.00  0.00     0.074 A 
ATOM     41  C   UNL     1       0.154  -7.892   6.192  1.00  0.00     0.049 A 
ATOM     42  N   UNL     1       2.406  -9.813   5.613  1.00  0.00    -0.248 NA
ATOM     43  C   UNL     1       1.738  -9.831   3.374  1.00  0.00     0.031 C 
ATOM     44  C   UNL     1      -0.904  -6.941   6.530  1.00  0.00     0.029 A 
ATOM     45  N   UNL     1       0.755  -8.164   7.399  1.00  0.00    -0.354 N 
ATOM     46  C   UNL     1       3.243 -10.648   4.885  1.00  0.00     0.074 A 
ATOM     47  C   UNL     1       2.785 -10.628   3.514  1.00  0.00     0.031 C 
ATOM     48  C   UNL     1      -0.889  -6.724   7.859  1.00  0.00     0.029 A 
ATOM     49  C   UNL     1       0.170  -7.526   8.470  1.00  0.00     0.049 A 
ATOM     50  H   UNL     1       1.533  -8.760   7.489  1.00  0.00     0.167 HD
ATOM     51  C   UNL     1       4.309 -11.362   5.311  1.00  0.00     0.034 A 
ATOM     52  C   UNL     1       0.460  -7.589   9.787  1.00  0.00     0.034 A 
ATOM     53  C   UNL     1       4.741 -11.430   6.677  1.00  0.00     0.049 A 
ATOM     54  C   UNL     1       1.617  -8.451  10.244  1.00  0.00     0.074 A 
ATOM     55  C   UNL     1       5.780 -12.166   7.217  1.00  0.00     0.029 A 
ATOM     56  N   UNL     1       4.142 -10.749   7.725  1.00  0.00    -0.354 N 
ATOM     57  N   UNL     1       2.469  -9.144   9.527  1.00  0.00    -0.248 NA
ATOM     58  C   UNL     1       1.869  -8.514  11.693  1.00  0.00     0.031 C 
ATOM     59  C   UNL     1       5.803 -11.936   8.597  1.00  0.00     0.029 A 
ATOM     60  C   UNL     1       4.789 -11.045   8.911  1.00  0.00     0.049 A 
ATOM     61  H   UNL     1       3.371 -10.143   7.638  1.00  0.00     0.167 HD
ATOM     62  C   UNL     1       3.377  -9.690  10.431  1.00  0.00     0.074 A 
ATOM     63  C   UNL     1       2.986  -9.228  11.746  1.00  0.00     0.031 C 
ATOM     64  C   UNL     1       4.426 -10.517  10.200  1.00  0.00     0.034 A 
BRANCH  51  65
ATOM     65  C   UNL     1       5.086 -12.109   4.265  1.00  0.00     0.023 A 
ATOM     66  C   UNL     1       5.951 -11.391   3.414  1.00  0.00     0.012 A 
ATOM     67  C   UNL     1       4.964 -13.502   4.119  1.00  0.00     0.148 A 
ATOM     68  C   UNL     1       6.664 -12.046   2.413  1.00  0.00     0.002 A 
ATOM     69  C   UNL     1       5.703 -14.153   3.139  1.00  0.00     0.091 A 
ATOM     70  F   UNL     1       4.113 -14.157   4.921  1.00  0.00    -0.205 F 
ATOM     71  C   UNL     1       6.545 -13.427   2.280  1.00  0.00     0.022 A 
BRANCH  69  72
ATOM     72  S   UNL     1       5.655 -15.934   2.911  1.00  0.00     0.127 S 
ATOM     73  O   UNL     1       4.988 -16.047   1.614  1.00  0.00    -0.237 OA
ATOM     74  O   UNL     1       7.077 -16.279   2.898  1.00  0.00    -0.237 OA
ATOM     75  O   UNL     1       4.909 -16.465   4.043  1.00  0.00    -0.744 OA
ENDBRANCH  69  72
ENDBRANCH  51  65
BRANCH  52  76
ATOM     76  C   UNL     1      -0.312  -6.791  10.787  1.00  0.00     0.023 A 
ATOM     77  C   UNL     1       0.334  -5.756  11.493  1.00  0.00     0.012 A 
ATOM     78  C   UNL     1      -1.658  -7.078  11.085  1.00  0.00     0.148 A 
ATOM     79  C   UNL     1      -0.328  -5.054  12.503  1.00  0.00     0.002 A 
ATOM     80  C   UNL     1      -2.329  -6.340  12.057  1.00  0.00     0.091 A 
ATOM     81  F   UNL     1      -2.256  -8.085  10.431  1.00  0.00    -0.205 F 
ATOM     82  C   UNL     1      -1.661  -5.341  12.780  1.00  0.00     0.022 A 
BRANCH  80  83
ATOM     83  S   UNL     1      -4.079  -6.577  12.392  1.00  0.00     0.127 S 
ATOM     84  O   UNL     1      -4.047  -7.400  13.597  1.00  0.00    -0.237 OA
ATOM     85  O   UNL     1      -4.544  -5.204  12.597  1.00  0.00    -0.237 OA
ATOM     86  O   UNL     1      -4.613  -7.212  11.194  1.00  0.00    -0.744 OA
ENDBRANCH  80  83
ENDBRANCH  52  76
BRANCH  64  87
ATOM     87  C   UNL     1       5.254 -10.953  11.381  1.00  0.00     0.023 A 
ATOM     88  C   UNL     1       4.737 -11.905  12.281  1.00  0.00     0.012 A 
ATOM     89  C   UNL     1       6.575 -10.491  11.545  1.00  0.00     0.148 A 
ATOM     90  C   UNL     1       5.513 -12.370  13.343  1.00  0.00     0.002 A 
ATOM     91  C   UNL     1       7.357 -10.993  12.578  1.00  0.00     0.091 A 
ATOM     92  F   UNL     1       7.043  -9.569  10.690  1.00  0.00    -0.205 F 
ATOM     93  C   UNL     1       6.825 -11.925  13.483  1.00  0.00     0.022 A 
BRANCH  91  94
ATOM     94  S   UNL     1       9.088 -10.546  12.766  1.00  0.00     0.127 S 
ATOM     95  O   UNL     1       9.025  -9.551  13.836  1.00  0.00    -0.237 OA
ATOM     96  O   UNL     1       9.703 -11.817  13.152  1.00  0.00    -0.237 OA
ATOM     97  O   UNL     1       9.509 -10.048  11.464  1.00  0.00    -0.744 OA
ENDBRANCH  91  94
ENDBRANCH  64  87
ENDBRANCH  38  39
ENDBRANCH  31  33
ENDBRANCH  30  31
ENDBRANCH  29  30
ENDBRANCH  28  29
ENDBRANCH  27  28
ENDBRANCH  26  27
ENDBRANCH   1  26
TORSDOF 25
