REMARK SMILES C[C@H](C[N@H+](C)[C@H]1CC[C@H]([NH3+])CC1)C(=O)OCCOCCOCCOC(=O)c1ccc(-c2c3nc(c(-c4cccc(S(=O)(=O)[O-])c4F)c4ccc([nH]4)c(-c4cccc(S(=O)(=O)[O-])c4F)c4nc(c(-c5cccc(S(=O)(=O)[O-])c5F)c5ccc2[nH]5)C=C4)C=C3)cc1
REMARK SMILES IDX 19 1 18 2 17 3 16 4 15 5 13 6 14 7 2 8 1 9 3 10 4 11 5 12
REMARK SMILES IDX 6 14 7 15 12 16 8 17 11 18 9 19 10 20 20 24 21 25 22 26
REMARK SMILES IDX 23 27 24 28 25 29 26 30 27 31 28 32 89 33 29 34 88 35 30 36
REMARK SMILES IDX 31 37 32 38 82 39 33 40 87 41 81 42 83 43 34 44 86 45 80 46
REMARK SMILES IDX 79 47 35 49 67 50 47 51 66 52 48 53 51 54 65 55 84 56 49 57
REMARK SMILES IDX 50 58 64 60 85 61 52 62 36 63 37 64 45 65 38 66 40 67 46 68
REMARK SMILES IDX 39 69 41 70 42 71 43 72 44 73 68 74 69 75 77 76 70 77 72 78
REMARK SMILES IDX 78 79 71 80 73 81 74 82 75 83 76 84 53 85 54 86 62 87 55 88
REMARK SMILES IDX 57 89 63 90 56 91 58 92 59 93 60 94 61 95
REMARK H PARENT 4 13 10 21 10 22 10 23 83 48 51 59
REMARK Flexibility Score: inf
ROOT
ATOM      1  C   UNL     1      -2.331  -1.870   2.095  1.00  0.00     0.188 C 
ENDROOT
BRANCH   1   2
ATOM      2  O   UNL     1      -3.700  -1.488   2.137  1.00  0.00    -0.376 OA
BRANCH   2   3
ATOM      3  C   UNL     1      -4.031  -0.198   1.627  1.00  0.00     0.202 C 
BRANCH   3   4
ATOM      4  C   UNL     1      -3.123   0.958   2.065  1.00  0.00     0.261 C 
BRANCH   4   5
ATOM      5  O   UNL     1      -1.816   0.837   1.462  1.00  0.00    -0.463 OA
BRANCH   5   6
ATOM      6  C   UNL     1      -0.879   1.744   1.835  1.00  0.00     0.314 C 
ATOM      7  O   UNL     1      -1.123   2.688   2.576  1.00  0.00    -0.252 OA
BRANCH   6   8
ATOM      8  C   UNL     1       0.526   1.389   1.321  1.00  0.00     0.151 C 
ATOM      9  C   UNL     1       1.504   2.499   1.705  1.00  0.00     0.026 C 
BRANCH   8  10
ATOM     10  C   UNL     1       0.723   0.947  -0.157  1.00  0.00     0.277 C 
BRANCH  10  11
ATOM     11  N   UNL     1       0.368   1.766  -1.323  1.00  0.00    -0.334 N 
ATOM     12  C   UNL     1       1.379   2.711  -1.748  1.00  0.00     0.332 C 
ATOM     13  H   UNL     1       0.391   1.125  -2.116  1.00  0.00     0.348 HD
BRANCH  11  14
ATOM     14  C   UNL     1      -1.023   2.201  -1.342  1.00  0.00     0.184 C 
ATOM     15  C   UNL     1      -1.681   2.021  -2.716  1.00  0.00     0.071 C 
ATOM     16  C   UNL     1      -1.266   3.638  -0.865  1.00  0.00     0.071 C 
ATOM     17  C   UNL     1      -3.199   2.166  -2.546  1.00  0.00     0.071 C 
ATOM     18  C   UNL     1      -2.758   3.876  -0.667  1.00  0.00     0.071 C 
ATOM     19  C   UNL     1      -3.597   3.500  -1.895  1.00  0.00     0.181 C 
BRANCH  19  20
ATOM     20  N   UNL     1      -5.009   3.462  -1.503  1.00  0.00    -0.355 N 
ATOM     21  H   UNL     1      -5.147   2.740  -0.796  1.00  0.00     0.344 HD
ATOM     22  H   UNL     1      -5.583   3.252  -2.320  1.00  0.00     0.344 HD
ATOM     23  H   UNL     1      -5.280   4.369  -1.122  1.00  0.00     0.344 HD
ENDBRANCH  19  20
ENDBRANCH  11  14
ENDBRANCH  10  11
ENDBRANCH   8  10
ENDBRANCH   6   8
ENDBRANCH   5   6
ENDBRANCH   4   5
ENDBRANCH   3   4
ENDBRANCH   2   3
ENDBRANCH   1   2
BRANCH   1  24
ATOM     24  C   UNL     1      -1.641  -1.868   0.722  1.00  0.00     0.188 C 
BRANCH  24  25
ATOM     25  O   UNL     1      -2.485  -1.554  -0.377  1.00  0.00    -0.376 OA
BRANCH  25  26
ATOM     26  C   UNL     1      -2.608  -2.586  -1.353  1.00  0.00     0.202 C 
BRANCH  26  27
ATOM     27  C   UNL     1      -3.435  -3.795  -0.890  1.00  0.00     0.261 C 
BRANCH  27  28
ATOM     28  O   UNL     1      -2.923  -4.447   0.286  1.00  0.00    -0.460 OA
BRANCH  28  29
ATOM     29  C   UNL     1      -1.729  -5.075   0.175  1.00  0.00     0.338 C 
ATOM     30  O   UNL     1      -1.105  -5.272  -0.854  1.00  0.00    -0.246 OA
BRANCH  29  31
ATOM     31  C   UNL     1      -1.167  -5.197   1.547  1.00  0.00     0.060 A 
ATOM     32  C   UNL     1       0.160  -4.791   1.756  1.00  0.00     0.016 A 
ATOM     33  C   UNL     1      -1.967  -5.564   2.634  1.00  0.00     0.016 A 
ATOM     34  C   UNL     1       0.693  -4.772   3.046  1.00  0.00     0.010 A 
ATOM     35  C   UNL     1      -1.429  -5.559   3.925  1.00  0.00     0.010 A 
ATOM     36  C   UNL     1      -0.086  -5.198   4.130  1.00  0.00    -0.014 A 
BRANCH  36  37
ATOM     37  C   UNL     1       0.588  -5.559   5.400  1.00  0.00     0.031 A 
ATOM     38  C   UNL     1       1.075  -6.979   5.527  1.00  0.00     0.074 A 
ATOM     39  C   UNL     1       0.781  -4.681   6.401  1.00  0.00     0.049 A 
ATOM     40  N   UNL     1       1.732  -7.549   6.501  1.00  0.00    -0.248 NA
ATOM     41  C   UNL     1       0.780  -7.875   4.394  1.00  0.00     0.031 C 
ATOM     42  C   UNL     1       0.342  -3.288   6.411  1.00  0.00     0.029 A 
ATOM     43  N   UNL     1       1.388  -4.852   7.621  1.00  0.00    -0.354 N 
ATOM     44  C   UNL     1       1.929  -8.864   6.098  1.00  0.00     0.074 A 
ATOM     45  C   UNL     1       1.297  -9.019   4.809  1.00  0.00     0.031 C 
ATOM     46  C   UNL     1       0.666  -2.738   7.598  1.00  0.00     0.029 A 
ATOM     47  C   UNL     1       1.333  -3.740   8.429  1.00  0.00     0.049 A 
ATOM     48  H   UNL     1       1.822  -5.693   7.893  1.00  0.00     0.167 HD
ATOM     49  C   UNL     1       2.603  -9.853   6.726  1.00  0.00     0.034 A 
ATOM     50  C   UNL     1       1.767  -3.562   9.695  1.00  0.00     0.034 A 
ATOM     51  C   UNL     1       3.218  -9.712   8.013  1.00  0.00     0.049 A 
ATOM     52  C   UNL     1       2.492  -4.691  10.390  1.00  0.00     0.074 A 
ATOM     53  C   UNL     1       3.922 -10.655   8.739  1.00  0.00     0.029 A 
ATOM     54  N   UNL     1       3.190  -8.555   8.774  1.00  0.00    -0.354 N 
ATOM     55  N   UNL     1       2.789  -5.887   9.940  1.00  0.00    -0.248 NA
ATOM     56  C   UNL     1       2.981  -4.430  11.753  1.00  0.00     0.031 C 
ATOM     57  C   UNL     1       4.312 -10.068   9.948  1.00  0.00     0.029 A 
ATOM     58  C   UNL     1       3.866  -8.756   9.963  1.00  0.00     0.049 A 
ATOM     59  H   UNL     1       2.753  -7.713   8.508  1.00  0.00     0.167 HD
ATOM     60  C   UNL     1       3.525  -6.506  10.947  1.00  0.00     0.074 A 
ATOM     61  C   UNL     1       3.652  -5.542  12.020  1.00  0.00     0.031 C 
ATOM     62  C   UNL     1       4.034  -7.763  10.992  1.00  0.00     0.034 A 
BRANCH  49  63
ATOM     63  C   UNL     1       2.734 -11.159   5.995  1.00  0.00     0.023 A 
ATOM     64  C   UNL     1       3.614 -11.245   4.896  1.00  0.00     0.012 A 
ATOM     65  C   UNL     1       2.007 -12.296   6.392  1.00  0.00     0.148 A 
ATOM     66  C   UNL     1       3.747 -12.435   4.184  1.00  0.00     0.002 A 
ATOM     67  C   UNL     1       2.174 -13.490   5.702  1.00  0.00     0.091 A 
ATOM     68  F   UNL     1       1.151 -12.181   7.418  1.00  0.00    -0.205 F 
ATOM     69  C   UNL     1       3.035 -13.559   4.593  1.00  0.00     0.022 A 
BRANCH  67  70
ATOM     70  S   UNL     1       1.351 -15.011   6.186  1.00  0.00     0.127 S 
ATOM     71  O   UNL     1       0.400 -15.192   5.090  1.00  0.00    -0.237 OA
ATOM     72  O   UNL     1       2.458 -15.968   6.197  1.00  0.00    -0.237 OA
ATOM     73  O   UNL     1       0.759 -14.750   7.490  1.00  0.00    -0.744 OA
ENDBRANCH  67  70
ENDBRANCH  49  63
BRANCH  50  74
ATOM     74  C   UNL     1       1.568  -2.255  10.386  1.00  0.00     0.023 A 
ATOM     75  C   UNL     1       2.681  -1.443  10.683  1.00  0.00     0.012 A 
ATOM     76  C   UNL     1       0.284  -1.821  10.770  1.00  0.00     0.148 A 
ATOM     77  C   UNL     1       2.524  -0.244  11.381  1.00  0.00     0.002 A 
ATOM     78  C   UNL     1       0.129  -0.600  11.419  1.00  0.00     0.091 A 
ATOM     79  F   UNL     1      -0.762  -2.616  10.505  1.00  0.00    -0.205 F 
ATOM     80  C   UNL     1       1.248   0.182  11.741  1.00  0.00     0.022 A 
BRANCH  78  81
ATOM     81  S   UNL     1      -1.489   0.075  11.814  1.00  0.00     0.127 S 
ATOM     82  O   UNL     1      -1.565  -0.151  13.254  1.00  0.00    -0.237 OA
ATOM     83  O   UNL     1      -1.339   1.476  11.418  1.00  0.00    -0.237 OA
ATOM     84  O   UNL     1      -2.432  -0.678  10.998  1.00  0.00    -0.744 OA
ENDBRANCH  78  81
ENDBRANCH  50  74
BRANCH  62  85
ATOM     85  C   UNL     1       4.804  -8.165  12.223  1.00  0.00     0.023 A 
ATOM     86  C   UNL     1       4.117  -8.411  13.428  1.00  0.00     0.012 A 
ATOM     87  C   UNL     1       6.195  -8.379  12.164  1.00  0.00     0.148 A 
ATOM     88  C   UNL     1       4.808  -8.830  14.565  1.00  0.00     0.002 A 
ATOM     89  C   UNL     1       6.870  -8.842  13.288  1.00  0.00     0.091 A 
ATOM     90  F   UNL     1       6.835  -8.124  11.013  1.00  0.00    -0.205 F 
ATOM     91  C   UNL     1       6.180  -9.057  14.492  1.00  0.00     0.022 A 
BRANCH  89  92
ATOM     92  S   UNL     1       8.619  -9.252  13.249  1.00  0.00     0.127 S 
ATOM     93  O   UNL     1       9.214  -8.083  13.894  1.00  0.00    -0.237 OA
ATOM     94  O   UNL     1       8.672 -10.480  14.044  1.00  0.00    -0.237 OA
ATOM     95  O   UNL     1       8.951  -9.434  11.842  1.00  0.00    -0.744 OA
ENDBRANCH  89  92
ENDBRANCH  62  85
ENDBRANCH  36  37
ENDBRANCH  29  31
ENDBRANCH  28  29
ENDBRANCH  27  28
ENDBRANCH  26  27
ENDBRANCH  25  26
ENDBRANCH  24  25
ENDBRANCH   1  24
TORSDOF 24
