REMARK SMILES CC(C)[C@H](NC(=O)[C@H](Cc1ccccc1)n1c(=O)[nH]c2ccccc2c1=O)C(=O)OCCOCCOCCOC(=O)c1ccc(-c2c3nc(c(-c4cccc(S(=O)(=O)[O-])c4F)c4ccc([nH]4)c(-c4cccc(S(=O)(=O)[O-])c4F)c4nc(c(-c5cccc(S(=O)(=O)[O-])c5F)c5ccc2[nH]5)C=C4)C=C3)cc1
REMARK SMILES IDX 34 1 33 2 32 3 31 4 30 5 28 6 29 7 4 8 2 9 1 10 3 11 5 12
REMARK SMILES IDX 6 13 7 15 8 16 16 17 17 18 26 19 18 20 19 21 25 22 27 23
REMARK SMILES IDX 20 24 24 26 21 27 23 28 22 29 9 30 10 31 11 32 15 33 12 34
REMARK SMILES IDX 14 35 13 36 35 37 36 38 37 39 38 40 39 41 40 42 41 43 42 44
REMARK SMILES IDX 43 45 104 46 44 47 103 48 45 49 46 50 47 51 97 52 48 53
REMARK SMILES IDX 102 54 96 55 98 56 49 57 101 58 95 59 94 60 50 62 82 63
REMARK SMILES IDX 62 64 81 65 63 66 66 67 80 68 99 69 64 70 65 71 79 73 100 74
REMARK SMILES IDX 67 75 51 76 52 77 60 78 53 79 55 80 61 81 54 82 56 83 57 84
REMARK SMILES IDX 58 85 59 86 83 87 84 88 92 89 85 90 87 91 93 92 86 93 88 94
REMARK SMILES IDX 89 95 90 96 91 97 68 98 69 99 77 100 70 101 72 102 78 103
REMARK SMILES IDX 71 104 73 105 74 106 75 107 76 108
REMARK H PARENT 5 14 19 25 98 61 66 72
REMARK Flexibility Score: inf
ROOT
ATOM      1  C   UNL     1      -5.254   5.436  -2.816  1.00  0.00     0.188 C 
ENDROOT
BRANCH   1   2
ATOM      2  O   UNL     1      -5.506   4.065  -2.520  1.00  0.00    -0.376 OA
BRANCH   2   3
ATOM      3  C   UNL     1      -4.983   3.591  -1.282  1.00  0.00     0.202 C 
BRANCH   3   4
ATOM      4  C   UNL     1      -3.457   3.570  -1.193  1.00  0.00     0.261 C 
BRANCH   4   5
ATOM      5  O   UNL     1      -2.847   3.693  -2.482  1.00  0.00    -0.462 OA
BRANCH   5   6
ATOM      6  C   UNL     1      -2.718   2.541  -3.198  1.00  0.00     0.328 C 
ATOM      7  O   UNL     1      -2.913   1.422  -2.746  1.00  0.00    -0.250 OA
BRANCH   6   8
ATOM      8  C   UNL     1      -2.053   2.844  -4.552  1.00  0.00     0.194 C 
BRANCH   8   9
ATOM      9  C   UNL     1      -0.522   2.973  -4.261  1.00  0.00     0.017 C 
ATOM     10  C   UNL     1       0.266   1.898  -5.012  1.00  0.00     0.010 C 
ATOM     11  C   UNL     1       0.082   4.352  -4.544  1.00  0.00     0.010 C 
ENDBRANCH   8   9
BRANCH   8  12
ATOM     12  N   UNL     1      -2.635   4.054  -5.156  1.00  0.00    -0.341 N 
ATOM     13  C   UNL     1      -3.631   4.278  -6.058  1.00  0.00     0.244 C 
ATOM     14  H   UNL     1      -2.212   4.884  -4.838  1.00  0.00     0.164 HD
ATOM     15  O   UNL     1      -3.776   5.470  -6.357  1.00  0.00    -0.273 OA
BRANCH  13  16
ATOM     16  C   UNL     1      -4.397   3.153  -6.788  1.00  0.00     0.189 C 
BRANCH  16  17
ATOM     17  N   UNL     1      -5.009   2.165  -5.825  1.00  0.00    -0.247 N 
ATOM     18  C   UNL     1      -6.091   2.582  -5.108  1.00  0.00     0.329 A 
ATOM     19  C   UNL     1      -4.491   0.873  -5.637  1.00  0.00     0.264 A 
ATOM     20  O   UNL     1      -6.560   3.704  -5.264  1.00  0.00    -0.248 OA
ATOM     21  N   UNL     1      -6.746   1.707  -4.309  1.00  0.00    -0.307 N 
ATOM     22  C   UNL     1      -5.112   0.012  -4.580  1.00  0.00     0.064 A 
ATOM     23  O   UNL     1      -3.547   0.428  -6.285  1.00  0.00    -0.268 OA
ATOM     24  C   UNL     1      -6.308   0.431  -4.022  1.00  0.00     0.055 A 
ATOM     25  H   UNL     1      -7.594   2.001  -3.904  1.00  0.00     0.171 HD
ATOM     26  C   UNL     1      -4.542  -1.174  -4.107  1.00  0.00     0.016 A 
ATOM     27  C   UNL     1      -7.030  -0.364  -3.127  1.00  0.00     0.027 A 
ATOM     28  C   UNL     1      -5.211  -1.940  -3.137  1.00  0.00     0.001 A 
ATOM     29  C   UNL     1      -6.473  -1.558  -2.679  1.00  0.00     0.002 A 
ENDBRANCH  16  17
BRANCH  16  30
ATOM     30  C   UNL     1      -5.193   3.757  -8.086  1.00  0.00     0.071 C 
BRANCH  30  31
ATOM     31  C   UNL     1      -6.515   4.548  -8.241  1.00  0.00    -0.045 A 
ATOM     32  C   UNL     1      -6.803   5.759  -7.598  1.00  0.00     0.004 A 
ATOM     33  C   UNL     1      -7.491   4.101  -9.170  1.00  0.00     0.004 A 
ATOM     34  C   UNL     1      -8.051   6.403  -7.754  1.00  0.00     0.000 A 
ATOM     35  C   UNL     1      -8.741   4.727  -9.318  1.00  0.00     0.000 A 
ATOM     36  C   UNL     1      -9.031   5.873  -8.591  1.00  0.00     0.000 A 
ENDBRANCH  30  31
ENDBRANCH  16  30
ENDBRANCH  13  16
ENDBRANCH   8  12
ENDBRANCH   6   8
ENDBRANCH   5   6
ENDBRANCH   4   5
ENDBRANCH   3   4
ENDBRANCH   2   3
ENDBRANCH   1   2
BRANCH   1  37
ATOM     37  C   UNL     1      -6.288   6.063  -3.777  1.00  0.00     0.188 C 
BRANCH  37  38
ATOM     38  O   UNL     1      -7.661   6.075  -3.357  1.00  0.00    -0.376 OA
BRANCH  38  39
ATOM     39  C   UNL     1      -8.313   4.808  -3.157  1.00  0.00     0.202 C 
BRANCH  39  40
ATOM     40  C   UNL     1      -9.370   4.407  -4.218  1.00  0.00     0.261 C 
BRANCH  40  41
ATOM     41  O   UNL     1      -9.196   3.026  -4.724  1.00  0.00    -0.460 OA
BRANCH  41  42
ATOM     42  C   UNL     1      -9.357   2.917  -6.082  1.00  0.00     0.338 C 
ATOM     43  O   UNL     1      -9.755   3.837  -6.777  1.00  0.00    -0.246 OA
BRANCH  42  44
ATOM     44  C   UNL     1      -8.985   1.637  -6.780  1.00  0.00     0.060 A 
ATOM     45  C   UNL     1      -7.724   1.571  -7.367  1.00  0.00     0.016 A 
ATOM     46  C   UNL     1      -9.918   0.730  -7.271  1.00  0.00     0.016 A 
ATOM     47  C   UNL     1      -7.329   0.646  -8.333  1.00  0.00     0.010 A 
ATOM     48  C   UNL     1      -9.553  -0.212  -8.280  1.00  0.00     0.010 A 
ATOM     49  C   UNL     1      -8.251  -0.261  -8.821  1.00  0.00    -0.014 A 
BRANCH  49  50
ATOM     50  C   UNL     1      -7.807  -1.177  -9.910  1.00  0.00     0.031 A 
ATOM     51  C   UNL     1      -8.152  -0.905 -11.350  1.00  0.00     0.074 A 
ATOM     52  C   UNL     1      -6.939  -2.174  -9.638  1.00  0.00     0.049 A 
ATOM     53  N   UNL     1      -8.023  -1.682 -12.395  1.00  0.00    -0.248 NA
ATOM     54  C   UNL     1      -8.664   0.438 -11.663  1.00  0.00     0.031 C 
ATOM     55  C   UNL     1      -6.301  -2.405  -8.341  1.00  0.00     0.029 A 
ATOM     56  N   UNL     1      -6.445  -3.181 -10.435  1.00  0.00    -0.354 N 
ATOM     57  C   UNL     1      -8.509  -0.956 -13.477  1.00  0.00     0.074 A 
ATOM     58  C   UNL     1      -8.870   0.352 -12.973  1.00  0.00     0.031 C 
ATOM     59  C   UNL     1      -5.546  -3.512  -8.414  1.00  0.00     0.029 A 
ATOM     60  C   UNL     1      -5.722  -4.117  -9.729  1.00  0.00     0.049 A 
ATOM     61  H   UNL     1      -6.592  -3.227 -11.407  1.00  0.00     0.167 HD
ATOM     62  C   UNL     1      -8.666  -1.363 -14.762  1.00  0.00     0.034 A 
ATOM     63  C   UNL     1      -5.327  -5.361 -10.071  1.00  0.00     0.034 A 
ATOM     64  C   UNL     1      -8.279  -2.666 -15.243  1.00  0.00     0.049 A 
ATOM     65  C   UNL     1      -5.651  -5.864 -11.453  1.00  0.00     0.074 A 
ATOM     66  C   UNL     1      -8.474  -3.221 -16.496  1.00  0.00     0.029 A 
ATOM     67  N   UNL     1      -7.615  -3.619 -14.485  1.00  0.00    -0.354 N 
ATOM     68  N   UNL     1      -6.211  -5.225 -12.453  1.00  0.00    -0.248 NA
ATOM     69  C   UNL     1      -5.292  -7.256 -11.759  1.00  0.00     0.031 C 
ATOM     70  C   UNL     1      -7.962  -4.525 -16.481  1.00  0.00     0.029 A 
ATOM     71  C   UNL     1      -7.408  -4.765 -15.233  1.00  0.00     0.049 A 
ATOM     72  H   UNL     1      -7.332  -3.498 -13.550  1.00  0.00     0.167 HD
ATOM     73  C   UNL     1      -6.244  -6.123 -13.512  1.00  0.00     0.074 A 
ATOM     74  C   UNL     1      -5.630  -7.347 -13.038  1.00  0.00     0.031 C 
ATOM     75  C   UNL     1      -6.749  -5.956 -14.760  1.00  0.00     0.034 A 
BRANCH  62  76
ATOM     76  C   UNL     1      -9.366  -0.427 -15.716  1.00  0.00     0.023 A 
ATOM     77  C   UNL     1      -8.700   0.693 -16.251  1.00  0.00     0.012 A 
ATOM     78  C   UNL     1     -10.697  -0.688 -16.105  1.00  0.00     0.148 A 
ATOM     79  C   UNL     1      -9.361   1.556 -17.129  1.00  0.00     0.002 A 
ATOM     80  C   UNL     1     -11.335   0.154 -17.008  1.00  0.00     0.091 A 
ATOM     81  F   UNL     1     -11.318  -1.752 -15.576  1.00  0.00    -0.205 F 
ATOM     82  C   UNL     1     -10.673   1.284 -17.512  1.00  0.00     0.022 A 
BRANCH  80  83
ATOM     83  S   UNL     1     -13.003  -0.149 -17.605  1.00  0.00     0.127 S 
ATOM     84  O   UNL     1     -13.743   0.950 -16.984  1.00  0.00    -0.237 OA
ATOM     85  O   UNL     1     -12.838  -0.030 -19.054  1.00  0.00    -0.237 OA
ATOM     86  O   UNL     1     -13.363  -1.481 -17.141  1.00  0.00    -0.744 OA
ENDBRANCH  80  83
ENDBRANCH  62  76
BRANCH  63  87
ATOM     87  C   UNL     1      -4.660  -6.242  -9.065  1.00  0.00     0.023 A 
ATOM     88  C   UNL     1      -3.339  -6.680  -9.274  1.00  0.00     0.012 A 
ATOM     89  C   UNL     1      -5.335  -6.647  -7.894  1.00  0.00     0.148 A 
ATOM     90  C   UNL     1      -2.713  -7.520  -8.350  1.00  0.00     0.002 A 
ATOM     91  C   UNL     1      -4.684  -7.428  -6.946  1.00  0.00     0.091 A 
ATOM     92  F   UNL     1      -6.606  -6.255  -7.724  1.00  0.00    -0.205 F 
ATOM     93  C   UNL     1      -3.379  -7.882  -7.181  1.00  0.00     0.022 A 
BRANCH  91  94
ATOM     94  S   UNL     1      -5.421  -7.825  -5.356  1.00  0.00     0.127 S 
ATOM     95  O   UNL     1      -5.688  -9.254  -5.497  1.00  0.00    -0.237 OA
ATOM     96  O   UNL     1      -4.340  -7.489  -4.428  1.00  0.00    -0.237 OA
ATOM     97  O   UNL     1      -6.595  -6.970  -5.238  1.00  0.00    -0.744 OA
ENDBRANCH  91  94
ENDBRANCH  63  87
BRANCH  75  98
ATOM     98  C   UNL     1      -6.616  -7.106 -15.723  1.00  0.00     0.023 A 
ATOM     99  C   UNL     1      -7.420  -8.253 -15.571  1.00  0.00     0.012 A 
ATOM    100  C   UNL     1      -5.741  -7.015 -16.824  1.00  0.00     0.148 A 
ATOM    101  C   UNL     1      -7.333  -9.304 -16.483  1.00  0.00     0.002 A 
ATOM    102  C   UNL     1      -5.698  -8.044 -17.757  1.00  0.00     0.091 A 
ATOM    103  F   UNL     1      -4.968  -5.925 -16.938  1.00  0.00    -0.205 F 
ATOM    104  C   UNL     1      -6.483  -9.195 -17.581  1.00  0.00     0.022 A 
BRANCH 102 105
ATOM    105  S   UNL     1      -4.708  -7.944 -19.252  1.00  0.00     0.127 S 
ATOM    106  O   UNL     1      -3.636  -8.895 -18.965  1.00  0.00    -0.237 OA
ATOM    107  O   UNL     1      -5.654  -8.382 -20.279  1.00  0.00    -0.237 OA
ATOM    108  O   UNL     1      -4.295  -6.552 -19.368  1.00  0.00    -0.744 OA
ENDBRANCH 102 105
ENDBRANCH  75  98
ENDBRANCH  49  50
ENDBRANCH  42  44
ENDBRANCH  41  42
ENDBRANCH  40  41
ENDBRANCH  39  40
ENDBRANCH  38  39
ENDBRANCH  37  38
ENDBRANCH   1  37
TORSDOF 26
