REMARK SMILES Cc1cc(Br)cc2c1O[C@H](C(F)(F)F)C(C(=O)OCCOCCOCCOC(=O)c1ccc(-c3c4nc(c(-c5cccc(S(=O)(=O)[O-])c5F)c5ccc([nH]5)c(-c5cccc(S(=O)(=O)[O-])c5F)c5nc(c(-c6cccc(S(=O)(=O)[O-])c6F)c6ccc3[nH]6)C=C5)C=C4)cc1)=C2
REMARK SMILES IDX 23 1 22 2 21 3 20 4 19 5 18 6 16 7 17 8 15 9 1 10 2 11 3 12
REMARK SMILES IDX 8 13 4 14 7 15 9 16 5 17 6 18 93 19 10 20 11 21 12 22 13 23
REMARK SMILES IDX 14 24 24 25 25 26 26 27 27 28 28 29 29 30 30 31 31 32 92 33
REMARK SMILES IDX 32 34 91 35 33 36 34 37 35 38 85 39 36 40 90 41 84 42 86 43
REMARK SMILES IDX 37 44 89 45 83 46 82 47 38 49 70 50 50 51 69 52 51 53 54 54
REMARK SMILES IDX 68 55 87 56 52 57 53 58 67 60 88 61 55 62 39 63 40 64 48 65
REMARK SMILES IDX 41 66 43 67 49 68 42 69 44 70 45 71 46 72 47 73 71 74 72 75
REMARK SMILES IDX 80 76 73 77 75 78 81 79 74 80 76 81 77 82 78 83 79 84 56 85
REMARK SMILES IDX 57 86 65 87 58 88 60 89 66 90 59 91 61 92 62 93 63 94 64 95
REMARK H PARENT 86 48 54 59
REMARK Flexibility Score: inf
ROOT
ATOM      1  C   UNL     1      -1.075   0.483   6.918  1.00  0.00     0.188 C 
ENDROOT
BRANCH   1   2
ATOM      2  C   UNL     1      -2.074   1.580   7.344  1.00  0.00     0.188 C 
BRANCH   2   3
ATOM      3  O   UNL     1      -3.091   1.275   8.272  1.00  0.00    -0.376 OA
BRANCH   3   4
ATOM      4  C   UNL     1      -4.165   0.409   7.958  1.00  0.00     0.202 C 
BRANCH   4   5
ATOM      5  C   UNL     1      -4.643   0.087   6.535  1.00  0.00     0.261 C 
BRANCH   5   6
ATOM      6  O   UNL     1      -3.646   0.106   5.512  1.00  0.00    -0.460 OA
BRANCH   6   7
ATOM      7  C   UNL     1      -3.837   1.035   4.545  1.00  0.00     0.338 C 
ATOM      8  O   UNL     1      -4.770   1.816   4.450  1.00  0.00    -0.246 OA
BRANCH   7   9
ATOM      9  C   UNL     1      -2.678   1.041   3.635  1.00  0.00     0.087 C 
ATOM     10  C   UNL     1       0.899  -0.084   0.111  1.00  0.00     0.048 C 
ATOM     11  C   UNL     1       0.439   1.141   0.851  1.00  0.00    -0.007 A 
ATOM     12  C   UNL     1       0.992   2.383   0.500  1.00  0.00     0.023 A 
ATOM     13  C   UNL     1      -0.574   1.094   1.824  1.00  0.00     0.130 A 
ATOM     14  C   UNL     1       0.558   3.549   1.127  1.00  0.00     0.019 A 
ATOM     15  C   UNL     1      -1.024   2.275   2.430  1.00  0.00     0.019 A 
ATOM     16  O   UNL     1      -1.082  -0.138   2.127  1.00  0.00    -0.475 OA
ATOM     17  Br  UNL     1       1.313   5.211   0.638  1.00  0.00    -0.051 Br
ATOM     18  C   UNL     1      -0.444   3.502   2.092  1.00  0.00     0.027 A 
ATOM     19  C   UNL     1      -2.133   2.233   3.368  1.00  0.00     0.027 C 
ATOM     20  C   UNL     1      -2.185  -0.257   3.063  1.00  0.00     0.316 C 
BRANCH  20  21
ATOM     21  C   UNL     1      -3.301  -1.061   2.381  1.00  0.00     0.430 C 
ATOM     22  F   UNL     1      -2.821  -2.215   1.854  1.00  0.00    -0.167 F 
ATOM     23  F   UNL     1      -4.275  -1.416   3.252  1.00  0.00    -0.167 F 
ATOM     24  F   UNL     1      -3.887  -0.372   1.376  1.00  0.00    -0.167 F 
ENDBRANCH  20  21
ENDBRANCH   7   9
ENDBRANCH   6   7
ENDBRANCH   5   6
ENDBRANCH   4   5
ENDBRANCH   3   4
ENDBRANCH   2   3
ENDBRANCH   1   2
BRANCH   1  25
ATOM     25  O   UNL     1      -1.109  -0.805   7.508  1.00  0.00    -0.376 OA
BRANCH  25  26
ATOM     26  C   UNL     1      -1.101  -0.912   8.924  1.00  0.00     0.202 C 
BRANCH  26  27
ATOM     27  C   UNL     1      -0.025  -0.200   9.754  1.00  0.00     0.261 C 
BRANCH  27  28
ATOM     28  O   UNL     1       0.096   1.203   9.484  1.00  0.00    -0.460 OA
BRANCH  28  29
ATOM     29  C   UNL     1       1.288   1.590   8.966  1.00  0.00     0.338 C 
ATOM     30  O   UNL     1       2.259   0.887   8.743  1.00  0.00    -0.246 OA
BRANCH  29  31
ATOM     31  C   UNL     1       1.190   2.987   8.503  1.00  0.00     0.060 A 
ATOM     32  C   UNL     1       1.389   3.244   7.139  1.00  0.00     0.016 A 
ATOM     33  C   UNL     1       0.959   4.031   9.399  1.00  0.00     0.016 A 
ATOM     34  C   UNL     1       1.387   4.555   6.669  1.00  0.00     0.010 A 
ATOM     35  C   UNL     1       0.989   5.347   8.931  1.00  0.00     0.010 A 
ATOM     36  C   UNL     1       1.238   5.614   7.573  1.00  0.00    -0.014 A 
BRANCH  36  37
ATOM     37  C   UNL     1       1.566   6.991   7.137  1.00  0.00     0.031 A 
ATOM     38  C   UNL     1       2.977   7.475   7.327  1.00  0.00     0.074 A 
ATOM     39  C   UNL     1       0.641   7.791   6.580  1.00  0.00     0.049 A 
ATOM     40  N   UNL     1       3.494   8.644   7.059  1.00  0.00    -0.248 NA
ATOM     41  C   UNL     1       3.934   6.507   7.893  1.00  0.00     0.031 C 
ATOM     42  C   UNL     1      -0.749   7.424   6.318  1.00  0.00     0.029 A 
ATOM     43  N   UNL     1       0.736   9.091   6.151  1.00  0.00    -0.354 N 
ATOM     44  C   UNL     1       4.830   8.559   7.434  1.00  0.00     0.074 A 
ATOM     45  C   UNL     1       5.042   7.229   7.962  1.00  0.00     0.031 C 
ATOM     46  C   UNL     1      -1.386   8.486   5.794  1.00  0.00     0.029 A 
ATOM     47  C   UNL     1      -0.457   9.613   5.708  1.00  0.00     0.049 A 
ATOM     48  H   UNL     1       1.577   9.602   6.160  1.00  0.00     0.167 HD
ATOM     49  C   UNL     1       5.799   9.496   7.330  1.00  0.00     0.034 A 
ATOM     50  C   UNL     1      -0.762  10.862   5.300  1.00  0.00     0.034 A 
ATOM     51  C   UNL     1       5.590  10.816   6.803  1.00  0.00     0.049 A 
ATOM     52  C   UNL     1       0.322  11.911   5.261  1.00  0.00     0.074 A 
ATOM     53  C   UNL     1       6.514  11.832   6.643  1.00  0.00     0.029 A 
ATOM     54  N   UNL     1       4.372  11.307   6.362  1.00  0.00    -0.354 N 
ATOM     55  N   UNL     1       1.601  11.790   5.524  1.00  0.00    -0.248 NA
ATOM     56  C   UNL     1      -0.076  13.266   4.848  1.00  0.00     0.031 C 
ATOM     57  C   UNL     1       5.849  12.947   6.127  1.00  0.00     0.029 A 
ATOM     58  C   UNL     1       4.516  12.618   5.943  1.00  0.00     0.049 A 
ATOM     59  H   UNL     1       3.529  10.799   6.348  1.00  0.00     0.167 HD
ATOM     60  C   UNL     1       2.164  13.041   5.285  1.00  0.00     0.074 A 
ATOM     61  C   UNL     1       1.090  13.899   4.830  1.00  0.00     0.031 C 
ATOM     62  C   UNL     1       3.447  13.449   5.448  1.00  0.00     0.034 A 
BRANCH  49  63
ATOM     63  C   UNL     1       7.187   9.115   7.766  1.00  0.00     0.023 A 
ATOM     64  C   UNL     1       7.954   8.257   6.952  1.00  0.00     0.012 A 
ATOM     65  C   UNL     1       7.754   9.651   8.938  1.00  0.00     0.148 A 
ATOM     66  C   UNL     1       9.259   7.921   7.308  1.00  0.00     0.002 A 
ATOM     67  C   UNL     1       9.070   9.345   9.264  1.00  0.00     0.091 A 
ATOM     68  F   UNL     1       6.997  10.443   9.710  1.00  0.00    -0.205 F 
ATOM     69  C   UNL     1       9.820   8.473   8.457  1.00  0.00     0.022 A 
BRANCH  67  70
ATOM     70  S   UNL     1       9.910  10.061  10.681  1.00  0.00     0.127 S 
ATOM     71  O   UNL     1      10.075   8.895  11.547  1.00  0.00    -0.237 OA
ATOM     72  O   UNL     1      11.150  10.557  10.083  1.00  0.00    -0.237 OA
ATOM     73  O   UNL     1       9.024  11.097  11.194  1.00  0.00    -0.744 OA
ENDBRANCH  67  70
ENDBRANCH  49  63
BRANCH  50  74
ATOM     74  C   UNL     1      -2.150  11.183   4.858  1.00  0.00     0.023 A 
ATOM     75  C   UNL     1      -2.392  11.472   3.501  1.00  0.00     0.012 A 
ATOM     76  C   UNL     1      -3.230  11.184   5.763  1.00  0.00     0.148 A 
ATOM     77  C   UNL     1      -3.679  11.776   3.057  1.00  0.00     0.002 A 
ATOM     78  C   UNL     1      -4.518  11.434   5.304  1.00  0.00     0.091 A 
ATOM     79  F   UNL     1      -2.976  10.929   7.054  1.00  0.00    -0.205 F 
ATOM     80  C   UNL     1      -4.743  11.745   3.954  1.00  0.00     0.022 A 
BRANCH  78  81
ATOM     81  S   UNL     1      -5.966  11.294   6.359  1.00  0.00     0.127 S 
ATOM     82  O   UNL     1      -6.414  12.682   6.438  1.00  0.00    -0.237 OA
ATOM     83  O   UNL     1      -6.827  10.412   5.570  1.00  0.00    -0.237 OA
ATOM     84  O   UNL     1      -5.490  10.713   7.607  1.00  0.00    -0.744 OA
ENDBRANCH  78  81
ENDBRANCH  50  74
BRANCH  62  85
ATOM     85  C   UNL     1       3.782  14.886   5.135  1.00  0.00     0.023 A 
ATOM     86  C   UNL     1       3.358  15.902   6.013  1.00  0.00     0.012 A 
ATOM     87  C   UNL     1       4.611  15.218   4.043  1.00  0.00     0.148 A 
ATOM     88  C   UNL     1       3.733  17.228   5.799  1.00  0.00     0.002 A 
ATOM     89  C   UNL     1       5.022  16.534   3.865  1.00  0.00     0.091 A 
ATOM     90  F   UNL     1       4.993  14.239   3.210  1.00  0.00    -0.205 F 
ATOM     91  C   UNL     1       4.575  17.541   4.735  1.00  0.00     0.022 A 
BRANCH  89  92
ATOM     92  S   UNL     1       6.191  17.016   2.587  1.00  0.00     0.127 S 
ATOM     93  O   UNL     1       5.328  17.732   1.649  1.00  0.00    -0.237 OA
ATOM     94  O   UNL     1       7.126  17.865   3.325  1.00  0.00    -0.237 OA
ATOM     95  O   UNL     1       6.769  15.776   2.084  1.00  0.00    -0.744 OA
ENDBRANCH  89  92
ENDBRANCH  62  85
ENDBRANCH  36  37
ENDBRANCH  29  31
ENDBRANCH  28  29
ENDBRANCH  27  28
ENDBRANCH  26  27
ENDBRANCH  25  26
ENDBRANCH   1  25
TORSDOF 21
