REMARK SMILES C[C@H]1C[NH+](CC[C@@H]2CCC[C@]2([NH3+])C(=O)OCCOCCOCCOC(=O)c2ccc(-c3c4nc(c(-c5cccc(S(=O)(=O)[O-])c5F)c5ccc([nH]5)c(-c5cccc(S(=O)(=O)[O-])c5F)c5nc(c(-c6cccc(S(=O)(=O)[O-])c6F)c6ccc3[nH]6)C=C5)C=C4)cc2)C[C@H](C)O1
REMARK SMILES IDX 19 1 18 2 17 3 16 4 15 5 13 6 14 7 11 8 7 9 8 10 9 11 10 12
REMARK SMILES IDX 6 13 5 14 4 15 1 16 2 17 3 18 93 19 91 20 90 21 92 23 12 24
REMARK SMILES IDX 20 28 21 29 22 30 23 31 24 32 25 33 26 34 27 35 28 36 89 37
REMARK SMILES IDX 29 38 88 39 30 40 31 41 32 42 82 43 33 44 87 45 81 46 83 47
REMARK SMILES IDX 34 48 86 49 80 50 79 51 35 53 67 54 47 55 66 56 48 57 51 58
REMARK SMILES IDX 65 59 84 60 49 61 50 62 64 64 85 65 52 66 36 67 37 68 45 69
REMARK SMILES IDX 38 70 40 71 46 72 39 73 41 74 42 75 43 76 44 77 68 78 69 79
REMARK SMILES IDX 77 80 70 81 72 82 78 83 71 84 73 85 74 86 75 87 76 88 53 89
REMARK SMILES IDX 54 90 62 91 55 92 57 93 63 94 56 95 58 96 59 97 60 98 61 99
REMARK H PARENT 4 22 12 25 12 26 12 27 83 52 51 63
REMARK Flexibility Score: inf
ROOT
ATOM      1  C   UNL     1       3.609  -6.032   1.217  1.00  0.00     0.188 C 
ENDROOT
BRANCH   1   2
ATOM      2  O   UNL     1       3.745  -5.139   2.311  1.00  0.00    -0.376 OA
BRANCH   2   3
ATOM      3  C   UNL     1       3.146  -3.860   2.184  1.00  0.00     0.202 C 
BRANCH   3   4
ATOM      4  C   UNL     1       3.514  -3.063   0.933  1.00  0.00     0.261 C 
BRANCH   4   5
ATOM      5  O   UNL     1       3.029  -3.691  -0.276  1.00  0.00    -0.459 OA
BRANCH   5   6
ATOM      6  C   UNL     1       3.783  -3.579  -1.394  1.00  0.00     0.368 C 
ATOM      7  O   UNL     1       4.905  -3.082  -1.399  1.00  0.00    -0.245 OA
BRANCH   6   8
ATOM      8  C   UNL     1       3.020  -3.955  -2.724  1.00  0.00     0.195 C 
ATOM      9  C   UNL     1       1.571  -4.569  -2.737  1.00  0.00     0.068 C 
ATOM     10  C   UNL     1       1.780  -6.105  -2.878  1.00  0.00     0.011 C 
ATOM     11  C   UNL     1       3.279  -6.339  -2.947  1.00  0.00     0.008 C 
ATOM     12  C   UNL     1       3.854  -5.037  -3.442  1.00  0.00     0.081 C 
BRANCH   9  13
ATOM     13  C   UNL     1       0.280  -4.235  -1.899  1.00  0.00     0.072 C 
BRANCH  13  14
ATOM     14  C   UNL     1       0.128  -3.323  -0.657  1.00  0.00     0.262 C 
BRANCH  14  15
ATOM     15  N   UNL     1       0.309  -1.867  -0.711  1.00  0.00    -0.331 N 
ATOM     16  C   UNL     1      -1.772   1.146  -1.724  1.00  0.00     0.045 C 
ATOM     17  C   UNL     1      -0.623   0.443  -1.013  1.00  0.00     0.170 C 
ATOM     18  C   UNL     1      -0.911  -1.094  -0.963  1.00  0.00     0.294 C 
ATOM     19  O   UNL     1       0.537   0.851  -1.760  1.00  0.00    -0.364 OA
ATOM     20  C   UNL     1       1.676   0.017  -1.601  1.00  0.00     0.170 C 
ATOM     21  C   UNL     1       1.267  -1.442  -1.712  1.00  0.00     0.294 C 
ATOM     22  H   UNL     1       0.646  -1.671   0.232  1.00  0.00     0.348 HD
ATOM     23  C   UNL     1       2.484   0.299  -0.338  1.00  0.00     0.045 C 
ENDBRANCH  14  15
ENDBRANCH  13  14
ENDBRANCH   9  13
BRANCH   8  24
ATOM     24  N   UNL     1       3.141  -2.807  -3.670  1.00  0.00    -0.343 N 
ATOM     25  H   UNL     1       2.654  -3.028  -4.538  1.00  0.00     0.345 HD
ATOM     26  H   UNL     1       4.127  -2.632  -3.868  1.00  0.00     0.345 HD
ATOM     27  H   UNL     1       2.726  -1.975  -3.250  1.00  0.00     0.345 HD
ENDBRANCH   8  24
ENDBRANCH   6   8
ENDBRANCH   5   6
ENDBRANCH   4   5
ENDBRANCH   3   4
ENDBRANCH   2   3
ENDBRANCH   1   2
BRANCH   1  28
ATOM     28  C   UNL     1       2.195  -6.299   0.658  1.00  0.00     0.188 C 
BRANCH  28  29
ATOM     29  O   UNL     1       1.031  -6.214   1.460  1.00  0.00    -0.376 OA
BRANCH  29  30
ATOM     30  C   UNL     1       1.085  -6.699   2.788  1.00  0.00     0.202 C 
BRANCH  30  31
ATOM     31  C   UNL     1       1.419  -8.179   3.017  1.00  0.00     0.261 C 
BRANCH  31  32
ATOM     32  O   UNL     1       2.600  -8.645   2.343  1.00  0.00    -0.460 OA
BRANCH  32  33
ATOM     33  C   UNL     1       2.401  -9.439   1.260  1.00  0.00     0.338 C 
ATOM     34  O   UNL     1       1.326  -9.847   0.843  1.00  0.00    -0.246 OA
BRANCH  33  35
ATOM     35  C   UNL     1       3.661  -9.536   0.483  1.00  0.00     0.060 A 
ATOM     36  C   UNL     1       3.619  -9.204  -0.879  1.00  0.00     0.016 A 
ATOM     37  C   UNL     1       4.873  -9.901   1.071  1.00  0.00     0.016 A 
ATOM     38  C   UNL     1       4.783  -9.210  -1.647  1.00  0.00     0.010 A 
ATOM     39  C   UNL     1       6.035  -9.951   0.285  1.00  0.00     0.010 A 
ATOM     40  C   UNL     1       5.995  -9.610  -1.079  1.00  0.00    -0.014 A 
BRANCH  40  41
ATOM     41  C   UNL     1       7.144  -9.904  -1.969  1.00  0.00     0.031 A 
ATOM     42  C   UNL     1       7.269 -11.304  -2.502  1.00  0.00     0.074 A 
ATOM     43  C   UNL     1       8.041  -8.967  -2.330  1.00  0.00     0.049 A 
ATOM     44  N   UNL     1       8.227 -11.846  -3.203  1.00  0.00    -0.248 NA
ATOM     45  C   UNL     1       6.147 -12.212  -2.207  1.00  0.00     0.031 C 
ATOM     46  C   UNL     1       7.989  -7.553  -1.967  1.00  0.00     0.029 A 
ATOM     47  N   UNL     1       9.192  -9.082  -3.074  1.00  0.00    -0.354 N 
ATOM     48  C   UNL     1       7.847 -13.168  -3.396  1.00  0.00     0.074 A 
ATOM     49  C   UNL     1       6.564 -13.342  -2.754  1.00  0.00     0.031 C 
ATOM     50  C   UNL     1       9.085  -6.939  -2.453  1.00  0.00     0.029 A 
ATOM     51  C   UNL     1       9.935  -7.925  -3.121  1.00  0.00     0.049 A 
ATOM     52  H   UNL     1       9.459  -9.913  -3.530  1.00  0.00     0.167 HD
ATOM     53  C   UNL     1       8.509 -14.153  -4.045  1.00  0.00     0.034 A 
ATOM     54  C   UNL     1      11.175  -7.703  -3.605  1.00  0.00     0.034 A 
ATOM     55  C   UNL     1       9.785 -13.984  -4.681  1.00  0.00     0.049 A 
ATOM     56  C   UNL     1      11.936  -8.843  -4.244  1.00  0.00     0.074 A 
ATOM     57  C   UNL     1      10.535 -14.925  -5.362  1.00  0.00     0.029 A 
ATOM     58  N   UNL     1      10.509 -12.803  -4.698  1.00  0.00    -0.354 N 
ATOM     59  N   UNL     1      11.549 -10.076  -4.466  1.00  0.00    -0.248 NA
ATOM     60  C   UNL     1      13.300  -8.554  -4.714  1.00  0.00     0.031 C 
ATOM     61  C   UNL     1      11.734 -14.322  -5.757  1.00  0.00     0.029 A 
ATOM     62  C   UNL     1      11.707 -12.993  -5.363  1.00  0.00     0.049 A 
ATOM     63  H   UNL     1      10.214 -11.953  -4.297  1.00  0.00     0.167 HD
ATOM     64  C   UNL     1      12.602 -10.695  -5.135  1.00  0.00     0.074 A 
ATOM     65  C   UNL     1      13.638  -9.697  -5.296  1.00  0.00     0.031 C 
ATOM     66  C   UNL     1      12.708 -11.977  -5.566  1.00  0.00     0.034 A 
BRANCH  53  67
ATOM     67  C   UNL     1       7.869 -15.513  -4.068  1.00  0.00     0.023 A 
ATOM     68  C   UNL     1       6.731 -15.747  -4.866  1.00  0.00     0.012 A 
ATOM     69  C   UNL     1       8.413 -16.567  -3.309  1.00  0.00     0.148 A 
ATOM     70  C   UNL     1       6.125 -17.003  -4.882  1.00  0.00     0.002 A 
ATOM     71  C   UNL     1       7.833 -17.827  -3.369  1.00  0.00     0.091 A 
ATOM     72  F   UNL     1       9.477 -16.314  -2.535  1.00  0.00    -0.205 F 
ATOM     73  C   UNL     1       6.681 -18.043  -4.143  1.00  0.00     0.022 A 
BRANCH  71  74
ATOM     74  S   UNL     1       8.520 -19.248  -2.514  1.00  0.00     0.127 S 
ATOM     75  O   UNL     1       7.499 -19.505  -1.499  1.00  0.00    -0.237 OA
ATOM     76  O   UNL     1       8.582 -20.246  -3.583  1.00  0.00    -0.237 OA
ATOM     77  O   UNL     1       9.815 -18.824  -2.001  1.00  0.00    -0.744 OA
ENDBRANCH  71  74
ENDBRANCH  53  67
BRANCH  54  78
ATOM     78  C   UNL     1      11.804  -6.353  -3.493  1.00  0.00     0.023 A 
ATOM     79  C   UNL     1      12.088  -5.614  -4.658  1.00  0.00     0.012 A 
ATOM     80  C   UNL     1      12.152  -5.812  -2.239  1.00  0.00     0.148 A 
ATOM     81  C   UNL     1      12.736  -4.380  -4.580  1.00  0.00     0.002 A 
ATOM     82  C   UNL     1      12.747  -4.558  -2.164  1.00  0.00     0.091 A 
ATOM     83  F   UNL     1      11.899  -6.540  -1.142  1.00  0.00    -0.205 F 
ATOM     84  C   UNL     1      13.057  -3.848  -3.334  1.00  0.00     0.022 A 
BRANCH  82  85
ATOM     85  S   UNL     1      13.103  -3.746  -0.601  1.00  0.00     0.127 S 
ATOM     86  O   UNL     1      14.564  -3.714  -0.606  1.00  0.00    -0.237 OA
ATOM     87  O   UNL     1      12.458  -2.446  -0.785  1.00  0.00    -0.237 OA
ATOM     88  O   UNL     1      12.497  -4.582   0.426  1.00  0.00    -0.744 OA
ENDBRANCH  82  85
ENDBRANCH  54  78
BRANCH  66  89
ATOM     89  C   UNL     1      13.961 -12.378  -6.305  1.00  0.00     0.023 A 
ATOM     90  C   UNL     1      15.180 -12.515  -5.611  1.00  0.00     0.012 A 
ATOM     91  C   UNL     1      13.906 -12.711  -7.674  1.00  0.00     0.148 A 
ATOM     92  C   UNL     1      16.329 -12.944  -6.275  1.00  0.00     0.002 A 
ATOM     93  C   UNL     1      15.042 -13.188  -8.316  1.00  0.00     0.091 A 
ATOM     94  F   UNL     1      12.740 -12.563  -8.321  1.00  0.00    -0.205 F 
ATOM     95  C   UNL     1      16.258 -13.293  -7.622  1.00  0.00     0.022 A 
BRANCH  93  96
ATOM     96  S   UNL     1      15.022 -13.758 -10.020  1.00  0.00     0.127 S 
ATOM     97  O   UNL     1      15.815 -12.728 -10.688  1.00  0.00    -0.237 OA
ATOM     98  O   UNL     1      15.678 -15.062  -9.918  1.00  0.00    -0.237 OA
ATOM     99  O   UNL     1      13.620 -13.815 -10.411  1.00  0.00    -0.744 OA
ENDBRANCH  93  96
ENDBRANCH  66  89
ENDBRANCH  40  41
ENDBRANCH  33  35
ENDBRANCH  32  33
ENDBRANCH  31  32
ENDBRANCH  30  31
ENDBRANCH  29  30
ENDBRANCH  28  29
ENDBRANCH   1  28
TORSDOF 24
