REMARK SMILES Cc1cc(C)nc(N2CCCC[C@H]2C(=O)OCCOCCOCCOC(=O)c2ccc(-c3c4nc(c(-c5cccc(S(=O)(=O)[O-])c5F)c5ccc([nH]5)c(-c5cccc(S(=O)(=O)[O-])c5F)c5nc(c(-c6cccc(S(=O)(=O)[O-])c6F)c6ccc3[nH]6)C=C5)C=C4)cc2)n1
REMARK SMILES IDX 21 1 20 2 19 3 18 4 17 5 16 6 14 7 15 8 13 9 8 10 9 11 10 12
REMARK SMILES IDX 12 13 11 14 7 15 1 16 2 17 3 18 91 19 4 20 5 21 6 22 22 23
REMARK SMILES IDX 23 24 24 25 25 26 26 27 27 28 28 29 29 30 90 31 30 32 89 33
REMARK SMILES IDX 31 34 32 35 33 36 83 37 34 38 88 39 82 40 84 41 35 42 87 43
REMARK SMILES IDX 81 44 80 45 36 47 68 48 48 49 67 50 49 51 52 52 66 53 85 54
REMARK SMILES IDX 50 55 51 56 65 58 86 59 53 60 37 61 38 62 46 63 39 64 41 65
REMARK SMILES IDX 47 66 40 67 42 68 43 69 44 70 45 71 69 72 70 73 78 74 71 75
REMARK SMILES IDX 73 76 79 77 72 78 74 79 75 80 76 81 77 82 54 83 55 84 63 85
REMARK SMILES IDX 56 86 58 87 64 88 57 89 59 90 60 91 61 92 62 93
REMARK H PARENT 84 46 52 57
REMARK Flexibility Score: inf
ROOT
ATOM      1  C   UNL     1       3.159  -3.145   3.092  1.00  0.00     0.188 C 
ENDROOT
BRANCH   1   2
ATOM      2  C   UNL     1       3.831  -4.385   2.456  1.00  0.00     0.188 C 
BRANCH   2   3
ATOM      3  O   UNL     1       5.134  -4.119   1.966  1.00  0.00    -0.376 OA
BRANCH   3   4
ATOM      4  C   UNL     1       5.291  -4.109   0.554  1.00  0.00     0.202 C 
BRANCH   4   5
ATOM      5  C   UNL     1       4.431  -3.142  -0.279  1.00  0.00     0.261 C 
BRANCH   5   6
ATOM      6  O   UNL     1       3.103  -2.940   0.215  1.00  0.00    -0.462 OA
BRANCH   6   7
ATOM      7  C   UNL     1       2.109  -3.732  -0.275  1.00  0.00     0.328 C 
ATOM      8  O   UNL     1       2.283  -4.596  -1.125  1.00  0.00    -0.250 OA
BRANCH   7   9
ATOM      9  C   UNL     1       0.774  -3.427   0.451  1.00  0.00     0.195 C 
ATOM     10  N   UNL     1      -0.264  -2.959  -0.459  1.00  0.00    -0.327 N 
ATOM     11  C   UNL     1      -0.747  -3.880  -1.464  1.00  0.00     0.120 C 
ATOM     12  C   UNL     1      -1.153  -5.220  -0.821  1.00  0.00     0.022 C 
ATOM     13  C   UNL     1       0.212  -4.617   1.230  1.00  0.00     0.037 C 
ATOM     14  C   UNL     1      -0.237  -5.732   0.298  1.00  0.00     0.005 C 
BRANCH  10  15
ATOM     15  C   UNL     1      -0.245  -1.599  -0.667  1.00  0.00     0.226 A 
ATOM     16  C   UNL     1       2.329   0.965  -0.166  1.00  0.00     0.067 C 
ATOM     17  C   UNL     1       0.980   0.344  -0.361  1.00  0.00     0.043 A 
ATOM     18  C   UNL     1      -0.171   1.084  -0.238  1.00  0.00     0.047 A 
ATOM     19  N   UNL     1       0.947  -0.979  -0.592  1.00  0.00    -0.218 NA
ATOM     20  C   UNL     1      -1.357   0.390  -0.373  1.00  0.00     0.043 A 
ATOM     21  C   UNL     1      -2.660   1.103  -0.172  1.00  0.00     0.067 C 
ATOM     22  N   UNL     1      -1.409  -0.939  -0.618  1.00  0.00    -0.218 NA
ENDBRANCH  10  15
ENDBRANCH   7   9
ENDBRANCH   6   7
ENDBRANCH   5   6
ENDBRANCH   4   5
ENDBRANCH   3   4
ENDBRANCH   2   3
ENDBRANCH   1   2
BRANCH   1  23
ATOM     23  O   UNL     1       3.804  -1.882   3.051  1.00  0.00    -0.376 OA
BRANCH  23  24
ATOM     24  C   UNL     1       5.167  -1.824   3.447  1.00  0.00     0.202 C 
BRANCH  24  25
ATOM     25  C   UNL     1       5.636  -2.513   4.749  1.00  0.00     0.261 C 
BRANCH  25  26
ATOM     26  O   UNL     1       5.089  -3.816   5.036  1.00  0.00    -0.460 OA
BRANCH  26  27
ATOM     27  C   UNL     1       4.173  -3.876   6.036  1.00  0.00     0.338 C 
ATOM     28  O   UNL     1       3.801  -2.944   6.744  1.00  0.00    -0.246 OA
BRANCH  27  29
ATOM     29  C   UNL     1       3.493  -5.191   6.029  1.00  0.00     0.060 A 
ATOM     30  C   UNL     1       2.117  -5.244   5.746  1.00  0.00     0.016 A 
ATOM     31  C   UNL     1       4.185  -6.361   6.342  1.00  0.00     0.016 A 
ATOM     32  C   UNL     1       1.428  -6.457   5.787  1.00  0.00     0.010 A 
ATOM     33  C   UNL     1       3.484  -7.571   6.421  1.00  0.00     0.010 A 
ATOM     34  C   UNL     1       2.099  -7.622   6.173  1.00  0.00    -0.014 A 
BRANCH  34  35
ATOM     35  C   UNL     1       1.325  -8.844   6.511  1.00  0.00     0.031 A 
ATOM     36  C   UNL     1       1.016  -9.118   7.959  1.00  0.00     0.074 A 
ATOM     37  C   UNL     1       0.914  -9.704   5.562  1.00  0.00     0.049 A 
ATOM     38  N   UNL     1       0.428 -10.151   8.502  1.00  0.00    -0.248 NA
ATOM     39  C   UNL     1       1.432  -8.086   8.924  1.00  0.00     0.031 C 
ATOM     40  C   UNL     1       1.120  -9.543   4.125  1.00  0.00     0.029 A 
ATOM     41  N   UNL     1       0.260 -10.907   5.677  1.00  0.00    -0.354 N 
ATOM     42  C   UNL     1       0.440  -9.916   9.871  1.00  0.00     0.074 A 
ATOM     43  C   UNL     1       1.093  -8.642  10.077  1.00  0.00     0.031 C 
ATOM     44  C   UNL     1       0.635 -10.627   3.492  1.00  0.00     0.029 A 
ATOM     45  C   UNL     1       0.113 -11.570   4.481  1.00  0.00     0.049 A 
ATOM     46  H   UNL     1      -0.073 -11.261   6.534  1.00  0.00     0.167 HD
ATOM     47  C   UNL     1      -0.051 -10.688  10.870  1.00  0.00     0.034 A 
ATOM     48  C   UNL     1      -0.357 -12.807   4.219  1.00  0.00     0.034 A 
ATOM     49  C   UNL     1      -0.711 -11.949  10.666  1.00  0.00     0.049 A 
ATOM     50  C   UNL     1      -0.858 -13.666   5.354  1.00  0.00     0.074 A 
ATOM     51  C   UNL     1      -1.286 -12.780  11.612  1.00  0.00     0.029 A 
ATOM     52  N   UNL     1      -0.866 -12.573   9.439  1.00  0.00    -0.354 N 
ATOM     53  N   UNL     1      -0.939 -13.386   6.633  1.00  0.00    -0.248 NA
ATOM     54  C   UNL     1      -1.360 -15.005   5.005  1.00  0.00     0.031 C 
ATOM     55  C   UNL     1      -1.750 -13.927  10.961  1.00  0.00     0.029 A 
ATOM     56  C   UNL     1      -1.509 -13.788   9.604  1.00  0.00     0.049 A 
ATOM     57  H   UNL     1      -0.564 -12.206   8.577  1.00  0.00     0.167 HD
ATOM     58  C   UNL     1      -1.539 -14.490   7.231  1.00  0.00     0.074 A 
ATOM     59  C   UNL     1      -1.815 -15.439   6.172  1.00  0.00     0.031 C 
ATOM     60  C   UNL     1      -1.828 -14.704   8.539  1.00  0.00     0.034 A 
BRANCH  47  61
ATOM     61  C   UNL     1       0.109 -10.189  12.282  1.00  0.00     0.023 A 
ATOM     62  C   UNL     1      -0.654  -9.094  12.734  1.00  0.00     0.012 A 
ATOM     63  C   UNL     1       0.980 -10.842  13.177  1.00  0.00     0.148 A 
ATOM     64  C   UNL     1      -0.528  -8.634  14.045  1.00  0.00     0.002 A 
ATOM     65  C   UNL     1       1.064 -10.409  14.495  1.00  0.00     0.091 A 
ATOM     66  F   UNL     1       1.713 -11.868  12.722  1.00  0.00    -0.205 F 
ATOM     67  C   UNL     1       0.321  -9.298  14.926  1.00  0.00     0.022 A 
BRANCH  65  68
ATOM     68  S   UNL     1       2.065 -11.247  15.727  1.00  0.00     0.127 S 
ATOM     69  O   UNL     1       3.119 -10.262  15.970  1.00  0.00    -0.237 OA
ATOM     70  O   UNL     1       1.119 -11.412  16.830  1.00  0.00    -0.237 OA
ATOM     71  O   UNL     1       2.505 -12.491  15.112  1.00  0.00    -0.744 OA
ENDBRANCH  65  68
ENDBRANCH  47  61
BRANCH  48  72
ATOM     72  C   UNL     1      -0.399 -13.314   2.817  1.00  0.00     0.023 A 
ATOM     73  C   UNL     1      -1.643 -13.530   2.193  1.00  0.00     0.012 A 
ATOM     74  C   UNL     1       0.784 -13.591   2.104  1.00  0.00     0.148 A 
ATOM     75  C   UNL     1      -1.710 -14.046   0.898  1.00  0.00     0.002 A 
ATOM     76  C   UNL     1       0.711 -14.052   0.794  1.00  0.00     0.091 A 
ATOM     77  F   UNL     1       1.957 -13.396   2.721  1.00  0.00    -0.205 F 
ATOM     78  C   UNL     1      -0.535 -14.298   0.196  1.00  0.00     0.022 A 
BRANCH  76  79
ATOM     79  S   UNL     1       2.167 -14.295  -0.228  1.00  0.00     0.127 S 
ATOM     80  O   UNL     1       2.171 -15.745  -0.404  1.00  0.00    -0.237 OA
ATOM     81  O   UNL     1       1.822 -13.529  -1.426  1.00  0.00    -0.237 OA
ATOM     82  O   UNL     1       3.281 -13.751   0.535  1.00  0.00    -0.744 OA
ENDBRANCH  76  79
ENDBRANCH  48  72
BRANCH  60  83
ATOM     83  C   UNL     1      -2.529 -15.988   8.909  1.00  0.00     0.023 A 
ATOM     84  C   UNL     1      -1.838 -17.214   8.855  1.00  0.00     0.012 A 
ATOM     85  C   UNL     1      -3.854 -15.964   9.389  1.00  0.00     0.148 A 
ATOM     86  C   UNL     1      -2.466 -18.400   9.238  1.00  0.00     0.002 A 
ATOM     87  C   UNL     1      -4.455 -17.141   9.820  1.00  0.00     0.091 A 
ATOM     88  F   UNL     1      -4.502 -14.790   9.421  1.00  0.00    -0.205 F 
ATOM     89  C   UNL     1      -3.768 -18.362   9.731  1.00  0.00     0.022 A 
BRANCH  87  90
ATOM     90  S   UNL     1      -6.091 -17.175  10.563  1.00  0.00     0.127 S 
ATOM     91  O   UNL     1      -6.876 -17.843   9.526  1.00  0.00    -0.237 OA
ATOM     92  O   UNL     1      -5.866 -17.974  11.768  1.00  0.00    -0.237 OA
ATOM     93  O   UNL     1      -6.448 -15.785  10.816  1.00  0.00    -0.744 OA
ENDBRANCH  87  90
ENDBRANCH  60  83
ENDBRANCH  34  35
ENDBRANCH  27  29
ENDBRANCH  26  27
ENDBRANCH  25  26
ENDBRANCH  24  25
ENDBRANCH  23  24
ENDBRANCH   1  23
TORSDOF 21
