REMARK SMILES C[C@@H]1C[NH+](CC2(C(=O)OCCOCCOCCOC(=O)c3ccc(-c4c5nc(c(-c6cccc(S(=O)(=O)[O-])c6F)c6ccc([nH]6)c(-c6cccc(S(=O)(=O)[O-])c6F)c6nc(c(-c7cccc(S(=O)(=O)[O-])c7F)c7ccc4[nH]7)C=C6)C=C5)cc3)CCCC2)C[C@H]1C
REMARK SMILES IDX 14 1 13 2 12 3 11 4 10 5 9 6 7 7 8 8 6 9 84 10 87 11 85 12
REMARK SMILES IDX 86 13 5 14 4 15 1 16 2 17 3 18 89 19 88 20 90 21 15 23 16 24
REMARK SMILES IDX 17 25 18 26 19 27 20 28 21 29 22 30 83 31 23 32 82 33 24 34
REMARK SMILES IDX 25 35 26 36 76 37 27 38 81 39 75 40 77 41 28 42 80 43 74 44
REMARK SMILES IDX 73 45 29 47 61 48 41 49 60 50 42 51 45 52 59 53 78 54 43 55
REMARK SMILES IDX 44 56 58 58 79 59 46 60 30 61 31 62 39 63 32 64 34 65 40 66
REMARK SMILES IDX 33 67 35 68 36 69 37 70 38 71 62 72 63 73 71 74 64 75 66 76
REMARK SMILES IDX 72 77 65 78 67 79 68 80 69 81 70 82 47 83 48 84 56 85 49 86
REMARK SMILES IDX 51 87 57 88 50 89 52 90 53 91 54 92 55 93
REMARK H PARENT 4 22 77 46 45 57
REMARK Flexibility Score: inf
ROOT
ATOM      1  C   UNL     1      -0.496   5.790  -5.276  1.00  0.00     0.188 C 
ENDROOT
BRANCH   1   2
ATOM      2  C   UNL     1       0.547   6.822  -4.825  1.00  0.00     0.188 C 
BRANCH   2   3
ATOM      3  O   UNL     1       1.415   7.385  -5.800  1.00  0.00    -0.376 OA
BRANCH   3   4
ATOM      4  C   UNL     1       2.068   6.528  -6.731  1.00  0.00     0.202 C 
BRANCH   4   5
ATOM      5  C   UNL     1       2.790   5.265  -6.234  1.00  0.00     0.261 C 
BRANCH   5   6
ATOM      6  O   UNL     1       1.961   4.322  -5.522  1.00  0.00    -0.463 OA
BRANCH   6   7
ATOM      7  C   UNL     1       2.318   4.063  -4.240  1.00  0.00     0.317 C 
ATOM      8  O   UNL     1       3.309   4.558  -3.708  1.00  0.00    -0.251 OA
BRANCH   7   9
ATOM      9  C   UNL     1       1.406   3.055  -3.494  1.00  0.00     0.117 C 
ATOM     10  C   UNL     1       2.311   1.806  -3.373  1.00  0.00     0.025 C 
ATOM     11  C   UNL     1       0.169   2.538  -4.282  1.00  0.00     0.025 C 
ATOM     12  C   UNL     1       1.874   0.897  -4.519  1.00  0.00     0.001 C 
ATOM     13  C   UNL     1       0.371   1.051  -4.525  1.00  0.00     0.001 C 
BRANCH   9  14
ATOM     14  C   UNL     1       1.013   3.826  -2.172  1.00  0.00     0.281 C 
BRANCH  14  15
ATOM     15  N   UNL     1       0.403   3.240  -0.984  1.00  0.00    -0.334 N 
ATOM     16  C   UNL     1       0.746  -0.180   0.364  1.00  0.00     0.014 C 
ATOM     17  C   UNL     1       0.339   0.977  -0.526  1.00  0.00     0.049 C 
ATOM     18  C   UNL     1       1.151   2.234  -0.258  1.00  0.00     0.265 C 
ATOM     19  C   UNL     1      -1.093   1.490  -0.366  1.00  0.00     0.049 C 
ATOM     20  C   UNL     1      -1.017   2.917  -0.940  1.00  0.00     0.265 C 
ATOM     21  C   UNL     1      -2.129   0.627  -1.069  1.00  0.00     0.014 C 
ATOM     22  H   UNL     1       0.470   4.131  -0.492  1.00  0.00     0.348 HD
ENDBRANCH  14  15
ENDBRANCH   9  14
ENDBRANCH   7   9
ENDBRANCH   6   7
ENDBRANCH   5   6
ENDBRANCH   4   5
ENDBRANCH   3   4
ENDBRANCH   2   3
ENDBRANCH   1   2
BRANCH   1  23
ATOM     23  O   UNL     1      -0.399   5.402  -6.629  1.00  0.00    -0.376 OA
BRANCH  23  24
ATOM     24  C   UNL     1      -1.481   5.718  -7.490  1.00  0.00     0.202 C 
BRANCH  24  25
ATOM     25  C   UNL     1      -1.997   7.169  -7.552  1.00  0.00     0.261 C 
BRANCH  25  26
ATOM     26  O   UNL     1      -2.231   7.830  -6.297  1.00  0.00    -0.460 OA
BRANCH  26  27
ATOM     27  C   UNL     1      -3.287   7.401  -5.561  1.00  0.00     0.338 C 
ATOM     28  O   UNL     1      -4.084   6.540  -5.872  1.00  0.00    -0.246 OA
BRANCH  27  29
ATOM     29  C   UNL     1      -3.142   7.970  -4.196  1.00  0.00     0.060 A 
ATOM     30  C   UNL     1      -3.067   7.091  -3.104  1.00  0.00     0.016 A 
ATOM     31  C   UNL     1      -3.052   9.348  -3.994  1.00  0.00     0.016 A 
ATOM     32  C   UNL     1      -2.949   7.591  -1.806  1.00  0.00     0.010 A 
ATOM     33  C   UNL     1      -2.956   9.848  -2.690  1.00  0.00     0.010 A 
ATOM     34  C   UNL     1      -2.947   8.974  -1.587  1.00  0.00    -0.014 A 
BRANCH  34  35
ATOM     35  C   UNL     1      -3.143   9.496  -0.211  1.00  0.00     0.031 A 
ATOM     36  C   UNL     1      -4.522   9.952   0.192  1.00  0.00     0.074 A 
ATOM     37  C   UNL     1      -2.135   9.547   0.678  1.00  0.00     0.049 A 
ATOM     38  N   UNL     1      -4.939  10.431   1.335  1.00  0.00    -0.248 NA
ATOM     39  C   UNL     1      -5.572   9.855  -0.837  1.00  0.00     0.031 C 
ATOM     40  C   UNL     1      -0.757   9.134   0.422  1.00  0.00     0.029 A 
ATOM     41  N   UNL     1      -2.118   9.990   1.979  1.00  0.00    -0.354 N 
ATOM     42  C   UNL     1      -6.287  10.718   1.156  1.00  0.00     0.074 A 
ATOM     43  C   UNL     1      -6.615  10.377  -0.210  1.00  0.00     0.031 C 
ATOM     44  C   UNL     1      -0.021   9.366   1.524  1.00  0.00     0.029 A 
ATOM     45  C   UNL     1      -0.871   9.960   2.555  1.00  0.00     0.049 A 
ATOM     46  H   UNL     1      -2.924  10.299   2.453  1.00  0.00     0.167 HD
ATOM     47  C   UNL     1      -7.180  11.206   2.050  1.00  0.00     0.034 A 
ATOM     48  C   UNL     1      -0.460  10.380   3.769  1.00  0.00     0.034 A 
ATOM     49  C   UNL     1      -6.860  11.537   3.412  1.00  0.00     0.049 A 
ATOM     50  C   UNL     1      -1.469  10.941   4.740  1.00  0.00     0.074 A 
ATOM     51  C   UNL     1      -7.706  11.997   4.406  1.00  0.00     0.029 A 
ATOM     52  N   UNL     1      -5.593  11.462   3.970  1.00  0.00    -0.354 N 
ATOM     53  N   UNL     1      -2.762  11.099   4.594  1.00  0.00    -0.248 NA
ATOM     54  C   UNL     1      -0.964  11.345   6.062  1.00  0.00     0.031 C 
ATOM     55  C   UNL     1      -6.942  12.239   5.553  1.00  0.00     0.029 A 
ATOM     56  C   UNL     1      -5.631  11.880   5.289  1.00  0.00     0.049 A 
ATOM     57  H   UNL     1      -4.786  11.157   3.497  1.00  0.00     0.167 HD
ATOM     58  C   UNL     1      -3.231  11.576   5.815  1.00  0.00     0.074 A 
ATOM     59  C   UNL     1      -2.085  11.662   6.695  1.00  0.00     0.031 C 
ATOM     60  C   UNL     1      -4.494  11.920   6.173  1.00  0.00     0.034 A 
BRANCH  47  61
ATOM     61  C   UNL     1      -8.599  11.402   1.582  1.00  0.00     0.023 A 
ATOM     62  C   UNL     1      -9.416  10.282   1.324  1.00  0.00     0.012 A 
ATOM     63  C   UNL     1      -9.138  12.696   1.444  1.00  0.00     0.148 A 
ATOM     64  C   UNL     1     -10.735  10.447   0.902  1.00  0.00     0.002 A 
ATOM     65  C   UNL     1     -10.468  12.852   1.072  1.00  0.00     0.091 A 
ATOM     66  F   UNL     1      -8.340  13.748   1.672  1.00  0.00    -0.205 F 
ATOM     67  C   UNL     1     -11.263  11.730   0.787  1.00  0.00     0.022 A 
BRANCH  65  68
ATOM     68  S   UNL     1     -11.265  14.458   0.977  1.00  0.00     0.127 S 
ATOM     69  O   UNL     1     -11.486  14.592  -0.463  1.00  0.00    -0.237 OA
ATOM     70  O   UNL     1     -12.481  14.242   1.762  1.00  0.00    -0.237 OA
ATOM     71  O   UNL     1     -10.327  15.410   1.554  1.00  0.00    -0.744 OA
ENDBRANCH  65  68
ENDBRANCH  47  61
BRANCH  48  72
ATOM     72  C   UNL     1       0.975  10.260   4.158  1.00  0.00     0.023 A 
ATOM     73  C   UNL     1       1.352   9.359   5.174  1.00  0.00     0.012 A 
ATOM     74  C   UNL     1       1.966  11.041   3.532  1.00  0.00     0.148 A 
ATOM     75  C   UNL     1       2.682   9.266   5.585  1.00  0.00     0.002 A 
ATOM     76  C   UNL     1       3.297  10.903   3.907  1.00  0.00     0.091 A 
ATOM     77  F   UNL     1       1.584  11.905   2.581  1.00  0.00    -0.205 F 
ATOM     78  C   UNL     1       3.655  10.030   4.946  1.00  0.00     0.022 A 
BRANCH  76  79
ATOM     79  S   UNL     1       4.631  11.759   3.065  1.00  0.00     0.127 S 
ATOM     80  O   UNL     1       5.100  12.675   4.101  1.00  0.00    -0.237 OA
ATOM     81  O   UNL     1       5.545  10.659   2.756  1.00  0.00    -0.237 OA
ATOM     82  O   UNL     1       4.025  12.386   1.898  1.00  0.00    -0.744 OA
ENDBRANCH  76  79
ENDBRANCH  48  72
BRANCH  60  83
ATOM     83  C   UNL     1      -4.722  12.368   7.596  1.00  0.00     0.023 A 
ATOM     84  C   UNL     1      -4.209  13.602   8.045  1.00  0.00     0.012 A 
ATOM     85  C   UNL     1      -5.489  11.580   8.480  1.00  0.00     0.148 A 
ATOM     86  C   UNL     1      -4.410  14.018   9.362  1.00  0.00     0.002 A 
ATOM     87  C   UNL     1      -5.732  12.028   9.773  1.00  0.00     0.091 A 
ATOM     88  F   UNL     1      -5.958  10.402   8.044  1.00  0.00    -0.205 F 
ATOM     89  C   UNL     1      -5.178  13.237  10.222  1.00  0.00     0.022 A 
BRANCH  87  90
ATOM     90  S   UNL     1      -6.794  11.136  10.915  1.00  0.00     0.127 S 
ATOM     91  O   UNL     1      -5.821  10.573  11.850  1.00  0.00    -0.237 OA
ATOM     92  O   UNL     1      -7.623  12.208  11.469  1.00  0.00    -0.237 OA
ATOM     93  O   UNL     1      -7.524  10.166  10.110  1.00  0.00    -0.744 OA
ENDBRANCH  87  90
ENDBRANCH  60  83
ENDBRANCH  34  35
ENDBRANCH  27  29
ENDBRANCH  26  27
ENDBRANCH  25  26
ENDBRANCH  24  25
ENDBRANCH  23  24
ENDBRANCH   1  23
TORSDOF 22
