REMARK SMILES CNC(=O)NC1=[NH+]N=CN[C@@H]1C(=O)OCCOCCOCCOC(=O)c1ccc(-c2c3nc(c(-c4cccc(S(=O)(=O)[O-])c4F)c4ccc([nH]4)c(-c4cccc(S(=O)(=O)[O-])c4F)c4nc(c(-c5cccc(S(=O)(=O)[O-])c5F)c5ccc2[nH]5)C=C4)C=C3)cc1
REMARK SMILES IDX 20 1 19 2 18 3 17 4 16 5 15 6 14 7 12 8 13 9 11 10 1 11 2 12
REMARK SMILES IDX 3 13 4 15 5 16 6 17 7 19 8 20 10 22 9 23 21 25 22 26 23 27
REMARK SMILES IDX 24 28 25 29 26 30 27 31 88 32 28 33 87 34 29 35 30 36 31 37
REMARK SMILES IDX 81 38 32 39 86 40 80 41 82 42 33 43 85 44 79 45 78 46 34 48
REMARK SMILES IDX 66 49 46 50 65 51 47 52 50 53 64 54 83 55 48 56 49 57 63 59
REMARK SMILES IDX 84 60 51 61 35 62 36 63 44 64 37 65 39 66 45 67 38 68 40 69
REMARK SMILES IDX 41 70 42 71 43 72 67 73 68 74 76 75 69 76 71 77 77 78 70 79
REMARK SMILES IDX 72 80 73 81 74 82 75 83 52 84 53 85 61 86 54 87 56 88 62 89
REMARK SMILES IDX 55 90 57 91 58 92 59 93 60 94
REMARK H PARENT 2 14 5 18 7 21 10 24 82 47 50 58
REMARK Flexibility Score: inf
ROOT
ATOM      1  O   UNL     1      -2.106  -2.432   3.414  1.00  0.00    -0.376 OA
ENDROOT
BRANCH   1   2
ATOM      2  C   UNL     1      -1.894  -1.090   3.047  1.00  0.00     0.188 C 
BRANCH   2   3
ATOM      3  C   UNL     1      -2.947  -0.305   2.261  1.00  0.00     0.188 C 
BRANCH   3   4
ATOM      4  O   UNL     1      -4.302  -0.672   2.402  1.00  0.00    -0.376 OA
BRANCH   4   5
ATOM      5  C   UNL     1      -4.718  -1.940   1.909  1.00  0.00     0.202 C 
BRANCH   5   6
ATOM      6  C   UNL     1      -4.067  -2.549   0.654  1.00  0.00     0.261 C 
BRANCH   6   7
ATOM      7  O   UNL     1      -2.630  -2.622   0.733  1.00  0.00    -0.461 OA
BRANCH   7   8
ATOM      8  C   UNL     1      -1.958  -2.349  -0.425  1.00  0.00     0.341 C 
ATOM      9  O   UNL     1      -2.513  -2.241  -1.513  1.00  0.00    -0.249 OA
BRANCH   8  10
ATOM     10  C   UNL     1      -0.476  -2.006  -0.183  1.00  0.00     0.308 C 
ATOM     11  C   UNL     1       1.710   0.500  -0.429  1.00  0.00     0.147 C 
ATOM     12  N   UNL     1       0.606   0.802  -1.319  1.00  0.00    -0.321 N 
ATOM     13  C   UNL     1       0.113   0.068  -2.350  1.00  0.00     0.406 C 
ATOM     14  H   UNL     1       0.150   1.659  -1.153  1.00  0.00     0.167 HD
ATOM     15  O   UNL     1      -0.567   0.606  -3.217  1.00  0.00    -0.221 OA
ATOM     16  N   UNL     1       0.420  -1.260  -2.414  1.00  0.00    -0.191 N 
ATOM     17  C   UNL     1       0.301  -2.250  -1.471  1.00  0.00     0.311 C 
ATOM     18  H   UNL     1       0.788  -1.556  -3.278  1.00  0.00     0.317 HD
ATOM     19  N   UNL     1       0.872  -3.384  -1.752  1.00  0.00    -0.148 N 
ATOM     20  N   UNL     1       0.945  -4.371  -0.737  1.00  0.00    -0.077 NA
ATOM     21  H   UNL     1       1.244  -3.553  -2.647  1.00  0.00     0.342 HD
ATOM     22  N   UNL     1       0.160  -2.811   0.856  1.00  0.00    -0.350 N 
ATOM     23  C   UNL     1       0.681  -4.004   0.474  1.00  0.00     0.241 C 
ATOM     24  H   UNL     1       0.209  -2.503   1.789  1.00  0.00     0.163 HD
ENDBRANCH   8  10
ENDBRANCH   7   8
ENDBRANCH   6   7
ENDBRANCH   5   6
ENDBRANCH   4   5
ENDBRANCH   3   4
ENDBRANCH   2   3
ENDBRANCH   1   2
BRANCH   1  25
ATOM     25  C   UNL     1      -2.766  -2.770   4.631  1.00  0.00     0.202 C 
BRANCH  25  26
ATOM     26  C   UNL     1      -3.105  -1.818   5.805  1.00  0.00     0.261 C 
BRANCH  26  27
ATOM     27  O   UNL     1      -2.753  -0.438   5.704  1.00  0.00    -0.460 OA
BRANCH  27  28
ATOM     28  C   UNL     1      -1.499  -0.117   6.114  1.00  0.00     0.338 C 
ATOM     29  O   UNL     1      -0.667  -0.880   6.581  1.00  0.00    -0.246 OA
BRANCH  28  30
ATOM     30  C   UNL     1      -1.192   1.244   5.612  1.00  0.00     0.060 A 
ATOM     31  C   UNL     1      -0.116   1.396   4.721  1.00  0.00     0.016 A 
ATOM     32  C   UNL     1      -1.976   2.342   5.963  1.00  0.00     0.016 A 
ATOM     33  C   UNL     1       0.194   2.650   4.197  1.00  0.00     0.010 A 
ATOM     34  C   UNL     1      -1.641   3.606   5.467  1.00  0.00     0.010 A 
ATOM     35  C   UNL     1      -0.537   3.770   4.608  1.00  0.00    -0.014 A 
BRANCH  35  36
ATOM     36  C   UNL     1      -0.019   5.131   4.324  1.00  0.00     0.031 A 
ATOM     37  C   UNL     1       0.757   5.831   5.407  1.00  0.00     0.074 A 
ATOM     38  C   UNL     1      -0.230   5.742   3.144  1.00  0.00     0.049 A 
ATOM     39  N   UNL     1       1.237   7.045   5.432  1.00  0.00    -0.248 NA
ATOM     40  C   UNL     1       1.020   5.053   6.630  1.00  0.00     0.031 C 
ATOM     41  C   UNL     1      -0.943   5.168   2.005  1.00  0.00     0.029 A 
ATOM     42  N   UNL     1       0.112   7.005   2.727  1.00  0.00    -0.354 N 
ATOM     43  C   UNL     1       1.822   7.193   6.684  1.00  0.00     0.074 A 
ATOM     44  C   UNL     1       1.634   5.945   7.391  1.00  0.00     0.031 C 
ATOM     45  C   UNL     1      -1.019   6.091   1.030  1.00  0.00     0.029 A 
ATOM     46  C   UNL     1      -0.391   7.331   1.490  1.00  0.00     0.049 A 
ATOM     47  H   UNL     1       0.665   7.619   3.263  1.00  0.00     0.167 HD
ATOM     48  C   UNL     1       2.464   8.267   7.199  1.00  0.00     0.034 A 
ATOM     49  C   UNL     1      -0.379   8.504   0.824  1.00  0.00     0.034 A 
ATOM     50  C   UNL     1       2.661   9.504   6.496  1.00  0.00     0.049 A 
ATOM     51  C   UNL     1       0.303   9.701   1.438  1.00  0.00     0.074 A 
ATOM     52  C   UNL     1       3.337  10.634   6.920  1.00  0.00     0.029 A 
ATOM     53  N   UNL     1       2.165   9.785   5.233  1.00  0.00    -0.354 N 
ATOM     54  N   UNL     1       0.942   9.796   2.579  1.00  0.00    -0.248 NA
ATOM     55  C   UNL     1       0.288  10.949   0.658  1.00  0.00     0.031 C 
ATOM     56  C   UNL     1       3.215  11.613   5.929  1.00  0.00     0.029 A 
ATOM     57  C   UNL     1       2.505  11.076   4.868  1.00  0.00     0.049 A 
ATOM     58  H   UNL     1       1.647   9.158   4.677  1.00  0.00     0.167 HD
ATOM     59  C   UNL     1       1.438  11.096   2.634  1.00  0.00     0.074 A 
ATOM     60  C   UNL     1       1.041  11.746   1.404  1.00  0.00     0.031 C 
ATOM     61  C   UNL     1       2.150  11.699   3.619  1.00  0.00     0.034 A 
BRANCH  48  62
ATOM     62  C   UNL     1       3.006   8.148   8.599  1.00  0.00     0.023 A 
ATOM     63  C   UNL     1       4.124   7.329   8.855  1.00  0.00     0.012 A 
ATOM     64  C   UNL     1       2.433   8.887   9.653  1.00  0.00     0.148 A 
ATOM     65  C   UNL     1       4.643   7.220  10.144  1.00  0.00     0.002 A 
ATOM     66  C   UNL     1       2.987   8.811  10.925  1.00  0.00     0.091 A 
ATOM     67  F   UNL     1       1.356   9.641   9.393  1.00  0.00    -0.205 F 
ATOM     68  C   UNL     1       4.082   7.969  11.175  1.00  0.00     0.022 A 
BRANCH  66  69
ATOM     69  S   UNL     1       2.388   9.797  12.301  1.00  0.00     0.127 S 
ATOM     70  O   UNL     1       1.795   8.774  13.160  1.00  0.00    -0.237 OA
ATOM     71  O   UNL     1       3.625  10.385  12.816  1.00  0.00    -0.237 OA
ATOM     72  O   UNL     1       1.450  10.754  11.733  1.00  0.00    -0.744 OA
ENDBRANCH  66  69
ENDBRANCH  48  62
BRANCH  49  73
ATOM     73  C   UNL     1      -1.031   8.613  -0.513  1.00  0.00     0.023 A 
ATOM     74  C   UNL     1      -0.240   8.823  -1.660  1.00  0.00     0.012 A 
ATOM     75  C   UNL     1      -2.429   8.520  -0.651  1.00  0.00     0.148 A 
ATOM     76  C   UNL     1      -0.833   8.973  -2.915  1.00  0.00     0.002 A 
ATOM     77  C   UNL     1      -3.009   8.614  -1.911  1.00  0.00     0.091 A 
ATOM     78  F   UNL     1      -3.164   8.339   0.455  1.00  0.00    -0.205 F 
ATOM     79  C   UNL     1      -2.215   8.858  -3.042  1.00  0.00     0.022 A 
BRANCH  77  80
ATOM     80  S   UNL     1      -4.766   8.364  -2.185  1.00  0.00     0.127 S 
ATOM     81  O   UNL     1      -5.197   9.698  -2.595  1.00  0.00    -0.237 OA
ATOM     82  O   UNL     1      -4.762   7.362  -3.251  1.00  0.00    -0.237 OA
ATOM     83  O   UNL     1      -5.300   7.891  -0.915  1.00  0.00    -0.744 OA
ENDBRANCH  77  80
ENDBRANCH  49  73
BRANCH  61  84
ATOM     84  C   UNL     1       2.601  13.122   3.396  1.00  0.00     0.023 A 
ATOM     85  C   UNL     1       1.665  14.175   3.416  1.00  0.00     0.012 A 
ATOM     86  C   UNL     1       3.971  13.420   3.245  1.00  0.00     0.148 A 
ATOM     87  C   UNL     1       2.081  15.497   3.252  1.00  0.00     0.002 A 
ATOM     88  C   UNL     1       4.383  14.742   3.136  1.00  0.00     0.091 A 
ATOM     89  F   UNL     1       4.846  12.404   3.214  1.00  0.00    -0.205 F 
ATOM     90  C   UNL     1       3.439  15.781   3.124  1.00  0.00     0.022 A 
BRANCH  88  91
ATOM     91  S   UNL     1       6.116  15.211   3.068  1.00  0.00     0.127 S 
ATOM     92  O   UNL     1       6.245  15.674   1.687  1.00  0.00    -0.237 OA
ATOM     93  O   UNL     1       6.190  16.269   4.076  1.00  0.00    -0.237 OA
ATOM     94  O   UNL     1       6.872  14.009   3.395  1.00  0.00    -0.744 OA
ENDBRANCH  88  91
ENDBRANCH  61  84
ENDBRANCH  35  36
ENDBRANCH  28  30
ENDBRANCH  27  28
ENDBRANCH  26  27
ENDBRANCH  25  26
ENDBRANCH   1  25
TORSDOF 20
