REMARK SMILES Cc1c(CC(=O)OCCOCCOCCOC(=O)c2ccc(-c3c4nc(c(-c5cccc(S(=O)(=O)[O-])c5F)c5ccc([nH]5)c(-c5cccc(S(=O)(=O)[O-])c5F)c5nc(c(-c6cccc(S(=O)(=O)[O-])c6F)c6ccc3[nH]6)C=C5)C=C4)cc2)cc(-c2ccc(S(C)(=O)=O)cc2)n1-c1cccc(F)c1
REMARK SMILES IDX 11 1 10 2 9 3 8 4 7 5 5 6 6 7 4 8 3 9 1 10 2 11 94 12 82 13
REMARK SMILES IDX 83 14 95 15 96 16 101 17 97 18 99 19 98 20 100 21 84 22
REMARK SMILES IDX 85 23 93 24 86 25 92 26 87 27 88 28 89 29 90 30 91 31 12 32
REMARK SMILES IDX 13 33 14 34 15 35 16 36 17 37 18 38 19 39 20 40 81 41 21 42
REMARK SMILES IDX 80 43 22 44 23 45 24 46 74 47 25 48 79 49 73 50 75 51 26 52
REMARK SMILES IDX 78 53 72 54 71 55 27 57 59 58 39 59 58 60 40 61 43 62 57 63
REMARK SMILES IDX 76 64 41 65 42 66 56 68 77 69 44 70 28 71 29 72 37 73 30 74
REMARK SMILES IDX 32 75 38 76 31 77 33 78 34 79 35 80 36 81 60 82 61 83 69 84
REMARK SMILES IDX 62 85 64 86 70 87 63 88 65 89 66 90 67 91 68 92 45 93 46 94
REMARK SMILES IDX 54 95 47 96 49 97 55 98 48 99 50 100 51 101 52 102 53 103
REMARK H PARENT 75 56 43 67
REMARK Flexibility Score: inf
ROOT
ATOM      1  C   UNL     1       0.085  -2.121  -1.971  1.00  0.00     0.188 C 
ENDROOT
BRANCH   1   2
ATOM      2  O   UNL     1      -0.503  -2.386  -3.241  1.00  0.00    -0.376 OA
BRANCH   2   3
ATOM      3  C   UNL     1      -0.771  -1.302  -4.119  1.00  0.00     0.202 C 
BRANCH   3   4
ATOM      4  C   UNL     1      -1.899  -0.355  -3.705  1.00  0.00     0.261 C 
BRANCH   4   5
ATOM      5  O   UNL     1      -1.602   0.345  -2.482  1.00  0.00    -0.463 OA
BRANCH   5   6
ATOM      6  C   UNL     1      -2.625   0.440  -1.595  1.00  0.00     0.310 C 
ATOM      7  O   UNL     1      -3.753  -0.007  -1.796  1.00  0.00    -0.252 OA
BRANCH   6   8
ATOM      8  C   UNL     1      -2.273   1.089  -0.273  1.00  0.00     0.160 C 
BRANCH   8   9
ATOM      9  C   UNL     1      -1.025   1.920  -0.182  1.00  0.00    -0.015 A 
ATOM     10  C   UNL     1       0.551   0.351   1.192  1.00  0.00     0.065 C 
ATOM     11  C   UNL     1       0.185   1.575   0.416  1.00  0.00     0.024 A 
ATOM     12  N   UNL     1       1.057   2.644   0.268  1.00  0.00    -0.313 N 
ATOM     13  C   UNL     1      -0.919   3.304  -0.508  1.00  0.00     0.033 A 
ATOM     14  C   UNL     1       0.327   3.761  -0.111  1.00  0.00     0.053 A 
BRANCH  12  15
ATOM     15  C   UNL     1       2.459   2.601   0.444  1.00  0.00     0.049 A 
ATOM     16  C   UNL     1       3.062   3.275   1.510  1.00  0.00     0.027 A 
ATOM     17  C   UNL     1       3.226   1.954  -0.529  1.00  0.00     0.065 A 
ATOM     18  C   UNL     1       4.456   3.285   1.609  1.00  0.00     0.005 A 
ATOM     19  C   UNL     1       4.610   2.000  -0.428  1.00  0.00     0.125 A 
ATOM     20  C   UNL     1       5.231   2.653   0.633  1.00  0.00     0.039 A 
ATOM     21  F   UNL     1       5.358   1.438  -1.386  1.00  0.00    -0.207 F 
ENDBRANCH  12  15
BRANCH  14  22
ATOM     22  C   UNL     1       0.833   5.133  -0.070  1.00  0.00    -0.001 A 
ATOM     23  C   UNL     1       1.822   5.578  -0.955  1.00  0.00     0.011 A 
ATOM     24  C   UNL     1       0.343   6.007   0.911  1.00  0.00     0.011 A 
ATOM     25  C   UNL     1       2.326   6.879  -0.854  1.00  0.00     0.021 A 
ATOM     26  C   UNL     1       0.844   7.304   1.022  1.00  0.00     0.021 A 
ATOM     27  C   UNL     1       1.840   7.731   0.144  1.00  0.00     0.067 A 
BRANCH  27  28
ATOM     28  S   UNL     1       2.475   9.387   0.247  1.00  0.00     0.175 S 
ATOM     29  C   UNL     1       4.168   9.178   0.732  1.00  0.00     0.163 C 
ATOM     30  O   UNL     1       2.436   9.948  -1.072  1.00  0.00    -0.224 OA
ATOM     31  O   UNL     1       1.790  10.050   1.363  1.00  0.00    -0.224 OA
ENDBRANCH  27  28
ENDBRANCH  14  22
ENDBRANCH   8   9
ENDBRANCH   6   8
ENDBRANCH   5   6
ENDBRANCH   4   5
ENDBRANCH   3   4
ENDBRANCH   2   3
ENDBRANCH   1   2
BRANCH   1  32
ATOM     32  C   UNL     1       1.175  -1.047  -1.839  1.00  0.00     0.188 C 
BRANCH  32  33
ATOM     33  O   UNL     1       2.048  -0.815  -2.933  1.00  0.00    -0.376 OA
BRANCH  33  34
ATOM     34  C   UNL     1       2.869  -1.902  -3.365  1.00  0.00     0.202 C 
BRANCH  34  35
ATOM     35  C   UNL     1       3.995  -2.319  -2.392  1.00  0.00     0.261 C 
BRANCH  35  36
ATOM     36  O   UNL     1       4.028  -3.740  -2.036  1.00  0.00    -0.460 OA
BRANCH  36  37
ATOM     37  C   UNL     1       4.083  -4.020  -0.695  1.00  0.00     0.338 C 
ATOM     38  O   UNL     1       3.748  -3.216   0.168  1.00  0.00    -0.246 OA
BRANCH  37  39
ATOM     39  C   UNL     1       4.468  -5.451  -0.348  1.00  0.00     0.060 A 
ATOM     40  C   UNL     1       3.641  -6.143   0.529  1.00  0.00     0.016 A 
ATOM     41  C   UNL     1       5.694  -6.075  -0.653  1.00  0.00     0.016 A 
ATOM     42  C   UNL     1       4.021  -7.412   1.057  1.00  0.00     0.010 A 
ATOM     43  C   UNL     1       6.110  -7.338  -0.043  1.00  0.00     0.010 A 
ATOM     44  C   UNL     1       5.295  -8.049   0.855  1.00  0.00    -0.014 A 
BRANCH  44  45
ATOM     45  C   UNL     1       5.733  -9.119   1.959  1.00  0.00     0.031 A 
ATOM     46  C   UNL     1       5.269  -8.523   3.249  1.00  0.00     0.074 A 
ATOM     47  C   UNL     1       6.435 -10.313   2.129  1.00  0.00     0.049 A 
ATOM     48  N   UNL     1       5.539  -7.287   3.576  1.00  0.00    -0.248 NA
ATOM     49  C   UNL     1       4.212  -9.134   4.062  1.00  0.00     0.031 C 
ATOM     50  C   UNL     1       7.178 -11.082   1.121  1.00  0.00     0.029 A 
ATOM     51  N   UNL     1       6.650 -11.152   3.276  1.00  0.00    -0.354 N 
ATOM     52  C   UNL     1       5.068  -7.151   4.848  1.00  0.00     0.074 A 
ATOM     53  C   UNL     1       4.023  -8.154   4.951  1.00  0.00     0.031 C 
ATOM     54  C   UNL     1       7.628 -12.272   1.619  1.00  0.00     0.029 A 
ATOM     55  C   UNL     1       7.290 -12.418   3.035  1.00  0.00     0.049 A 
ATOM     56  H   UNL     1       6.374 -10.875   4.179  1.00  0.00     0.167 HD
ATOM     57  C   UNL     1       5.959  -6.743   5.796  1.00  0.00     0.034 A 
ATOM     58  C   UNL     1       7.604 -13.472   3.888  1.00  0.00     0.034 A 
ATOM     59  C   UNL     1       6.146  -7.692   6.855  1.00  0.00     0.049 A 
ATOM     60  C   UNL     1       7.623 -12.936   5.260  1.00  0.00     0.074 A 
ATOM     61  C   UNL     1       5.301  -8.517   7.573  1.00  0.00     0.029 A 
ATOM     62  N   UNL     1       7.413  -8.215   6.991  1.00  0.00    -0.354 N 
ATOM     63  N   UNL     1       8.662 -12.306   5.718  1.00  0.00    -0.248 NA
ATOM     64  C   UNL     1       6.593 -13.234   6.250  1.00  0.00     0.031 C 
ATOM     65  C   UNL     1       5.994  -9.745   7.703  1.00  0.00     0.029 A 
ATOM     66  C   UNL     1       7.314  -9.555   7.320  1.00  0.00     0.049 A 
ATOM     67  H   UNL     1       8.254  -7.716   6.873  1.00  0.00     0.167 HD
ATOM     68  C   UNL     1       8.210 -11.722   6.861  1.00  0.00     0.074 A 
ATOM     69  C   UNL     1       7.071 -12.518   7.271  1.00  0.00     0.031 C 
ATOM     70  C   UNL     1       8.445 -10.396   7.004  1.00  0.00     0.034 A 
BRANCH  57  71
ATOM     71  C   UNL     1       7.004  -5.762   5.317  1.00  0.00     0.023 A 
ATOM     72  C   UNL     1       6.913  -4.439   5.776  1.00  0.00     0.012 A 
ATOM     73  C   UNL     1       7.936  -6.069   4.293  1.00  0.00     0.148 A 
ATOM     74  C   UNL     1       7.677  -3.430   5.181  1.00  0.00     0.002 A 
ATOM     75  C   UNL     1       8.602  -5.046   3.629  1.00  0.00     0.091 A 
ATOM     76  F   UNL     1       8.147  -7.355   3.972  1.00  0.00    -0.205 F 
ATOM     77  C   UNL     1       8.485  -3.725   4.083  1.00  0.00     0.022 A 
BRANCH  75  78
ATOM     78  S   UNL     1       9.425  -5.315   2.046  1.00  0.00     0.127 S 
ATOM     79  O   UNL     1       8.957  -4.175   1.250  1.00  0.00    -0.237 OA
ATOM     80  O   UNL     1      10.839  -5.257   2.401  1.00  0.00    -0.237 OA
ATOM     81  O   UNL     1       8.951  -6.602   1.550  1.00  0.00    -0.744 OA
ENDBRANCH  75  78
ENDBRANCH  57  71
BRANCH  58  82
ATOM     82  C   UNL     1       8.153 -14.932   3.948  1.00  0.00     0.023 A 
ATOM     83  C   UNL     1       9.095 -15.245   4.992  1.00  0.00     0.012 A 
ATOM     84  C   UNL     1       7.522 -16.055   3.370  1.00  0.00     0.148 A 
ATOM     85  C   UNL     1       9.296 -16.533   5.518  1.00  0.00     0.002 A 
ATOM     86  C   UNL     1       7.765 -17.363   3.872  1.00  0.00     0.091 A 
ATOM     87  F   UNL     1       6.611 -15.848   2.411  1.00  0.00    -0.205 F 
ATOM     88  C   UNL     1       8.618 -17.596   4.963  1.00  0.00     0.022 A 
BRANCH  86  89
ATOM     89  S   UNL     1       6.964 -18.849   3.225  1.00  0.00     0.127 S 
ATOM     90  O   UNL     1       8.043 -19.839   3.263  1.00  0.00    -0.237 OA
ATOM     91  O   UNL     1       5.905 -19.074   4.206  1.00  0.00    -0.237 OA
ATOM     92  O   UNL     1       6.526 -18.491   1.883  1.00  0.00    -0.744 OA
ENDBRANCH  86  89
ENDBRANCH  58  82
BRANCH  70  93
ATOM     93  C   UNL     1       9.778  -9.856   6.513  1.00  0.00     0.023 A 
ATOM     94  C   UNL     1      10.355 -10.139   5.253  1.00  0.00     0.012 A 
ATOM     95  C   UNL     1      10.486  -9.000   7.371  1.00  0.00     0.148 A 
ATOM     96  C   UNL     1      11.605  -9.630   4.886  1.00  0.00     0.002 A 
ATOM     97  C   UNL     1      11.700  -8.441   6.980  1.00  0.00     0.091 A 
ATOM     98  F   UNL     1       9.960  -8.741   8.578  1.00  0.00    -0.205 F 
ATOM     99  C   UNL     1      12.273  -8.764   5.744  1.00  0.00     0.022 A 
BRANCH  97 100
ATOM    100  S   UNL     1      12.526  -7.253   8.037  1.00  0.00     0.127 S 
ATOM    101  O   UNL     1      13.439  -8.104   8.797  1.00  0.00    -0.237 OA
ATOM    102  O   UNL     1      13.178  -6.351   7.090  1.00  0.00    -0.237 OA
ATOM    103  O   UNL     1      11.455  -6.630   8.811  1.00  0.00    -0.744 OA
ENDBRANCH  97 100
ENDBRANCH  70  93
ENDBRANCH  44  45
ENDBRANCH  37  39
ENDBRANCH  36  37
ENDBRANCH  35  36
ENDBRANCH  34  35
ENDBRANCH  33  34
ENDBRANCH  32  33
ENDBRANCH   1  32
TORSDOF 24
