REMARK SMILES Cc1nc(SCc2cccc(Cl)c2)[nH]c(=O)c1CC(=O)OCCOCCOCCOC(=O)c1ccc(-c2c3nc(c(-c4cccc(S(=O)(=O)[O-])c4F)c4ccc([nH]4)c(-c4cccc(S(=O)(=O)[O-])c4F)c4nc(c(-c5cccc(S(=O)(=O)[O-])c5F)c5ccc2[nH]5)C=C4)C=C3)cc1
REMARK SMILES IDX 25 1 24 2 23 3 22 4 21 5 19 6 20 7 18 8 17 9 1 10 2 11 3 12
REMARK SMILES IDX 4 13 15 14 14 15 16 16 5 18 6 19 7 20 8 21 13 22 9 23 11 24
REMARK SMILES IDX 10 25 12 26 26 27 27 28 28 29 29 30 30 31 31 32 32 33 33 34
REMARK SMILES IDX 34 35 95 36 35 37 94 38 36 39 37 40 38 41 88 42 39 43 93 44
REMARK SMILES IDX 87 45 89 46 40 47 92 48 86 49 85 50 41 52 73 53 53 54 72 55
REMARK SMILES IDX 54 56 57 57 71 58 90 59 55 60 56 61 70 63 91 64 58 65 42 66
REMARK SMILES IDX 43 67 51 68 44 69 46 70 52 71 45 72 47 73 48 74 49 75 50 76
REMARK SMILES IDX 74 77 75 78 83 79 76 80 78 81 84 82 77 83 79 84 80 85 81 86
REMARK SMILES IDX 82 87 59 88 60 89 68 90 61 91 63 92 69 93 62 94 64 95 65 96
REMARK SMILES IDX 66 97 67 98
REMARK H PARENT 14 17 89 51 57 62
REMARK Flexibility Score: inf
ROOT
ATOM      1  C   UNL     1       2.892  -2.813  -1.852  1.00  0.00     0.188 C 
ENDROOT
BRANCH   1   2
ATOM      2  O   UNL     1       2.813  -3.698  -2.970  1.00  0.00    -0.376 OA
BRANCH   2   3
ATOM      3  C   UNL     1       1.667  -3.645  -3.810  1.00  0.00     0.202 C 
BRANCH   3   4
ATOM      4  C   UNL     1       0.305  -3.896  -3.148  1.00  0.00     0.261 C 
BRANCH   4   5
ATOM      5  O   UNL     1       0.040  -3.057  -1.998  1.00  0.00    -0.463 OA
BRANCH   5   6
ATOM      6  C   UNL     1      -0.578  -3.657  -0.950  1.00  0.00     0.310 C 
ATOM      7  O   UNL     1      -1.065  -4.783  -1.008  1.00  0.00    -0.252 OA
BRANCH   6   8
ATOM      8  C   UNL     1      -0.524  -2.884   0.374  1.00  0.00     0.166 C 
BRANCH   8   9
ATOM      9  C   UNL     1      -0.635  -1.381   0.418  1.00  0.00     0.050 A 
ATOM     10  C   UNL     1      -3.115  -1.258   0.183  1.00  0.00     0.067 C 
ATOM     11  C   UNL     1      -1.759  -0.640   0.379  1.00  0.00     0.050 A 
ATOM     12  N   UNL     1      -1.779   0.738   0.423  1.00  0.00    -0.229 NA
ATOM     13  C   UNL     1      -0.648   1.353   0.380  1.00  0.00     0.168 A 
ATOM     14  C   UNL     1       0.594  -0.614   0.733  1.00  0.00     0.255 A 
ATOM     15  N   UNL     1       0.543   0.727   0.511  1.00  0.00    -0.301 N 
ATOM     16  O   UNL     1       1.597  -1.169   1.162  1.00  0.00    -0.269 OA
ATOM     17  H   UNL     1       1.378   1.245   0.445  1.00  0.00     0.172 HD
BRANCH  13  18
ATOM     18  S   UNL     1      -0.494   3.059   0.107  1.00  0.00    -0.083 SA
BRANCH  18  19
ATOM     19  C   UNL     1      -2.211   3.570  -0.162  1.00  0.00     0.113 C 
BRANCH  19  20
ATOM     20  C   UNL     1      -2.803   3.341  -1.542  1.00  0.00    -0.036 A 
ATOM     21  C   UNL     1      -3.433   4.396  -2.222  1.00  0.00     0.005 A 
ATOM     22  C   UNL     1      -2.875   2.068  -2.128  1.00  0.00     0.025 A 
ATOM     23  C   UNL     1      -4.117   4.174  -3.425  1.00  0.00     0.002 A 
ATOM     24  C   UNL     1      -3.570   1.842  -3.313  1.00  0.00     0.041 A 
ATOM     25  C   UNL     1      -4.197   2.892  -3.966  1.00  0.00     0.020 A 
ATOM     26  Cl  UNL     1      -3.676   0.241  -3.940  1.00  0.00    -0.084 Cl
ENDBRANCH  19  20
ENDBRANCH  18  19
ENDBRANCH  13  18
ENDBRANCH   8   9
ENDBRANCH   6   8
ENDBRANCH   5   6
ENDBRANCH   4   5
ENDBRANCH   3   4
ENDBRANCH   2   3
ENDBRANCH   1   2
BRANCH   1  27
ATOM     27  C   UNL     1       2.341  -1.386  -2.013  1.00  0.00     0.188 C 
BRANCH  27  28
ATOM     28  O   UNL     1       2.280  -0.972  -3.364  1.00  0.00    -0.376 OA
BRANCH  28  29
ATOM     29  C   UNL     1       3.015   0.180  -3.713  1.00  0.00     0.202 C 
BRANCH  29  30
ATOM     30  C   UNL     1       4.541   0.037  -3.652  1.00  0.00     0.261 C 
BRANCH  30  31
ATOM     31  O   UNL     1       5.096  -0.506  -2.440  1.00  0.00    -0.460 OA
BRANCH  31  32
ATOM     32  C   UNL     1       5.083   0.296  -1.348  1.00  0.00     0.338 C 
ATOM     33  O   UNL     1       4.606   1.410  -1.276  1.00  0.00    -0.246 OA
BRANCH  32  34
ATOM     34  C   UNL     1       5.548  -0.489  -0.179  1.00  0.00     0.060 A 
ATOM     35  C   UNL     1       4.650  -0.687   0.871  1.00  0.00     0.016 A 
ATOM     36  C   UNL     1       6.846  -0.989  -0.085  1.00  0.00     0.016 A 
ATOM     37  C   UNL     1       5.033  -1.370   2.025  1.00  0.00     0.010 A 
ATOM     38  C   UNL     1       7.245  -1.647   1.090  1.00  0.00     0.010 A 
ATOM     39  C   UNL     1       6.349  -1.816   2.164  1.00  0.00    -0.014 A 
BRANCH  39  40
ATOM     40  C   UNL     1       6.824  -2.287   3.493  1.00  0.00     0.031 A 
ATOM     41  C   UNL     1       7.677  -1.364   4.324  1.00  0.00     0.074 A 
ATOM     42  C   UNL     1       6.478  -3.493   3.979  1.00  0.00     0.049 A 
ATOM     43  N   UNL     1       8.258  -1.578   5.475  1.00  0.00    -0.248 NA
ATOM     44  C   UNL     1       7.906  -0.015   3.778  1.00  0.00     0.031 C 
ATOM     45  C   UNL     1       5.621  -4.465   3.303  1.00  0.00     0.029 A 
ATOM     46  N   UNL     1       6.826  -4.113   5.156  1.00  0.00    -0.354 N 
ATOM     47  C   UNL     1       8.958  -0.414   5.770  1.00  0.00     0.074 A 
ATOM     48  C   UNL     1       8.732   0.504   4.674  1.00  0.00     0.031 C 
ATOM     49  C   UNL     1       5.530  -5.570   4.063  1.00  0.00     0.029 A 
ATOM     50  C   UNL     1       6.351  -5.400   5.261  1.00  0.00     0.049 A 
ATOM     51  H   UNL     1       7.363  -3.678   5.857  1.00  0.00     0.167 HD
ATOM     52  C   UNL     1       9.714  -0.127   6.857  1.00  0.00     0.034 A 
ATOM     53  C   UNL     1       6.577  -6.342   6.199  1.00  0.00     0.034 A 
ATOM     54  C   UNL     1       9.912  -1.026   7.962  1.00  0.00     0.049 A 
ATOM     55  C   UNL     1       7.448  -6.010   7.385  1.00  0.00     0.074 A 
ATOM     56  C   UNL     1      10.634  -0.814   9.124  1.00  0.00     0.029 A 
ATOM     57  N   UNL     1       9.394  -2.309   8.043  1.00  0.00    -0.354 N 
ATOM     58  N   UNL     1       8.044  -4.881   7.685  1.00  0.00    -0.248 NA
ATOM     59  C   UNL     1       7.654  -7.076   8.377  1.00  0.00     0.031 C 
ATOM     60  C   UNL     1      10.579  -1.981   9.893  1.00  0.00     0.029 A 
ATOM     61  C   UNL     1       9.789  -2.906   9.229  1.00  0.00     0.049 A 
ATOM     62  H   UNL     1       8.829  -2.734   7.359  1.00  0.00     0.167 HD
ATOM     63  C   UNL     1       8.662  -5.088   8.914  1.00  0.00     0.074 A 
ATOM     64  C   UNL     1       8.349  -6.445   9.314  1.00  0.00     0.031 C 
ATOM     65  C   UNL     1       9.431  -4.239   9.641  1.00  0.00     0.034 A 
BRANCH  52  66
ATOM     66  C   UNL     1      10.383   1.222   6.905  1.00  0.00     0.023 A 
ATOM     67  C   UNL     1       9.615   2.384   7.122  1.00  0.00     0.012 A 
ATOM     68  C   UNL     1      11.783   1.332   6.781  1.00  0.00     0.148 A 
ATOM     69  C   UNL     1      10.224   3.637   7.176  1.00  0.00     0.002 A 
ATOM     70  C   UNL     1      12.387   2.579   6.885  1.00  0.00     0.091 A 
ATOM     71  F   UNL     1      12.494   0.219   6.553  1.00  0.00    -0.205 F 
ATOM     72  C   UNL     1      11.609   3.733   7.069  1.00  0.00     0.022 A 
BRANCH  70  73
ATOM     73  S   UNL     1      14.169   2.798   6.840  1.00  0.00     0.127 S 
ATOM     74  O   UNL     1      14.351   3.477   5.558  1.00  0.00    -0.237 OA
ATOM     75  O   UNL     1      14.404   3.640   8.014  1.00  0.00    -0.237 OA
ATOM     76  O   UNL     1      14.742   1.462   6.925  1.00  0.00    -0.744 OA
ENDBRANCH  70  73
ENDBRANCH  52  66
BRANCH  53  77
ATOM     77  C   UNL     1       5.960  -7.694   6.069  1.00  0.00     0.023 A 
ATOM     78  C   UNL     1       4.972  -8.103   6.986  1.00  0.00     0.012 A 
ATOM     79  C   UNL     1       6.348  -8.576   5.042  1.00  0.00     0.148 A 
ATOM     80  C   UNL     1       4.406  -9.376   6.903  1.00  0.00     0.002 A 
ATOM     81  C   UNL     1       5.740  -9.821   4.929  1.00  0.00     0.091 A 
ATOM     82  F   UNL     1       7.306  -8.178   4.192  1.00  0.00    -0.205 F 
ATOM     83  C   UNL     1       4.782 -10.230   5.869  1.00  0.00     0.022 A 
BRANCH  81  84
ATOM     84  S   UNL     1       6.072 -10.937   3.562  1.00  0.00     0.127 S 
ATOM     85  O   UNL     1       6.776 -12.028   4.231  1.00  0.00    -0.237 OA
ATOM     86  O   UNL     1       4.720 -11.264   3.107  1.00  0.00    -0.237 OA
ATOM     87  O   UNL     1       6.860 -10.169   2.608  1.00  0.00    -0.744 OA
ENDBRANCH  81  84
ENDBRANCH  53  77
BRANCH  65  88
ATOM     88  C   UNL     1       9.952  -4.728  10.969  1.00  0.00     0.023 A 
ATOM     89  C   UNL     1      10.958  -5.714  11.014  1.00  0.00     0.012 A 
ATOM     90  C   UNL     1       9.484  -4.167  12.174  1.00  0.00     0.148 A 
ATOM     91  C   UNL     1      11.456  -6.165  12.236  1.00  0.00     0.002 A 
ATOM     92  C   UNL     1      10.023  -4.582  13.386  1.00  0.00     0.091 A 
ATOM     93  F   UNL     1       8.515  -3.241  12.115  1.00  0.00    -0.205 F 
ATOM     94  C   UNL     1      10.998  -5.592  13.420  1.00  0.00     0.022 A 
BRANCH  92  95
ATOM     95  S   UNL     1       9.564  -3.830  14.952  1.00  0.00     0.127 S 
ATOM     96  O   UNL     1       8.742  -4.877  15.556  1.00  0.00    -0.237 OA
ATOM     97  O   UNL     1      10.864  -3.630  15.593  1.00  0.00    -0.237 OA
ATOM     98  O   UNL     1       8.863  -2.599  14.615  1.00  0.00    -0.744 OA
ENDBRANCH  92  95
ENDBRANCH  65  88
ENDBRANCH  39  40
ENDBRANCH  32  34
ENDBRANCH  31  32
ENDBRANCH  30  31
ENDBRANCH  29  30
ENDBRANCH  28  29
ENDBRANCH  27  28
ENDBRANCH   1  27
TORSDOF 24
