REMARK SMILES COc1ccc([C@H]2CC(c3ccc(S(C)(=O)=O)cc3)=NN2c2ccc(C(=O)OCCOCCOCCOC(=O)c3ccc(-c4c5nc(c(-c6cccc(S(=O)(=O)[O-])c6F)c6ccc([nH]6)c(-c6cccc(S(=O)(=O)[O-])c6F)c6nc(c(-c7cccc(S(=O)(=O)[O-])c7F)c7ccc4[nH]7)C=C6)C=C5)cc3)cc2)cc1
REMARK SMILES IDX 32 1 31 2 30 3 29 4 28 5 26 6 27 7 25 8 22 9 23 10 104 11
REMARK SMILES IDX 24 12 103 13 21 14 7 15 8 16 9 17 20 18 6 19 3 20 4 21
REMARK SMILES IDX 106 22 5 23 105 24 2 25 1 26 10 27 11 28 19 29 12 30 18 31
REMARK SMILES IDX 13 32 14 33 15 34 16 35 17 36 33 37 34 38 35 39 36 40 37 41
REMARK SMILES IDX 38 42 39 43 40 44 41 45 102 46 42 47 101 48 43 49 44 50
REMARK SMILES IDX 45 51 95 52 46 53 100 54 94 55 96 56 47 57 99 58 93 59 92 60
REMARK SMILES IDX 48 62 80 63 60 64 79 65 61 66 64 67 78 68 97 69 62 70 63 71
REMARK SMILES IDX 77 73 98 74 65 75 49 76 50 77 58 78 51 79 53 80 59 81 52 82
REMARK SMILES IDX 54 83 55 84 56 85 57 86 81 87 82 88 90 89 83 90 85 91 91 92
REMARK SMILES IDX 84 93 86 94 87 95 88 96 89 97 66 98 67 99 75 100 68 101
REMARK SMILES IDX 70 102 76 103 69 104 71 105 72 106 73 107 74 108
REMARK H PARENT 96 61 64 72
REMARK Flexibility Score: inf
ROOT
ATOM      1  C   UNL     1       4.777  10.489   0.888  1.00  0.00     0.188 C 
ENDROOT
BRANCH   1   2
ATOM      2  O   UNL     1       4.369  11.540   0.046  1.00  0.00    -0.376 OA
BRANCH   2   3
ATOM      3  C   UNL     1       3.116  11.492  -0.611  1.00  0.00     0.202 C 
BRANCH   3   4
ATOM      4  C   UNL     1       1.933  10.575  -0.240  1.00  0.00     0.261 C 
BRANCH   4   5
ATOM      5  O   UNL     1       2.090   9.673   0.857  1.00  0.00    -0.460 OA
BRANCH   5   6
ATOM      6  C   UNL     1       2.283   8.372   0.526  1.00  0.00     0.338 C 
ATOM      7  O   UNL     1       2.335   7.905  -0.598  1.00  0.00    -0.246 OA
BRANCH   6   8
ATOM      8  C   UNL     1       2.572   7.590   1.747  1.00  0.00     0.060 A 
ATOM      9  C   UNL     1       3.092   5.947   3.966  1.00  0.00     0.060 A 
ATOM     10  C   UNL     1       3.973   5.972   2.877  1.00  0.00     0.029 A 
ATOM     11  C   UNL     1       1.996   6.825   3.960  1.00  0.00     0.029 A 
ATOM     12  C   UNL     1       3.699   6.762   1.757  1.00  0.00     0.018 A 
ATOM     13  C   UNL     1       1.742   7.660   2.867  1.00  0.00     0.018 A 
BRANCH   9  14
ATOM     14  N   UNL     1       3.237   5.002   4.979  1.00  0.00    -0.257 N 
ATOM     15  C   UNL     1       2.221   3.976   5.227  1.00  0.00     0.144 C 
ATOM     16  C   UNL     1       2.910   3.055   6.237  1.00  0.00     0.091 C 
ATOM     17  C   UNL     1       4.261   3.709   6.319  1.00  0.00     0.071 C 
ATOM     18  N   UNL     1       4.428   4.773   5.594  1.00  0.00    -0.176 NA
BRANCH  15  19
ATOM     19  C   UNL     1       1.784   3.246   3.963  1.00  0.00    -0.023 A 
ATOM     20  C   UNL     1       0.919   1.908   1.629  1.00  0.00     0.118 A 
ATOM     21  C   UNL     1       0.039   2.711   2.354  1.00  0.00     0.047 A 
ATOM     22  C   UNL     1       2.245   1.803   2.046  1.00  0.00     0.047 A 
ATOM     23  C   UNL     1       0.462   3.369   3.512  1.00  0.00     0.010 A 
ATOM     24  C   UNL     1       2.675   2.473   3.199  1.00  0.00     0.010 A 
BRANCH  20  25
ATOM     25  O   UNL     1       0.379   1.316   0.521  1.00  0.00    -0.497 OA
ATOM     26  C   UNL     1       1.051   0.159   0.036  1.00  0.00     0.278 C 
ENDBRANCH  20  25
ENDBRANCH  15  19
BRANCH  17  27
ATOM     27  C   UNL     1       5.278   3.180   7.239  1.00  0.00    -0.002 A 
ATOM     28  C   UNL     1       5.794   4.027   8.225  1.00  0.00     0.011 A 
ATOM     29  C   UNL     1       5.678   1.843   7.164  1.00  0.00     0.011 A 
ATOM     30  C   UNL     1       6.707   3.530   9.157  1.00  0.00     0.021 A 
ATOM     31  C   UNL     1       6.612   1.350   8.079  1.00  0.00     0.021 A 
ATOM     32  C   UNL     1       7.122   2.197   9.070  1.00  0.00     0.067 A 
BRANCH  32  33
ATOM     33  S   UNL     1       8.278   1.571  10.270  1.00  0.00     0.175 S 
ATOM     34  C   UNL     1       9.761   2.499   9.972  1.00  0.00     0.163 C 
ATOM     35  O   UNL     1       7.757   1.935  11.574  1.00  0.00    -0.224 OA
ATOM     36  O   UNL     1       8.542   0.183   9.942  1.00  0.00    -0.224 OA
ENDBRANCH  32  33
ENDBRANCH  17  27
ENDBRANCH   9  14
ENDBRANCH   6   8
ENDBRANCH   5   6
ENDBRANCH   4   5
ENDBRANCH   3   4
ENDBRANCH   2   3
ENDBRANCH   1   2
BRANCH   1  37
ATOM     37  C   UNL     1       4.399  10.674   2.374  1.00  0.00     0.188 C 
BRANCH  37  38
ATOM     38  O   UNL     1       3.612  11.784   2.783  1.00  0.00    -0.376 OA
BRANCH  38  39
ATOM     39  C   UNL     1       3.984  13.094   2.378  1.00  0.00     0.202 C 
BRANCH  39  40
ATOM     40  C   UNL     1       5.439  13.594   2.451  1.00  0.00     0.261 C 
BRANCH  40  41
ATOM     41  O   UNL     1       6.455  12.669   2.047  1.00  0.00    -0.460 OA
BRANCH  41  42
ATOM     42  C   UNL     1       7.237  12.190   3.045  1.00  0.00     0.338 C 
ATOM     43  O   UNL     1       7.171  12.463   4.234  1.00  0.00    -0.246 OA
BRANCH  42  44
ATOM     44  C   UNL     1       8.111  11.131   2.510  1.00  0.00     0.060 A 
ATOM     45  C   UNL     1       7.921   9.815   2.954  1.00  0.00     0.016 A 
ATOM     46  C   UNL     1       9.139  11.439   1.618  1.00  0.00     0.016 A 
ATOM     47  C   UNL     1       8.771   8.801   2.516  1.00  0.00     0.010 A 
ATOM     48  C   UNL     1      10.005  10.425   1.200  1.00  0.00     0.010 A 
ATOM     49  C   UNL     1       9.841   9.109   1.668  1.00  0.00    -0.014 A 
BRANCH  49  50
ATOM     50  C   UNL     1      10.880   8.088   1.393  1.00  0.00     0.031 A 
ATOM     51  C   UNL     1      12.165   8.135   2.170  1.00  0.00     0.074 A 
ATOM     52  C   UNL     1      10.693   7.147   0.452  1.00  0.00     0.049 A 
ATOM     53  N   UNL     1      13.225   7.378   2.066  1.00  0.00    -0.248 NA
ATOM     54  C   UNL     1      12.271   9.182   3.200  1.00  0.00     0.031 C 
ATOM     55  C   UNL     1       9.492   7.001  -0.368  1.00  0.00     0.029 A 
ATOM     56  N   UNL     1      11.533   6.158   0.005  1.00  0.00    -0.354 N 
ATOM     57  C   UNL     1      14.139   7.878   2.985  1.00  0.00     0.074 A 
ATOM     58  C   UNL     1      13.509   9.007   3.635  1.00  0.00     0.031 C 
ATOM     59  C   UNL     1       9.688   6.004  -1.248  1.00  0.00     0.029 A 
ATOM     60  C   UNL     1      11.034   5.463  -1.070  1.00  0.00     0.049 A 
ATOM     61  H   UNL     1      12.407   5.966   0.415  1.00  0.00     0.167 HD
ATOM     62  C   UNL     1      15.386   7.434   3.268  1.00  0.00     0.034 A 
ATOM     63  C   UNL     1      11.611   4.519  -1.841  1.00  0.00     0.034 A 
ATOM     64  C   UNL     1      16.005   6.306   2.626  1.00  0.00     0.049 A 
ATOM     65  C   UNL     1      13.007   4.052  -1.521  1.00  0.00     0.074 A 
ATOM     66  C   UNL     1      17.238   5.736   2.890  1.00  0.00     0.029 A 
ATOM     67  N   UNL     1      15.453   5.593   1.572  1.00  0.00    -0.354 N 
ATOM     68  N   UNL     1      13.808   4.441  -0.559  1.00  0.00    -0.248 NA
ATOM     69  C   UNL     1      13.566   2.993  -2.374  1.00  0.00     0.031 C 
ATOM     70  C   UNL     1      17.448   4.704   1.969  1.00  0.00     0.029 A 
ATOM     71  C   UNL     1      16.328   4.603   1.159  1.00  0.00     0.049 A 
ATOM     72  H   UNL     1      14.568   5.766   1.176  1.00  0.00     0.167 HD
ATOM     73  C   UNL     1      14.950   3.654  -0.669  1.00  0.00     0.074 A 
ATOM     74  C   UNL     1      14.729   2.753  -1.781  1.00  0.00     0.031 C 
ATOM     75  C   UNL     1      16.083   3.683   0.077  1.00  0.00     0.034 A 
BRANCH  62  76
ATOM     76  C   UNL     1      16.162   8.173   4.326  1.00  0.00     0.023 A 
ATOM     77  C   UNL     1      15.780   8.072   5.680  1.00  0.00     0.012 A 
ATOM     78  C   UNL     1      17.290   8.944   3.982  1.00  0.00     0.148 A 
ATOM     79  C   UNL     1      16.483   8.760   6.669  1.00  0.00     0.002 A 
ATOM     80  C   UNL     1      18.014   9.587   4.979  1.00  0.00     0.091 A 
ATOM     81  F   UNL     1      17.623   9.049   2.688  1.00  0.00    -0.205 F 
ATOM     82  C   UNL     1      17.604   9.508   6.320  1.00  0.00     0.022 A 
BRANCH  80  83
ATOM     83  S   UNL     1      19.518  10.507   4.638  1.00  0.00     0.127 S 
ATOM     84  O   UNL     1      19.068  11.886   4.820  1.00  0.00    -0.237 OA
ATOM     85  O   UNL     1      20.420  10.017   5.681  1.00  0.00    -0.237 OA
ATOM     86  O   UNL     1      19.909  10.147   3.282  1.00  0.00    -0.744 OA
ENDBRANCH  80  83
ENDBRANCH  62  76
BRANCH  63  87
ATOM     87  C   UNL     1      10.851   3.938  -2.983  1.00  0.00     0.023 A 
ATOM     88  C   UNL     1      10.399   2.606  -2.915  1.00  0.00     0.012 A 
ATOM     89  C   UNL     1      10.546   4.712  -4.120  1.00  0.00     0.148 A 
ATOM     90  C   UNL     1       9.674   2.048  -3.968  1.00  0.00     0.002 A 
ATOM     91  C   UNL     1       9.778   4.167  -5.142  1.00  0.00     0.091 A 
ATOM     92  F   UNL     1      11.000   5.972  -4.170  1.00  0.00    -0.205 F 
ATOM     93  C   UNL     1       9.354   2.831  -5.075  1.00  0.00     0.022 A 
BRANCH  91  94
ATOM     94  S   UNL     1       9.214   5.131  -6.548  1.00  0.00     0.127 S 
ATOM     95  O   UNL     1       9.920   4.487  -7.654  1.00  0.00    -0.237 OA
ATOM     96  O   UNL     1       7.772   4.890  -6.515  1.00  0.00    -0.237 OA
ATOM     97  O   UNL     1       9.605   6.506  -6.269  1.00  0.00    -0.744 OA
ENDBRANCH  91  94
ENDBRANCH  63  87
BRANCH  75  98
ATOM     98  C   UNL     1      17.169   2.688  -0.252  1.00  0.00     0.023 A 
ATOM     99  C   UNL     1      17.933   2.839  -1.426  1.00  0.00     0.012 A 
ATOM    100  C   UNL     1      17.483   1.647   0.645  1.00  0.00     0.148 A 
ATOM    101  C   UNL     1      18.969   1.952  -1.718  1.00  0.00     0.002 A 
ATOM    102  C   UNL     1      18.550   0.799   0.374  1.00  0.00     0.091 A 
ATOM    103  F   UNL     1      16.735   1.508   1.750  1.00  0.00    -0.205 F 
ATOM    104  C   UNL     1      19.285   0.941  -0.813  1.00  0.00     0.022 A 
BRANCH 102 105
ATOM    105  S   UNL     1      19.092  -0.468   1.527  1.00  0.00     0.127 S 
ATOM    106  O   UNL     1      18.679  -1.692   0.841  1.00  0.00    -0.237 OA
ATOM    107  O   UNL     1      20.538  -0.251   1.569  1.00  0.00    -0.237 OA
ATOM    108  O   UNL     1      18.402  -0.193   2.781  1.00  0.00    -0.744 OA
ENDBRANCH 102 105
ENDBRANCH  75  98
ENDBRANCH  49  50
ENDBRANCH  42  44
ENDBRANCH  41  42
ENDBRANCH  40  41
ENDBRANCH  39  40
ENDBRANCH  38  39
ENDBRANCH  37  38
ENDBRANCH   1  37
TORSDOF 25
