REMARK SMILES COc1cccc(-c2nn(-c3cc4c(cc3C(N)=O)OCO4)cc2C(=O)OCCOCCOCCOC(=O)c2ccc(-c3c4nc(c(-c5cccc(S(=O)(=O)[O-])c5F)c5ccc([nH]5)c(-c5cccc(S(=O)(=O)[O-])c5F)c5nc(c(-c6cccc(S(=O)(=O)[O-])c6F)c6ccc3[nH]6)C=C5)C=C4)cc2)c1
REMARK SMILES IDX 32 1 31 2 30 3 29 4 28 5 27 6 25 7 26 8 24 9 8 10 9 11 10 12
REMARK SMILES IDX 23 13 7 14 3 15 4 16 102 17 5 18 6 19 2 20 1 21 11 22 12 23
REMARK SMILES IDX 16 24 13 25 15 26 14 27 22 28 20 29 21 30 17 31 18 32 19 33
REMARK SMILES IDX 33 36 34 37 35 38 36 39 37 40 38 41 39 42 40 43 101 44 41 45
REMARK SMILES IDX 100 46 42 47 43 48 44 49 94 50 45 51 99 52 93 53 95 54 46 55
REMARK SMILES IDX 98 56 92 57 91 58 47 60 79 61 59 62 78 63 60 64 63 65 77 66
REMARK SMILES IDX 96 67 61 68 62 69 76 71 97 72 64 73 48 74 49 75 57 76 50 77
REMARK SMILES IDX 52 78 58 79 51 80 53 81 54 82 55 83 56 84 80 85 81 86 89 87
REMARK SMILES IDX 82 88 84 89 90 90 83 91 85 92 86 93 87 94 88 95 65 96 66 97
REMARK SMILES IDX 74 98 67 99 69 100 75 101 68 102 70 103 71 104 72 105 73 106
REMARK H PARENT 18 34 18 35 95 59 63 70
REMARK Flexibility Score: inf
ROOT
ATOM      1  C   UNL     1       3.424  -5.126   5.754  1.00  0.00     0.188 C 
ENDROOT
BRANCH   1   2
ATOM      2  C   UNL     1       2.106  -5.508   5.046  1.00  0.00     0.188 C 
BRANCH   2   3
ATOM      3  O   UNL     1       1.909  -6.896   4.933  1.00  0.00    -0.376 OA
BRANCH   3   4
ATOM      4  C   UNL     1       2.203  -7.547   3.712  1.00  0.00     0.202 C 
BRANCH   4   5
ATOM      5  C   UNL     1       3.321  -7.115   2.737  1.00  0.00     0.261 C 
BRANCH   5   6
ATOM      6  O   UNL     1       4.077  -5.944   3.044  1.00  0.00    -0.460 OA
BRANCH   6   7
ATOM      7  C   UNL     1       3.721  -4.788   2.404  1.00  0.00     0.342 C 
ATOM      8  O   UNL     1       2.814  -4.698   1.595  1.00  0.00    -0.246 OA
BRANCH   7   9
ATOM      9  C   UNL     1       4.498  -3.657   2.871  1.00  0.00     0.106 A 
ATOM     10  C   UNL     1       4.091  -2.321   3.148  1.00  0.00     0.107 A 
ATOM     11  N   UNL     1       5.140  -1.556   3.510  1.00  0.00    -0.167 NA
ATOM     12  N   UNL     1       6.208  -2.366   3.308  1.00  0.00    -0.239 N 
ATOM     13  C   UNL     1       5.824  -3.680   3.247  1.00  0.00     0.131 A 
BRANCH  10  14
ATOM     14  C   UNL     1       2.727  -1.808   3.163  1.00  0.00     0.007 A 
ATOM     15  C   UNL     1       0.883  -0.714   2.036  1.00  0.00     0.119 A 
ATOM     16  C   UNL     1       0.069  -0.967   3.145  1.00  0.00     0.046 A 
ATOM     17  C   UNL     1       2.212  -1.145   2.043  1.00  0.00     0.056 A 
ATOM     18  C   UNL     1       0.578  -1.619   4.267  1.00  0.00     0.005 A 
ATOM     19  C   UNL     1       1.912  -2.018   4.284  1.00  0.00     0.011 A 
BRANCH  15  20
ATOM     20  O   UNL     1       0.269  -0.020   1.031  1.00  0.00    -0.497 OA
ATOM     21  C   UNL     1       0.940   0.028  -0.219  1.00  0.00     0.278 C 
ENDBRANCH  15  20
ENDBRANCH  10  14
BRANCH  12  22
ATOM     22  C   UNL     1       7.532  -1.868   3.216  1.00  0.00     0.081 A 
ATOM     23  C   UNL     1       7.874  -0.747   4.001  1.00  0.00     0.079 A 
ATOM     24  C   UNL     1       8.496  -2.477   2.355  1.00  0.00     0.069 A 
ATOM     25  C   UNL     1       9.181  -0.313   3.957  1.00  0.00     0.167 A 
ATOM     26  C   UNL     1       9.838  -2.074   2.449  1.00  0.00     0.066 A 
ATOM     27  C   UNL     1      10.136  -0.981   3.229  1.00  0.00     0.166 A 
ATOM     28  O   UNL     1       9.694   0.786   4.574  1.00  0.00    -0.454 OA
ATOM     29  O   UNL     1      11.361  -0.390   3.302  1.00  0.00    -0.454 OA
ATOM     30  C   UNL     1      11.009   0.833   3.981  1.00  0.00     0.468 C 
BRANCH  24  31
ATOM     31  C   UNL     1       8.090  -3.319   1.168  1.00  0.00     0.251 C 
ATOM     32  N   UNL     1       9.049  -3.747   0.292  1.00  0.00    -0.366 N 
ATOM     33  O   UNL     1       6.932  -3.571   0.868  1.00  0.00    -0.269 OA
ATOM     34  H   UNL     1       9.999  -3.574   0.480  1.00  0.00     0.159 HD
ATOM     35  H   UNL     1       8.788  -4.228  -0.526  1.00  0.00     0.159 HD
ENDBRANCH  24  31
ENDBRANCH  12  22
ENDBRANCH   7   9
ENDBRANCH   6   7
ENDBRANCH   5   6
ENDBRANCH   4   5
ENDBRANCH   3   4
ENDBRANCH   2   3
ENDBRANCH   1   2
BRANCH   1  36
ATOM     36  O   UNL     1       4.419  -6.091   6.076  1.00  0.00    -0.376 OA
BRANCH  36  37
ATOM     37  C   UNL     1       4.084  -7.356   6.628  1.00  0.00     0.202 C 
BRANCH  37  38
ATOM     38  C   UNL     1       3.130  -7.487   7.811  1.00  0.00     0.261 C 
BRANCH  38  39
ATOM     39  O   UNL     1       2.113  -6.513   7.842  1.00  0.00    -0.460 OA
BRANCH  39  40
ATOM     40  C   UNL     1       2.426  -5.409   8.542  1.00  0.00     0.338 C 
ATOM     41  O   UNL     1       3.521  -5.101   9.003  1.00  0.00    -0.246 OA
BRANCH  40  42
ATOM     42  C   UNL     1       1.200  -4.639   8.739  1.00  0.00     0.060 A 
ATOM     43  C   UNL     1       1.334  -3.430   9.422  1.00  0.00     0.016 A 
ATOM     44  C   UNL     1      -0.023  -5.317   8.623  1.00  0.00     0.016 A 
ATOM     45  C   UNL     1       0.317  -3.071  10.268  1.00  0.00     0.010 A 
ATOM     46  C   UNL     1      -1.014  -4.986   9.500  1.00  0.00     0.010 A 
ATOM     47  C   UNL     1      -0.776  -3.934  10.379  1.00  0.00    -0.014 A 
BRANCH  47  48
ATOM     48  C   UNL     1      -1.731  -3.687  11.426  1.00  0.00     0.031 A 
ATOM     49  C   UNL     1      -2.708  -2.658  11.034  1.00  0.00     0.074 A 
ATOM     50  C   UNL     1      -1.738  -4.415  12.557  1.00  0.00     0.049 A 
ATOM     51  N   UNL     1      -2.753  -1.433  11.439  1.00  0.00    -0.248 NA
ATOM     52  C   UNL     1      -3.568  -2.945   9.875  1.00  0.00     0.031 C 
ATOM     53  C   UNL     1      -0.980  -5.636  12.852  1.00  0.00     0.029 A 
ATOM     54  N   UNL     1      -2.550  -4.291  13.636  1.00  0.00    -0.354 N 
ATOM     55  C   UNL     1      -3.846  -0.891  10.774  1.00  0.00     0.074 A 
ATOM     56  C   UNL     1      -4.095  -1.743   9.645  1.00  0.00     0.031 C 
ATOM     57  C   UNL     1      -1.557  -6.268  13.901  1.00  0.00     0.029 A 
ATOM     58  C   UNL     1      -2.636  -5.440  14.414  1.00  0.00     0.049 A 
ATOM     59  H   UNL     1      -3.035  -3.461  13.850  1.00  0.00     0.167 HD
ATOM     60  C   UNL     1      -4.671  -0.015  11.405  1.00  0.00     0.034 A 
ATOM     61  C   UNL     1      -3.602  -5.712  15.328  1.00  0.00     0.034 A 
ATOM     62  C   UNL     1      -4.040   0.534  12.582  1.00  0.00     0.049 A 
ATOM     63  C   UNL     1      -4.255  -4.425  15.671  1.00  0.00     0.074 A 
ATOM     64  C   UNL     1      -2.874   1.231  12.831  1.00  0.00     0.029 A 
ATOM     65  N   UNL     1      -4.447   0.023  13.791  1.00  0.00    -0.354 N 
ATOM     66  N   UNL     1      -3.656  -3.462  16.313  1.00  0.00    -0.248 NA
ATOM     67  C   UNL     1      -5.426  -4.029  14.903  1.00  0.00     0.031 C 
ATOM     68  C   UNL     1      -2.405   0.735  14.082  1.00  0.00     0.029 A 
ATOM     69  C   UNL     1      -3.337  -0.187  14.564  1.00  0.00     0.049 A 
ATOM     70  H   UNL     1      -5.377  -0.162  14.056  1.00  0.00     0.167 HD
ATOM     71  C   UNL     1      -4.069  -2.306  15.662  1.00  0.00     0.074 A 
ATOM     72  C   UNL     1      -5.242  -2.705  14.886  1.00  0.00     0.031 C 
ATOM     73  C   UNL     1      -3.245  -1.221  15.572  1.00  0.00     0.034 A 
BRANCH  60  74
ATOM     74  C   UNL     1      -6.174   0.016  11.226  1.00  0.00     0.023 A 
ATOM     75  C   UNL     1      -6.865   1.056  11.882  1.00  0.00     0.012 A 
ATOM     76  C   UNL     1      -6.960  -1.042  10.706  1.00  0.00     0.148 A 
ATOM     77  C   UNL     1      -8.249   1.011  12.074  1.00  0.00     0.002 A 
ATOM     78  C   UNL     1      -8.343  -1.043  10.827  1.00  0.00     0.091 A 
ATOM     79  F   UNL     1      -6.387  -2.136  10.204  1.00  0.00    -0.205 F 
ATOM     80  C   UNL     1      -8.991  -0.037  11.543  1.00  0.00     0.022 A 
BRANCH  78  81
ATOM     81  S   UNL     1      -9.348  -2.356  10.119  1.00  0.00     0.127 S 
ATOM     82  O   UNL     1      -9.764  -3.081  11.315  1.00  0.00    -0.237 OA
ATOM     83  O   UNL     1     -10.405  -1.595   9.453  1.00  0.00    -0.237 OA
ATOM     84  O   UNL     1      -8.470  -3.078   9.206  1.00  0.00    -0.744 OA
ENDBRANCH  78  81
ENDBRANCH  60  74
BRANCH  61  85
ATOM     85  C   UNL     1      -4.209  -7.011  15.704  1.00  0.00     0.023 A 
ATOM     86  C   UNL     1      -4.928  -7.117  16.913  1.00  0.00     0.012 A 
ATOM     87  C   UNL     1      -4.334  -8.056  14.763  1.00  0.00     0.148 A 
ATOM     88  C   UNL     1      -5.769  -8.211  17.159  1.00  0.00     0.002 A 
ATOM     89  C   UNL     1      -5.164  -9.145  15.015  1.00  0.00     0.091 A 
ATOM     90  F   UNL     1      -3.716  -7.938  13.580  1.00  0.00    -0.205 F 
ATOM     91  C   UNL     1      -5.893  -9.219  16.208  1.00  0.00     0.022 A 
BRANCH  89  92
ATOM     92  S   UNL     1      -5.396 -10.469  13.822  1.00  0.00     0.127 S 
ATOM     93  O   UNL     1      -5.193 -11.660  14.648  1.00  0.00    -0.237 OA
ATOM     94  O   UNL     1      -6.774 -10.250  13.392  1.00  0.00    -0.237 OA
ATOM     95  O   UNL     1      -4.376 -10.269  12.800  1.00  0.00    -0.744 OA
ENDBRANCH  89  92
ENDBRANCH  61  85
BRANCH  73  96
ATOM     96  C   UNL     1      -2.003  -1.206  16.428  1.00  0.00     0.023 A 
ATOM     97  C   UNL     1      -0.955  -2.138  16.269  1.00  0.00     0.012 A 
ATOM     98  C   UNL     1      -1.820  -0.121  17.300  1.00  0.00     0.148 A 
ATOM     99  C   UNL     1       0.239  -2.000  16.983  1.00  0.00     0.002 A 
ATOM    100  C   UNL     1      -0.615   0.040  17.971  1.00  0.00     0.091 A 
ATOM    101  F   UNL     1      -2.825   0.757  17.437  1.00  0.00    -0.205 F 
ATOM    102  C   UNL     1       0.414  -0.903  17.824  1.00  0.00     0.022 A 
BRANCH 100 103
ATOM    103  S   UNL     1      -0.290   1.498  18.963  1.00  0.00     0.127 S 
ATOM    104  O   UNL     1      -0.433   0.980  20.322  1.00  0.00    -0.237 OA
ATOM    105  O   UNL     1       1.081   1.841  18.580  1.00  0.00    -0.237 OA
ATOM    106  O   UNL     1      -1.282   2.486  18.558  1.00  0.00    -0.744 OA
ENDBRANCH 100 103
ENDBRANCH  73  96
ENDBRANCH  47  48
ENDBRANCH  40  42
ENDBRANCH  39  40
ENDBRANCH  38  39
ENDBRANCH  37  38
ENDBRANCH  36  37
ENDBRANCH   1  36
TORSDOF 24
