REMARK SMILES COc1ccccc1[C@@H]1CN(C(=O)Cc2csc(C)n2)C[C@H]1C(=O)OCCOCCOCCOC(=O)c1ccc(-c2c3nc(c(-c4cccc(S(=O)(=O)[O-])c4F)c4ccc([nH]4)c(-c4cccc(S(=O)(=O)[O-])c4F)c4nc(c(-c5cccc(S(=O)(=O)[O-])c5F)c5ccc2[nH]5)C=C4)C=C3)cc1
REMARK SMILES IDX 29 1 28 2 27 3 26 4 25 5 23 6 24 7 22 8 9 9 10 10 11 11
REMARK SMILES IDX 21 12 8 13 3 14 4 15 5 16 7 17 6 18 2 19 1 20 12 21 13 22
REMARK SMILES IDX 14 23 15 24 16 25 20 26 17 27 18 28 19 29 30 30 31 31 32 32
REMARK SMILES IDX 33 33 34 34 35 35 36 36 37 37 38 38 99 39 39 40 98 41 40 42
REMARK SMILES IDX 41 43 42 44 92 45 43 46 97 47 91 48 93 49 44 50 96 51 90 52
REMARK SMILES IDX 89 53 45 55 77 56 57 57 76 58 58 59 61 60 75 61 94 62 59 63
REMARK SMILES IDX 60 64 74 66 95 67 62 68 46 69 47 70 55 71 48 72 50 73 56 74
REMARK SMILES IDX 49 75 51 76 52 77 53 78 54 79 78 80 79 81 87 82 80 83 82 84
REMARK SMILES IDX 88 85 81 86 83 87 84 88 85 89 86 90 63 91 64 92 72 93 65 94
REMARK SMILES IDX 67 95 73 96 66 97 68 98 69 99 70 100 71 101
REMARK H PARENT 93 54 61 65
REMARK Flexibility Score: inf
ROOT
ATOM      1  C   UNL     1       1.917  -2.888  -4.093  1.00  0.00     0.188 C 
ENDROOT
BRANCH   1   2
ATOM      2  O   UNL     1       2.573  -2.582  -5.316  1.00  0.00    -0.376 OA
BRANCH   2   3
ATOM      3  C   UNL     1       3.956  -2.262  -5.301  1.00  0.00     0.202 C 
BRANCH   3   4
ATOM      4  C   UNL     1       4.373  -1.013  -4.519  1.00  0.00     0.261 C 
BRANCH   4   5
ATOM      5  O   UNL     1       4.172  -1.102  -3.087  1.00  0.00    -0.463 OA
BRANCH   5   6
ATOM      6  C   UNL     1       3.387  -0.138  -2.548  1.00  0.00     0.311 C 
ATOM      7  O   UNL     1       2.880   0.772  -3.201  1.00  0.00    -0.252 OA
BRANCH   6   8
ATOM      8  C   UNL     1       3.225  -0.167  -1.040  1.00  0.00     0.128 C 
ATOM      9  C   UNL     1       3.609  -1.382  -0.157  1.00  0.00     0.058 C 
ATOM     10  C   UNL     1       4.227  -0.745   1.096  1.00  0.00     0.129 C 
ATOM     11  N   UNL     1       4.746   0.532   0.672  1.00  0.00    -0.341 N 
ATOM     12  C   UNL     1       4.091   0.990  -0.532  1.00  0.00     0.135 C 
BRANCH   9  13
ATOM     13  C   UNL     1       2.520  -2.339   0.339  1.00  0.00    -0.000 A 
ATOM     14  C   UNL     1       1.313  -1.909   0.926  1.00  0.00     0.122 A 
ATOM     15  C   UNL     1       0.412  -2.821   1.490  1.00  0.00     0.047 A 
ATOM     16  C   UNL     1       0.698  -4.186   1.477  1.00  0.00     0.004 A 
ATOM     17  C   UNL     1       2.793  -3.721   0.359  1.00  0.00     0.008 A 
ATOM     18  C   UNL     1       1.889  -4.636   0.911  1.00  0.00     0.001 A 
BRANCH  14  19
ATOM     19  O   UNL     1       1.107  -0.566   1.103  1.00  0.00    -0.496 OA
ATOM     20  C   UNL     1      -0.049  -0.083   0.420  1.00  0.00     0.278 C 
ENDBRANCH  14  19
ENDBRANCH   9  13
BRANCH  11  21
ATOM     21  C   UNL     1       5.561   1.368   1.405  1.00  0.00     0.228 C 
ATOM     22  O   UNL     1       5.921   2.466   0.973  1.00  0.00    -0.274 OA
BRANCH  21  23
ATOM     23  C   UNL     1       5.995   0.903   2.787  1.00  0.00     0.157 C 
BRANCH  23  24
ATOM     24  C   UNL     1       4.866   1.020   3.758  1.00  0.00     0.061 A 
ATOM     25  C   UNL     1       4.241   2.185   4.161  1.00  0.00     0.091 A 
ATOM     26  N   UNL     1       4.327  -0.141   4.297  1.00  0.00    -0.246 NA
ATOM     27  S   UNL     1       2.916   1.821   5.182  1.00  0.00    -0.127 S 
ATOM     28  C   UNL     1       3.260   0.146   5.013  1.00  0.00     0.090 A 
ATOM     29  C   UNL     1       2.369  -0.864   5.644  1.00  0.00     0.079 C 
ENDBRANCH  23  24
ENDBRANCH  21  23
ENDBRANCH  11  21
ENDBRANCH   6   8
ENDBRANCH   5   6
ENDBRANCH   4   5
ENDBRANCH   3   4
ENDBRANCH   2   3
ENDBRANCH   1   2
BRANCH   1  30
ATOM     30  C   UNL     1       2.691  -3.652  -3.013  1.00  0.00     0.188 C 
BRANCH  30  31
ATOM     31  O   UNL     1       3.738  -4.478  -3.496  1.00  0.00    -0.376 OA
BRANCH  31  32
ATOM     32  C   UNL     1       3.630  -5.848  -3.134  1.00  0.00     0.202 C 
BRANCH  32  33
ATOM     33  C   UNL     1       2.604  -6.575  -4.006  1.00  0.00     0.261 C 
BRANCH  33  34
ATOM     34  O   UNL     1       1.249  -6.139  -3.785  1.00  0.00    -0.460 OA
BRANCH  34  35
ATOM     35  C   UNL     1       0.718  -6.450  -2.585  1.00  0.00     0.338 C 
ATOM     36  O   UNL     1       1.253  -7.088  -1.684  1.00  0.00    -0.246 OA
BRANCH  35  37
ATOM     37  C   UNL     1      -0.573  -5.763  -2.453  1.00  0.00     0.060 A 
ATOM     38  C   UNL     1      -0.652  -4.612  -1.664  1.00  0.00     0.016 A 
ATOM     39  C   UNL     1      -1.717  -6.289  -3.047  1.00  0.00     0.016 A 
ATOM     40  C   UNL     1      -1.880  -4.016  -1.403  1.00  0.00     0.010 A 
ATOM     41  C   UNL     1      -2.950  -5.678  -2.804  1.00  0.00     0.010 A 
ATOM     42  C   UNL     1      -3.043  -4.563  -1.949  1.00  0.00    -0.014 A 
BRANCH  42  43
ATOM     43  C   UNL     1      -4.370  -4.060  -1.521  1.00  0.00     0.031 A 
ATOM     44  C   UNL     1      -5.228  -4.934  -0.652  1.00  0.00     0.074 A 
ATOM     45  C   UNL     1      -4.805  -2.843  -1.894  1.00  0.00     0.049 A 
ATOM     46  N   UNL     1      -6.479  -4.785  -0.308  1.00  0.00    -0.248 NA
ATOM     47  C   UNL     1      -4.589  -6.141  -0.102  1.00  0.00     0.031 C 
ATOM     48  C   UNL     1      -4.046  -1.880  -2.691  1.00  0.00     0.029 A 
ATOM     49  N   UNL     1      -6.012  -2.226  -1.676  1.00  0.00    -0.354 N 
ATOM     50  C   UNL     1      -6.797  -5.908   0.446  1.00  0.00     0.074 A 
ATOM     51  C   UNL     1      -5.604  -6.724   0.517  1.00  0.00     0.031 C 
ATOM     52  C   UNL     1      -4.819  -0.807  -2.927  1.00  0.00     0.029 A 
ATOM     53  C   UNL     1      -6.141  -1.033  -2.346  1.00  0.00     0.049 A 
ATOM     54  H   UNL     1      -6.715  -2.601  -1.098  1.00  0.00     0.167 HD
ATOM     55  C   UNL     1      -7.974  -6.228   1.032  1.00  0.00     0.034 A 
ATOM     56  C   UNL     1      -7.217  -0.239  -2.518  1.00  0.00     0.034 A 
ATOM     57  C   UNL     1      -9.145  -5.395   0.995  1.00  0.00     0.049 A 
ATOM     58  C   UNL     1      -8.525  -0.625  -1.880  1.00  0.00     0.074 A 
ATOM     59  C   UNL     1     -10.382  -5.621   1.570  1.00  0.00     0.029 A 
ATOM     60  N   UNL     1      -9.222  -4.171   0.348  1.00  0.00    -0.354 N 
ATOM     61  N   UNL     1      -8.804  -1.667  -1.134  1.00  0.00    -0.248 NA
ATOM     62  C   UNL     1      -9.662   0.283  -2.091  1.00  0.00     0.031 C 
ATOM     63  C   UNL     1     -11.211  -4.536   1.263  1.00  0.00     0.029 A 
ATOM     64  C   UNL     1     -10.484  -3.627   0.510  1.00  0.00     0.049 A 
ATOM     65  H   UNL     1      -8.486  -3.750  -0.153  1.00  0.00     0.167 HD
ATOM     66  C   UNL     1     -10.140  -1.531  -0.771  1.00  0.00     0.074 A 
ATOM     67  C   UNL     1     -10.606  -0.291  -1.357  1.00  0.00     0.031 C 
ATOM     68  C   UNL     1     -10.917  -2.367  -0.038  1.00  0.00     0.034 A 
BRANCH  55  69
ATOM     69  C   UNL     1      -8.042  -7.534   1.775  1.00  0.00     0.023 A 
ATOM     70  C   UNL     1      -7.408  -7.659   3.027  1.00  0.00     0.012 A 
ATOM     71  C   UNL     1      -8.748  -8.630   1.244  1.00  0.00     0.148 A 
ATOM     72  C   UNL     1      -7.447  -8.867   3.724  1.00  0.00     0.002 A 
ATOM     73  C   UNL     1      -8.817  -9.818   1.963  1.00  0.00     0.091 A 
ATOM     74  F   UNL     1      -9.317  -8.503   0.036  1.00  0.00    -0.205 F 
ATOM     75  C   UNL     1      -8.158  -9.942   3.197  1.00  0.00     0.022 A 
BRANCH  73  76
ATOM     76  S   UNL     1      -9.770 -11.229   1.392  1.00  0.00     0.127 S 
ATOM     77  O   UNL     1      -8.720 -12.103   0.870  1.00  0.00    -0.237 OA
ATOM     78  O   UNL     1     -10.398 -11.702   2.626  1.00  0.00    -0.237 OA
ATOM     79  O   UNL     1     -10.703 -10.703   0.406  1.00  0.00    -0.744 OA
ENDBRANCH  73  76
ENDBRANCH  55  69
BRANCH  56  80
ATOM     80  C   UNL     1      -7.094   0.997  -3.341  1.00  0.00     0.023 A 
ATOM     81  C   UNL     1      -7.154   2.257  -2.719  1.00  0.00     0.012 A 
ATOM     82  C   UNL     1      -6.869   0.924  -4.730  1.00  0.00     0.148 A 
ATOM     83  C   UNL     1      -7.006   3.425  -3.468  1.00  0.00     0.002 A 
ATOM     84  C   UNL     1      -6.663   2.088  -5.460  1.00  0.00     0.091 A 
ATOM     85  F   UNL     1      -6.840  -0.286  -5.306  1.00  0.00    -0.205 F 
ATOM     86  C   UNL     1      -6.746   3.341  -4.834  1.00  0.00     0.022 A 
BRANCH  84  87
ATOM     87  S   UNL     1      -6.184   2.063  -7.191  1.00  0.00     0.127 S 
ATOM     88  O   UNL     1      -7.401   2.537  -7.845  1.00  0.00    -0.237 OA
ATOM     89  O   UNL     1      -5.066   3.007  -7.208  1.00  0.00    -0.237 OA
ATOM     90  O   UNL     1      -5.809   0.684  -7.473  1.00  0.00    -0.744 OA
ENDBRANCH  84  87
ENDBRANCH  56  80
BRANCH  68  91
ATOM     91  C   UNL     1     -12.349  -1.963   0.197  1.00  0.00     0.023 A 
ATOM     92  C   UNL     1     -13.284  -2.077  -0.850  1.00  0.00     0.012 A 
ATOM     93  C   UNL     1     -12.783  -1.550   1.472  1.00  0.00     0.148 A 
ATOM     94  C   UNL     1     -14.626  -1.761  -0.638  1.00  0.00     0.002 A 
ATOM     95  C   UNL     1     -14.129  -1.278   1.687  1.00  0.00     0.091 A 
ATOM     96  F   UNL     1     -11.873  -1.429   2.450  1.00  0.00    -0.205 F 
ATOM     97  C   UNL     1     -15.050  -1.374   0.631  1.00  0.00     0.022 A 
BRANCH  95  98
ATOM     98  S   UNL     1     -14.775  -0.861   3.310  1.00  0.00     0.127 S 
ATOM     99  O   UNL     1     -14.993   0.579   3.183  1.00  0.00    -0.237 OA
ATOM    100  O   UNL     1     -16.000  -1.659   3.376  1.00  0.00    -0.237 OA
ATOM    101  O   UNL     1     -13.747  -1.259   4.262  1.00  0.00    -0.744 OA
ENDBRANCH  95  98
ENDBRANCH  68  91
ENDBRANCH  42  43
ENDBRANCH  35  37
ENDBRANCH  34  35
ENDBRANCH  33  34
ENDBRANCH  32  33
ENDBRANCH  31  32
ENDBRANCH  30  31
ENDBRANCH   1  30
TORSDOF 25
