REMARK SMILES Nc1c(Cl)ccc2c1C=C(C(=O)OCCOCCOCCOC(=O)c1ccc(-c3c4nc(c(-c5cccc(S(=O)(=O)[O-])c5F)c5ccc([nH]5)c(-c5cccc(S(=O)(=O)[O-])c5F)c5nc(c(-c6cccc(S(=O)(=O)[O-])c6F)c6ccc3[nH]6)C=C5)C=C4)cc1)[C@@H](C(F)(F)F)O2
REMARK SMILES IDX 18 1 17 2 16 3 15 4 14 5 13 6 11 7 12 8 10 9 2 10 3 11 8 12
REMARK SMILES IDX 4 13 5 14 7 15 9 16 6 17 93 18 88 19 1 20 89 23 90 24 91 25
REMARK SMILES IDX 92 26 19 27 20 28 21 29 22 30 23 31 24 32 25 33 26 34 87 35
REMARK SMILES IDX 27 36 86 37 28 38 29 39 30 40 80 41 31 42 85 43 79 44 81 45
REMARK SMILES IDX 32 46 84 47 78 48 77 49 33 51 65 52 45 53 64 54 46 55 49 56
REMARK SMILES IDX 63 57 82 58 47 59 48 60 62 62 83 63 50 64 34 65 35 66 43 67
REMARK SMILES IDX 36 68 38 69 44 70 37 71 39 72 40 73 41 74 42 75 66 76 67 77
REMARK SMILES IDX 75 78 68 79 70 80 76 81 69 82 71 83 72 84 73 85 74 86 51 87
REMARK SMILES IDX 52 88 60 89 53 90 55 91 61 92 54 93 56 94 57 95 58 96 59 97
REMARK H PARENT 1 21 1 22 81 50 49 61
REMARK Flexibility Score: inf
ROOT
ATOM      1  C   UNL     1      -4.396  -0.278  -2.254  1.00  0.00     0.188 C 
ENDROOT
BRANCH   1   2
ATOM      2  C   UNL     1      -3.602  -0.160  -3.574  1.00  0.00     0.188 C 
BRANCH   2   3
ATOM      3  O   UNL     1      -4.375  -0.544  -4.693  1.00  0.00    -0.376 OA
BRANCH   3   4
ATOM      4  C   UNL     1      -4.055  -1.751  -5.356  1.00  0.00     0.202 C 
BRANCH   4   5
ATOM      5  C   UNL     1      -4.012  -3.069  -4.565  1.00  0.00     0.261 C 
BRANCH   5   6
ATOM      6  O   UNL     1      -3.567  -2.981  -3.205  1.00  0.00    -0.460 OA
BRANCH   6   7
ATOM      7  C   UNL     1      -2.251  -3.168  -2.966  1.00  0.00     0.338 C 
ATOM      8  O   UNL     1      -1.384  -3.382  -3.796  1.00  0.00    -0.246 OA
BRANCH   7   9
ATOM      9  C   UNL     1      -2.006  -2.973  -1.519  1.00  0.00     0.088 C 
ATOM     10  C   UNL     1       0.359  -1.162   0.709  1.00  0.00     0.061 A 
ATOM     11  C   UNL     1       0.669  -1.181   2.088  1.00  0.00     0.064 A 
ATOM     12  C   UNL     1      -0.704  -1.977   0.253  1.00  0.00     0.042 A 
ATOM     13  Cl  UNL     1       2.027  -0.300   2.705  1.00  0.00    -0.082 Cl
ATOM     14  C   UNL     1      -0.105  -1.898   3.000  1.00  0.00     0.026 A 
ATOM     15  C   UNL     1      -1.500  -2.663   1.185  1.00  0.00     0.130 A 
ATOM     16  C   UNL     1      -0.981  -2.184  -1.169  1.00  0.00     0.029 C 
ATOM     17  C   UNL     1      -1.206  -2.618   2.549  1.00  0.00     0.049 A 
ATOM     18  O   UNL     1      -2.590  -3.420   0.863  1.00  0.00    -0.475 OA
ATOM     19  C   UNL     1      -2.928  -3.633  -0.531  1.00  0.00     0.316 C 
BRANCH  10  20
ATOM     20  N   UNL     1       1.173  -0.446  -0.175  1.00  0.00    -0.397 N 
ATOM     21  H   UNL     1       1.905   0.113   0.172  1.00  0.00     0.156 HD
ATOM     22  H   UNL     1       1.014  -0.501  -1.145  1.00  0.00     0.156 HD
ENDBRANCH  10  20
BRANCH  19  23
ATOM     23  C   UNL     1      -3.048  -5.148  -0.757  1.00  0.00     0.430 C 
ATOM     24  F   UNL     1      -3.864  -5.718   0.166  1.00  0.00    -0.167 F 
ATOM     25  F   UNL     1      -3.577  -5.442  -1.968  1.00  0.00    -0.167 F 
ATOM     26  F   UNL     1      -1.852  -5.772  -0.676  1.00  0.00    -0.167 F 
ENDBRANCH  19  23
ENDBRANCH   7   9
ENDBRANCH   6   7
ENDBRANCH   5   6
ENDBRANCH   4   5
ENDBRANCH   3   4
ENDBRANCH   2   3
ENDBRANCH   1   2
BRANCH   1  27
ATOM     27  O   UNL     1      -5.787  -0.579  -2.300  1.00  0.00    -0.376 OA
BRANCH  27  28
ATOM     28  C   UNL     1      -6.612   0.151  -3.204  1.00  0.00     0.202 C 
BRANCH  28  29
ATOM     29  C   UNL     1      -6.629   1.685  -3.124  1.00  0.00     0.261 C 
BRANCH  29  30
ATOM     30  O   UNL     1      -5.335   2.307  -3.211  1.00  0.00    -0.460 OA
BRANCH  30  31
ATOM     31  C   UNL     1      -4.938   2.981  -2.102  1.00  0.00     0.338 C 
ATOM     32  O   UNL     1      -5.562   3.132  -1.066  1.00  0.00    -0.246 OA
BRANCH  31  33
ATOM     33  C   UNL     1      -3.522   3.370  -2.242  1.00  0.00     0.060 A 
ATOM     34  C   UNL     1      -2.578   2.770  -1.395  1.00  0.00     0.016 A 
ATOM     35  C   UNL     1      -3.138   4.368  -3.138  1.00  0.00     0.016 A 
ATOM     36  C   UNL     1      -1.244   3.172  -1.437  1.00  0.00     0.010 A 
ATOM     37  C   UNL     1      -1.807   4.799  -3.149  1.00  0.00     0.010 A 
ATOM     38  C   UNL     1      -0.864   4.222  -2.280  1.00  0.00    -0.014 A 
BRANCH  38  39
ATOM     39  C   UNL     1       0.465   4.849  -2.102  1.00  0.00     0.031 A 
ATOM     40  C   UNL     1       0.600   5.957  -1.094  1.00  0.00     0.074 A 
ATOM     41  C   UNL     1       1.529   4.450  -2.821  1.00  0.00     0.049 A 
ATOM     42  N   UNL     1       1.650   6.674  -0.795  1.00  0.00    -0.248 NA
ATOM     43  C   UNL     1      -0.605   6.300  -0.317  1.00  0.00     0.031 C 
ATOM     44  C   UNL     1       1.526   3.380  -3.818  1.00  0.00     0.029 A 
ATOM     45  N   UNL     1       2.817   4.925  -2.839  1.00  0.00    -0.354 N 
ATOM     46  C   UNL     1       1.231   7.562   0.187  1.00  0.00     0.074 A 
ATOM     47  C   UNL     1      -0.165   7.293   0.444  1.00  0.00     0.031 C 
ATOM     48  C   UNL     1       2.745   3.309  -4.382  1.00  0.00     0.029 A 
ATOM     49  C   UNL     1       3.607   4.337  -3.798  1.00  0.00     0.049 A 
ATOM     50  H   UNL     1       3.144   5.620  -2.223  1.00  0.00     0.167 HD
ATOM     51  C   UNL     1       1.949   8.512   0.825  1.00  0.00     0.034 A 
ATOM     52  C   UNL     1       4.870   4.616  -4.179  1.00  0.00     0.034 A 
ATOM     53  C   UNL     1       3.337   8.778   0.581  1.00  0.00     0.049 A 
ATOM     54  C   UNL     1       5.637   5.704  -3.474  1.00  0.00     0.074 A 
ATOM     55  C   UNL     1       4.153   9.701   1.211  1.00  0.00     0.029 A 
ATOM     56  N   UNL     1       4.110   8.136  -0.370  1.00  0.00    -0.354 N 
ATOM     57  N   UNL     1       5.258   6.461  -2.473  1.00  0.00    -0.248 NA
ATOM     58  C   UNL     1       7.012   5.963  -3.932  1.00  0.00     0.031 C 
ATOM     59  C   UNL     1       5.420   9.627   0.629  1.00  0.00     0.029 A 
ATOM     60  C   UNL     1       5.393   8.649  -0.352  1.00  0.00     0.049 A 
ATOM     61  H   UNL     1       3.793   7.423  -0.970  1.00  0.00     0.167 HD
ATOM     62  C   UNL     1       6.351   7.266  -2.168  1.00  0.00     0.074 A 
ATOM     63  C   UNL     1       7.413   6.898  -3.079  1.00  0.00     0.031 C 
ATOM     64  C   UNL     1       6.457   8.233  -1.226  1.00  0.00     0.034 A 
BRANCH  51  65
ATOM     65  C   UNL     1       1.268   9.326   1.884  1.00  0.00     0.023 A 
ATOM     66  C   UNL     1       1.156   8.799   3.185  1.00  0.00     0.012 A 
ATOM     67  C   UNL     1       0.867  10.650   1.626  1.00  0.00     0.148 A 
ATOM     68  C   UNL     1       0.659   9.585   4.222  1.00  0.00     0.002 A 
ATOM     69  C   UNL     1       0.398  11.436   2.671  1.00  0.00     0.091 A 
ATOM     70  F   UNL     1       0.976  11.117   0.374  1.00  0.00    -0.205 F 
ATOM     71  C   UNL     1       0.292  10.905   3.968  1.00  0.00     0.022 A 
BRANCH  69  72
ATOM     72  S   UNL     1      -0.051  13.162   2.464  1.00  0.00     0.127 S 
ATOM     73  O   UNL     1      -1.452  13.156   2.885  1.00  0.00    -0.237 OA
ATOM     74  O   UNL     1       0.862  13.826   3.392  1.00  0.00    -0.237 OA
ATOM     75  O   UNL     1       0.162  13.471   1.057  1.00  0.00    -0.744 OA
ENDBRANCH  69  72
ENDBRANCH  51  65
BRANCH  52  76
ATOM     76  C   UNL     1       5.498   3.840  -5.283  1.00  0.00     0.023 A 
ATOM     77  C   UNL     1       6.497   2.895  -4.986  1.00  0.00     0.012 A 
ATOM     78  C   UNL     1       5.095   4.024  -6.619  1.00  0.00     0.148 A 
ATOM     79  C   UNL     1       7.098   2.156  -6.006  1.00  0.00     0.002 A 
ATOM     80  C   UNL     1       5.669   3.257  -7.626  1.00  0.00     0.091 A 
ATOM     81  F   UNL     1       4.152   4.941  -6.876  1.00  0.00    -0.205 F 
ATOM     82  C   UNL     1       6.679   2.330  -7.323  1.00  0.00     0.022 A 
BRANCH  80  83
ATOM     83  S   UNL     1       5.129   3.345  -9.337  1.00  0.00     0.127 S 
ATOM     84  O   UNL     1       6.303   3.917  -9.991  1.00  0.00    -0.237 OA
ATOM     85  O   UNL     1       4.876   1.937  -9.643  1.00  0.00    -0.237 OA
ATOM     86  O   UNL     1       3.939   4.185  -9.333  1.00  0.00    -0.744 OA
ENDBRANCH  80  83
ENDBRANCH  52  76
BRANCH  64  87
ATOM     87  C   UNL     1       7.761   8.969  -1.093  1.00  0.00     0.023 A 
ATOM     88  C   UNL     1       8.058  10.012  -1.990  1.00  0.00     0.012 A 
ATOM     89  C   UNL     1       8.606   8.735   0.010  1.00  0.00     0.148 A 
ATOM     90  C   UNL     1       9.182  10.813  -1.792  1.00  0.00     0.002 A 
ATOM     91  C   UNL     1       9.704   9.560   0.220  1.00  0.00     0.091 A 
ATOM     92  F   UNL     1       8.300   7.733   0.846  1.00  0.00    -0.205 F 
ATOM     93  C   UNL     1       9.995  10.597  -0.682  1.00  0.00     0.022 A 
BRANCH  91  94
ATOM     94  S   UNL     1      10.763   9.414   1.665  1.00  0.00     0.127 S 
ATOM     95  O   UNL     1      12.024   8.980   1.066  1.00  0.00    -0.237 OA
ATOM     96  O   UNL     1      10.771  10.783   2.180  1.00  0.00    -0.237 OA
ATOM     97  O   UNL     1      10.124   8.439   2.538  1.00  0.00    -0.744 OA
ENDBRANCH  91  94
ENDBRANCH  64  87
ENDBRANCH  38  39
ENDBRANCH  31  33
ENDBRANCH  30  31
ENDBRANCH  29  30
ENDBRANCH  28  29
ENDBRANCH  27  28
ENDBRANCH   1  27
TORSDOF 22
