REMARK SMILES O=C(C[C@@H](NS(=O)(=O)c1ccc2c(c1)OCCO2)c1ccccc1)OCCOCCOCCOC(=O)c1ccc(-c2c3nc(c(-c4cccc(S(=O)(=O)[O-])c4F)c4ccc([nH]4)c(-c4cccc(S(=O)(=O)[O-])c4F)c4nc(c(-c5cccc(S(=O)(=O)[O-])c5F)c5ccc2[nH]5)C=C4)C=C3)cc1
REMARK SMILES IDX 29 1 28 2 27 3 26 4 25 5 2 6 1 7 3 8 4 9 5 10 6 12 7 13 8 14
REMARK SMILES IDX 9 15 10 16 14 17 11 18 13 19 12 20 15 21 18 22 16 23 17 24
REMARK SMILES IDX 19 25 20 26 24 27 21 28 23 29 22 30 30 31 31 32 32 33 33 34
REMARK SMILES IDX 34 35 35 36 36 37 37 38 38 39 99 40 39 41 98 42 40 43 41 44
REMARK SMILES IDX 42 45 92 46 43 47 97 48 91 49 93 50 44 51 96 52 90 53 89 54
REMARK SMILES IDX 45 56 77 57 57 58 76 59 58 60 61 61 75 62 94 63 59 64 60 65
REMARK SMILES IDX 74 67 95 68 62 69 46 70 47 71 55 72 48 73 50 74 56 75 49 76
REMARK SMILES IDX 51 77 52 78 53 79 54 80 78 81 79 82 87 83 80 84 82 85 88 86
REMARK SMILES IDX 81 87 83 88 84 89 85 90 86 91 63 92 64 93 72 94 65 95 67 96
REMARK SMILES IDX 73 97 66 98 68 99 69 100 70 101 71 102
REMARK H PARENT 5 11 93 55 61 66
REMARK Flexibility Score: inf
ROOT
ATOM      1  C   UNL     1       2.645   1.565   0.962  1.00  0.00     0.188 C 
ENDROOT
BRANCH   1   2
ATOM      2  O   UNL     1       4.053   1.468   1.045  1.00  0.00    -0.376 OA
BRANCH   2   3
ATOM      3  C   UNL     1       4.767   0.812   0.003  1.00  0.00     0.202 C 
BRANCH   3   4
ATOM      4  C   UNL     1       4.130   0.723  -1.385  1.00  0.00     0.261 C 
BRANCH   4   5
ATOM      5  O   UNL     1       3.283  -0.423  -1.741  1.00  0.00    -0.463 OA
BRANCH   5   6
ATOM      6  C   UNL     1       2.364  -1.089  -0.999  1.00  0.00     0.307 C 
ATOM      7  O   UNL     1       1.213  -1.220  -1.405  1.00  0.00    -0.252 OA
BRANCH   6   8
ATOM      8  C   UNL     1       2.832  -1.748   0.268  1.00  0.00     0.147 C 
BRANCH   8   9
ATOM      9  C   UNL     1       3.957  -2.783   0.079  1.00  0.00     0.111 C 
BRANCH   9  10
ATOM     10  N   UNL     1       5.050  -2.182  -0.726  1.00  0.00    -0.203 NA
ATOM     11  H   UNL     1       5.532  -1.530  -0.107  1.00  0.00     0.142 HD
BRANCH  10  12
ATOM     12  S   UNL     1       6.242  -3.107  -1.448  1.00  0.00     0.241 S 
ATOM     13  O   UNL     1       5.559  -4.148  -2.192  1.00  0.00    -0.207 OA
ATOM     14  O   UNL     1       7.101  -2.162  -2.120  1.00  0.00    -0.207 OA
BRANCH  12  15
ATOM     15  C   UNL     1       7.133  -3.805  -0.111  1.00  0.00     0.086 A 
ATOM     16  C   UNL     1       7.101  -5.189   0.071  1.00  0.00     0.026 A 
ATOM     17  C   UNL     1       7.802  -2.964   0.783  1.00  0.00     0.072 A 
ATOM     18  C   UNL     1       7.705  -5.739   1.195  1.00  0.00     0.052 A 
ATOM     19  C   UNL     1       8.394  -3.522   1.911  1.00  0.00     0.162 A 
ATOM     20  C   UNL     1       8.326  -4.905   2.124  1.00  0.00     0.161 A 
ATOM     21  O   UNL     1       8.983  -2.651   2.791  1.00  0.00    -0.486 OA
ATOM     22  O   UNL     1       8.840  -5.516   3.238  1.00  0.00    -0.486 OA
ATOM     23  C   UNL     1       9.727  -3.339   3.805  1.00  0.00     0.271 C 
ATOM     24  C   UNL     1       8.992  -4.573   4.302  1.00  0.00     0.271 C 
ENDBRANCH  12  15
ENDBRANCH  10  12
ENDBRANCH   9  10
BRANCH   9  25
ATOM     25  C   UNL     1       4.387  -3.221   1.476  1.00  0.00    -0.029 A 
ATOM     26  C   UNL     1       4.190  -4.546   1.889  1.00  0.00     0.005 A 
ATOM     27  C   UNL     1       4.936  -2.316   2.408  1.00  0.00     0.005 A 
ATOM     28  C   UNL     1       4.543  -4.951   3.180  1.00  0.00     0.000 A 
ATOM     29  C   UNL     1       5.283  -2.720   3.699  1.00  0.00     0.000 A 
ATOM     30  C   UNL     1       5.086  -4.040   4.083  1.00  0.00     0.000 A 
ENDBRANCH   9  25
ENDBRANCH   8   9
ENDBRANCH   6   8
ENDBRANCH   5   6
ENDBRANCH   4   5
ENDBRANCH   3   4
ENDBRANCH   2   3
ENDBRANCH   1   2
BRANCH   1  31
ATOM     31  C   UNL     1       2.098   2.986   0.800  1.00  0.00     0.188 C 
BRANCH  31  32
ATOM     32  O   UNL     1       2.887   3.923   0.086  1.00  0.00    -0.376 OA
BRANCH  32  33
ATOM     33  C   UNL     1       4.196   4.214   0.576  1.00  0.00     0.202 C 
BRANCH  33  34
ATOM     34  C   UNL     1       4.425   4.509   2.071  1.00  0.00     0.261 C 
BRANCH  34  35
ATOM     35  O   UNL     1       4.047   3.457   2.984  1.00  0.00    -0.460 OA
BRANCH  35  36
ATOM     36  C   UNL     1       3.026   3.757   3.822  1.00  0.00     0.338 C 
ATOM     37  O   UNL     1       2.401   4.805   3.866  1.00  0.00    -0.246 OA
BRANCH  36  38
ATOM     38  C   UNL     1       2.622   2.588   4.628  1.00  0.00     0.060 A 
ATOM     39  C   UNL     1       1.347   2.043   4.417  1.00  0.00     0.016 A 
ATOM     40  C   UNL     1       3.387   2.185   5.723  1.00  0.00     0.016 A 
ATOM     41  C   UNL     1       0.805   1.146   5.338  1.00  0.00     0.010 A 
ATOM     42  C   UNL     1       2.836   1.293   6.653  1.00  0.00     0.010 A 
ATOM     43  C   UNL     1       1.520   0.818   6.497  1.00  0.00    -0.014 A 
BRANCH  43  44
ATOM     44  C   UNL     1       0.807   0.171   7.630  1.00  0.00     0.031 A 
ATOM     45  C   UNL     1       0.362   1.025   8.792  1.00  0.00     0.074 A 
ATOM     46  C   UNL     1       0.523  -1.144   7.622  1.00  0.00     0.049 A 
ATOM     47  N   UNL     1      -0.280   0.682   9.879  1.00  0.00    -0.248 NA
ATOM     48  C   UNL     1       0.690   2.459   8.720  1.00  0.00     0.031 C 
ATOM     49  C   UNL     1       0.877  -2.079   6.557  1.00  0.00     0.029 A 
ATOM     50  N   UNL     1      -0.119  -1.921   8.556  1.00  0.00    -0.354 N 
ATOM     51  C   UNL     1      -0.397   1.843  10.636  1.00  0.00     0.074 A 
ATOM     52  C   UNL     1       0.249   2.899   9.889  1.00  0.00     0.031 C 
ATOM     53  C   UNL     1       0.461  -3.310   6.904  1.00  0.00     0.029 A 
ATOM     54  C   UNL     1      -0.164  -3.254   8.225  1.00  0.00     0.049 A 
ATOM     55  H   UNL     1      -0.510  -1.557   9.383  1.00  0.00     0.167 HD
ATOM     56  C   UNL     1      -0.996   2.021  11.839  1.00  0.00     0.034 A 
ATOM     57  C   UNL     1      -0.640  -4.310   8.916  1.00  0.00     0.034 A 
ATOM     58  C   UNL     1      -1.660   0.978  12.574  1.00  0.00     0.049 A 
ATOM     59  C   UNL     1      -1.285  -4.088  10.262  1.00  0.00     0.074 A 
ATOM     60  C   UNL     1      -2.347   1.074  13.772  1.00  0.00     0.029 A 
ATOM     61  N   UNL     1      -1.707  -0.354  12.193  1.00  0.00    -0.354 N 
ATOM     62  N   UNL     1      -1.487  -2.967  10.910  1.00  0.00    -0.248 NA
ATOM     63  C   UNL     1      -1.801  -5.279  10.954  1.00  0.00     0.031 C 
ATOM     64  C   UNL     1      -2.767  -0.208  14.139  1.00  0.00     0.029 A 
ATOM     65  C   UNL     1      -2.392  -1.094  13.142  1.00  0.00     0.049 A 
ATOM     66  H   UNL     1      -1.311  -0.720  11.370  1.00  0.00     0.167 HD
ATOM     67  C   UNL     1      -2.196  -3.310  12.058  1.00  0.00     0.074 A 
ATOM     68  C   UNL     1      -2.400  -4.742  12.008  1.00  0.00     0.031 C 
ATOM     69  C   UNL     1      -2.635  -2.512  13.063  1.00  0.00     0.034 A 
BRANCH  56  70
ATOM     70  C   UNL     1      -0.958   3.402  12.444  1.00  0.00     0.023 A 
ATOM     71  C   UNL     1      -1.721   4.444  11.879  1.00  0.00     0.012 A 
ATOM     72  C   UNL     1      -0.203   3.651  13.607  1.00  0.00     0.148 A 
ATOM     73  C   UNL     1      -1.700   5.722  12.438  1.00  0.00     0.002 A 
ATOM     74  C   UNL     1      -0.229   4.913  14.188  1.00  0.00     0.091 A 
ATOM     75  F   UNL     1       0.531   2.654  14.119  1.00  0.00    -0.205 F 
ATOM     76  C   UNL     1      -0.964   5.953  13.598  1.00  0.00     0.022 A 
BRANCH  74  77
ATOM     77  S   UNL     1       0.617   5.287  15.728  1.00  0.00     0.127 S 
ATOM     78  O   UNL     1       1.690   6.168  15.269  1.00  0.00    -0.237 OA
ATOM     79  O   UNL     1      -0.432   5.953  16.500  1.00  0.00    -0.237 OA
ATOM     80  O   UNL     1       1.051   4.007  16.270  1.00  0.00    -0.744 OA
ENDBRANCH  74  77
ENDBRANCH  56  70
BRANCH  57  81
ATOM     81  C   UNL     1      -0.563  -5.681   8.333  1.00  0.00     0.023 A 
ATOM     82  C   UNL     1      -1.747  -6.348   7.963  1.00  0.00     0.012 A 
ATOM     83  C   UNL     1       0.675  -6.325   8.147  1.00  0.00     0.148 A 
ATOM     84  C   UNL     1      -1.703  -7.646   7.454  1.00  0.00     0.002 A 
ATOM     85  C   UNL     1       0.717  -7.594   7.582  1.00  0.00     0.091 A 
ATOM     86  F   UNL     1       1.789  -5.680   8.520  1.00  0.00    -0.205 F 
ATOM     87  C   UNL     1      -0.472  -8.266   7.255  1.00  0.00     0.022 A 
BRANCH  85  88
ATOM     88  S   UNL     1       2.260  -8.416   7.169  1.00  0.00     0.127 S 
ATOM     89  O   UNL     1       2.256  -9.545   8.096  1.00  0.00    -0.237 OA
ATOM     90  O   UNL     1       2.045  -8.767   5.765  1.00  0.00    -0.237 OA
ATOM     91  O   UNL     1       3.307  -7.427   7.386  1.00  0.00    -0.744 OA
ENDBRANCH  85  88
ENDBRANCH  57  81
BRANCH  69  92
ATOM     92  C   UNL     1      -3.441  -3.149  14.169  1.00  0.00     0.023 A 
ATOM     93  C   UNL     1      -2.827  -4.024  15.087  1.00  0.00     0.012 A 
ATOM     94  C   UNL     1      -4.806  -2.832  14.329  1.00  0.00     0.148 A 
ATOM     95  C   UNL     1      -3.567  -4.608  16.116  1.00  0.00     0.002 A 
ATOM     96  C   UNL     1      -5.523  -3.373  15.389  1.00  0.00     0.091 A 
ATOM     97  F   UNL     1      -5.380  -2.011  13.438  1.00  0.00    -0.205 F 
ATOM     98  C   UNL     1      -4.911  -4.275  16.273  1.00  0.00     0.022 A 
BRANCH  96  99
ATOM     99  S   UNL     1      -7.228  -2.920  15.728  1.00  0.00     0.127 S 
ATOM    100  O   UNL     1      -7.944  -4.130  15.326  1.00  0.00    -0.237 OA
ATOM    101  O   UNL     1      -7.203  -2.677  17.171  1.00  0.00    -0.237 OA
ATOM    102  O   UNL     1      -7.497  -1.737  14.922  1.00  0.00    -0.744 OA
ENDBRANCH  96  99
ENDBRANCH  69  92
ENDBRANCH  43  44
ENDBRANCH  36  38
ENDBRANCH  35  36
ENDBRANCH  34  35
ENDBRANCH  33  34
ENDBRANCH  32  33
ENDBRANCH  31  32
ENDBRANCH   1  31
TORSDOF 25
