REMARK SMILES O=C(OCCOCCOCCOC(=O)c1ccc(Cl)nc1NC[C@@H]1C[N@@H+]2CCC[C@@H]2CO1)c1ccc(-c2c3nc(c(-c4cccc(S(=O)(=O)[O-])c4F)c4ccc([nH]4)c(-c4cccc(S(=O)(=O)[O-])c4F)c4nc(c(-c5cccc(S(=O)(=O)[O-])c5F)c5ccc2[nH]5)C=C4)C=C3)cc1
REMARK SMILES IDX 7 1 6 2 5 3 4 4 3 5 2 6 1 7 33 8 34 9 95 10 35 11 94 12
REMARK SMILES IDX 36 13 37 14 38 15 88 16 39 17 93 18 87 19 89 20 40 21 92 22
REMARK SMILES IDX 86 23 85 24 41 26 73 27 53 28 72 29 54 30 57 31 71 32 90 33
REMARK SMILES IDX 55 34 56 35 70 37 91 38 58 39 42 40 43 41 51 42 44 43 46 44
REMARK SMILES IDX 52 45 45 46 47 47 48 48 49 49 50 50 74 51 75 52 83 53 76 54
REMARK SMILES IDX 78 55 84 56 77 57 79 58 80 59 81 60 82 61 59 62 60 63 68 64
REMARK SMILES IDX 61 65 63 66 69 67 62 68 64 69 65 70 66 71 67 72 8 73 9 74
REMARK SMILES IDX 10 75 11 76 12 77 13 78 14 79 15 80 16 81 21 82 17 83 20 84
REMARK SMILES IDX 18 85 19 86 22 87 23 89 24 90 25 91 32 92 26 93 31 94 27 95
REMARK SMILES IDX 30 96 28 98 29 99
REMARK H PARENT 89 25 57 36 22 88 26 97
REMARK Flexibility Score: inf
ROOT
ATOM      1  C   UNL     1      -6.234  -2.104   2.533  1.00  0.00     0.188 C 
ENDROOT
BRANCH   1   2
ATOM      2  O   UNL     1      -6.240  -2.522   3.892  1.00  0.00    -0.376 OA
BRANCH   2   3
ATOM      3  C   UNL     1      -6.793  -1.577   4.809  1.00  0.00     0.202 C 
BRANCH   3   4
ATOM      4  C   UNL     1      -6.024  -0.254   4.991  1.00  0.00     0.261 C 
BRANCH   4   5
ATOM      5  O   UNL     1      -5.050   0.027   3.970  1.00  0.00    -0.460 OA
BRANCH   5   6
ATOM      6  C   UNL     1      -3.705  -0.145   4.029  1.00  0.00     0.338 C 
ATOM      7  O   UNL     1      -2.997   0.433   3.207  1.00  0.00    -0.246 OA
BRANCH   6   8
ATOM      8  C   UNL     1      -3.048  -1.041   5.020  1.00  0.00     0.060 A 
ATOM      9  C   UNL     1      -3.666  -2.159   5.572  1.00  0.00     0.016 A 
ATOM     10  C   UNL     1      -1.697  -0.820   5.326  1.00  0.00     0.016 A 
ATOM     11  C   UNL     1      -3.023  -2.978   6.484  1.00  0.00     0.010 A 
ATOM     12  C   UNL     1      -1.012  -1.687   6.186  1.00  0.00     0.010 A 
ATOM     13  C   UNL     1      -1.687  -2.758   6.787  1.00  0.00    -0.014 A 
BRANCH  13  14
ATOM     14  C   UNL     1      -1.049  -3.629   7.791  1.00  0.00     0.031 A 
ATOM     15  C   UNL     1      -0.742  -3.057   9.138  1.00  0.00     0.074 A 
ATOM     16  C   UNL     1      -0.854  -4.935   7.528  1.00  0.00     0.049 A 
ATOM     17  N   UNL     1      -0.152  -3.623  10.152  1.00  0.00    -0.248 NA
ATOM     18  C   UNL     1      -1.192  -1.676   9.393  1.00  0.00     0.031 C 
ATOM     19  C   UNL     1      -1.274  -5.620   6.303  1.00  0.00     0.029 A 
ATOM     20  N   UNL     1      -0.261  -5.925   8.268  1.00  0.00    -0.354 N 
ATOM     21  C   UNL     1      -0.110  -2.656  11.145  1.00  0.00     0.074 A 
ATOM     22  C   UNL     1      -0.760  -1.474  10.628  1.00  0.00     0.031 C 
ATOM     23  C   UNL     1      -0.904  -6.908   6.372  1.00  0.00     0.029 A 
ATOM     24  C   UNL     1      -0.137  -7.112   7.585  1.00  0.00     0.049 A 
ATOM     25  H   UNL     1       0.045  -5.799   9.195  1.00  0.00     0.167 HD
ATOM     26  C   UNL     1       0.439  -2.757  12.374  1.00  0.00     0.034 A 
ATOM     27  C   UNL     1       0.571  -8.219   7.873  1.00  0.00     0.034 A 
ATOM     28  C   UNL     1       1.073  -3.950  12.857  1.00  0.00     0.049 A 
ATOM     29  C   UNL     1       1.293  -8.247   9.186  1.00  0.00     0.074 A 
ATOM     30  C   UNL     1       1.652  -4.177  14.091  1.00  0.00     0.029 A 
ATOM     31  N   UNL     1       1.240  -5.108  12.111  1.00  0.00    -0.354 N 
ATOM     32  N   UNL     1       1.277  -7.352  10.143  1.00  0.00    -0.248 NA
ATOM     33  C   UNL     1       2.100  -9.437   9.477  1.00  0.00     0.031 C 
ATOM     34  C   UNL     1       2.220  -5.454  14.069  1.00  0.00     0.029 A 
ATOM     35  C   UNL     1       1.955  -6.039  12.839  1.00  0.00     0.049 A 
ATOM     36  H   UNL     1       0.900  -5.246  11.197  1.00  0.00     0.167 HD
ATOM     37  C   UNL     1       2.042  -7.883  11.168  1.00  0.00     0.074 A 
ATOM     38  C   UNL     1       2.492  -9.187  10.719  1.00  0.00     0.031 C 
ATOM     39  C   UNL     1       2.352  -7.341  12.369  1.00  0.00     0.034 A 
BRANCH  26  40
ATOM     40  C   UNL     1       0.434  -1.533  13.242  1.00  0.00     0.023 A 
ATOM     41  C   UNL     1      -0.747  -1.107  13.880  1.00  0.00     0.012 A 
ATOM     42  C   UNL     1       1.631  -0.820  13.443  1.00  0.00     0.148 A 
ATOM     43  C   UNL     1      -0.738   0.028  14.691  1.00  0.00     0.002 A 
ATOM     44  C   UNL     1       1.641   0.283  14.285  1.00  0.00     0.091 A 
ATOM     45  F   UNL     1       2.733  -1.230  12.798  1.00  0.00    -0.205 F 
ATOM     46  C   UNL     1       0.456   0.715  14.902  1.00  0.00     0.022 A 
BRANCH  44  47
ATOM     47  S   UNL     1       3.139   1.195  14.666  1.00  0.00     0.127 S 
ATOM     48  O   UNL     1       2.828   2.514  14.116  1.00  0.00    -0.237 OA
ATOM     49  O   UNL     1       3.166   1.133  16.127  1.00  0.00    -0.237 OA
ATOM     50  O   UNL     1       4.225   0.490  14.000  1.00  0.00    -0.744 OA
ENDBRANCH  44  47
ENDBRANCH  26  40
BRANCH  27  51
ATOM     51  C   UNL     1       0.681  -9.350   6.906  1.00  0.00     0.023 A 
ATOM     52  C   UNL     1       0.110 -10.598   7.214  1.00  0.00     0.012 A 
ATOM     53  C   UNL     1       1.383  -9.203   5.691  1.00  0.00     0.148 A 
ATOM     54  C   UNL     1       0.269 -11.687   6.353  1.00  0.00     0.002 A 
ATOM     55  C   UNL     1       1.500 -10.280   4.818  1.00  0.00     0.091 A 
ATOM     56  F   UNL     1       1.903  -8.004   5.403  1.00  0.00    -0.205 F 
ATOM     57  C   UNL     1       0.962 -11.528   5.157  1.00  0.00     0.022 A 
BRANCH  55  58
ATOM     58  S   UNL     1       2.284 -10.150   3.207  1.00  0.00     0.127 S 
ATOM     59  O   UNL     1       3.160 -11.320   3.193  1.00  0.00    -0.237 OA
ATOM     60  O   UNL     1       1.122 -10.232   2.325  1.00  0.00    -0.237 OA
ATOM     61  O   UNL     1       2.976  -8.870   3.208  1.00  0.00    -0.744 OA
ENDBRANCH  55  58
ENDBRANCH  27  51
BRANCH  39  62
ATOM     62  C   UNL     1       3.190  -8.173  13.293  1.00  0.00     0.023 A 
ATOM     63  C   UNL     1       4.564  -8.336  13.035  1.00  0.00     0.012 A 
ATOM     64  C   UNL     1       2.624  -8.713  14.462  1.00  0.00     0.148 A 
ATOM     65  C   UNL     1       5.363  -9.049  13.925  1.00  0.00     0.002 A 
ATOM     66  C   UNL     1       3.438  -9.370  15.371  1.00  0.00     0.091 A 
ATOM     67  F   UNL     1       1.308  -8.557  14.665  1.00  0.00    -0.205 F 
ATOM     68  C   UNL     1       4.804  -9.551  15.099  1.00  0.00     0.022 A 
BRANCH  66  69
ATOM     69  S   UNL     1       2.829  -9.950  16.956  1.00  0.00     0.127 S 
ATOM     70  O   UNL     1       2.940 -11.400  16.805  1.00  0.00    -0.237 OA
ATOM     71  O   UNL     1       3.788  -9.356  17.887  1.00  0.00    -0.237 OA
ATOM     72  O   UNL     1       1.469  -9.443  17.079  1.00  0.00    -0.744 OA
ENDBRANCH  66  69
ENDBRANCH  39  62
ENDBRANCH  13  14
ENDBRANCH   6   8
ENDBRANCH   5   6
ENDBRANCH   4   5
ENDBRANCH   3   4
ENDBRANCH   2   3
ENDBRANCH   1   2
BRANCH   1  73
ATOM     73  C   UNL     1      -6.298  -3.271   1.545  1.00  0.00     0.188 C 
BRANCH  73  74
ATOM     74  O   UNL     1      -7.407  -4.146   1.661  1.00  0.00    -0.376 OA
BRANCH  74  75
ATOM     75  C   UNL     1      -7.496  -4.882   2.874  1.00  0.00     0.202 C 
BRANCH  75  76
ATOM     76  C   UNL     1      -6.384  -5.897   3.202  1.00  0.00     0.261 C 
BRANCH  76  77
ATOM     77  O   UNL     1      -5.014  -5.426   3.202  1.00  0.00    -0.460 OA
BRANCH  77  78
ATOM     78  C   UNL     1      -4.239  -5.937   2.196  1.00  0.00     0.341 C 
ATOM     79  O   UNL     1      -4.651  -6.570   1.238  1.00  0.00    -0.246 OA
BRANCH  78  80
ATOM     80  C   UNL     1      -2.800  -5.850   2.510  1.00  0.00     0.102 A 
ATOM     81  C   UNL     1      -2.193  -7.067   2.873  1.00  0.00     0.023 A 
ATOM     82  C   UNL     1      -1.982  -4.736   2.288  1.00  0.00     0.142 A 
ATOM     83  C   UNL     1      -0.810  -7.141   3.024  1.00  0.00     0.042 A 
ATOM     84  N   UNL     1      -0.660  -4.800   2.561  1.00  0.00    -0.218 NA
ATOM     85  C   UNL     1      -0.098  -5.975   2.887  1.00  0.00     0.131 A 
ATOM     86  Cl  UNL     1       1.591  -5.871   3.102  1.00  0.00    -0.062 Cl
BRANCH  82  87
ATOM     87  N   UNL     1      -2.398  -3.547   1.695  1.00  0.00    -0.366 N 
ATOM     88  H   UNL     1      -3.348  -3.293   1.644  1.00  0.00     0.162 HD
BRANCH  87  89
ATOM     89  C   UNL     1      -1.322  -2.688   1.144  1.00  0.00     0.152 C 
BRANCH  89  90
ATOM     90  C   UNL     1      -1.600  -2.038  -0.245  1.00  0.00     0.192 C 
ATOM     91  C   UNL     1      -1.956  -0.530  -0.126  1.00  0.00     0.296 C 
ATOM     92  O   UNL     1      -2.493  -2.805  -1.067  1.00  0.00    -0.364 OA
ATOM     93  N   UNL     1      -3.030  -0.012  -0.986  1.00  0.00    -0.328 N 
ATOM     94  C   UNL     1      -3.841  -2.429  -0.833  1.00  0.00     0.225 C 
ATOM     95  C   UNL     1      -3.648   1.200  -0.427  1.00  0.00     0.262 C 
ATOM     96  C   UNL     1      -4.092  -0.990  -1.284  1.00  0.00     0.210 C 
ATOM     97  H   UNL     1      -2.559   0.209  -1.864  1.00  0.00     0.348 HD
ATOM     98  C   UNL     1      -5.127   1.084  -0.754  1.00  0.00     0.068 C 
ATOM     99  C   UNL     1      -5.359  -0.407  -0.673  1.00  0.00     0.073 C 
ENDBRANCH  89  90
ENDBRANCH  87  89
ENDBRANCH  82  87
ENDBRANCH  78  80
ENDBRANCH  77  78
ENDBRANCH  76  77
ENDBRANCH  75  76
ENDBRANCH  74  75
ENDBRANCH  73  74
ENDBRANCH   1  73
TORSDOF 23
