REMARK SMILES Cn1ccc(C(=O)NCc2ccc(C(=O)OCCOCCOCCOC(=O)c3ccc(-c4c5nc(c(-c6cccc(S(=O)(=O)[O-])c6F)c6ccc([nH]6)c(-c6cccc(S(=O)(=O)[O-])c6F)c6nc(c(-c7cccc(S(=O)(=O)[O-])c7F)c7ccc4[nH]7)C=C6)C=C5)cc3)cc2)cc1=O
REMARK SMILES IDX 20 1 19 2 18 3 17 4 16 5 14 6 15 7 13 8 10 9 11 10 92 11
REMARK SMILES IDX 12 12 91 13 9 14 8 15 6 16 7 17 5 19 1 20 2 21 3 22 94 23
REMARK SMILES IDX 4 24 93 25 95 26 21 27 22 28 23 29 24 30 25 31 26 32 27 33
REMARK SMILES IDX 28 34 29 35 90 36 30 37 89 38 31 39 32 40 33 41 83 42 34 43
REMARK SMILES IDX 88 44 82 45 84 46 35 47 87 48 81 49 80 50 36 52 68 53 48 54
REMARK SMILES IDX 67 55 49 56 52 57 66 58 85 59 50 60 51 61 65 63 86 64 53 65
REMARK SMILES IDX 37 66 38 67 46 68 39 69 41 70 47 71 40 72 42 73 43 74 44 75
REMARK SMILES IDX 45 76 69 77 70 78 78 79 71 80 73 81 79 82 72 83 74 84 75 85
REMARK SMILES IDX 76 86 77 87 54 88 55 89 63 90 56 91 58 92 64 93 57 94 59 95
REMARK SMILES IDX 60 96 61 97 62 98
REMARK H PARENT 8 18 84 51 52 62
REMARK Flexibility Score: inf
ROOT
ATOM      1  C   UNL     1       1.728   9.311   4.206  1.00  0.00     0.188 C 
ENDROOT
BRANCH   1   2
ATOM      2  O   UNL     1       1.927   9.918   5.460  1.00  0.00    -0.376 OA
BRANCH   2   3
ATOM      3  C   UNL     1       2.058   9.137   6.634  1.00  0.00     0.202 C 
BRANCH   3   4
ATOM      4  C   UNL     1       2.097   7.597   6.707  1.00  0.00     0.261 C 
BRANCH   4   5
ATOM      5  O   UNL     1       2.252   6.869   5.487  1.00  0.00    -0.460 OA
BRANCH   5   6
ATOM      6  C   UNL     1       1.160   6.181   5.069  1.00  0.00     0.338 C 
ATOM      7  O   UNL     1       0.076   6.113   5.631  1.00  0.00    -0.246 OA
BRANCH   6   8
ATOM      8  C   UNL     1       1.407   5.638   3.717  1.00  0.00     0.060 A 
ATOM      9  C   UNL     1       1.819   4.645   1.114  1.00  0.00    -0.029 A 
ATOM     10  C   UNL     1       0.632   5.321   1.441  1.00  0.00     0.006 A 
ATOM     11  C   UNL     1       2.815   4.525   2.102  1.00  0.00     0.006 A 
ATOM     12  C   UNL     1       0.421   5.801   2.737  1.00  0.00     0.016 A 
ATOM     13  C   UNL     1       2.613   5.012   3.396  1.00  0.00     0.016 A 
BRANCH   9  14
ATOM     14  C   UNL     1       2.015   4.114  -0.290  1.00  0.00     0.152 C 
BRANCH  14  15
ATOM     15  N   UNL     1       2.982   3.035  -0.337  1.00  0.00    -0.348 N 
ATOM     16  C   UNL     1       2.927   1.697  -0.137  1.00  0.00     0.251 C 
ATOM     17  O   UNL     1       4.016   1.111  -0.119  1.00  0.00    -0.269 OA
ATOM     18  H   UNL     1       3.888   3.346  -0.565  1.00  0.00     0.164 HD
BRANCH  16  19
ATOM     19  C   UNL     1       1.662   0.890  -0.012  1.00  0.00     0.046 A 
ATOM     20  C   UNL     1      -1.664  -1.772   0.013  1.00  0.00     0.153 C 
ATOM     21  N   UNL     1      -0.534  -0.857   0.049  1.00  0.00    -0.319 N 
ATOM     22  C   UNL     1       0.732  -1.360  -0.162  1.00  0.00     0.089 A 
ATOM     23  C   UNL     1      -0.754   0.492   0.302  1.00  0.00     0.251 A 
ATOM     24  C   UNL     1       1.795  -0.552  -0.196  1.00  0.00     0.032 A 
ATOM     25  C   UNL     1       0.449   1.373   0.295  1.00  0.00     0.085 A 
ATOM     26  O   UNL     1      -1.855   0.994   0.513  1.00  0.00    -0.269 OA
ENDBRANCH  16  19
ENDBRANCH  14  15
ENDBRANCH   9  14
ENDBRANCH   6   8
ENDBRANCH   5   6
ENDBRANCH   4   5
ENDBRANCH   3   4
ENDBRANCH   2   3
ENDBRANCH   1   2
BRANCH   1  27
ATOM     27  C   UNL     1       3.006   8.869   3.463  1.00  0.00     0.188 C 
BRANCH  27  28
ATOM     28  O   UNL     1       4.264   8.911   4.112  1.00  0.00    -0.376 OA
BRANCH  28  29
ATOM     29  C   UNL     1       4.723  10.130   4.677  1.00  0.00     0.202 C 
BRANCH  29  30
ATOM     30  C   UNL     1       4.503  11.508   4.022  1.00  0.00     0.261 C 
BRANCH  30  31
ATOM     31  O   UNL     1       3.260  11.721   3.345  1.00  0.00    -0.460 OA
BRANCH  31  32
ATOM     32  C   UNL     1       3.333  11.773   1.993  1.00  0.00     0.338 C 
ATOM     33  O   UNL     1       4.332  11.643   1.302  1.00  0.00    -0.246 OA
BRANCH  32  34
ATOM     34  C   UNL     1       1.970  11.830   1.434  1.00  0.00     0.060 A 
ATOM     35  C   UNL     1       1.494  10.730   0.707  1.00  0.00     0.016 A 
ATOM     36  C   UNL     1       1.187  12.974   1.583  1.00  0.00     0.016 A 
ATOM     37  C   UNL     1       0.233  10.774   0.116  1.00  0.00     0.010 A 
ATOM     38  C   UNL     1      -0.068  13.026   0.968  1.00  0.00     0.010 A 
ATOM     39  C   UNL     1      -0.539  11.938   0.210  1.00  0.00    -0.014 A 
BRANCH  39  40
ATOM     40  C   UNL     1      -1.770  12.076  -0.606  1.00  0.00     0.031 A 
ATOM     41  C   UNL     1      -1.705  12.872  -1.881  1.00  0.00     0.074 A 
ATOM     42  C   UNL     1      -2.930  11.520  -0.212  1.00  0.00     0.049 A 
ATOM     43  N   UNL     1      -2.665  13.182  -2.711  1.00  0.00    -0.248 NA
ATOM     44  C   UNL     1      -0.382  13.390  -2.269  1.00  0.00     0.031 C 
ATOM     45  C   UNL     1      -3.118  10.722   0.999  1.00  0.00     0.029 A 
ATOM     46  N   UNL     1      -4.181  11.576  -0.777  1.00  0.00    -0.354 N 
ATOM     47  C   UNL     1      -2.075  13.966  -3.695  1.00  0.00     0.074 A 
ATOM     48  C   UNL     1      -0.672  14.080  -3.364  1.00  0.00     0.031 C 
ATOM     49  C   UNL     1      -4.419  10.402   1.111  1.00  0.00     0.029 A 
ATOM     50  C   UNL     1      -5.158  10.997  -0.002  1.00  0.00     0.049 A 
ATOM     51  H   UNL     1      -4.360  11.991  -1.652  1.00  0.00     0.167 HD
ATOM     52  C   UNL     1      -2.651  14.538  -4.778  1.00  0.00     0.034 A 
ATOM     53  C   UNL     1      -6.498  10.985  -0.153  1.00  0.00     0.034 A 
ATOM     54  C   UNL     1      -4.042  14.408  -5.117  1.00  0.00     0.049 A 
ATOM     55  C   UNL     1      -7.113  11.647  -1.361  1.00  0.00     0.074 A 
ATOM     56  C   UNL     1      -4.700  14.896  -6.232  1.00  0.00     0.029 A 
ATOM     57  N   UNL     1      -4.991  13.767  -4.339  1.00  0.00    -0.354 N 
ATOM     58  N   UNL     1      -6.524  12.271  -2.352  1.00  0.00    -0.248 NA
ATOM     59  C   UNL     1      -8.577  11.576  -1.488  1.00  0.00     0.031 C 
ATOM     60  C   UNL     1      -6.058  14.587  -6.106  1.00  0.00     0.029 A 
ATOM     61  C   UNL     1      -6.235  13.864  -4.938  1.00  0.00     0.049 A 
ATOM     62  H   UNL     1      -4.808  13.309  -3.487  1.00  0.00     0.167 HD
ATOM     63  C   UNL     1      -7.538  12.630  -3.235  1.00  0.00     0.074 A 
ATOM     64  C   UNL     1      -8.776  12.135  -2.673  1.00  0.00     0.031 C 
ATOM     65  C   UNL     1      -7.453  13.318  -4.400  1.00  0.00     0.034 A 
BRANCH  52  66
ATOM     66  C   UNL     1      -1.781  15.360  -5.691  1.00  0.00     0.023 A 
ATOM     67  C   UNL     1      -0.862  14.723  -6.548  1.00  0.00     0.012 A 
ATOM     68  C   UNL     1      -1.946  16.757  -5.764  1.00  0.00     0.148 A 
ATOM     69  C   UNL     1      -0.106  15.469  -7.452  1.00  0.00     0.002 A 
ATOM     70  C   UNL     1      -1.224  17.486  -6.699  1.00  0.00     0.091 A 
ATOM     71  F   UNL     1      -2.812  17.342  -4.923  1.00  0.00    -0.205 F 
ATOM     72  C   UNL     1      -0.296  16.846  -7.536  1.00  0.00     0.022 A 
BRANCH  70  73
ATOM     73  S   UNL     1      -1.458  19.250  -6.944  1.00  0.00     0.127 S 
ATOM     74  O   UNL     1      -0.167  19.782  -6.510  1.00  0.00    -0.237 OA
ATOM     75  O   UNL     1      -1.696  19.328  -8.385  1.00  0.00    -0.237 OA
ATOM     76  O   UNL     1      -2.594  19.627  -6.115  1.00  0.00    -0.744 OA
ENDBRANCH  70  73
ENDBRANCH  52  66
BRANCH  53  77
ATOM     77  C   UNL     1      -7.365  10.328   0.868  1.00  0.00     0.023 A 
ATOM     78  C   UNL     1      -8.098   9.175   0.529  1.00  0.00     0.012 A 
ATOM     79  C   UNL     1      -7.483  10.859   2.168  1.00  0.00     0.148 A 
ATOM     80  C   UNL     1      -8.967   8.588   1.451  1.00  0.00     0.002 A 
ATOM     81  C   UNL     1      -8.305  10.235   3.099  1.00  0.00     0.091 A 
ATOM     82  F   UNL     1      -6.793  11.968   2.466  1.00  0.00    -0.205 F 
ATOM     83  C   UNL     1      -9.064   9.112   2.737  1.00  0.00     0.022 A 
BRANCH  81  84
ATOM     84  S   UNL     1      -8.396  10.771   4.811  1.00  0.00     0.127 S 
ATOM     85  O   UNL     1      -9.731  11.360   4.869  1.00  0.00    -0.237 OA
ATOM     86  O   UNL     1      -8.249   9.506   5.531  1.00  0.00    -0.237 OA
ATOM     87  O   UNL     1      -7.286  11.697   4.991  1.00  0.00    -0.744 OA
ENDBRANCH  81  84
ENDBRANCH  53  77
BRANCH  65  88
ATOM     88  C   UNL     1      -8.721  13.536  -5.187  1.00  0.00     0.023 A 
ATOM     89  C   UNL     1      -9.698  14.437  -4.722  1.00  0.00     0.012 A 
ATOM     90  C   UNL     1      -8.902  12.904  -6.435  1.00  0.00     0.148 A 
ATOM     91  C   UNL     1     -10.852  14.678  -5.468  1.00  0.00     0.002 A 
ATOM     92  C   UNL     1     -10.027  13.191  -7.197  1.00  0.00     0.091 A 
ATOM     93  F   UNL     1      -7.967  12.039  -6.855  1.00  0.00    -0.205 F 
ATOM     94  C   UNL     1     -11.011  14.066  -6.709  1.00  0.00     0.022 A 
BRANCH  92  95
ATOM     95  S   UNL     1     -10.267  12.529  -8.850  1.00  0.00     0.127 S 
ATOM     96  O   UNL     1     -11.372  11.595  -8.639  1.00  0.00    -0.237 OA
ATOM     97  O   UNL     1     -10.618  13.726  -9.614  1.00  0.00    -0.237 OA
ATOM     98  O   UNL     1      -9.000  11.919  -9.229  1.00  0.00    -0.744 OA
ENDBRANCH  92  95
ENDBRANCH  65  88
ENDBRANCH  39  40
ENDBRANCH  32  34
ENDBRANCH  31  32
ENDBRANCH  30  31
ENDBRANCH  29  30
ENDBRANCH  28  29
ENDBRANCH  27  28
ENDBRANCH   1  27
TORSDOF 23
