REMARK SMILES C[C@@H](C(=O)OCCOCCOCCOC(=O)c1ccc(-c2c3nc(c(-c4cccc(S(=O)(=O)[O-])c4F)c4ccc([nH]4)c(-c4cccc(S(=O)(=O)[O-])c4F)c4nc(c(-c5cccc(S(=O)(=O)[O-])c5F)c5ccc2[nH]5)C=C4)C=C3)cc1)c1ccc(-c2cccc(OC(=O)NCCCc3ccccc3)c2)c(F)c1
REMARK SMILES IDX 7 1 6 2 5 3 3 4 4 5 2 6 1 7 80 8 81 9 105 10 82 11 103 12
REMARK SMILES IDX 83 13 104 14 84 15 85 16 102 17 86 18 88 19 87 20 89 21
REMARK SMILES IDX 90 22 91 23 92 24 93 26 94 27 95 28 96 29 97 30 101 31 98 32
REMARK SMILES IDX 100 33 99 34 8 35 9 36 10 37 11 38 12 39 13 40 14 41 15 42
REMARK SMILES IDX 16 43 17 44 18 45 79 46 19 47 78 48 20 49 21 50 22 51 72 52
REMARK SMILES IDX 23 53 77 54 71 55 73 56 24 57 76 58 70 59 69 60 25 62 57 63
REMARK SMILES IDX 37 64 56 65 38 66 41 67 55 68 74 69 39 70 40 71 54 73 75 74
REMARK SMILES IDX 42 75 26 76 27 77 35 78 28 79 30 80 36 81 29 82 31 83 32 84
REMARK SMILES IDX 33 85 34 86 58 87 59 88 67 89 60 90 62 91 68 92 61 93 63 94
REMARK SMILES IDX 64 95 65 96 66 97 43 98 44 99 52 100 45 101 47 102 53 103
REMARK SMILES IDX 46 104 48 105 49 106 50 107 51 108
REMARK H PARENT 92 25 73 61 41 72
REMARK Flexibility Score: inf
ROOT
ATOM      1  C   UNL     1       2.312  -1.636  -4.580  1.00  0.00     0.202 C 
ENDROOT
BRANCH   1   2
ATOM      2  C   UNL     1       2.612  -0.252  -3.951  1.00  0.00     0.261 C 
BRANCH   2   3
ATOM      3  O   UNL     1       1.983   0.117  -2.714  1.00  0.00    -0.463 OA
BRANCH   3   4
ATOM      4  C   UNL     1       1.127   1.173  -2.734  1.00  0.00     0.313 C 
ATOM      5  O   UNL     1       0.785   1.751  -3.761  1.00  0.00    -0.252 OA
BRANCH   4   6
ATOM      6  C   UNL     1       0.638   1.607  -1.340  1.00  0.00     0.126 C 
ATOM      7  C   UNL     1       1.324   0.983  -0.117  1.00  0.00     0.025 C 
BRANCH   6   8
ATOM      8  C   UNL     1      -0.877   1.520  -1.229  1.00  0.00    -0.031 A 
ATOM      9  C   UNL     1      -1.663   2.671  -1.092  1.00  0.00     0.005 A 
ATOM     10  C   UNL     1      -1.531   0.287  -1.278  1.00  0.00     0.044 A 
ATOM     11  C   UNL     1      -3.063   2.583  -1.009  1.00  0.00     0.012 A 
ATOM     12  C   UNL     1      -2.914   0.209  -1.204  1.00  0.00     0.131 A 
ATOM     13  C   UNL     1      -3.714   1.342  -1.059  1.00  0.00     0.018 A 
ATOM     14  F   UNL     1      -3.466  -1.007  -1.269  1.00  0.00    -0.206 F 
BRANCH  13  15
ATOM     15  C   UNL     1      -5.170   1.213  -0.924  1.00  0.00    -0.012 A 
ATOM     16  C   UNL     1      -6.051   1.874  -1.791  1.00  0.00     0.009 A 
ATOM     17  C   UNL     1      -5.710   0.387   0.080  1.00  0.00     0.056 A 
ATOM     18  C   UNL     1      -7.432   1.719  -1.656  1.00  0.00     0.004 A 
ATOM     19  C   UNL     1      -7.085   0.226   0.203  1.00  0.00     0.133 A 
ATOM     20  C   UNL     1      -7.951   0.888  -0.665  1.00  0.00     0.047 A 
BRANCH  19  21
ATOM     21  O   UNL     1      -7.710  -0.580   1.185  1.00  0.00    -0.410 OA
BRANCH  21  22
ATOM     22  C   UNL     1      -7.085  -1.331   2.179  1.00  0.00     0.412 C 
ATOM     23  O   UNL     1      -5.878  -1.426   2.374  1.00  0.00    -0.224 OA
ATOM     24  N   UNL     1      -7.971  -1.954   3.015  1.00  0.00    -0.321 N 
ATOM     25  H   UNL     1      -7.596  -2.547   3.706  1.00  0.00     0.167 HD
BRANCH  24  26
ATOM     26  C   UNL     1      -9.411  -1.817   2.970  1.00  0.00     0.120 C 
BRANCH  26  27
ATOM     27  C   UNL     1     -10.182  -3.023   3.506  1.00  0.00     0.026 C 
BRANCH  27  28
ATOM     28  C   UNL     1      -9.680  -3.713   4.781  1.00  0.00     0.037 C 
BRANCH  28  29
ATOM     29  C   UNL     1      -9.808  -3.046   6.133  1.00  0.00    -0.048 A 
ATOM     30  C   UNL     1     -10.030  -1.681   6.330  1.00  0.00     0.004 A 
ATOM     31  C   UNL     1      -9.658  -3.858   7.273  1.00  0.00     0.004 A 
ATOM     32  C   UNL     1     -10.084  -1.139   7.619  1.00  0.00     0.000 A 
ATOM     33  C   UNL     1      -9.725  -3.322   8.561  1.00  0.00     0.000 A 
ATOM     34  C   UNL     1      -9.930  -1.958   8.734  1.00  0.00     0.000 A 
ENDBRANCH  28  29
ENDBRANCH  27  28
ENDBRANCH  26  27
ENDBRANCH  24  26
ENDBRANCH  21  22
ENDBRANCH  19  21
ENDBRANCH  13  15
ENDBRANCH   6   8
ENDBRANCH   4   6
ENDBRANCH   3   4
ENDBRANCH   2   3
ENDBRANCH   1   2
BRANCH   1  35
ATOM     35  O   UNL     1       1.566  -2.675  -3.973  1.00  0.00    -0.376 OA
BRANCH  35  36
ATOM     36  C   UNL     1       0.575  -2.322  -3.033  1.00  0.00     0.188 C 
BRANCH  36  37
ATOM     37  C   UNL     1       1.135  -2.353  -1.605  1.00  0.00     0.188 C 
BRANCH  37  38
ATOM     38  O   UNL     1       2.509  -2.641  -1.467  1.00  0.00    -0.376 OA
BRANCH  38  39
ATOM     39  C   UNL     1       2.992  -3.954  -1.689  1.00  0.00     0.202 C 
BRANCH  39  40
ATOM     40  C   UNL     1       2.139  -5.204  -2.005  1.00  0.00     0.261 C 
BRANCH  40  41
ATOM     41  O   UNL     1       0.715  -5.105  -1.980  1.00  0.00    -0.460 OA
BRANCH  41  42
ATOM     42  C   UNL     1       0.102  -5.293  -0.786  1.00  0.00     0.338 C 
ATOM     43  O   UNL     1       0.641  -5.505   0.283  1.00  0.00    -0.246 OA
BRANCH  42  44
ATOM     44  C   UNL     1      -1.337  -4.982  -0.972  1.00  0.00     0.060 A 
ATOM     45  C   UNL     1      -1.930  -4.022  -0.143  1.00  0.00     0.016 A 
ATOM     46  C   UNL     1      -2.089  -5.604  -1.974  1.00  0.00     0.016 A 
ATOM     47  C   UNL     1      -3.280  -3.697  -0.306  1.00  0.00     0.010 A 
ATOM     48  C   UNL     1      -3.445  -5.287  -2.124  1.00  0.00     0.010 A 
ATOM     49  C   UNL     1      -4.053  -4.340  -1.284  1.00  0.00    -0.014 A 
BRANCH  49  50
ATOM     50  C   UNL     1      -5.528  -4.158  -1.300  1.00  0.00     0.031 A 
ATOM     51  C   UNL     1      -6.358  -5.032  -0.401  1.00  0.00     0.074 A 
ATOM     52  C   UNL     1      -6.131  -3.267  -2.108  1.00  0.00     0.049 A 
ATOM     53  N   UNL     1      -7.656  -5.073  -0.248  1.00  0.00    -0.248 NA
ATOM     54  C   UNL     1      -5.621  -6.003   0.424  1.00  0.00     0.031 C 
ATOM     55  C   UNL     1      -5.449  -2.368  -3.033  1.00  0.00     0.029 A 
ATOM     56  N   UNL     1      -7.465  -2.983  -2.289  1.00  0.00    -0.354 N 
ATOM     57  C   UNL     1      -7.894  -6.090   0.667  1.00  0.00     0.074 A 
ATOM     58  C   UNL     1      -6.607  -6.638   1.038  1.00  0.00     0.031 C 
ATOM     59  C   UNL     1      -6.365  -1.629  -3.683  1.00  0.00     0.029 A 
ATOM     60  C   UNL     1      -7.704  -2.028  -3.250  1.00  0.00     0.049 A 
ATOM     61  H   UNL     1      -8.183  -3.423  -1.778  1.00  0.00     0.167 HD
ATOM     62  C   UNL     1      -9.075  -6.535   1.154  1.00  0.00     0.034 A 
ATOM     63  C   UNL     1      -8.867  -1.544  -3.735  1.00  0.00     0.034 A 
ATOM     64  C   UNL     1     -10.357  -6.010   0.773  1.00  0.00     0.049 A 
ATOM     65  C   UNL     1     -10.170  -2.061  -3.174  1.00  0.00     0.074 A 
ATOM     66  C   UNL     1     -11.608  -6.382   1.231  1.00  0.00     0.029 A 
ATOM     67  N   UNL     1     -10.555  -5.016  -0.172  1.00  0.00    -0.354 N 
ATOM     68  N   UNL     1     -10.375  -2.920  -2.204  1.00  0.00    -0.248 NA
ATOM     69  C   UNL     1     -11.409  -1.523  -3.761  1.00  0.00     0.031 C 
ATOM     70  C   UNL     1     -12.566  -5.630   0.543  1.00  0.00     0.029 A 
ATOM     71  C   UNL     1     -11.909  -4.765  -0.317  1.00  0.00     0.049 A 
ATOM     72  H   UNL     1      -9.839  -4.556  -0.668  1.00  0.00     0.167 HD
ATOM     73  C   UNL     1     -11.756  -3.005  -2.051  1.00  0.00     0.074 A 
ATOM     74  C   UNL     1     -12.340  -2.081  -2.998  1.00  0.00     0.031 C 
ATOM     75  C   UNL     1     -12.477  -3.796  -1.219  1.00  0.00     0.034 A 
BRANCH  62  76
ATOM     76  C   UNL     1      -9.028  -7.652   2.160  1.00  0.00     0.023 A 
ATOM     77  C   UNL     1      -8.559  -7.397   3.465  1.00  0.00     0.012 A 
ATOM     78  C   UNL     1      -9.474  -8.944   1.823  1.00  0.00     0.148 A 
ATOM     79  C   UNL     1      -8.504  -8.420   4.410  1.00  0.00     0.002 A 
ATOM     80  C   UNL     1      -9.456  -9.948   2.783  1.00  0.00     0.091 A 
ATOM     81  F   UNL     1      -9.891  -9.170   0.569  1.00  0.00    -0.205 F 
ATOM     82  C   UNL     1      -8.961  -9.691   4.072  1.00  0.00     0.022 A 
BRANCH  80  83
ATOM     83  S   UNL     1     -10.088 -11.598   2.468  1.00  0.00     0.127 S 
ATOM     84  O   UNL     1      -8.858 -12.389   2.466  1.00  0.00    -0.237 OA
ATOM     85  O   UNL     1     -10.954 -11.820   3.626  1.00  0.00    -0.237 OA
ATOM     86  O   UNL     1     -10.785 -11.526   1.192  1.00  0.00    -0.744 OA
ENDBRANCH  80  83
ENDBRANCH  62  76
BRANCH  63  87
ATOM     87  C   UNL     1      -8.871  -0.489  -4.795  1.00  0.00     0.023 A 
ATOM     88  C   UNL     1      -9.408   0.782  -4.510  1.00  0.00     0.012 A 
ATOM     89  C   UNL     1      -8.368  -0.738  -6.087  1.00  0.00     0.148 A 
ATOM     90  C   UNL     1      -9.454   1.781  -5.484  1.00  0.00     0.002 A 
ATOM     91  C   UNL     1      -8.373   0.275  -7.041  1.00  0.00     0.091 A 
ATOM     92  F   UNL     1      -7.899  -1.963  -6.361  1.00  0.00    -0.205 F 
ATOM     93  C   UNL     1      -8.926   1.530  -6.745  1.00  0.00     0.022 A 
BRANCH  91  94
ATOM     94  S   UNL     1      -7.636   0.075  -8.666  1.00  0.00     0.127 S 
ATOM     95  O   UNL     1      -8.812   0.117  -9.533  1.00  0.00    -0.237 OA
ATOM     96  O   UNL     1      -6.769   1.251  -8.748  1.00  0.00    -0.237 OA
ATOM     97  O   UNL     1      -6.927  -1.196  -8.627  1.00  0.00    -0.744 OA
ENDBRANCH  91  94
ENDBRANCH  63  87
BRANCH  75  98
ATOM     98  C   UNL     1     -13.980  -3.674  -1.253  1.00  0.00     0.023 A 
ATOM     99  C   UNL     1     -14.705  -4.167  -2.356  1.00  0.00     0.012 A 
ATOM    100  C   UNL     1     -14.678  -3.146  -0.149  1.00  0.00     0.148 A 
ATOM    101  C   UNL     1     -16.098  -4.107  -2.373  1.00  0.00     0.002 A 
ATOM    102  C   UNL     1     -16.068  -3.137  -0.151  1.00  0.00     0.091 A 
ATOM    103  F   UNL     1     -13.970  -2.666   0.884  1.00  0.00    -0.205 F 
ATOM    104  C   UNL     1     -16.780  -3.605  -1.267  1.00  0.00     0.022 A 
BRANCH 102 105
ATOM    105  S   UNL     1     -17.029  -2.601   1.269  1.00  0.00     0.127 S 
ATOM    106  O   UNL     1     -17.587  -1.337   0.791  1.00  0.00    -0.237 OA
ATOM    107  O   UNL     1     -18.003  -3.684   1.411  1.00  0.00    -0.237 OA
ATOM    108  O   UNL     1     -16.085  -2.487   2.372  1.00  0.00    -0.744 OA
ENDBRANCH 102 105
ENDBRANCH  75  98
ENDBRANCH  49  50
ENDBRANCH  42  44
ENDBRANCH  41  42
ENDBRANCH  40  41
ENDBRANCH  39  40
ENDBRANCH  38  39
ENDBRANCH  37  38
ENDBRANCH  36  37
ENDBRANCH  35  36
ENDBRANCH   1  35
TORSDOF 28
