REMARK SMILES Cc1cc(C(=O)N[C@H](C(=O)OCCOCCOCCOC(=O)c2ccc(-c3c4nc(c(-c5cccc(S(=O)(=O)[O-])c5F)c5ccc([nH]5)c(-c5cccc(S(=O)(=O)[O-])c5F)c5nc(c(-c6cccc(S(=O)(=O)[O-])c6F)c6ccc3[nH]6)C=C5)C=C4)cc2)C(C)C)c(C)s1
REMARK SMILES IDX 16 1 15 2 14 3 13 4 12 5 11 6 9 7 10 8 8 9 7 10 5 11 6 12
REMARK SMILES IDX 4 14 1 15 2 16 3 17 91 18 89 19 90 20 86 21 87 22 88 23
REMARK SMILES IDX 17 24 18 25 19 26 20 27 21 28 22 29 23 30 24 31 85 32 25 33
REMARK SMILES IDX 84 34 26 35 27 36 28 37 78 38 29 39 83 40 77 41 79 42 30 43
REMARK SMILES IDX 82 44 76 45 75 46 31 48 63 49 43 50 62 51 44 52 47 53 61 54
REMARK SMILES IDX 80 55 45 56 46 57 60 59 81 60 48 61 32 62 33 63 41 64 34 65
REMARK SMILES IDX 36 66 42 67 35 68 37 69 38 70 39 71 40 72 64 73 65 74 73 75
REMARK SMILES IDX 66 76 68 77 74 78 67 79 69 80 70 81 71 82 72 83 49 84 50 85
REMARK SMILES IDX 58 86 51 87 53 88 59 89 52 90 54 91 55 92 56 93 57 94
REMARK H PARENT 7 13 79 47 47 58
REMARK Flexibility Score: inf
ROOT
ATOM      1  C   UNL     1       1.128  -1.397   0.151  1.00  0.00     0.188 C 
ENDROOT
BRANCH   1   2
ATOM      2  C   UNL     1       2.191  -2.145   0.986  1.00  0.00     0.188 C 
BRANCH   2   3
ATOM      3  O   UNL     1       3.451  -2.256   0.348  1.00  0.00    -0.376 OA
BRANCH   3   4
ATOM      4  C   UNL     1       3.735  -3.510  -0.254  1.00  0.00     0.202 C 
BRANCH   4   5
ATOM      5  C   UNL     1       2.851  -3.912  -1.448  1.00  0.00     0.261 C 
BRANCH   5   6
ATOM      6  O   UNL     1       1.422  -3.927  -1.246  1.00  0.00    -0.462 OA
BRANCH   6   7
ATOM      7  C   UNL     1       0.938  -4.730  -0.254  1.00  0.00     0.328 C 
ATOM      8  O   UNL     1       1.668  -5.396   0.461  1.00  0.00    -0.250 OA
BRANCH   7   9
ATOM      9  C   UNL     1      -0.620  -4.721  -0.262  1.00  0.00     0.195 C 
BRANCH   9  10
ATOM     10  N   UNL     1      -1.032  -5.785  -1.173  1.00  0.00    -0.338 N 
ATOM     11  C   UNL     1      -0.940  -7.153  -1.146  1.00  0.00     0.253 C 
ATOM     12  O   UNL     1      -1.444  -7.699  -2.132  1.00  0.00    -0.269 OA
ATOM     13  H   UNL     1      -1.473  -5.446  -1.986  1.00  0.00     0.164 HD
BRANCH  11  14
ATOM     14  C   UNL     1      -0.275  -7.923  -0.071  1.00  0.00     0.053 A 
ATOM     15  C   UNL     1       1.353  -8.222   3.367  1.00  0.00     0.056 C 
ATOM     16  C   UNL     1       0.772  -8.441   2.010  1.00  0.00     0.003 A 
ATOM     17  C   UNL     1       0.150  -7.499   1.232  1.00  0.00     0.029 A 
ATOM     18  S   UNL     1       0.815  -9.928   1.211  1.00  0.00    -0.145 S 
ATOM     19  C   UNL     1       0.049  -9.277  -0.195  1.00  0.00     0.014 A 
ATOM     20  C   UNL     1      -0.155 -10.222  -1.335  1.00  0.00     0.057 C 
ENDBRANCH  11  14
ENDBRANCH   9  10
BRANCH   9  21
ATOM     21  C   UNL     1      -1.474  -4.721   1.041  1.00  0.00     0.017 C 
ATOM     22  C   UNL     1      -0.874  -3.961   2.223  1.00  0.00     0.010 C 
ATOM     23  C   UNL     1      -2.901  -4.210   0.786  1.00  0.00     0.010 C 
ENDBRANCH   9  21
ENDBRANCH   7   9
ENDBRANCH   6   7
ENDBRANCH   5   6
ENDBRANCH   4   5
ENDBRANCH   3   4
ENDBRANCH   2   3
ENDBRANCH   1   2
BRANCH   1  24
ATOM     24  O   UNL     1       1.494  -0.738  -1.051  1.00  0.00    -0.376 OA
BRANCH  24  25
ATOM     25  C   UNL     1       2.721  -0.026  -1.089  1.00  0.00     0.202 C 
BRANCH  25  26
ATOM     26  C   UNL     1       3.066   0.998   0.014  1.00  0.00     0.261 C 
BRANCH  26  27
ATOM     27  O   UNL     1       2.723   0.644   1.368  1.00  0.00    -0.460 OA
BRANCH  27  28
ATOM     28  C   UNL     1       1.622   1.246   1.880  1.00  0.00     0.338 C 
ATOM     29  O   UNL     1       0.931   2.092   1.321  1.00  0.00    -0.246 OA
BRANCH  28  30
ATOM     30  C   UNL     1       1.200   0.592   3.143  1.00  0.00     0.060 A 
ATOM     31  C   UNL     1      -0.085   0.027   3.195  1.00  0.00     0.016 A 
ATOM     32  C   UNL     1       2.007   0.588   4.282  1.00  0.00     0.016 A 
ATOM     33  C   UNL     1      -0.585  -0.497   4.386  1.00  0.00     0.010 A 
ATOM     34  C   UNL     1       1.487   0.095   5.491  1.00  0.00     0.010 A 
ATOM     35  C   UNL     1       0.172  -0.404   5.557  1.00  0.00    -0.014 A 
BRANCH  35  36
ATOM     36  C   UNL     1      -0.519  -0.585   6.862  1.00  0.00     0.031 A 
ATOM     37  C   UNL     1      -1.013   0.645   7.582  1.00  0.00     0.074 A 
ATOM     38  C   UNL     1      -0.769  -1.803   7.376  1.00  0.00     0.049 A 
ATOM     39  N   UNL     1      -1.666   0.743   8.710  1.00  0.00    -0.248 NA
ATOM     40  C   UNL     1      -0.733   1.939   6.936  1.00  0.00     0.031 C 
ATOM     41  C   UNL     1      -0.376  -3.075   6.775  1.00  0.00     0.029 A 
ATOM     42  N   UNL     1      -1.405  -2.162   8.540  1.00  0.00    -0.354 N 
ATOM     43  C   UNL     1      -1.848   2.105   8.925  1.00  0.00     0.074 A 
ATOM     44  C   UNL     1      -1.226   2.795   7.818  1.00  0.00     0.031 C 
ATOM     45  C   UNL     1      -0.754  -4.076   7.590  1.00  0.00     0.029 A 
ATOM     46  C   UNL     1      -1.398  -3.516   8.778  1.00  0.00     0.049 A 
ATOM     47  H   UNL     1      -1.827  -1.511   9.146  1.00  0.00     0.167 HD
ATOM     48  C   UNL     1      -2.487   2.730   9.943  1.00  0.00     0.034 A 
ATOM     49  C   UNL     1      -1.841  -4.218   9.841  1.00  0.00     0.034 A 
ATOM     50  C   UNL     1      -3.118   2.051  11.042  1.00  0.00     0.049 A 
ATOM     51  C   UNL     1      -2.516  -3.496  10.982  1.00  0.00     0.074 A 
ATOM     52  C   UNL     1      -3.822   2.598  12.100  1.00  0.00     0.029 A 
ATOM     53  N   UNL     1      -3.105   0.679  11.238  1.00  0.00    -0.354 N 
ATOM     54  N   UNL     1      -2.777  -2.219  11.116  1.00  0.00    -0.248 NA
ATOM     55  C   UNL     1      -2.991  -4.323  12.103  1.00  0.00     0.031 C 
ATOM     56  C   UNL     1      -4.201   1.559  12.957  1.00  0.00     0.029 A 
ATOM     57  C   UNL     1      -3.774   0.361  12.407  1.00  0.00     0.049 A 
ATOM     58  H   UNL     1      -2.682   0.027  10.634  1.00  0.00     0.167 HD
ATOM     59  C   UNL     1      -3.480  -2.094  12.312  1.00  0.00     0.074 A 
ATOM     60  C   UNL     1      -3.624  -3.430  12.851  1.00  0.00     0.031 C 
ATOM     61  C   UNL     1      -3.954  -0.975  12.915  1.00  0.00     0.034 A 
BRANCH  48  62
ATOM     62  C   UNL     1      -2.539   4.236   9.911  1.00  0.00     0.023 A 
ATOM     63  C   UNL     1      -3.351   4.893   8.963  1.00  0.00     0.012 A 
ATOM     64  C   UNL     1      -1.815   4.998  10.848  1.00  0.00     0.148 A 
ATOM     65  C   UNL     1      -3.412   6.285   8.925  1.00  0.00     0.002 A 
ATOM     66  C   UNL     1      -1.921   6.384  10.836  1.00  0.00     0.091 A 
ATOM     67  F   UNL     1      -1.032   4.356  11.726  1.00  0.00    -0.205 F 
ATOM     68  C   UNL     1      -2.707   7.029   9.867  1.00  0.00     0.022 A 
BRANCH  66  69
ATOM     69  S   UNL     1      -1.117   7.427  12.057  1.00  0.00     0.127 S 
ATOM     70  O   UNL     1      -0.109   8.107  11.245  1.00  0.00    -0.237 OA
ATOM     71  O   UNL     1      -2.219   8.280  12.503  1.00  0.00    -0.237 OA
ATOM     72  O   UNL     1      -0.594   6.527  13.075  1.00  0.00    -0.744 OA
ENDBRANCH  66  69
ENDBRANCH  48  62
BRANCH  49  73
ATOM     73  C   UNL     1      -1.681  -5.701   9.880  1.00  0.00     0.023 A 
ATOM     74  C   UNL     1      -2.818  -6.532   9.828  1.00  0.00     0.012 A 
ATOM     75  C   UNL     1      -0.406  -6.290   9.984  1.00  0.00     0.148 A 
ATOM     76  C   UNL     1      -2.690  -7.919   9.916  1.00  0.00     0.002 A 
ATOM     77  C   UNL     1      -0.281  -7.673  10.012  1.00  0.00     0.091 A 
ATOM     78  F   UNL     1       0.662  -5.482  10.051  1.00  0.00    -0.205 F 
ATOM     79  C   UNL     1      -1.423  -8.490   9.998  1.00  0.00     0.022 A 
BRANCH  77  80
ATOM     80  S   UNL     1       1.313  -8.498   9.991  1.00  0.00     0.127 S 
ATOM     81  O   UNL     1       1.343  -9.127  11.309  1.00  0.00    -0.237 OA
ATOM     82  O   UNL     1       1.154  -9.423   8.868  1.00  0.00    -0.237 OA
ATOM     83  O   UNL     1       2.299  -7.449   9.771  1.00  0.00    -0.744 OA
ENDBRANCH  77  80
ENDBRANCH  49  73
BRANCH  61  84
ATOM     84  C   UNL     1      -4.719  -1.141  14.206  1.00  0.00     0.023 A 
ATOM     85  C   UNL     1      -4.051  -1.540  15.381  1.00  0.00     0.012 A 
ATOM     86  C   UNL     1      -6.098  -0.849  14.264  1.00  0.00     0.148 A 
ATOM     87  C   UNL     1      -4.750  -1.694  16.579  1.00  0.00     0.002 A 
ATOM     88  C   UNL     1      -6.776  -0.951  15.473  1.00  0.00     0.091 A 
ATOM     89  F   UNL     1      -6.723  -0.484  13.135  1.00  0.00    -0.205 F 
ATOM     90  C   UNL     1      -6.108  -1.390  16.627  1.00  0.00     0.022 A 
BRANCH  88  91
ATOM     91  S   UNL     1      -8.502  -0.483  15.651  1.00  0.00     0.127 S 
ATOM     92  O   UNL     1      -9.151  -1.786  15.785  1.00  0.00    -0.237 OA
ATOM     93  O   UNL     1      -8.482   0.317  16.876  1.00  0.00    -0.237 OA
ATOM     94  O   UNL     1      -8.841   0.265  14.448  1.00  0.00    -0.744 OA
ENDBRANCH  88  91
ENDBRANCH  61  84
ENDBRANCH  35  36
ENDBRANCH  28  30
ENDBRANCH  27  28
ENDBRANCH  26  27
ENDBRANCH  25  26
ENDBRANCH  24  25
ENDBRANCH   1  24
TORSDOF 23
