REMARK SMILES CC[C@@H]1CCCN(S(=O)(=O)c2cc(C(=O)OCCOCCOCCOC(=O)c3ccc(-c4c5nc(c(-c6cccc(S(=O)(=O)[O-])c6F)c6ccc([nH]6)c(-c6cccc(S(=O)(=O)[O-])c6F)c6nc(c(-c7cccc(S(=O)(=O)[O-])c7F)c7ccc4[nH]7)C=C6)C=C5)cc3)ccc2F)C1
REMARK SMILES IDX 20 1 19 2 18 3 17 4 16 5 14 6 15 7 13 8 11 9 12 10 93 11
REMARK SMILES IDX 92 12 94 13 91 14 8 15 9 16 10 17 7 18 3 19 4 20 95 21 5 22
REMARK SMILES IDX 6 23 2 24 1 25 21 26 22 27 23 28 24 29 25 30 26 31 27 32
REMARK SMILES IDX 28 33 29 34 90 35 30 36 89 37 31 38 32 39 33 40 83 41 34 42
REMARK SMILES IDX 88 43 82 44 84 45 35 46 87 47 81 48 80 49 36 51 68 52 48 53
REMARK SMILES IDX 67 54 49 55 52 56 66 57 85 58 50 59 51 60 65 62 86 63 53 64
REMARK SMILES IDX 37 65 38 66 46 67 39 68 41 69 47 70 40 71 42 72 43 73 44 74
REMARK SMILES IDX 45 75 69 76 70 77 78 78 71 79 73 80 79 81 72 82 74 83 75 84
REMARK SMILES IDX 76 85 77 86 54 87 55 88 63 89 56 90 58 91 64 92 57 93 59 94
REMARK SMILES IDX 60 95 61 96 62 97
REMARK H PARENT 84 50 52 61
REMARK Flexibility Score: inf
ROOT
ATOM      1  C   UNL     1      -7.619  -5.258   3.122  1.00  0.00     0.188 C 
ENDROOT
BRANCH   1   2
ATOM      2  O   UNL     1      -8.957  -4.802   3.143  1.00  0.00    -0.376 OA
BRANCH   2   3
ATOM      3  C   UNL     1      -9.765  -4.886   1.981  1.00  0.00     0.202 C 
BRANCH   3   4
ATOM      4  C   UNL     1      -9.219  -4.629   0.569  1.00  0.00     0.261 C 
BRANCH   4   5
ATOM      5  O   UNL     1      -7.957  -5.244   0.282  1.00  0.00    -0.460 OA
BRANCH   5   6
ATOM      6  C   UNL     1      -6.963  -4.388  -0.087  1.00  0.00     0.338 C 
ATOM      7  O   UNL     1      -7.044  -3.201  -0.271  1.00  0.00    -0.246 OA
BRANCH   6   8
ATOM      8  C   UNL     1      -5.675  -5.127  -0.086  1.00  0.00     0.061 A 
ATOM      9  C   UNL     1      -3.366  -5.246   0.630  1.00  0.00     0.119 A 
ATOM     10  C   UNL     1      -4.568  -4.534   0.538  1.00  0.00     0.040 A 
ATOM     11  C   UNL     1      -3.282  -6.534   0.110  1.00  0.00     0.143 A 
ATOM     12  C   UNL     1      -4.375  -7.113  -0.534  1.00  0.00     0.041 A 
ATOM     13  F   UNL     1      -2.149  -7.246   0.177  1.00  0.00    -0.206 F 
ATOM     14  C   UNL     1      -5.578  -6.414  -0.630  1.00  0.00     0.019 A 
BRANCH   9  15
ATOM     15  S   UNL     1      -2.017  -4.587   1.567  1.00  0.00     0.246 S 
ATOM     16  O   UNL     1      -1.321  -5.689   2.195  1.00  0.00    -0.207 OA
ATOM     17  O   UNL     1      -2.557  -3.514   2.374  1.00  0.00    -0.207 OA
BRANCH  15  18
ATOM     18  N   UNL     1      -0.958  -3.880   0.391  1.00  0.00    -0.197 NA
ATOM     19  C   UNL     1       1.099  -2.430   0.073  1.00  0.00     0.004 C 
ATOM     20  C   UNL     1       1.594  -3.436  -0.973  1.00  0.00     0.006 C 
ATOM     21  C   UNL     1       0.148  -3.113   1.077  1.00  0.00     0.106 C 
ATOM     22  C   UNL     1       0.434  -4.158  -1.635  1.00  0.00     0.017 C 
ATOM     23  C   UNL     1      -0.416  -4.862  -0.589  1.00  0.00     0.102 C 
BRANCH  19  24
ATOM     24  C   UNL     1       0.459  -1.193  -0.594  1.00  0.00     0.001 C 
ATOM     25  C   UNL     1       0.830   0.095   0.132  1.00  0.00     0.004 C 
ENDBRANCH  19  24
ENDBRANCH  15  18
ENDBRANCH   9  15
ENDBRANCH   6   8
ENDBRANCH   5   6
ENDBRANCH   4   5
ENDBRANCH   3   4
ENDBRANCH   2   3
ENDBRANCH   1   2
BRANCH   1  26
ATOM     26  C   UNL     1      -7.314  -6.732   2.792  1.00  0.00     0.188 C 
BRANCH  26  27
ATOM     27  O   UNL     1      -8.360  -7.580   2.376  1.00  0.00    -0.376 OA
BRANCH  27  28
ATOM     28  C   UNL     1      -9.340  -8.029   3.297  1.00  0.00     0.202 C 
BRANCH  28  29
ATOM     29  C   UNL     1      -9.237  -7.984   4.834  1.00  0.00     0.261 C 
BRANCH  29  30
ATOM     30  O   UNL     1      -8.317  -7.064   5.419  1.00  0.00    -0.460 OA
BRANCH  30  31
ATOM     31  C   UNL     1      -7.192  -7.627   5.927  1.00  0.00     0.338 C 
ATOM     32  O   UNL     1      -6.877  -8.804   5.889  1.00  0.00    -0.246 OA
BRANCH  31  33
ATOM     33  C   UNL     1      -6.289  -6.560   6.389  1.00  0.00     0.060 A 
ATOM     34  C   UNL     1      -5.056  -6.403   5.743  1.00  0.00     0.016 A 
ATOM     35  C   UNL     1      -6.629  -5.763   7.483  1.00  0.00     0.016 A 
ATOM     36  C   UNL     1      -4.136  -5.471   6.218  1.00  0.00     0.010 A 
ATOM     37  C   UNL     1      -5.697  -4.844   7.970  1.00  0.00     0.010 A 
ATOM     38  C   UNL     1      -4.433  -4.724   7.365  1.00  0.00    -0.014 A 
BRANCH  38  39
ATOM     39  C   UNL     1      -3.352  -3.972   8.046  1.00  0.00     0.031 A 
ATOM     40  C   UNL     1      -2.677  -4.608   9.232  1.00  0.00     0.074 A 
ATOM     41  C   UNL     1      -2.969  -2.756   7.620  1.00  0.00     0.049 A 
ATOM     42  N   UNL     1      -1.736  -4.130  10.002  1.00  0.00    -0.248 NA
ATOM     43  C   UNL     1      -3.122  -5.965   9.600  1.00  0.00     0.031 C 
ATOM     44  C   UNL     1      -3.533  -2.046   6.474  1.00  0.00     0.029 A 
ATOM     45  N   UNL     1      -2.025  -1.894   8.121  1.00  0.00    -0.354 N 
ATOM     46  C   UNL     1      -1.495  -5.111  10.957  1.00  0.00     0.074 A 
ATOM     47  C   UNL     1      -2.396  -6.207  10.681  1.00  0.00     0.031 C 
ATOM     48  C   UNL     1      -2.945  -0.841   6.377  1.00  0.00     0.029 A 
ATOM     49  C   UNL     1      -1.979  -0.687   7.464  1.00  0.00     0.049 A 
ATOM     50  H   UNL     1      -1.437  -2.119   8.878  1.00  0.00     0.167 HD
ATOM     51  C   UNL     1      -0.589  -5.106  11.961  1.00  0.00     0.034 A 
ATOM     52  C   UNL     1      -1.253   0.421   7.724  1.00  0.00     0.034 A 
ATOM     53  C   UNL     1       0.332  -4.033  12.209  1.00  0.00     0.049 A 
ATOM     54  C   UNL     1      -0.269   0.408   8.867  1.00  0.00     0.074 A 
ATOM     55  C   UNL     1       1.325  -3.965  13.170  1.00  0.00     0.029 A 
ATOM     56  N   UNL     1       0.371  -2.842  11.504  1.00  0.00    -0.354 N 
ATOM     57  N   UNL     1       0.031  -0.570   9.688  1.00  0.00    -0.248 NA
ATOM     58  C   UNL     1       0.500   1.640   9.104  1.00  0.00     0.031 C 
ATOM     59  C   UNL     1       1.945  -2.719  13.066  1.00  0.00     0.029 A 
ATOM     60  C   UNL     1       1.361  -2.024  12.019  1.00  0.00     0.049 A 
ATOM     61  H   UNL     1      -0.216  -2.612  10.748  1.00  0.00     0.167 HD
ATOM     62  C   UNL     1       1.041  -0.085  10.513  1.00  0.00     0.074 A 
ATOM     63  C   UNL     1       1.317   1.269  10.082  1.00  0.00     0.031 C 
ATOM     64  C   UNL     1       1.669  -0.700  11.544  1.00  0.00     0.034 A 
BRANCH  51  65
ATOM     65  C   UNL     1      -0.507  -6.314  12.853  1.00  0.00     0.023 A 
ATOM     66  C   UNL     1       0.101  -7.491  12.373  1.00  0.00     0.012 A 
ATOM     67  C   UNL     1      -0.917  -6.242  14.199  1.00  0.00     0.148 A 
ATOM     68  C   UNL     1       0.292  -8.583  13.217  1.00  0.00     0.002 A 
ATOM     69  C   UNL     1      -0.682  -7.318  15.045  1.00  0.00     0.091 A 
ATOM     70  F   UNL     1      -1.509  -5.118  14.626  1.00  0.00    -0.205 F 
ATOM     71  C   UNL     1      -0.085  -8.491  14.555  1.00  0.00     0.022 A 
BRANCH  69  72
ATOM     72  S   UNL     1      -1.050  -7.271  16.803  1.00  0.00     0.127 S 
ATOM     73  O   UNL     1      -2.078  -8.306  16.918  1.00  0.00    -0.237 OA
ATOM     74  O   UNL     1       0.240  -7.626  17.394  1.00  0.00    -0.237 OA
ATOM     75  O   UNL     1      -1.503  -5.917  17.087  1.00  0.00    -0.744 OA
ENDBRANCH  69  72
ENDBRANCH  51  65
BRANCH  52  76
ATOM     76  C   UNL     1      -1.407   1.628   6.862  1.00  0.00     0.023 A 
ATOM     77  C   UNL     1      -0.347   2.023   6.023  1.00  0.00     0.012 A 
ATOM     78  C   UNL     1      -2.603   2.374   6.854  1.00  0.00     0.148 A 
ATOM     79  C   UNL     1      -0.465   3.152   5.212  1.00  0.00     0.002 A 
ATOM     80  C   UNL     1      -2.733   3.465   6.003  1.00  0.00     0.091 A 
ATOM     81  F   UNL     1      -3.592   1.997   7.677  1.00  0.00    -0.205 F 
ATOM     82  C   UNL     1      -1.660   3.866   5.193  1.00  0.00     0.022 A 
BRANCH  80  83
ATOM     83  S   UNL     1      -4.275   4.371   5.823  1.00  0.00     0.127 S 
ATOM     84  O   UNL     1      -3.942   5.653   6.438  1.00  0.00    -0.237 OA
ATOM     85  O   UNL     1      -4.434   4.409   4.369  1.00  0.00    -0.237 OA
ATOM     86  O   UNL     1      -5.281   3.579   6.518  1.00  0.00    -0.744 OA
ENDBRANCH  80  83
ENDBRANCH  52  76
BRANCH  64  87
ATOM     87  C   UNL     1       2.743   0.055  12.287  1.00  0.00     0.023 A 
ATOM     88  C   UNL     1       2.379   1.084  13.176  1.00  0.00     0.012 A 
ATOM     89  C   UNL     1       4.090  -0.356  12.216  1.00  0.00     0.148 A 
ATOM     90  C   UNL     1       3.341   1.703  13.973  1.00  0.00     0.002 A 
ATOM     91  C   UNL     1       5.034   0.231  13.050  1.00  0.00     0.091 A 
ATOM     92  F   UNL     1       4.415  -1.333  11.356  1.00  0.00    -0.205 F 
ATOM     93  C   UNL     1       4.663   1.267  13.922  1.00  0.00     0.022 A 
BRANCH  91  94
ATOM     94  S   UNL     1       6.738  -0.335  13.135  1.00  0.00     0.127 S 
ATOM     95  O   UNL     1       7.459   0.808  12.577  1.00  0.00    -0.237 OA
ATOM     96  O   UNL     1       6.927  -0.532  14.572  1.00  0.00    -0.237 OA
ATOM     97  O   UNL     1       6.800  -1.554  12.341  1.00  0.00    -0.744 OA
ENDBRANCH  91  94
ENDBRANCH  64  87
ENDBRANCH  38  39
ENDBRANCH  31  33
ENDBRANCH  30  31
ENDBRANCH  29  30
ENDBRANCH  28  29
ENDBRANCH  27  28
ENDBRANCH  26  27
ENDBRANCH   1  26
TORSDOF 23
