REMARK SMILES COCC[C@@]1(C(=O)OCCOCCOCCOC(=O)c2ccc(-c3c4nc(c(-c5cccc(S(=O)(=O)[O-])c5F)c5ccc([nH]5)c(-c5cccc(S(=O)(=O)[O-])c5F)c5nc(c(-c6cccc(S(=O)(=O)[O-])c6F)c6ccc3[nH]6)C=C5)C=C4)cc2)CCCN(C(=O)NCc2ccc(OC)cc2)C1
REMARK SMILES IDX 12 1 11 2 10 3 9 4 8 5 6 6 7 7 5 8 83 9 99 10 84 11 86 12
REMARK SMILES IDX 85 13 4 14 3 15 2 16 1 17 87 18 88 19 89 20 90 22 91 23
REMARK SMILES IDX 92 24 98 25 93 26 97 27 94 28 95 29 96 30 13 31 14 32 15 33
REMARK SMILES IDX 16 34 17 35 18 36 19 37 20 38 21 39 82 40 22 41 81 42 23 43
REMARK SMILES IDX 24 44 25 45 75 46 26 47 80 48 74 49 76 50 27 51 79 52 73 53
REMARK SMILES IDX 72 54 28 56 60 57 40 58 59 59 41 60 44 61 58 62 77 63 42 64
REMARK SMILES IDX 43 65 57 67 78 68 45 69 29 70 30 71 38 72 31 73 33 74 39 75
REMARK SMILES IDX 32 76 34 77 35 78 36 79 37 80 61 81 62 82 70 83 63 84 65 85
REMARK SMILES IDX 71 86 64 87 66 88 67 89 68 90 69 91 46 92 47 93 55 94 48 95
REMARK SMILES IDX 50 96 56 97 49 98 51 99 52 100 53 101 54 102
REMARK H PARENT 89 21 76 55 44 66
REMARK Flexibility Score: inf
ROOT
ATOM      1  C   UNL     1      -0.840  -2.075  -0.792  1.00  0.00     0.188 C 
ENDROOT
BRANCH   1   2
ATOM      2  O   UNL     1      -1.510  -3.044  -1.579  1.00  0.00    -0.376 OA
BRANCH   2   3
ATOM      3  C   UNL     1      -1.995  -2.605  -2.836  1.00  0.00     0.202 C 
BRANCH   3   4
ATOM      4  C   UNL     1      -0.940  -2.109  -3.823  1.00  0.00     0.261 C 
BRANCH   4   5
ATOM      5  O   UNL     1      -0.021  -1.146  -3.286  1.00  0.00    -0.463 OA
BRANCH   5   6
ATOM      6  C   UNL     1      -0.318   0.177  -3.278  1.00  0.00     0.314 C 
ATOM      7  O   UNL     1      -1.429   0.623  -3.516  1.00  0.00    -0.252 OA
BRANCH   6   8
ATOM      8  C   UNL     1       0.939   1.010  -2.910  1.00  0.00     0.088 C 
ATOM      9  C   UNL     1       0.785   2.441  -3.505  1.00  0.00     0.022 C 
ATOM     10  C   UNL     1       2.164   0.312  -3.571  1.00  0.00     0.140 C 
ATOM     11  C   UNL     1       0.860   2.482  -5.032  1.00  0.00     0.023 C 
ATOM     12  N   UNL     1       2.072   0.384  -5.033  1.00  0.00    -0.324 N 
ATOM     13  C   UNL     1       2.105   1.755  -5.512  1.00  0.00     0.121 C 
BRANCH   8  14
ATOM     14  C   UNL     1       1.024   1.161  -1.352  1.00  0.00     0.049 C 
BRANCH  14  15
ATOM     15  C   UNL     1       2.397   0.998  -0.693  1.00  0.00     0.161 C 
BRANCH  15  16
ATOM     16  O   UNL     1       3.232   2.085  -1.071  1.00  0.00    -0.385 OA
ATOM     17  C   UNL     1       4.536   1.723  -1.502  1.00  0.00     0.194 C 
ENDBRANCH  15  16
ENDBRANCH  14  15
ENDBRANCH   8  14
BRANCH  12  18
ATOM     18  C   UNL     1       1.847  -0.769  -5.725  1.00  0.00     0.317 C 
ATOM     19  O   UNL     1       2.058  -1.882  -5.234  1.00  0.00    -0.249 OA
ATOM     20  N   UNL     1       1.317  -0.794  -6.957  1.00  0.00    -0.334 N 
ATOM     21  H   UNL     1       1.182  -1.715  -7.278  1.00  0.00     0.165 HD
BRANCH  20  22
ATOM     22  C   UNL     1       0.894   0.184  -7.937  1.00  0.00     0.153 C 
BRANCH  22  23
ATOM     23  C   UNL     1       2.018   0.523  -8.887  1.00  0.00    -0.028 A 
ATOM     24  C   UNL     1       2.821  -0.489  -9.431  1.00  0.00     0.009 A 
ATOM     25  C   UNL     1       2.281   1.852  -9.246  1.00  0.00     0.009 A 
ATOM     26  C   UNL     1       3.878  -0.175 -10.284  1.00  0.00     0.047 A 
ATOM     27  C   UNL     1       3.347   2.165 -10.096  1.00  0.00     0.047 A 
ATOM     28  C   UNL     1       4.144   1.150 -10.626  1.00  0.00     0.118 A 
BRANCH  28  29
ATOM     29  O   UNL     1       5.205   1.317 -11.472  1.00  0.00    -0.497 OA
ATOM     30  C   UNL     1       5.368   2.614 -12.030  1.00  0.00     0.278 C 
ENDBRANCH  28  29
ENDBRANCH  22  23
ENDBRANCH  20  22
ENDBRANCH  12  18
ENDBRANCH   6   8
ENDBRANCH   5   6
ENDBRANCH   4   5
ENDBRANCH   3   4
ENDBRANCH   2   3
ENDBRANCH   1   2
BRANCH   1  31
ATOM     31  C   UNL     1       0.683  -2.329  -0.696  1.00  0.00     0.188 C 
BRANCH  31  32
ATOM     32  O   UNL     1       1.218  -3.640  -0.825  1.00  0.00    -0.376 OA
BRANCH  32  33
ATOM     33  C   UNL     1       0.427  -4.745  -0.428  1.00  0.00     0.202 C 
BRANCH  33  34
ATOM     34  C   UNL     1       0.053  -4.854   1.058  1.00  0.00     0.261 C 
BRANCH  34  35
ATOM     35  O   UNL     1      -0.507  -3.666   1.651  1.00  0.00    -0.460 OA
BRANCH  35  36
ATOM     36  C   UNL     1       0.315  -2.964   2.475  1.00  0.00     0.338 C 
ATOM     37  O   UNL     1       1.447  -3.269   2.803  1.00  0.00    -0.246 OA
BRANCH  36  38
ATOM     38  C   UNL     1      -0.273  -1.635   2.792  1.00  0.00     0.060 A 
ATOM     39  C   UNL     1       0.487  -0.494   2.494  1.00  0.00     0.016 A 
ATOM     40  C   UNL     1      -1.509  -1.496   3.425  1.00  0.00     0.016 A 
ATOM     41  C   UNL     1       0.029   0.781   2.838  1.00  0.00     0.010 A 
ATOM     42  C   UNL     1      -1.952  -0.216   3.803  1.00  0.00     0.010 A 
ATOM     43  C   UNL     1      -1.174   0.928   3.537  1.00  0.00    -0.014 A 
BRANCH  43  44
ATOM     44  C   UNL     1      -1.509   2.237   4.164  1.00  0.00     0.031 A 
ATOM     45  C   UNL     1      -1.183   2.439   5.623  1.00  0.00     0.074 A 
ATOM     46  C   UNL     1      -2.072   3.243   3.469  1.00  0.00     0.049 A 
ATOM     47  N   UNL     1      -1.446   3.456   6.402  1.00  0.00    -0.248 NA
ATOM     48  C   UNL     1      -0.457   1.344   6.288  1.00  0.00     0.031 C 
ATOM     49  C   UNL     1      -2.397   3.213   2.045  1.00  0.00     0.029 A 
ATOM     50  N   UNL     1      -2.494   4.486   3.883  1.00  0.00    -0.354 N 
ATOM     51  C   UNL     1      -0.952   3.112   7.655  1.00  0.00     0.074 A 
ATOM     52  C   UNL     1      -0.374   1.791   7.532  1.00  0.00     0.031 C 
ATOM     53  C   UNL     1      -2.999   4.370   1.710  1.00  0.00     0.029 A 
ATOM     54  C   UNL     1      -3.134   5.208   2.902  1.00  0.00     0.049 A 
ATOM     55  H   UNL     1      -2.350   4.827   4.795  1.00  0.00     0.167 HD
ATOM     56  C   UNL     1      -0.969   3.827   8.805  1.00  0.00     0.034 A 
ATOM     57  C   UNL     1      -3.784   6.390   2.965  1.00  0.00     0.034 A 
ATOM     58  C   UNL     1      -1.528   5.145   8.935  1.00  0.00     0.049 A 
ATOM     59  C   UNL     1      -3.845   7.140   4.275  1.00  0.00     0.074 A 
ATOM     60  C   UNL     1      -1.572   5.953  10.058  1.00  0.00     0.029 A 
ATOM     61  N   UNL     1      -2.152   5.846   7.916  1.00  0.00    -0.354 N 
ATOM     62  N   UNL     1      -3.305   6.837   5.431  1.00  0.00    -0.248 NA
ATOM     63  C   UNL     1      -4.587   8.412   4.282  1.00  0.00     0.031 C 
ATOM     64  C   UNL     1      -2.254   7.128   9.727  1.00  0.00     0.029 A 
ATOM     65  C   UNL     1      -2.596   7.070   8.386  1.00  0.00     0.049 A 
ATOM     66  H   UNL     1      -2.264   5.521   6.993  1.00  0.00     0.167 HD
ATOM     67  C   UNL     1      -3.603   7.896   6.284  1.00  0.00     0.074 A 
ATOM     68  C   UNL     1      -4.357   8.858   5.509  1.00  0.00     0.031 C 
ATOM     69  C   UNL     1      -3.291   8.053   7.595  1.00  0.00     0.034 A 
BRANCH  56  70
ATOM     70  C   UNL     1      -0.355   3.197  10.028  1.00  0.00     0.023 A 
ATOM     71  C   UNL     1       1.046   3.073  10.126  1.00  0.00     0.012 A 
ATOM     72  C   UNL     1      -1.164   2.778  11.102  1.00  0.00     0.148 A 
ATOM     73  C   UNL     1       1.630   2.511  11.260  1.00  0.00     0.002 A 
ATOM     74  C   UNL     1      -0.572   2.262  12.249  1.00  0.00     0.091 A 
ATOM     75  F   UNL     1      -2.494   2.887  10.981  1.00  0.00    -0.205 F 
ATOM     76  C   UNL     1       0.823   2.116  12.324  1.00  0.00     0.022 A 
BRANCH  74  77
ATOM     77  S   UNL     1      -1.517   1.800  13.704  1.00  0.00     0.127 S 
ATOM     78  O   UNL     1      -1.354   0.347  13.712  1.00  0.00    -0.237 OA
ATOM     79  O   UNL     1      -0.800   2.500  14.770  1.00  0.00    -0.237 OA
ATOM     80  O   UNL     1      -2.875   2.272  13.471  1.00  0.00    -0.744 OA
ENDBRANCH  74  77
ENDBRANCH  56  70
BRANCH  57  81
ATOM     81  C   UNL     1      -4.439   6.960   1.750  1.00  0.00     0.023 A 
ATOM     82  C   UNL     1      -3.950   8.158   1.191  1.00  0.00     0.012 A 
ATOM     83  C   UNL     1      -5.562   6.342   1.167  1.00  0.00     0.148 A 
ATOM     84  C   UNL     1      -4.592   8.750   0.101  1.00  0.00     0.002 A 
ATOM     85  C   UNL     1      -6.162   6.906   0.046  1.00  0.00     0.091 A 
ATOM     86  F   UNL     1      -6.028   5.216   1.726  1.00  0.00    -0.205 F 
ATOM     87  C   UNL     1      -5.691   8.120  -0.476  1.00  0.00     0.022 A 
BRANCH  85  88
ATOM     88  S   UNL     1      -7.509   6.109  -0.833  1.00  0.00     0.127 S 
ATOM     89  O   UNL     1      -8.625   7.009  -0.552  1.00  0.00    -0.237 OA
ATOM     90  O   UNL     1      -7.026   6.139  -2.214  1.00  0.00    -0.237 OA
ATOM     91  O   UNL     1      -7.617   4.773  -0.262  1.00  0.00    -0.744 OA
ENDBRANCH  85  88
ENDBRANCH  57  81
BRANCH  69  92
ATOM     92  C   UNL     1      -3.705   9.334   8.277  1.00  0.00     0.023 A 
ATOM     93  C   UNL     1      -5.061   9.575   8.571  1.00  0.00     0.012 A 
ATOM     94  C   UNL     1      -2.733  10.264   8.702  1.00  0.00     0.148 A 
ATOM     95  C   UNL     1      -5.447  10.735   9.243  1.00  0.00     0.002 A 
ATOM     96  C   UNL     1      -3.119  11.391   9.417  1.00  0.00     0.091 A 
ATOM     97  F   UNL     1      -1.448  10.026   8.402  1.00  0.00    -0.205 F 
ATOM     98  C   UNL     1      -4.477  11.636   9.677  1.00  0.00     0.022 A 
BRANCH  96  99
ATOM     99  S   UNL     1      -1.934  12.556  10.101  1.00  0.00     0.127 S 
ATOM    100  O   UNL     1      -2.150  13.730   9.258  1.00  0.00    -0.237 OA
ATOM    101  O   UNL     1      -2.402  12.700  11.480  1.00  0.00    -0.237 OA
ATOM    102  O   UNL     1      -0.627  11.925   9.969  1.00  0.00    -0.744 OA
ENDBRANCH  96  99
ENDBRANCH  69  92
ENDBRANCH  43  44
ENDBRANCH  36  38
ENDBRANCH  35  36
ENDBRANCH  34  35
ENDBRANCH  33  34
ENDBRANCH  32  33
ENDBRANCH  31  32
ENDBRANCH   1  31
TORSDOF 27
