REMARK SMILES Cc1cs/c(=N\S(=O)(=O)c2ccc(/C=C/C(=O)OCCOCCOCCOC(=O)c3ccc(-c4c5nc(c(-c6cccc(S(=O)(=O)[O-])c6F)c6ccc([nH]6)c(-c6cccc(S(=O)(=O)[O-])c6F)c6nc(c(-c7cccc(S(=O)(=O)[O-])c7F)c7ccc4[nH]7)C=C6)C=C5)cc3)cc2)[nH]1
REMARK SMILES IDX 22 1 21 2 20 3 19 4 18 5 16 6 17 7 15 8 14 9 13 10 10 11
REMARK SMILES IDX 11 12 94 13 12 14 93 15 7 16 8 17 9 18 6 19 1 20 2 21 3 22
REMARK SMILES IDX 95 23 4 24 5 25 23 27 24 28 25 29 26 30 27 31 28 32 29 33
REMARK SMILES IDX 30 34 31 35 92 36 32 37 91 38 33 39 34 40 35 41 85 42 36 43
REMARK SMILES IDX 90 44 84 45 86 46 37 47 89 48 83 49 82 50 38 52 70 53 50 54
REMARK SMILES IDX 69 55 51 56 54 57 68 58 87 59 52 60 53 61 67 63 88 64 55 65
REMARK SMILES IDX 39 66 40 67 48 68 41 69 43 70 49 71 42 72 44 73 45 74 46 75
REMARK SMILES IDX 47 76 71 77 72 78 80 79 73 80 75 81 81 82 74 83 76 84 77 85
REMARK SMILES IDX 78 86 79 87 56 88 57 89 65 90 58 91 60 92 66 93 59 94 61 95
REMARK SMILES IDX 62 96 63 97 64 98
REMARK H PARENT 95 26 86 51 54 62
REMARK Flexibility Score: inf
ROOT
ATOM      1  C   UNL     1     -10.995  -6.568   1.841  1.00  0.00     0.188 C 
ENDROOT
BRANCH   1   2
ATOM      2  O   UNL     1     -11.754  -7.741   1.658  1.00  0.00    -0.376 OA
BRANCH   2   3
ATOM      3  C   UNL     1     -11.470  -8.632   0.595  1.00  0.00     0.202 C 
BRANCH   3   4
ATOM      4  C   UNL     1     -10.497  -8.370  -0.572  1.00  0.00     0.261 C 
BRANCH   4   5
ATOM      5  O   UNL     1      -9.493  -7.364  -0.399  1.00  0.00    -0.460 OA
BRANCH   5   6
ATOM      6  C   UNL     1      -9.630  -6.274  -1.194  1.00  0.00     0.330 C 
ATOM      7  O   UNL     1     -10.502  -6.096  -2.030  1.00  0.00    -0.247 OA
BRANCH   6   8
ATOM      8  C   UNL     1      -8.648  -5.215  -0.884  1.00  0.00     0.094 C 
ATOM      9  C   UNL     1      -7.453  -5.386  -0.297  1.00  0.00     0.015 C 
BRANCH   9  10
ATOM     10  C   UNL     1      -6.508  -4.274  -0.086  1.00  0.00    -0.025 A 
ATOM     11  C   UNL     1      -4.657  -2.170   0.099  1.00  0.00     0.089 A 
ATOM     12  C   UNL     1      -6.020  -1.913   0.266  1.00  0.00     0.023 A 
ATOM     13  C   UNL     1      -4.202  -3.476  -0.087  1.00  0.00     0.023 A 
ATOM     14  C   UNL     1      -6.938  -2.965   0.183  1.00  0.00     0.009 A 
ATOM     15  C   UNL     1      -5.129  -4.523  -0.171  1.00  0.00     0.009 A 
BRANCH  11  16
ATOM     16  S   UNL     1      -3.540  -0.776   0.081  1.00  0.00     0.285 S 
ATOM     17  O   UNL     1      -3.751  -0.092   1.335  1.00  0.00    -0.199 OA
ATOM     18  O   UNL     1      -3.783  -0.125  -1.197  1.00  0.00    -0.199 OA
BRANCH  16  19
ATOM     19  N   UNL     1      -2.055  -1.418   0.068  1.00  0.00    -0.130 NA
ATOM     20  C   UNL     1       2.714  -0.551   0.009  1.00  0.00     0.065 C 
ATOM     21  C   UNL     1       1.278  -0.155   0.002  1.00  0.00     0.024 A 
ATOM     22  C   UNL     1       0.808   1.104  -0.018  1.00  0.00     0.089 A 
ATOM     23  N   UNL     1       0.278  -1.107   0.024  1.00  0.00    -0.334 N 
ATOM     24  S   UNL     1      -0.942   1.132  -0.010  1.00  0.00    -0.104 S 
ATOM     25  C   UNL     1      -1.021  -0.652   0.033  1.00  0.00     0.199 A 
ATOM     26  H   UNL     1       0.485  -2.070   0.034  1.00  0.00     0.169 HD
ENDBRANCH  16  19
ENDBRANCH  11  16
ENDBRANCH   9  10
ENDBRANCH   6   8
ENDBRANCH   5   6
ENDBRANCH   4   5
ENDBRANCH   3   4
ENDBRANCH   2   3
ENDBRANCH   1   2
BRANCH   1  27
ATOM     27  C   UNL     1      -9.595  -6.726   2.462  1.00  0.00     0.188 C 
BRANCH  27  28
ATOM     28  O   UNL     1      -9.013  -8.009   2.555  1.00  0.00    -0.376 OA
BRANCH  28  29
ATOM     29  C   UNL     1      -9.584  -8.994   3.402  1.00  0.00     0.202 C 
BRANCH  29  30
ATOM     30  C   UNL     1     -10.464  -8.715   4.639  1.00  0.00     0.261 C 
BRANCH  30  31
ATOM     31  O   UNL     1     -11.192  -7.487   4.684  1.00  0.00    -0.460 OA
BRANCH  31  32
ATOM     32  C   UNL     1     -10.705  -6.554   5.539  1.00  0.00     0.338 C 
ATOM     33  O   UNL     1      -9.709  -6.640   6.235  1.00  0.00    -0.246 OA
BRANCH  32  34
ATOM     34  C   UNL     1     -11.476  -5.310   5.371  1.00  0.00     0.060 A 
ATOM     35  C   UNL     1     -10.843  -4.200   4.796  1.00  0.00     0.016 A 
ATOM     36  C   UNL     1     -12.796  -5.227   5.815  1.00  0.00     0.016 A 
ATOM     37  C   UNL     1     -11.529  -2.993   4.674  1.00  0.00     0.010 A 
ATOM     38  C   UNL     1     -13.473  -4.009   5.712  1.00  0.00     0.010 A 
ATOM     39  C   UNL     1     -12.835  -2.881   5.164  1.00  0.00    -0.014 A 
BRANCH  39  40
ATOM     40  C   UNL     1     -13.482  -1.549   5.239  1.00  0.00     0.031 A 
ATOM     41  C   UNL     1     -13.504  -0.828   6.558  1.00  0.00     0.074 A 
ATOM     42  C   UNL     1     -14.047  -0.994   4.152  1.00  0.00     0.049 A 
ATOM     43  N   UNL     1     -14.053   0.318   6.865  1.00  0.00    -0.248 NA
ATOM     44  C   UNL     1     -12.819  -1.489   7.681  1.00  0.00     0.031 C 
ATOM     45  C   UNL     1     -14.081  -1.591   2.819  1.00  0.00     0.029 A 
ATOM     46  N   UNL     1     -14.727   0.190   4.011  1.00  0.00    -0.354 N 
ATOM     47  C   UNL     1     -13.810   0.502   8.221  1.00  0.00     0.074 A 
ATOM     48  C   UNL     1     -13.071  -0.655   8.679  1.00  0.00     0.031 C 
ATOM     49  C   UNL     1     -14.778  -0.784   2.000  1.00  0.00     0.029 A 
ATOM     50  C   UNL     1     -15.262   0.369   2.757  1.00  0.00     0.049 A 
ATOM     51  H   UNL     1     -14.823   0.848   4.738  1.00  0.00     0.167 HD
ATOM     52  C   UNL     1     -14.161   1.543   9.011  1.00  0.00     0.034 A 
ATOM     53  C   UNL     1     -16.073   1.337   2.285  1.00  0.00     0.034 A 
ATOM     54  C   UNL     1     -14.886   2.696   8.551  1.00  0.00     0.049 A 
ATOM     55  C   UNL     1     -16.478   2.469   3.195  1.00  0.00     0.074 A 
ATOM     56  C   UNL     1     -15.247   3.826   9.264  1.00  0.00     0.029 A 
ATOM     57  N   UNL     1     -15.379   2.861   7.266  1.00  0.00    -0.354 N 
ATOM     58  N   UNL     1     -16.145   2.687   4.444  1.00  0.00    -0.248 NA
ATOM     59  C   UNL     1     -17.346   3.507   2.618  1.00  0.00     0.031 C 
ATOM     60  C   UNL     1     -15.993   4.655   8.421  1.00  0.00     0.029 A 
ATOM     61  C   UNL     1     -16.057   4.065   7.169  1.00  0.00     0.049 A 
ATOM     62  H   UNL     1     -15.264   2.217   6.530  1.00  0.00     0.167 HD
ATOM     63  C   UNL     1     -16.728   3.902   4.790  1.00  0.00     0.074 A 
ATOM     64  C   UNL     1     -17.420   4.382   3.612  1.00  0.00     0.031 C 
ATOM     65  C   UNL     1     -16.701   4.557   5.978  1.00  0.00     0.034 A 
BRANCH  52  66
ATOM     66  C   UNL     1     -13.756   1.488  10.461  1.00  0.00     0.023 A 
ATOM     67  C   UNL     1     -12.401   1.643  10.819  1.00  0.00     0.012 A 
ATOM     68  C   UNL     1     -14.725   1.336  11.473  1.00  0.00     0.148 A 
ATOM     69  C   UNL     1     -12.013   1.614  12.158  1.00  0.00     0.002 A 
ATOM     70  C   UNL     1     -14.336   1.356  12.806  1.00  0.00     0.091 A 
ATOM     71  F   UNL     1     -16.005   1.168  11.112  1.00  0.00    -0.205 F 
ATOM     72  C   UNL     1     -12.980   1.481  13.150  1.00  0.00     0.022 A 
BRANCH  70  73
ATOM     73  S   UNL     1     -15.513   1.274  14.160  1.00  0.00     0.127 S 
ATOM     74  O   UNL     1     -15.225  -0.045  14.723  1.00  0.00    -0.237 OA
ATOM     75  O   UNL     1     -15.095   2.398  14.998  1.00  0.00    -0.237 OA
ATOM     76  O   UNL     1     -16.831   1.420  13.559  1.00  0.00    -0.744 OA
ENDBRANCH  70  73
ENDBRANCH  52  66
BRANCH  53  77
ATOM     77  C   UNL     1     -16.545   1.292   0.872  1.00  0.00     0.023 A 
ATOM     78  C   UNL     1     -16.091   2.260  -0.045  1.00  0.00     0.012 A 
ATOM     79  C   UNL     1     -17.438   0.296   0.433  1.00  0.00     0.148 A 
ATOM     80  C   UNL     1     -16.544   2.256  -1.365  1.00  0.00     0.002 A 
ATOM     81  C   UNL     1     -17.841   0.264  -0.896  1.00  0.00     0.091 A 
ATOM     82  F   UNL     1     -17.870  -0.607   1.325  1.00  0.00    -0.205 F 
ATOM     83  C   UNL     1     -17.410   1.254  -1.793  1.00  0.00     0.022 A 
BRANCH  81  84
ATOM     84  S   UNL     1     -18.860  -1.055  -1.566  1.00  0.00     0.127 S 
ATOM     85  O   UNL     1     -20.103  -0.350  -1.867  1.00  0.00    -0.237 OA
ATOM     86  O   UNL     1     -18.084  -1.467  -2.736  1.00  0.00    -0.237 OA
ATOM     87  O   UNL     1     -18.945  -2.061  -0.515  1.00  0.00    -0.744 OA
ENDBRANCH  81  84
ENDBRANCH  53  77
BRANCH  65  88
ATOM     88  C   UNL     1     -17.398   5.892   6.062  1.00  0.00     0.023 A 
ATOM     89  C   UNL     1     -18.805   5.959   6.043  1.00  0.00     0.012 A 
ATOM     90  C   UNL     1     -16.653   7.077   6.235  1.00  0.00     0.148 A 
ATOM     91  C   UNL     1     -19.458   7.186   6.158  1.00  0.00     0.002 A 
ATOM     92  C   UNL     1     -17.312   8.289   6.403  1.00  0.00     0.091 A 
ATOM     93  F   UNL     1     -15.315   6.997   6.236  1.00  0.00    -0.205 F 
ATOM     94  C   UNL     1     -18.714   8.348   6.349  1.00  0.00     0.022 A 
BRANCH  92  95
ATOM     95  S   UNL     1     -16.442   9.821   6.755  1.00  0.00     0.127 S 
ATOM     96  O   UNL     1     -16.626  10.561   5.507  1.00  0.00    -0.237 OA
ATOM     97  O   UNL     1     -17.194  10.349   7.894  1.00  0.00    -0.237 OA
ATOM     98  O   UNL     1     -15.068   9.444   7.059  1.00  0.00    -0.744 OA
ENDBRANCH  92  95
ENDBRANCH  65  88
ENDBRANCH  39  40
ENDBRANCH  32  34
ENDBRANCH  31  32
ENDBRANCH  30  31
ENDBRANCH  29  30
ENDBRANCH  28  29
ENDBRANCH  27  28
ENDBRANCH   1  27
TORSDOF 23
