REMARK SMILES COC(=O)c1nc(C)cc(N[C@@H]2C=C[C@H](C(=O)OCCOCCOCCOC(=O)c3ccc(-c4c5nc(c(-c6cccc(S(=O)(=O)[O-])c6F)c6ccc([nH]6)c(-c6cccc(S(=O)(=O)[O-])c6F)c6nc(c(-c7cccc(S(=O)(=O)[O-])c7F)c7ccc4[nH]7)C=C6)C=C5)cc3)C2)n1
REMARK SMILES IDX 22 1 21 2 20 3 19 4 18 5 16 6 17 7 15 8 12 9 13 10 93 11
REMARK SMILES IDX 14 12 11 13 10 15 5 16 6 17 94 18 7 19 8 20 9 21 3 22 4 23
REMARK SMILES IDX 2 24 1 25 23 26 24 27 25 28 26 29 27 30 28 31 29 32 30 33
REMARK SMILES IDX 31 34 92 35 32 36 91 37 33 38 34 39 35 40 85 41 36 42 90 43
REMARK SMILES IDX 84 44 86 45 37 46 89 47 83 48 82 49 38 51 70 52 50 53 69 54
REMARK SMILES IDX 51 55 54 56 68 57 87 58 52 59 53 60 67 62 88 63 55 64 39 65
REMARK SMILES IDX 40 66 48 67 41 68 43 69 49 70 42 71 44 72 45 73 46 74 47 75
REMARK SMILES IDX 71 76 72 77 80 78 73 79 75 80 81 81 74 82 76 83 77 84 78 85
REMARK SMILES IDX 79 86 56 87 57 88 65 89 58 90 60 91 66 92 59 93 61 94 62 95
REMARK SMILES IDX 63 96 64 97
REMARK H PARENT 11 14 86 50 54 61
REMARK Flexibility Score: inf
ROOT
ATOM      1  C   UNL     1      -8.244   1.917   2.426  1.00  0.00     0.188 C 
ENDROOT
BRANCH   1   2
ATOM      2  O   UNL     1      -9.453   1.363   1.502  1.00  0.00    -0.376 OA
BRANCH   2   3
ATOM      3  C   UNL     1      -9.676   1.379  -0.180  1.00  0.00     0.202 C 
BRANCH   3   4
ATOM      4  C   UNL     1      -8.467   0.848  -1.548  1.00  0.00     0.261 C 
BRANCH   4   5
ATOM      5  O   UNL     1      -6.734   1.059  -1.723  1.00  0.00    -0.463 OA
BRANCH   5   6
ATOM      6  C   UNL     1      -5.592   1.546  -1.012  1.00  0.00     0.312 C 
ATOM      7  O   UNL     1      -5.523   2.022   0.132  1.00  0.00    -0.252 OA
BRANCH   6   8
ATOM      8  C   UNL     1      -4.213   1.654  -1.623  1.00  0.00     0.124 C 
ATOM      9  C   UNL     1      -3.621   3.707  -2.859  1.00  0.00     0.104 C 
ATOM     10  C   UNL     1      -3.562   2.466  -3.700  1.00  0.00    -0.006 C 
ATOM     11  C   UNL     1      -3.689   3.132  -1.451  1.00  0.00     0.048 C 
ATOM     12  C   UNL     1      -3.917   1.358  -3.037  1.00  0.00    -0.014 C 
BRANCH   9  13
ATOM     13  N   UNL     1      -4.721   4.534  -3.330  1.00  0.00    -0.364 N 
ATOM     14  H   UNL     1      -4.500   5.234  -3.986  1.00  0.00     0.162 HD
BRANCH  13  15
ATOM     15  C   UNL     1      -6.043   4.436  -2.948  1.00  0.00     0.131 A 
ATOM     16  C   UNL     1      -7.637   3.744  -1.439  1.00  0.00     0.241 A 
ATOM     17  N   UNL     1      -8.672   4.122  -2.235  1.00  0.00    -0.227 NA
ATOM     18  N   UNL     1      -6.351   3.883  -1.777  1.00  0.00    -0.205 NA
ATOM     19  C   UNL     1      -8.343   4.737  -3.393  1.00  0.00     0.044 A 
ATOM     20  C   UNL     1      -9.453   5.231  -4.279  1.00  0.00     0.067 C 
ATOM     21  C   UNL     1      -7.029   4.907  -3.789  1.00  0.00     0.070 A 
BRANCH  16  22
ATOM     22  C   UNL     1      -7.984   3.162  -0.059  1.00  0.00     0.376 C 
ATOM     23  O   UNL     1      -8.825   3.818   0.559  1.00  0.00    -0.242 OA
BRANCH  22  24
ATOM     24  O   UNL     1      -7.580   1.802   0.217  1.00  0.00    -0.463 OA
ATOM     25  C   UNL     1      -7.822   0.087   0.636  1.00  0.00     0.282 C 
ENDBRANCH  22  24
ENDBRANCH  16  22
ENDBRANCH  13  15
ENDBRANCH   9  13
ENDBRANCH   6   8
ENDBRANCH   5   6
ENDBRANCH   4   5
ENDBRANCH   3   4
ENDBRANCH   2   3
ENDBRANCH   1   2
BRANCH   1  26
ATOM     26  C   UNL     1      -6.666   1.228   2.784  1.00  0.00     0.188 C 
BRANCH  26  27
ATOM     27  O   UNL     1      -5.820   0.393   1.940  1.00  0.00    -0.376 OA
BRANCH  27  28
ATOM     28  C   UNL     1      -5.591  -1.027   2.002  1.00  0.00     0.202 C 
BRANCH  28  29
ATOM     29  C   UNL     1      -6.348  -1.888   3.019  1.00  0.00     0.261 C 
BRANCH  29  30
ATOM     30  O   UNL     1      -6.122  -1.420   4.343  1.00  0.00    -0.460 OA
BRANCH  30  31
ATOM     31  C   UNL     1      -4.805  -1.313   4.628  1.00  0.00     0.338 C 
ATOM     32  O   UNL     1      -3.902  -2.024   4.195  1.00  0.00    -0.246 OA
BRANCH  31  33
ATOM     33  C   UNL     1      -4.612  -0.005   5.260  1.00  0.00     0.060 A 
ATOM     34  C   UNL     1      -3.618   0.837   4.747  1.00  0.00     0.016 A 
ATOM     35  C   UNL     1      -5.459   0.413   6.290  1.00  0.00     0.016 A 
ATOM     36  C   UNL     1      -3.383   2.062   5.356  1.00  0.00     0.010 A 
ATOM     37  C   UNL     1      -5.231   1.643   6.891  1.00  0.00     0.010 A 
ATOM     38  C   UNL     1      -4.144   2.429   6.473  1.00  0.00    -0.014 A 
BRANCH  38  39
ATOM     39  C   UNL     1      -3.624   3.469   7.381  1.00  0.00     0.031 A 
ATOM     40  C   UNL     1      -2.860   3.007   8.592  1.00  0.00     0.074 A 
ATOM     41  C   UNL     1      -3.810   4.774   7.133  1.00  0.00     0.049 A 
ATOM     42  N   UNL     1      -2.320   3.710   9.549  1.00  0.00    -0.248 NA
ATOM     43  C   UNL     1      -2.688   1.550   8.747  1.00  0.00     0.031 C 
ATOM     44  C   UNL     1      -4.517   5.327   5.980  1.00  0.00     0.029 A 
ATOM     45  N   UNL     1      -3.429   5.870   7.861  1.00  0.00    -0.354 N 
ATOM     46  C   UNL     1      -1.776   2.785  10.432  1.00  0.00     0.074 A 
ATOM     47  C   UNL     1      -2.064   1.470   9.910  1.00  0.00     0.031 C 
ATOM     48  C   UNL     1      -4.536   6.668   6.089  1.00  0.00     0.029 A 
ATOM     49  C   UNL     1      -3.868   7.057   7.330  1.00  0.00     0.049 A 
ATOM     50  H   UNL     1      -2.892   5.812   8.684  1.00  0.00     0.167 HD
ATOM     51  C   UNL     1      -1.084   3.011  11.571  1.00  0.00     0.034 A 
ATOM     52  C   UNL     1      -3.755   8.310   7.811  1.00  0.00     0.034 A 
ATOM     53  C   UNL     1      -0.790   4.322  12.075  1.00  0.00     0.049 A 
ATOM     54  C   UNL     1      -3.015   8.532   9.106  1.00  0.00     0.074 A 
ATOM     55  C   UNL     1      -0.056   4.667  13.194  1.00  0.00     0.029 A 
ATOM     56  N   UNL     1      -1.234   5.504  11.503  1.00  0.00    -0.354 N 
ATOM     57  N   UNL     1      -2.404   7.660   9.873  1.00  0.00    -0.248 NA
ATOM     58  C   UNL     1      -2.924   9.918   9.587  1.00  0.00     0.031 C 
ATOM     59  C   UNL     1      -0.093   6.059  13.323  1.00  0.00     0.029 A 
ATOM     60  C   UNL     1      -0.809   6.582  12.258  1.00  0.00     0.049 A 
ATOM     61  H   UNL     1      -1.772   5.567  10.681  1.00  0.00     0.167 HD
ATOM     62  C   UNL     1      -1.821   8.396  10.900  1.00  0.00     0.074 A 
ATOM     63  C   UNL     1      -2.139   9.786  10.648  1.00  0.00     0.031 C 
ATOM     64  C   UNL     1      -1.093   7.963  11.961  1.00  0.00     0.034 A 
BRANCH  51  65
ATOM     65  C   UNL     1      -0.604   1.812  12.343  1.00  0.00     0.023 A 
ATOM     66  C   UNL     1       0.436   1.011  11.829  1.00  0.00     0.012 A 
ATOM     67  C   UNL     1      -1.169   1.495  13.593  1.00  0.00     0.148 A 
ATOM     68  C   UNL     1       0.882  -0.108  12.531  1.00  0.00     0.002 A 
ATOM     69  C   UNL     1      -0.685   0.409  14.310  1.00  0.00     0.091 A 
ATOM     70  F   UNL     1      -2.178   2.251  14.049  1.00  0.00    -0.205 F 
ATOM     71  C   UNL     1       0.330  -0.402  13.775  1.00  0.00     0.022 A 
BRANCH  69  72
ATOM     72  S   UNL     1      -1.274  -0.002  15.955  1.00  0.00     0.127 S 
ATOM     73  O   UNL     1      -2.007  -1.243  15.705  1.00  0.00    -0.237 OA
ATOM     74  O   UNL     1      -0.023  -0.171  16.695  1.00  0.00    -0.237 OA
ATOM     75  O   UNL     1      -2.087   1.127  16.386  1.00  0.00    -0.744 OA
ENDBRANCH  69  72
ENDBRANCH  51  65
BRANCH  52  76
ATOM     76  C   UNL     1      -4.323   9.458   7.051  1.00  0.00     0.023 A 
ATOM     77  C   UNL     1      -3.454  10.402   6.469  1.00  0.00     0.012 A 
ATOM     78  C   UNL     1      -5.714   9.621   6.904  1.00  0.00     0.148 A 
ATOM     79  C   UNL     1      -3.961  11.507   5.785  1.00  0.00     0.002 A 
ATOM     80  C   UNL     1      -6.211  10.696   6.176  1.00  0.00     0.091 A 
ATOM     81  F   UNL     1      -6.523   8.719   7.477  1.00  0.00    -0.205 F 
ATOM     82  C   UNL     1      -5.337  11.650   5.631  1.00  0.00     0.022 A 
BRANCH  80  83
ATOM     83  S   UNL     1      -7.961  10.908   5.834  1.00  0.00     0.127 S 
ATOM     84  O   UNL     1      -8.270  12.115   6.598  1.00  0.00    -0.237 OA
ATOM     85  O   UNL     1      -7.962  11.082   4.382  1.00  0.00    -0.237 OA
ATOM     86  O   UNL     1      -8.605   9.688   6.300  1.00  0.00    -0.744 OA
ENDBRANCH  80  83
ENDBRANCH  52  76
BRANCH  64  87
ATOM     87  C   UNL     1      -0.543   9.000  12.906  1.00  0.00     0.023 A 
ATOM     88  C   UNL     1      -1.407   9.698  13.772  1.00  0.00     0.012 A 
ATOM     89  C   UNL     1       0.847   9.220  12.990  1.00  0.00     0.148 A 
ATOM     90  C   UNL     1      -0.900  10.627  14.680  1.00  0.00     0.002 A 
ATOM     91  C   UNL     1       1.349  10.106  13.935  1.00  0.00     0.091 A 
ATOM     92  F   UNL     1       1.652   8.555  12.149  1.00  0.00    -0.205 F 
ATOM     93  C   UNL     1       0.476  10.822  14.770  1.00  0.00     0.022 A 
BRANCH  91  94
ATOM     94  S   UNL     1       3.111  10.343  14.195  1.00  0.00     0.127 S 
ATOM     95  O   UNL     1       3.309  11.695  13.676  1.00  0.00    -0.237 OA
ATOM     96  O   UNL     1       3.228  10.224  15.648  1.00  0.00    -0.237 OA
ATOM     97  O   UNL     1       3.775   9.285  13.446  1.00  0.00    -0.744 OA
ENDBRANCH  91  94
ENDBRANCH  64  87
ENDBRANCH  38  39
ENDBRANCH  31  33
ENDBRANCH  30  31
ENDBRANCH  29  30
ENDBRANCH  28  29
ENDBRANCH  27  28
ENDBRANCH  26  27
ENDBRANCH   1  26
TORSDOF 24
