REMARK SMILES COc1cc([C@H]([NH3+])CC(=O)OCCOCCOCCOC(=O)c2ccc(-c3c4nc(c(-c5cccc(S(=O)(=O)[O-])c5F)c5ccc([nH]5)c(-c5cccc(S(=O)(=O)[O-])c5F)c5nc(c(-c6cccc(S(=O)(=O)[O-])c6F)c6ccc3[nH]6)C=C5)C=C4)cc2)c([N+](=O)[O-])cc1OC
REMARK SMILES IDX 15 1 14 2 13 3 12 4 11 5 9 6 10 7 8 8 6 9 5 10 3 11 4 12
REMARK SMILES IDX 91 13 90 14 86 15 2 16 1 17 92 18 93 19 87 20 88 21 89 22
REMARK SMILES IDX 7 23 16 27 17 28 18 29 19 30 20 31 21 32 22 33 23 34 24 35
REMARK SMILES IDX 85 36 25 37 84 38 26 39 27 40 28 41 78 42 29 43 83 44 77 45
REMARK SMILES IDX 79 46 30 47 82 48 76 49 75 50 31 52 63 53 43 54 62 55 44 56
REMARK SMILES IDX 47 57 61 58 80 59 45 60 46 61 60 63 81 64 48 65 32 66 33 67
REMARK SMILES IDX 41 68 34 69 36 70 42 71 35 72 37 73 38 74 39 75 40 76 64 77
REMARK SMILES IDX 65 78 73 79 66 80 68 81 74 82 67 83 69 84 70 85 71 86 72 87
REMARK SMILES IDX 49 88 50 89 58 90 51 91 53 92 59 93 52 94 54 95 55 96 56 97
REMARK SMILES IDX 57 98
REMARK H PARENT 7 24 7 25 7 26 79 51 47 62
REMARK Flexibility Score: inf
ROOT
ATOM      1  C   UNL     1      -0.900   4.324   7.239  1.00  0.00     0.188 C 
ENDROOT
BRANCH   1   2
ATOM      2  O   UNL     1      -0.915   3.187   8.100  1.00  0.00    -0.376 OA
BRANCH   2   3
ATOM      3  C   UNL     1      -0.276   2.007   7.609  1.00  0.00     0.202 C 
BRANCH   3   4
ATOM      4  C   UNL     1      -0.809   1.460   6.276  1.00  0.00     0.261 C 
BRANCH   4   5
ATOM      5  O   UNL     1      -0.739   2.420   5.197  1.00  0.00    -0.463 OA
BRANCH   5   6
ATOM      6  C   UNL     1      -1.832   2.469   4.396  1.00  0.00     0.312 C 
ATOM      7  O   UNL     1      -2.749   1.651   4.436  1.00  0.00    -0.252 OA
BRANCH   6   8
ATOM      8  C   UNL     1      -1.947   3.722   3.545  1.00  0.00     0.193 C 
BRANCH   8   9
ATOM      9  C   UNL     1      -0.724   4.362   2.861  1.00  0.00     0.230 C 
BRANCH   9  10
ATOM     10  C   UNL     1      -0.996   5.374   1.710  1.00  0.00     0.091 A 
ATOM     11  C   UNL     1      -0.046   6.550  -0.276  1.00  0.00     0.161 A 
ATOM     12  C   UNL     1       0.106   5.830   0.935  1.00  0.00     0.067 A 
ATOM     13  C   UNL     1      -1.319   6.867  -0.750  1.00  0.00     0.167 A 
ATOM     14  C   UNL     1      -2.408   6.554   0.060  1.00  0.00     0.136 A 
ATOM     15  C   UNL     1      -2.247   5.846   1.265  1.00  0.00     0.282 A 
BRANCH  11  16
ATOM     16  O   UNL     1       1.091   6.750  -1.013  1.00  0.00    -0.493 OA
ATOM     17  C   UNL     1       1.669   8.038  -0.792  1.00  0.00     0.278 C 
ENDBRANCH  11  16
BRANCH  13  18
ATOM     18  O   UNL     1      -1.712   7.434  -1.926  1.00  0.00    -0.493 OA
ATOM     19  C   UNL     1      -0.754   7.843  -2.883  1.00  0.00     0.278 C 
ENDBRANCH  13  18
BRANCH  15  20
ATOM     20  N   UNL     1      -3.474   5.693   2.019  1.00  0.00     0.063 N 
ATOM     21  O   UNL     1      -3.558   6.326   3.078  1.00  0.00    -0.258 OA
ATOM     22  O   UNL     1      -4.349   4.968   1.526  1.00  0.00    -0.258 OA
ENDBRANCH  15  20
ENDBRANCH   9  10
BRANCH   9  23
ATOM     23  N   UNL     1       0.104   3.261   2.344  1.00  0.00    -0.351 N 
ATOM     24  H   UNL     1      -0.419   2.746   1.636  1.00  0.00     0.345 HD
ATOM     25  H   UNL     1       0.350   2.633   3.109  1.00  0.00     0.345 HD
ATOM     26  H   UNL     1       0.955   3.642   1.929  1.00  0.00     0.345 HD
ENDBRANCH   9  23
ENDBRANCH   8   9
ENDBRANCH   6   8
ENDBRANCH   5   6
ENDBRANCH   4   5
ENDBRANCH   3   4
ENDBRANCH   2   3
ENDBRANCH   1   2
BRANCH   1  27
ATOM     27  C   UNL     1       0.495   4.829   6.857  1.00  0.00     0.188 C 
BRANCH  27  28
ATOM     28  O   UNL     1       1.395   3.823   6.417  1.00  0.00    -0.376 OA
BRANCH  28  29
ATOM     29  C   UNL     1       2.772   4.162   6.278  1.00  0.00     0.202 C 
BRANCH  29  30
ATOM     30  C   UNL     1       3.456   4.912   7.441  1.00  0.00     0.261 C 
BRANCH  30  31
ATOM     31  O   UNL     1       2.876   6.178   7.816  1.00  0.00    -0.460 OA
BRANCH  31  32
ATOM     32  C   UNL     1       2.637   7.080   6.837  1.00  0.00     0.338 C 
ATOM     33  O   UNL     1       3.091   7.050   5.704  1.00  0.00    -0.246 OA
BRANCH  32  34
ATOM     34  C   UNL     1       1.518   7.968   7.266  1.00  0.00     0.060 A 
ATOM     35  C   UNL     1       0.567   8.334   6.302  1.00  0.00     0.016 A 
ATOM     36  C   UNL     1       1.344   8.374   8.594  1.00  0.00     0.016 A 
ATOM     37  C   UNL     1      -0.523   9.137   6.648  1.00  0.00     0.010 A 
ATOM     38  C   UNL     1       0.257   9.191   8.937  1.00  0.00     0.010 A 
ATOM     39  C   UNL     1      -0.664   9.608   7.959  1.00  0.00    -0.014 A 
BRANCH  39  40
ATOM     40  C   UNL     1      -1.657  10.676   8.257  1.00  0.00     0.031 A 
ATOM     41  C   UNL     1      -1.174  12.102   8.345  1.00  0.00     0.074 A 
ATOM     42  C   UNL     1      -2.966  10.410   8.427  1.00  0.00     0.049 A 
ATOM     43  N   UNL     1      -1.848  13.195   8.591  1.00  0.00    -0.248 NA
ATOM     44  C   UNL     1       0.265  12.321   8.122  1.00  0.00     0.031 C 
ATOM     45  C   UNL     1      -3.579   9.086   8.359  1.00  0.00     0.029 A 
ATOM     46  N   UNL     1      -4.015  11.253   8.714  1.00  0.00    -0.354 N 
ATOM     47  C   UNL     1      -0.916  14.226   8.580  1.00  0.00     0.074 A 
ATOM     48  C   UNL     1       0.374  13.627   8.316  1.00  0.00     0.031 C 
ATOM     49  C   UNL     1      -4.894   9.201   8.623  1.00  0.00     0.029 A 
ATOM     50  C   UNL     1      -5.212  10.601   8.902  1.00  0.00     0.049 A 
ATOM     51  H   UNL     1      -3.918  12.230   8.779  1.00  0.00     0.167 HD
ATOM     52  C   UNL     1      -1.111  15.555   8.757  1.00  0.00     0.034 A 
ATOM     53  C   UNL     1      -6.420  11.075   9.276  1.00  0.00     0.034 A 
ATOM     54  C   UNL     1      -2.390  16.163   9.007  1.00  0.00     0.049 A 
ATOM     55  C   UNL     1      -6.604  12.555   9.508  1.00  0.00     0.074 A 
ATOM     56  C   UNL     1      -2.686  17.507   9.154  1.00  0.00     0.029 A 
ATOM     57  N   UNL     1      -3.580  15.473   9.168  1.00  0.00    -0.354 N 
ATOM     58  N   UNL     1      -5.737  13.530   9.375  1.00  0.00    -0.248 NA
ATOM     59  C   UNL     1      -7.947  13.005   9.910  1.00  0.00     0.031 C 
ATOM     60  C   UNL     1      -4.049  17.626   9.442  1.00  0.00     0.029 A 
ATOM     61  C   UNL     1      -4.610  16.360   9.432  1.00  0.00     0.049 A 
ATOM     62  H   UNL     1      -3.679  14.495   9.105  1.00  0.00     0.167 HD
ATOM     63  C   UNL     1      -6.435  14.705   9.640  1.00  0.00     0.074 A 
ATOM     64  C   UNL     1      -7.803  14.323   9.920  1.00  0.00     0.031 C 
ATOM     65  C   UNL     1      -5.981  15.983   9.661  1.00  0.00     0.034 A 
BRANCH  52  66
ATOM     66  C   UNL     1       0.096  16.452   8.672  1.00  0.00     0.023 A 
ATOM     67  C   UNL     1       0.703  16.694   7.423  1.00  0.00     0.012 A 
ATOM     68  C   UNL     1       0.594  17.099   9.820  1.00  0.00     0.148 A 
ATOM     69  C   UNL     1       1.808  17.538   7.322  1.00  0.00     0.002 A 
ATOM     70  C   UNL     1       1.665  17.976   9.704  1.00  0.00     0.091 A 
ATOM     71  F   UNL     1       0.016  16.839  11.001  1.00  0.00    -0.205 F 
ATOM     72  C   UNL     1       2.281  18.187   8.460  1.00  0.00     0.022 A 
BRANCH  70  73
ATOM     73  S   UNL     1       2.298  18.921  11.094  1.00  0.00     0.127 S 
ATOM     74  O   UNL     1       3.601  18.292  11.308  1.00  0.00    -0.237 OA
ATOM     75  O   UNL     1       2.358  20.274  10.543  1.00  0.00    -0.237 OA
ATOM     76  O   UNL     1       1.336  18.744  12.173  1.00  0.00    -0.744 OA
ENDBRANCH  70  73
ENDBRANCH  52  66
BRANCH  53  77
ATOM     77  C   UNL     1      -7.572  10.142   9.443  1.00  0.00     0.023 A 
ATOM     78  C   UNL     1      -8.663  10.211   8.554  1.00  0.00     0.012 A 
ATOM     79  C   UNL     1      -7.597   9.196  10.487  1.00  0.00     0.148 A 
ATOM     80  C   UNL     1      -9.771   9.378   8.721  1.00  0.00     0.002 A 
ATOM     81  C   UNL     1      -8.679   8.333  10.614  1.00  0.00     0.091 A 
ATOM     82  F   UNL     1      -6.561   9.162  11.336  1.00  0.00    -0.205 F 
ATOM     83  C   UNL     1      -9.775   8.433   9.744  1.00  0.00     0.022 A 
BRANCH  81  84
ATOM     84  S   UNL     1      -8.721   7.012  11.831  1.00  0.00     0.127 S 
ATOM     85  O   UNL     1      -9.783   7.465  12.726  1.00  0.00    -0.237 OA
ATOM     86  O   UNL     1      -9.064   5.854  11.005  1.00  0.00    -0.237 OA
ATOM     87  O   UNL     1      -7.386   6.966  12.410  1.00  0.00    -0.744 OA
ENDBRANCH  81  84
ENDBRANCH  53  77
BRANCH  65  88
ATOM     88  C   UNL     1      -6.972  17.083   9.956  1.00  0.00     0.023 A 
ATOM     89  C   UNL     1      -7.498  17.231  11.255  1.00  0.00     0.012 A 
ATOM     90  C   UNL     1      -7.328  18.016   8.960  1.00  0.00     0.148 A 
ATOM     91  C   UNL     1      -8.389  18.264  11.548  1.00  0.00     0.002 A 
ATOM     92  C   UNL     1      -8.175  19.073   9.272  1.00  0.00     0.091 A 
ATOM     93  F   UNL     1      -6.830  17.854   7.726  1.00  0.00    -0.205 F 
ATOM     94  C   UNL     1      -8.718  19.191  10.562  1.00  0.00     0.022 A 
BRANCH  92  95
ATOM     95  S   UNL     1      -8.578  20.369   8.095  1.00  0.00     0.127 S 
ATOM     96  O   UNL     1      -9.979  20.078   7.797  1.00  0.00    -0.237 OA
ATOM     97  O   UNL     1      -8.362  21.583   8.883  1.00  0.00    -0.237 OA
ATOM     98  O   UNL     1      -7.655  20.201   6.980  1.00  0.00    -0.744 OA
ENDBRANCH  92  95
ENDBRANCH  65  88
ENDBRANCH  39  40
ENDBRANCH  32  34
ENDBRANCH  31  32
ENDBRANCH  30  31
ENDBRANCH  29  30
ENDBRANCH  28  29
ENDBRANCH  27  28
ENDBRANCH   1  27
TORSDOF 26
