REMARK SMILES Cc1cc(C(=O)OCCOCCOCCOC(=O)c2ccc(-c3c4nc(c(-c5cccc(S(=O)(=O)[O-])c5F)c5ccc([nH]5)c(-c5cccc(S(=O)(=O)[O-])c5F)c5nc(c(-c6cccc(S(=O)(=O)[O-])c6F)c6ccc3[nH]6)C=C5)C=C4)cc2)ccc1NS(=O)(=O)c1ccc(C#N)cc1C
REMARK SMILES IDX 11 1 10 2 9 3 8 4 7 5 5 6 6 7 4 8 1 9 2 10 3 11 84 12 83 13
REMARK SMILES IDX 82 14 85 15 86 17 87 18 88 19 89 20 90 21 96 22 91 23 95 24
REMARK SMILES IDX 97 25 92 26 93 27 94 28 12 29 13 30 14 31 15 32 16 33 17 34
REMARK SMILES IDX 18 35 19 36 20 37 81 38 21 39 80 40 22 41 23 42 24 43 74 44
REMARK SMILES IDX 25 45 79 46 73 47 75 48 26 49 78 50 72 51 71 52 27 54 59 55
REMARK SMILES IDX 39 56 58 57 40 58 43 59 57 60 76 61 41 62 42 63 56 65 77 66
REMARK SMILES IDX 44 67 28 68 29 69 37 70 30 71 32 72 38 73 31 74 33 75 34 76
REMARK SMILES IDX 35 77 36 78 60 79 61 80 69 81 62 82 64 83 70 84 63 85 65 86
REMARK SMILES IDX 66 87 67 88 68 89 45 90 46 91 54 92 47 93 49 94 55 95 48 96
REMARK SMILES IDX 50 97 51 98 52 99 53 100
REMARK H PARENT 85 16 75 53 43 64
REMARK Flexibility Score: inf
ROOT
ATOM      1  C   UNL     1      -4.248  -3.443  -3.127  1.00  0.00     0.188 C 
ENDROOT
BRANCH   1   2
ATOM      2  O   UNL     1      -5.219  -4.056  -2.332  1.00  0.00    -0.376 OA
BRANCH   2   3
ATOM      3  C   UNL     1      -4.904  -3.816  -0.963  1.00  0.00     0.202 C 
BRANCH   3   4
ATOM      4  C   UNL     1      -4.748  -2.264  -0.593  1.00  0.00     0.261 C 
BRANCH   4   5
ATOM      5  O   UNL     1      -3.370  -1.177  -0.225  1.00  0.00    -0.460 OA
BRANCH   5   6
ATOM      6  C   UNL     1      -2.138  -0.882   0.575  1.00  0.00     0.338 C 
ATOM      7  O   UNL     1      -1.673  -1.397   1.591  1.00  0.00    -0.246 OA
BRANCH   6   8
ATOM      8  C   UNL     1      -1.125  -0.002   0.024  1.00  0.00     0.060 A 
ATOM      9  C   UNL     1       2.567   0.802   0.360  1.00  0.00     0.046 C 
ATOM     10  C   UNL     1       1.083   1.005   0.159  1.00  0.00    -0.026 A 
ATOM     11  C   UNL     1       0.204  -0.003   0.535  1.00  0.00     0.021 A 
ATOM     12  C   UNL     1       0.527   2.030  -0.612  1.00  0.00     0.052 A 
ATOM     13  C   UNL     1      -0.631   1.830  -1.356  1.00  0.00     0.028 A 
ATOM     14  C   UNL     1      -1.493   0.825  -1.002  1.00  0.00     0.018 A 
BRANCH  12  15
ATOM     15  N   UNL     1       1.011   3.364  -0.572  1.00  0.00    -0.279 N 
ATOM     16  H   UNL     1       1.899   3.571  -0.944  1.00  0.00     0.180 HD
BRANCH  15  17
ATOM     17  S   UNL     1       0.058   4.627   0.123  1.00  0.00     0.262 S 
ATOM     18  O   UNL     1       0.454   4.718   1.512  1.00  0.00    -0.201 OA
ATOM     19  O   UNL     1       0.352   5.723  -0.785  1.00  0.00    -0.201 OA
BRANCH  17  20
ATOM     20  C   UNL     1      -1.754   4.433   0.121  1.00  0.00     0.090 A 
ATOM     21  C   UNL     1      -2.381   3.246   0.509  1.00  0.00     0.024 A 
ATOM     22  C   UNL     1      -2.604   5.511  -0.208  1.00  0.00    -0.029 A 
ATOM     23  C   UNL     1      -3.744   3.002   0.219  1.00  0.00     0.021 A 
ATOM     24  C   UNL     1      -3.982   5.276  -0.455  1.00  0.00     0.024 A 
ATOM     25  C   UNL     1      -2.206   6.958  -0.102  1.00  0.00     0.046 C 
ATOM     26  C   UNL     1      -4.542   4.005  -0.323  1.00  0.00     0.052 A 
BRANCH  26  27
ATOM     27  C   UNL     1      -5.879   3.756  -0.746  1.00  0.00     0.099 C 
ATOM     28  N   UNL     1      -6.939   3.571  -1.239  1.00  0.00    -0.192 NA
ENDBRANCH  26  27
ENDBRANCH  17  20
ENDBRANCH  15  17
ENDBRANCH  12  15
ENDBRANCH   6   8
ENDBRANCH   5   6
ENDBRANCH   4   5
ENDBRANCH   3   4
ENDBRANCH   2   3
ENDBRANCH   1   2
BRANCH   1  29
ATOM     29  C   UNL     1      -4.668  -3.061  -4.518  1.00  0.00     0.188 C 
BRANCH  29  30
ATOM     30  O   UNL     1      -5.264  -4.103  -5.250  1.00  0.00    -0.376 OA
BRANCH  30  31
ATOM     31  C   UNL     1      -4.749  -5.388  -4.923  1.00  0.00     0.202 C 
BRANCH  31  32
ATOM     32  C   UNL     1      -3.185  -5.601  -5.046  1.00  0.00     0.261 C 
BRANCH  32  33
ATOM     33  O   UNL     1      -2.345  -4.372  -5.247  1.00  0.00    -0.460 OA
BRANCH  33  34
ATOM     34  C   UNL     1      -1.066  -4.003  -4.846  1.00  0.00     0.338 C 
ATOM     35  O   UNL     1      -0.171  -3.810  -5.659  1.00  0.00    -0.246 OA
BRANCH  34  36
ATOM     36  C   UNL     1      -0.961  -3.374  -3.492  1.00  0.00     0.060 A 
ATOM     37  C   UNL     1      -0.140  -3.705  -2.433  1.00  0.00     0.016 A 
ATOM     38  C   UNL     1      -1.626  -2.239  -3.223  1.00  0.00     0.016 A 
ATOM     39  C   UNL     1      -0.600  -3.570  -1.075  1.00  0.00     0.010 A 
ATOM     40  C   UNL     1      -2.100  -2.157  -1.904  1.00  0.00     0.010 A 
ATOM     41  C   UNL     1      -1.851  -3.056  -0.796  1.00  0.00    -0.014 A 
BRANCH  41  42
ATOM     42  C   UNL     1      -2.721  -3.413   0.707  1.00  0.00     0.031 A 
ATOM     43  C   UNL     1      -3.711  -2.389   1.862  1.00  0.00     0.074 A 
ATOM     44  C   UNL     1      -2.582  -4.715   1.055  1.00  0.00     0.049 A 
ATOM     45  N   UNL     1      -3.484  -2.329   3.154  1.00  0.00    -0.248 NA
ATOM     46  C   UNL     1      -4.643  -1.097   1.629  1.00  0.00     0.031 C 
ATOM     47  C   UNL     1      -3.243  -5.468   2.108  1.00  0.00     0.029 A 
ATOM     48  N   UNL     1      -1.751  -5.667   0.497  1.00  0.00    -0.354 N 
ATOM     49  C   UNL     1      -4.243  -1.232   3.656  1.00  0.00     0.074 A 
ATOM     50  C   UNL     1      -4.389  -0.297   2.640  1.00  0.00     0.031 C 
ATOM     51  C   UNL     1      -2.574  -6.629   2.291  1.00  0.00     0.029 A 
ATOM     52  C   UNL     1      -1.377  -6.588   1.461  1.00  0.00     0.049 A 
ATOM     53  H   UNL     1      -1.467  -5.689  -0.445  1.00  0.00     0.167 HD
ATOM     54  C   UNL     1      -5.113  -1.358   4.692  1.00  0.00     0.034 A 
ATOM     55  C   UNL     1      -0.090  -6.537   1.932  1.00  0.00     0.034 A 
ATOM     56  C   UNL     1      -4.717  -2.583   5.355  1.00  0.00     0.049 A 
ATOM     57  C   UNL     1      -0.046  -5.918   3.341  1.00  0.00     0.074 A 
ATOM     58  C   UNL     1      -5.112  -3.896   5.184  1.00  0.00     0.029 A 
ATOM     59  N   UNL     1      -3.399  -2.619   5.789  1.00  0.00    -0.354 N 
ATOM     60  N   UNL     1      -1.050  -5.318   3.943  1.00  0.00    -0.248 NA
ATOM     61  C   UNL     1       1.123  -6.008   4.209  1.00  0.00     0.031 C 
ATOM     62  C   UNL     1      -3.943  -4.710   5.375  1.00  0.00     0.029 A 
ATOM     63  C   UNL     1      -2.865  -3.898   5.705  1.00  0.00     0.049 A 
ATOM     64  H   UNL     1      -2.904  -1.834   6.117  1.00  0.00     0.167 HD
ATOM     65  C   UNL     1      -0.671  -4.862   5.183  1.00  0.00     0.074 A 
ATOM     66  C   UNL     1       0.680  -5.394   5.319  1.00  0.00     0.031 C 
ATOM     67  C   UNL     1      -1.439  -4.069   6.007  1.00  0.00     0.034 A 
BRANCH  54  68
ATOM     68  C   UNL     1      -6.415  -0.534   4.931  1.00  0.00     0.023 A 
ATOM     69  C   UNL     1      -7.154  -0.934   6.059  1.00  0.00     0.012 A 
ATOM     70  C   UNL     1      -7.040   0.514   4.158  1.00  0.00     0.148 A 
ATOM     71  C   UNL     1      -8.400  -0.378   6.399  1.00  0.00     0.002 A 
ATOM     72  C   UNL     1      -8.271   1.096   4.520  1.00  0.00     0.091 A 
ATOM     73  F   UNL     1      -6.517   0.948   3.011  1.00  0.00    -0.205 F 
ATOM     74  C   UNL     1      -8.959   0.639   5.638  1.00  0.00     0.022 A 
BRANCH  72  75
ATOM     75  S   UNL     1      -9.060   2.445   3.588  1.00  0.00     0.127 S 
ATOM     76  O   UNL     1     -10.257   1.791   3.058  1.00  0.00    -0.237 OA
ATOM     77  O   UNL     1      -9.326   3.436   4.631  1.00  0.00    -0.237 OA
ATOM     78  O   UNL     1      -8.092   2.872   2.585  1.00  0.00    -0.744 OA
ENDBRANCH  72  75
ENDBRANCH  54  68
BRANCH  55  79
ATOM     79  C   UNL     1       0.944  -6.427   0.817  1.00  0.00     0.023 A 
ATOM     80  C   UNL     1       0.750  -7.290  -0.305  1.00  0.00     0.012 A 
ATOM     81  C   UNL     1       1.863  -5.373   0.656  1.00  0.00     0.148 A 
ATOM     82  C   UNL     1       1.252  -6.990  -1.575  1.00  0.00     0.002 A 
ATOM     83  C   UNL     1       2.413  -5.106  -0.613  1.00  0.00     0.091 A 
ATOM     84  F   UNL     1       2.129  -4.573   1.696  1.00  0.00    -0.205 F 
ATOM     85  C   UNL     1       2.071  -5.885  -1.734  1.00  0.00     0.022 A 
BRANCH  83  86
ATOM     86  S   UNL     1       3.389  -3.606  -0.887  1.00  0.00     0.127 S 
ATOM     87  O   UNL     1       3.391  -3.466  -2.345  1.00  0.00    -0.237 OA
ATOM     88  O   UNL     1       2.633  -2.569  -0.198  1.00  0.00    -0.237 OA
ATOM     89  O   UNL     1       4.677  -3.975  -0.313  1.00  0.00    -0.744 OA
ENDBRANCH  83  86
ENDBRANCH  55  79
BRANCH  67  90
ATOM     90  C   UNL     1      -0.871  -3.296   7.210  1.00  0.00     0.023 A 
ATOM     91  C   UNL     1       0.501  -3.022   7.344  1.00  0.00     0.012 A 
ATOM     92  C   UNL     1      -1.719  -2.658   8.160  1.00  0.00     0.148 A 
ATOM     93  C   UNL     1       1.014  -2.279   8.413  1.00  0.00     0.002 A 
ATOM     94  C   UNL     1      -1.220  -1.754   9.092  1.00  0.00     0.091 A 
ATOM     95  F   UNL     1      -3.033  -2.925   8.194  1.00  0.00    -0.205 F 
ATOM     96  C   UNL     1       0.152  -1.615   9.271  1.00  0.00     0.022 A 
BRANCH  94  97
ATOM     97  S   UNL     1      -2.321  -0.591   9.916  1.00  0.00     0.127 S 
ATOM     98  O   UNL     1      -2.680  -1.314  11.132  1.00  0.00    -0.237 OA
ATOM     99  O   UNL     1      -1.454   0.570  10.129  1.00  0.00    -0.237 OA
ATOM    100  O   UNL     1      -3.393  -0.360   8.955  1.00  0.00    -0.744 OA
ENDBRANCH  94  97
ENDBRANCH  67  90
ENDBRANCH  41  42
ENDBRANCH  34  36
ENDBRANCH  33  34
ENDBRANCH  32  33
ENDBRANCH  31  32
ENDBRANCH  30  31
ENDBRANCH  29  30
ENDBRANCH   1  29
TORSDOF 24
