REMARK SMILES CC[N@@H+](Cc1cccc(C)n1)Cc1csc(C(=O)OCCOCCOCCOC(=O)c2ccc(-c3c4nc(c(-c5cccc(S(=O)(=O)[O-])c5F)c5ccc([nH]5)c(-c5cccc(S(=O)(=O)[O-])c5F)c5nc(c(-c6cccc(S(=O)(=O)[O-])c6F)c6ccc3[nH]6)C=C5)C=C4)cc2)n1
REMARK SMILES IDX 23 1 22 2 21 3 20 4 19 5 17 6 18 7 16 8 13 9 14 10 94 11
REMARK SMILES IDX 15 12 12 13 3 14 2 16 1 17 4 18 5 19 6 20 11 21 7 22 9 23
REMARK SMILES IDX 8 24 10 25 24 26 25 27 26 28 27 29 28 30 29 31 30 32 31 33
REMARK SMILES IDX 32 34 93 35 33 36 92 37 34 38 35 39 36 40 86 41 37 42 91 43
REMARK SMILES IDX 85 44 87 45 38 46 90 47 84 48 83 49 39 51 71 52 51 53 70 54
REMARK SMILES IDX 52 55 55 56 69 57 88 58 53 59 54 60 68 62 89 63 56 64 40 65
REMARK SMILES IDX 41 66 49 67 42 68 44 69 50 70 43 71 45 72 46 73 47 74 48 75
REMARK SMILES IDX 72 76 73 77 81 78 74 79 76 80 82 81 75 82 77 83 78 84 79 85
REMARK SMILES IDX 80 86 57 87 58 88 66 89 59 90 61 91 67 92 60 93 62 94 63 95
REMARK SMILES IDX 64 96 65 97
REMARK H PARENT 3 15 87 50 55 61
REMARK Flexibility Score: inf
ROOT
ATOM      1  C   UNL     1       1.783   7.124   1.021  1.00  0.00     0.188 C 
ENDROOT
BRANCH   1   2
ATOM      2  O   UNL     1       2.082   8.457   0.622  1.00  0.00    -0.376 OA
BRANCH   2   3
ATOM      3  C   UNL     1       1.960   8.844  -0.737  1.00  0.00     0.202 C 
BRANCH   3   4
ATOM      4  C   UNL     1       2.961   8.241  -1.725  1.00  0.00     0.261 C 
BRANCH   4   5
ATOM      5  O   UNL     1       2.991   6.807  -1.695  1.00  0.00    -0.458 OA
BRANCH   5   6
ATOM      6  C   UNL     1       4.149   6.241  -1.236  1.00  0.00     0.367 C 
ATOM      7  O   UNL     1       5.173   6.870  -0.986  1.00  0.00    -0.243 OA
BRANCH   6   8
ATOM      8  C   UNL     1       3.956   4.815  -1.011  1.00  0.00     0.202 A 
ATOM      9  C   UNL     1       3.223   2.723  -1.238  1.00  0.00     0.106 A 
ATOM     10  C   UNL     1       4.002   2.571  -0.104  1.00  0.00     0.097 A 
ATOM     11  N   UNL     1       3.172   4.028  -1.726  1.00  0.00    -0.229 NA
ATOM     12  S   UNL     1       4.758   4.052   0.302  1.00  0.00    -0.115 S 
BRANCH   9  13
ATOM     13  C   UNL     1       2.540   1.612  -1.993  1.00  0.00     0.320 C 
BRANCH  13  14
ATOM     14  N   UNL     1       1.070   1.620  -1.932  1.00  0.00    -0.325 N 
ATOM     15  H   UNL     1       0.784   0.806  -2.476  1.00  0.00     0.348 HD
BRANCH  14  16
ATOM     16  C   UNL     1       0.498   1.387  -0.601  1.00  0.00     0.259 C 
ATOM     17  C   UNL     1       0.841   0.011  -0.035  1.00  0.00     0.071 C 
ENDBRANCH  14  16
BRANCH  14  18
ATOM     18  C   UNL     1       0.508   2.835  -2.566  1.00  0.00     0.319 C 
BRANCH  18  19
ATOM     19  C   UNL     1      -0.678   2.611  -3.494  1.00  0.00     0.095 A 
ATOM     20  C   UNL     1      -1.149   1.346  -3.832  1.00  0.00     0.030 A 
ATOM     21  N   UNL     1      -1.187   3.736  -4.066  1.00  0.00    -0.252 NA
ATOM     22  C   UNL     1      -2.164   1.233  -4.779  1.00  0.00     0.004 A 
ATOM     23  C   UNL     1      -2.164   3.613  -4.993  1.00  0.00     0.038 A 
ATOM     24  C   UNL     1      -2.677   2.380  -5.374  1.00  0.00     0.023 A 
ATOM     25  C   UNL     1      -2.648   4.886  -5.616  1.00  0.00     0.067 C 
ENDBRANCH  18  19
ENDBRANCH  14  18
ENDBRANCH  13  14
ENDBRANCH   9  13
ENDBRANCH   6   8
ENDBRANCH   5   6
ENDBRANCH   4   5
ENDBRANCH   3   4
ENDBRANCH   2   3
ENDBRANCH   1   2
BRANCH   1  26
ATOM     26  C   UNL     1       0.694   6.308   0.296  1.00  0.00     0.188 C 
BRANCH  26  27
ATOM     27  O   UNL     1      -0.290   7.101  -0.350  1.00  0.00    -0.376 OA
BRANCH  27  28
ATOM     28  C   UNL     1      -1.602   7.030   0.188  1.00  0.00     0.202 C 
BRANCH  28  29
ATOM     29  C   UNL     1      -1.786   7.900   1.435  1.00  0.00     0.261 C 
BRANCH  29  30
ATOM     30  O   UNL     1      -0.977   7.518   2.558  1.00  0.00    -0.460 OA
BRANCH  30  31
ATOM     31  C   UNL     1      -1.236   6.315   3.116  1.00  0.00     0.338 C 
ATOM     32  O   UNL     1      -2.081   5.510   2.767  1.00  0.00    -0.246 OA
BRANCH  31  33
ATOM     33  C   UNL     1      -0.209   6.056   4.144  1.00  0.00     0.060 A 
ATOM     34  C   UNL     1       0.519   4.862   4.085  1.00  0.00     0.016 A 
ATOM     35  C   UNL     1       0.028   6.981   5.165  1.00  0.00     0.016 A 
ATOM     36  C   UNL     1       1.468   4.578   5.070  1.00  0.00     0.010 A 
ATOM     37  C   UNL     1       0.970   6.690   6.154  1.00  0.00     0.010 A 
ATOM     38  C   UNL     1       1.675   5.475   6.128  1.00  0.00    -0.014 A 
BRANCH  38  39
ATOM     39  C   UNL     1       2.523   5.084   7.280  1.00  0.00     0.031 A 
ATOM     40  C   UNL     1       1.867   4.508   8.505  1.00  0.00     0.074 A 
ATOM     41  C   UNL     1       3.857   5.258   7.252  1.00  0.00     0.049 A 
ATOM     42  N   UNL     1       2.414   4.076   9.611  1.00  0.00    -0.248 NA
ATOM     43  C   UNL     1       0.398   4.408   8.480  1.00  0.00     0.031 C 
ATOM     44  C   UNL     1       4.612   5.836   6.141  1.00  0.00     0.029 A 
ATOM     45  N   UNL     1       4.810   4.985   8.202  1.00  0.00    -0.354 N 
ATOM     46  C   UNL     1       1.361   3.666  10.419  1.00  0.00     0.074 A 
ATOM     47  C   UNL     1       0.140   3.916   9.683  1.00  0.00     0.031 C 
ATOM     48  C   UNL     1       5.910   5.900   6.486  1.00  0.00     0.029 A 
ATOM     49  C   UNL     1       6.078   5.374   7.840  1.00  0.00     0.049 A 
ATOM     50  H   UNL     1       4.604   4.552   9.062  1.00  0.00     0.167 HD
ATOM     51  C   UNL     1       1.403   3.108  11.652  1.00  0.00     0.034 A 
ATOM     52  C   UNL     1       7.237   5.318   8.526  1.00  0.00     0.034 A 
ATOM     53  C   UNL     1       2.612   2.847  12.383  1.00  0.00     0.049 A 
ATOM     54  C   UNL     1       7.258   4.699   9.901  1.00  0.00     0.074 A 
ATOM     55  C   UNL     1       2.758   2.231  13.614  1.00  0.00     0.029 A 
ATOM     56  N   UNL     1       3.884   3.200  11.960  1.00  0.00    -0.354 N 
ATOM     57  N   UNL     1       6.273   4.162  10.580  1.00  0.00    -0.248 NA
ATOM     58  C   UNL     1       8.558   4.644  10.587  1.00  0.00     0.031 C 
ATOM     59  C   UNL     1       4.118   2.226  13.943  1.00  0.00     0.029 A 
ATOM     60  C   UNL     1       4.820   2.827  12.910  1.00  0.00     0.049 A 
ATOM     61  H   UNL     1       4.091   3.651  11.110  1.00  0.00     0.167 HD
ATOM     62  C   UNL     1       6.839   3.677  11.756  1.00  0.00     0.074 A 
ATOM     63  C   UNL     1       8.257   3.965  11.687  1.00  0.00     0.031 C 
ATOM     64  C   UNL     1       6.236   3.066  12.806  1.00  0.00     0.034 A 
BRANCH  51  65
ATOM     65  C   UNL     1       0.094   2.699  12.270  1.00  0.00     0.023 A 
ATOM     66  C   UNL     1      -0.556   1.540  11.799  1.00  0.00     0.012 A 
ATOM     67  C   UNL     1      -0.469   3.424  13.336  1.00  0.00     0.148 A 
ATOM     68  C   UNL     1      -1.761   1.123  12.362  1.00  0.00     0.002 A 
ATOM     69  C   UNL     1      -1.653   2.983  13.916  1.00  0.00     0.091 A 
ATOM     70  F   UNL     1       0.149   4.539  13.751  1.00  0.00    -0.205 F 
ATOM     71  C   UNL     1      -2.304   1.838  13.426  1.00  0.00     0.022 A 
BRANCH  69  72
ATOM     72  S   UNL     1      -2.393   3.802  15.333  1.00  0.00     0.127 S 
ATOM     73  O   UNL     1      -3.506   4.519  14.711  1.00  0.00    -0.237 OA
ATOM     74  O   UNL     1      -2.791   2.672  16.174  1.00  0.00    -0.237 OA
ATOM     75  O   UNL     1      -1.345   4.637  15.902  1.00  0.00    -0.744 OA
ENDBRANCH  69  72
ENDBRANCH  51  65
BRANCH  52  76
ATOM     76  C   UNL     1       8.496   5.813   7.899  1.00  0.00     0.023 A 
ATOM     77  C   UNL     1       9.483   4.889   7.506  1.00  0.00     0.012 A 
ATOM     78  C   UNL     1       8.714   7.187   7.681  1.00  0.00     0.148 A 
ATOM     79  C   UNL     1      10.676   5.325   6.928  1.00  0.00     0.002 A 
ATOM     80  C   UNL     1       9.883   7.611   7.060  1.00  0.00     0.091 A 
ATOM     81  F   UNL     1       7.773   8.052   8.085  1.00  0.00    -0.205 F 
ATOM     82  C   UNL     1      10.871   6.684   6.696  1.00  0.00     0.022 A 
BRANCH  80  83
ATOM     83  S   UNL     1      10.168   9.330   6.622  1.00  0.00     0.127 S 
ATOM     84  O   UNL     1      11.160   9.732   7.615  1.00  0.00    -0.237 OA
ATOM     85  O   UNL     1      10.678   9.215   5.255  1.00  0.00    -0.237 OA
ATOM     86  O   UNL     1       8.868   9.978   6.724  1.00  0.00    -0.744 OA
ENDBRANCH  80  83
ENDBRANCH  52  76
BRANCH  64  87
ATOM     87  C   UNL     1       7.103   2.640  13.963  1.00  0.00     0.023 A 
ATOM     88  C   UNL     1       7.603   3.612  14.852  1.00  0.00     0.012 A 
ATOM     89  C   UNL     1       7.355   1.278  14.218  1.00  0.00     0.148 A 
ATOM     90  C   UNL     1       8.365   3.238  15.958  1.00  0.00     0.002 A 
ATOM     91  C   UNL     1       8.079   0.909  15.347  1.00  0.00     0.091 A 
ATOM     92  F   UNL     1       6.891   0.365  13.351  1.00  0.00    -0.205 F 
ATOM     93  C   UNL     1       8.593   1.887  16.213  1.00  0.00     0.022 A 
BRANCH  91  94
ATOM     94  S   UNL     1       8.336  -0.813  15.793  1.00  0.00     0.127 S 
ATOM     95  O   UNL     1       9.697  -1.047  15.315  1.00  0.00    -0.237 OA
ATOM     96  O   UNL     1       8.198  -0.788  17.250  1.00  0.00    -0.237 OA
ATOM     97  O   UNL     1       7.288  -1.557  15.106  1.00  0.00    -0.744 OA
ENDBRANCH  91  94
ENDBRANCH  64  87
ENDBRANCH  38  39
ENDBRANCH  31  33
ENDBRANCH  30  31
ENDBRANCH  29  30
ENDBRANCH  28  29
ENDBRANCH  27  28
ENDBRANCH  26  27
ENDBRANCH   1  26
TORSDOF 25
