REMARK SMILES C[C@H](c1ccccc1)N1C(=O)c2ccc(C(=O)OCCOCCOCCOC(=O)c3ccc(-c4c5nc(c(-c6cccc(S(=O)(=O)[O-])c6F)c6ccc([nH]6)c(-c6cccc(S(=O)(=O)[O-])c6F)c6nc(c(-c7cccc(S(=O)(=O)[O-])c7F)c7ccc4[nH]7)C=C6)C=C5)cc3)cc2C1=O
REMARK SMILES IDX 23 1 22 2 21 3 20 4 19 5 18 6 16 7 17 8 15 9 9 10 10 11
REMARK SMILES IDX 95 12 11 13 12 14 94 15 96 16 13 17 93 18 14 19 2 20 1 21
REMARK SMILES IDX 3 22 4 23 8 24 5 25 7 26 6 27 24 28 25 29 26 30 27 31 28 32
REMARK SMILES IDX 29 33 30 34 31 35 92 36 32 37 91 38 33 39 34 40 35 41 85 42
REMARK SMILES IDX 36 43 90 44 84 45 86 46 37 47 89 48 83 49 82 50 38 52 70 53
REMARK SMILES IDX 50 54 69 55 51 56 54 57 68 58 87 59 52 60 53 61 67 63 88 64
REMARK SMILES IDX 55 65 39 66 40 67 48 68 41 69 43 70 49 71 42 72 44 73 45 74
REMARK SMILES IDX 46 75 47 76 71 77 72 78 80 79 73 80 75 81 81 82 74 83 76 84
REMARK SMILES IDX 77 85 78 86 79 87 56 88 57 89 65 90 58 91 60 92 66 93 59 94
REMARK SMILES IDX 61 95 62 96 63 97 64 98
REMARK H PARENT 86 51 54 62
REMARK Flexibility Score: inf
ROOT
ATOM      1  C   UNL     1      -7.572  -1.769   3.241  1.00  0.00     0.188 C 
ENDROOT
BRANCH   1   2
ATOM      2  C   UNL     1      -8.419  -0.554   2.812  1.00  0.00     0.188 C 
BRANCH   2   3
ATOM      3  O   UNL     1      -9.781  -0.804   2.562  1.00  0.00    -0.376 OA
BRANCH   3   4
ATOM      4  C   UNL     1     -10.187  -1.339   1.314  1.00  0.00     0.202 C 
BRANCH   4   5
ATOM      5  C   UNL     1      -9.258  -1.697   0.131  1.00  0.00     0.261 C 
BRANCH   5   6
ATOM      6  O   UNL     1      -7.846  -1.708   0.368  1.00  0.00    -0.460 OA
BRANCH   6   7
ATOM      7  C   UNL     1      -7.108  -0.848  -0.376  1.00  0.00     0.338 C 
ATOM      8  O   UNL     1      -7.489  -0.110  -1.265  1.00  0.00    -0.246 OA
BRANCH   7   9
ATOM      9  C   UNL     1      -5.732  -0.825   0.154  1.00  0.00     0.060 A 
ATOM     10  N   UNL     1      -1.242  -1.580   0.528  1.00  0.00    -0.267 N 
ATOM     11  C   UNL     1      -1.776  -0.732   1.463  1.00  0.00     0.262 C 
ATOM     12  C   UNL     1      -2.226  -2.209  -0.188  1.00  0.00     0.262 C 
ATOM     13  O   UNL     1      -1.253  -0.128   2.374  1.00  0.00    -0.269 OA
ATOM     14  C   UNL     1      -3.199  -0.648   1.173  1.00  0.00     0.053 A 
ATOM     15  C   UNL     1      -3.500  -1.608   0.224  1.00  0.00     0.054 A 
ATOM     16  O   UNL     1      -2.125  -3.055  -1.060  1.00  0.00    -0.269 OA
ATOM     17  C   UNL     1      -4.114   0.288   1.606  1.00  0.00     0.015 A 
ATOM     18  C   UNL     1      -4.780  -1.758  -0.281  1.00  0.00     0.030 A 
ATOM     19  C   UNL     1      -5.391   0.216   1.053  1.00  0.00     0.016 A 
BRANCH  10  20
ATOM     20  C   UNL     1       0.180  -1.602   0.174  1.00  0.00     0.121 C 
ATOM     21  C   UNL     1       1.073  -2.075   1.321  1.00  0.00     0.037 C 
BRANCH  20  22
ATOM     22  C   UNL     1       0.547  -0.231  -0.404  1.00  0.00    -0.025 A 
ATOM     23  C   UNL     1       0.795   0.875   0.427  1.00  0.00     0.006 A 
ATOM     24  C   UNL     1       0.435  -0.009  -1.787  1.00  0.00     0.006 A 
ATOM     25  C   UNL     1       0.826   2.171  -0.092  1.00  0.00     0.000 A 
ATOM     26  C   UNL     1       0.497   1.286  -2.308  1.00  0.00     0.000 A 
ATOM     27  C   UNL     1       0.663   2.377  -1.458  1.00  0.00     0.000 A 
ENDBRANCH  20  22
ENDBRANCH  10  20
ENDBRANCH   7   9
ENDBRANCH   6   7
ENDBRANCH   5   6
ENDBRANCH   4   5
ENDBRANCH   3   4
ENDBRANCH   2   3
ENDBRANCH   1   2
BRANCH   1  28
ATOM     28  O   UNL     1      -8.125  -3.068   3.174  1.00  0.00    -0.376 OA
BRANCH  28  29
ATOM     29  C   UNL     1      -9.292  -3.387   3.915  1.00  0.00     0.202 C 
BRANCH  29  30
ATOM     30  C   UNL     1      -9.677  -2.754   5.268  1.00  0.00     0.261 C 
BRANCH  30  31
ATOM     31  O   UNL     1      -9.269  -1.407   5.514  1.00  0.00    -0.460 OA
BRANCH  31  32
ATOM     32  C   UNL     1      -8.233  -1.269   6.378  1.00  0.00     0.338 C 
ATOM     33  O   UNL     1      -7.609  -2.160   6.928  1.00  0.00    -0.246 OA
BRANCH  32  34
ATOM     34  C   UNL     1      -7.829   0.147   6.427  1.00  0.00     0.060 A 
ATOM     35  C   UNL     1      -6.562   0.496   5.939  1.00  0.00     0.016 A 
ATOM     36  C   UNL     1      -8.655   1.104   7.016  1.00  0.00     0.016 A 
ATOM     37  C   UNL     1      -6.097   1.801   6.079  1.00  0.00     0.010 A 
ATOM     38  C   UNL     1      -8.179   2.408   7.174  1.00  0.00     0.010 A 
ATOM     39  C   UNL     1      -6.881   2.748   6.748  1.00  0.00    -0.014 A 
BRANCH  39  40
ATOM     40  C   UNL     1      -6.257   4.016   7.193  1.00  0.00     0.031 A 
ATOM     41  C   UNL     1      -5.797   4.123   8.621  1.00  0.00     0.074 A 
ATOM     42  C   UNL     1      -6.084   5.045   6.346  1.00  0.00     0.049 A 
ATOM     43  N   UNL     1      -5.234   5.128   9.239  1.00  0.00    -0.248 NA
ATOM     44  C   UNL     1      -6.005   2.936   9.468  1.00  0.00     0.031 C 
ATOM     45  C   UNL     1      -6.470   5.056   4.937  1.00  0.00     0.029 A 
ATOM     46  N   UNL     1      -5.551   6.291   6.562  1.00  0.00    -0.354 N 
ATOM     47  C   UNL     1      -5.059   4.712  10.554  1.00  0.00     0.074 A 
ATOM     48  C   UNL     1      -5.586   3.368  10.647  1.00  0.00     0.031 C 
ATOM     49  C   UNL     1      -6.176   6.260   4.416  1.00  0.00     0.029 A 
ATOM     50  C   UNL     1      -5.609   7.111   5.461  1.00  0.00     0.049 A 
ATOM     51  H   UNL     1      -5.165   6.570   7.423  1.00  0.00     0.167 HD
ATOM     52  C   UNL     1      -4.504   5.382  11.591  1.00  0.00     0.034 A 
ATOM     53  C   UNL     1      -5.260   8.405   5.322  1.00  0.00     0.034 A 
ATOM     54  C   UNL     1      -3.971   6.714  11.492  1.00  0.00     0.049 A 
ATOM     55  C   UNL     1      -4.669   9.141   6.497  1.00  0.00     0.074 A 
ATOM     56  C   UNL     1      -3.341   7.463  12.469  1.00  0.00     0.029 A 
ATOM     57  N   UNL     1      -4.026   7.505  10.355  1.00  0.00    -0.354 N 
ATOM     58  N   UNL     1      -4.413   8.702   7.706  1.00  0.00    -0.248 NA
ATOM     59  C   UNL     1      -4.284  10.543   6.276  1.00  0.00     0.031 C 
ATOM     60  C   UNL     1      -3.057   8.725  11.936  1.00  0.00     0.029 A 
ATOM     61  C   UNL     1      -3.457   8.741  10.609  1.00  0.00     0.049 A 
ATOM     62  H   UNL     1      -4.412   7.228   9.492  1.00  0.00     0.167 HD
ATOM     63  C   UNL     1      -3.790   9.753   8.372  1.00  0.00     0.074 A 
ATOM     64  C   UNL     1      -3.703  10.849   7.428  1.00  0.00     0.031 C 
ATOM     65  C   UNL     1      -3.331   9.807   9.647  1.00  0.00     0.034 A 
BRANCH  52  66
ATOM     66  C   UNL     1      -4.458   4.683  12.925  1.00  0.00     0.023 A 
ATOM     67  C   UNL     1      -3.611   3.572  13.117  1.00  0.00     0.012 A 
ATOM     68  C   UNL     1      -5.245   5.143  13.999  1.00  0.00     0.148 A 
ATOM     69  C   UNL     1      -3.585   2.901  14.339  1.00  0.00     0.002 A 
ATOM     70  C   UNL     1      -5.173   4.502  15.230  1.00  0.00     0.091 A 
ATOM     71  F   UNL     1      -6.062   6.185  13.793  1.00  0.00    -0.205 F 
ATOM     72  C   UNL     1      -4.358   3.372  15.397  1.00  0.00     0.022 A 
BRANCH  70  73
ATOM     73  S   UNL     1      -6.065   5.086  16.674  1.00  0.00     0.127 S 
ATOM     74  O   UNL     1      -7.090   4.055  16.826  1.00  0.00    -0.237 OA
ATOM     75  O   UNL     1      -5.026   5.069  17.705  1.00  0.00    -0.237 OA
ATOM     76  O   UNL     1      -6.558   6.413  16.334  1.00  0.00    -0.744 OA
ENDBRANCH  70  73
ENDBRANCH  52  66
BRANCH  53  77
ATOM     77  C   UNL     1      -5.415   9.080   4.002  1.00  0.00     0.023 A 
ATOM     78  C   UNL     1      -4.267   9.440   3.269  1.00  0.00     0.012 A 
ATOM     79  C   UNL     1      -6.688   9.355   3.466  1.00  0.00     0.148 A 
ATOM     80  C   UNL     1      -4.383  10.090   2.040  1.00  0.00     0.002 A 
ATOM     81  C   UNL     1      -6.797   9.953   2.217  1.00  0.00     0.091 A 
ATOM     82  F   UNL     1      -7.765   9.012   4.186  1.00  0.00    -0.205 F 
ATOM     83  C   UNL     1      -5.647  10.338   1.510  1.00  0.00     0.022 A 
BRANCH  81  84
ATOM     84  S   UNL     1      -8.376  10.207   1.400  1.00  0.00     0.127 S 
ATOM     85  O   UNL     1      -8.443  11.664   1.325  1.00  0.00    -0.237 OA
ATOM     86  O   UNL     1      -8.158   9.533   0.119  1.00  0.00    -0.237 OA
ATOM     87  O   UNL     1      -9.371   9.576   2.255  1.00  0.00    -0.744 OA
ENDBRANCH  81  84
ENDBRANCH  53  77
BRANCH  65  88
ATOM     88  C   UNL     1      -2.623  11.064  10.089  1.00  0.00     0.023 A 
ATOM     89  C   UNL     1      -3.339  12.263  10.273  1.00  0.00     0.012 A 
ATOM     90  C   UNL     1      -1.244  11.033  10.384  1.00  0.00     0.148 A 
ATOM     91  C   UNL     1      -2.687  13.420  10.701  1.00  0.00     0.002 A 
ATOM     92  C   UNL     1      -0.613  12.173  10.865  1.00  0.00     0.091 A 
ATOM     93  F   UNL     1      -0.574   9.888  10.188  1.00  0.00    -0.205 F 
ATOM     94  C   UNL     1      -1.329  13.372  11.008  1.00  0.00     0.022 A 
BRANCH  92  95
ATOM     95  S   UNL     1       1.106  12.173  11.385  1.00  0.00     0.127 S 
ATOM     96  O   UNL     1       1.742  12.934  10.311  1.00  0.00    -0.237 OA
ATOM     97  O   UNL     1       1.041  12.870  12.670  1.00  0.00    -0.237 OA
ATOM     98  O   UNL     1       1.499  10.774  11.478  1.00  0.00    -0.744 OA
ENDBRANCH  92  95
ENDBRANCH  65  88
ENDBRANCH  39  40
ENDBRANCH  32  34
ENDBRANCH  31  32
ENDBRANCH  30  31
ENDBRANCH  29  30
ENDBRANCH  28  29
ENDBRANCH   1  28
TORSDOF 22
