REMARK SMILES O=C(CCc1nc(-c2ccccc2)c(-c2ccccc2)o1)OCCOCCOCCOC(=O)c1ccc(-c2c3nc(c(-c4cccc(S(=O)(=O)[O-])c4F)c4ccc([nH]4)c(-c4cccc(S(=O)(=O)[O-])c4F)c4nc(c(-c5cccc(S(=O)(=O)[O-])c5F)c5ccc2[nH]5)C=C4)C=C3)cc1
REMARK SMILES IDX 26 1 25 2 24 3 23 4 22 5 2 6 1 7 3 8 4 9 5 10 6 11 21 12
REMARK SMILES IDX 7 13 14 14 8 15 9 16 13 17 10 18 12 19 11 20 15 21 16 22
REMARK SMILES IDX 20 23 17 24 19 25 18 26 27 27 28 28 29 29 30 30 31 31 32 32
REMARK SMILES IDX 33 33 34 34 35 35 96 36 36 37 95 38 37 39 38 40 39 41 89 42
REMARK SMILES IDX 40 43 94 44 88 45 90 46 41 47 93 48 87 49 86 50 42 52 74 53
REMARK SMILES IDX 54 54 73 55 55 56 58 57 72 58 91 59 56 60 57 61 71 63 92 64
REMARK SMILES IDX 59 65 43 66 44 67 52 68 45 69 47 70 53 71 46 72 48 73 49 74
REMARK SMILES IDX 50 75 51 76 75 77 76 78 84 79 77 80 79 81 85 82 78 83 80 84
REMARK SMILES IDX 81 85 82 86 83 87 60 88 61 89 69 90 62 91 64 92 70 93 63 94
REMARK SMILES IDX 65 95 66 96 67 97 68 98
REMARK H PARENT 90 51 58 62
REMARK Flexibility Score: inf
ROOT
ATOM      1  C   UNL     1       1.986   1.867  -0.147  1.00  0.00     0.188 C 
ENDROOT
BRANCH   1   2
ATOM      2  O   UNL     1       3.297   1.721   0.373  1.00  0.00    -0.376 OA
BRANCH   2   3
ATOM      3  C   UNL     1       4.238   0.986  -0.405  1.00  0.00     0.202 C 
BRANCH   3   4
ATOM      4  C   UNL     1       3.718  -0.233  -1.169  1.00  0.00     0.261 C 
BRANCH   4   5
ATOM      5  O   UNL     1       2.703  -1.075  -0.575  1.00  0.00    -0.463 OA
BRANCH   5   6
ATOM      6  C   UNL     1       2.628  -1.679   0.622  1.00  0.00     0.306 C 
ATOM      7  O   UNL     1       1.785  -2.560   0.792  1.00  0.00    -0.252 OA
BRANCH   6   8
ATOM      8  C   UNL     1       3.518  -1.258   1.755  1.00  0.00     0.132 C 
BRANCH   8   9
ATOM      9  C   UNL     1       4.647  -2.237   2.024  1.00  0.00     0.109 C 
BRANCH   9  10
ATOM     10  C   UNL     1       5.584  -2.400   0.882  1.00  0.00     0.196 A 
ATOM     11  N   UNL     1       5.809  -3.483   0.168  1.00  0.00    -0.213 NA
ATOM     12  O   UNL     1       6.264  -1.286   0.453  1.00  0.00    -0.440 OA
ATOM     13  C   UNL     1       6.685  -3.061  -0.798  1.00  0.00     0.117 A 
ATOM     14  C   UNL     1       6.912  -1.705  -0.682  1.00  0.00     0.162 A 
BRANCH  13  15
ATOM     15  C   UNL     1       7.201  -3.905  -1.847  1.00  0.00     0.004 A 
ATOM     16  C   UNL     1       8.581  -3.973  -2.075  1.00  0.00     0.010 A 
ATOM     17  C   UNL     1       6.324  -4.623  -2.665  1.00  0.00     0.010 A 
ATOM     18  C   UNL     1       9.080  -4.742  -3.124  1.00  0.00     0.001 A 
ATOM     19  C   UNL     1       6.826  -5.384  -3.721  1.00  0.00     0.001 A 
ATOM     20  C   UNL     1       8.201  -5.442  -3.950  1.00  0.00     0.000 A 
ENDBRANCH  13  15
BRANCH  14  21
ATOM     21  C   UNL     1       7.486  -0.682  -1.548  1.00  0.00     0.020 A 
ATOM     22  C   UNL     1       8.334   0.316  -1.065  1.00  0.00     0.012 A 
ATOM     23  C   UNL     1       7.164  -0.687  -2.918  1.00  0.00     0.012 A 
ATOM     24  C   UNL     1       8.874   1.267  -1.941  1.00  0.00     0.001 A 
ATOM     25  C   UNL     1       7.692   0.266  -3.789  1.00  0.00     0.001 A 
ATOM     26  C   UNL     1       8.556   1.239  -3.300  1.00  0.00     0.000 A 
ENDBRANCH  14  21
ENDBRANCH   9  10
ENDBRANCH   8   9
ENDBRANCH   6   8
ENDBRANCH   5   6
ENDBRANCH   4   5
ENDBRANCH   3   4
ENDBRANCH   2   3
ENDBRANCH   1   2
BRANCH   1  27
ATOM     27  C   UNL     1       1.834   2.699  -1.423  1.00  0.00     0.188 C 
BRANCH  27  28
ATOM     28  O   UNL     1       3.002   2.729  -2.238  1.00  0.00    -0.376 OA
BRANCH  28  29
ATOM     29  C   UNL     1       3.522   4.046  -2.441  1.00  0.00     0.202 C 
BRANCH  29  30
ATOM     30  C   UNL     1       4.433   4.570  -1.315  1.00  0.00     0.261 C 
BRANCH  30  31
ATOM     31  O   UNL     1       3.882   4.564   0.012  1.00  0.00    -0.460 OA
BRANCH  31  32
ATOM     32  C   UNL     1       2.855   5.404   0.262  1.00  0.00     0.338 C 
ATOM     33  O   UNL     1       2.305   6.139  -0.537  1.00  0.00    -0.246 OA
BRANCH  32  34
ATOM     34  C   UNL     1       2.407   5.200   1.657  1.00  0.00     0.060 A 
ATOM     35  C   UNL     1       1.085   4.808   1.896  1.00  0.00     0.016 A 
ATOM     36  C   UNL     1       3.273   5.445   2.728  1.00  0.00     0.016 A 
ATOM     37  C   UNL     1       0.623   4.667   3.207  1.00  0.00     0.010 A 
ATOM     38  C   UNL     1       2.799   5.331   4.040  1.00  0.00     0.010 A 
ATOM     39  C   UNL     1       1.465   4.966   4.287  1.00  0.00    -0.014 A 
BRANCH  39  40
ATOM     40  C   UNL     1       0.894   5.086   5.654  1.00  0.00     0.031 A 
ATOM     41  C   UNL     1       0.399   6.434   6.106  1.00  0.00     0.074 A 
ATOM     42  C   UNL     1       0.810   4.029   6.483  1.00  0.00     0.049 A 
ATOM     43  N   UNL     1      -0.158   6.777   7.238  1.00  0.00    -0.248 NA
ATOM     44  C   UNL     1       0.551   7.543   5.148  1.00  0.00     0.031 C 
ATOM     45  C   UNL     1       1.257   2.672   6.176  1.00  0.00     0.029 A 
ATOM     46  N   UNL     1       0.335   3.945   7.770  1.00  0.00    -0.354 N 
ATOM     47  C   UNL     1      -0.421   8.137   7.132  1.00  0.00     0.074 A 
ATOM     48  C   UNL     1       0.058   8.563   5.835  1.00  0.00     0.031 C 
ATOM     49  C   UNL     1       1.062   1.895   7.258  1.00  0.00     0.029 A 
ATOM     50  C   UNL     1       0.487   2.701   8.335  1.00  0.00     0.049 A 
ATOM     51  H   UNL     1      -0.076   4.704   8.243  1.00  0.00     0.167 HD
ATOM     52  C   UNL     1      -1.027   8.959   8.022  1.00  0.00     0.034 A 
ATOM     53  C   UNL     1       0.205   2.267   9.582  1.00  0.00     0.034 A 
ATOM     54  C   UNL     1      -1.498   8.547   9.316  1.00  0.00     0.049 A 
ATOM     55  C   UNL     1      -0.433   3.213  10.571  1.00  0.00     0.074 A 
ATOM     56  C   UNL     1      -2.141   9.306  10.278  1.00  0.00     0.029 A 
ATOM     57  N   UNL     1      -1.364   7.271   9.836  1.00  0.00    -0.354 N 
ATOM     58  N   UNL     1      -0.800   4.461  10.405  1.00  0.00    -0.248 NA
ATOM     59  C   UNL     1      -0.730   2.678  11.909  1.00  0.00     0.031 C 
ATOM     60  C   UNL     1      -2.379   8.490  11.390  1.00  0.00     0.029 A 
ATOM     61  C   UNL     1      -1.905   7.219  11.109  1.00  0.00     0.049 A 
ATOM     62  H   UNL     1      -0.945   6.511   9.369  1.00  0.00     0.167 HD
ATOM     63  C   UNL     1      -1.406   4.845  11.599  1.00  0.00     0.074 A 
ATOM     64  C   UNL     1      -1.375   3.691  12.473  1.00  0.00     0.031 C 
ATOM     65  C   UNL     1      -1.927   6.048  11.947  1.00  0.00     0.034 A 
BRANCH  52  66
ATOM     66  C   UNL     1      -1.250  10.387   7.602  1.00  0.00     0.023 A 
ATOM     67  C   UNL     1      -2.253  10.677   6.655  1.00  0.00     0.012 A 
ATOM     68  C   UNL     1      -0.506  11.439   8.169  1.00  0.00     0.148 A 
ATOM     69  C   UNL     1      -2.494  11.991   6.257  1.00  0.00     0.002 A 
ATOM     70  C   UNL     1      -0.779  12.750   7.796  1.00  0.00     0.091 A 
ATOM     71  F   UNL     1       0.461  11.139   9.048  1.00  0.00    -0.205 F 
ATOM     72  C   UNL     1      -1.765  13.027   6.834  1.00  0.00     0.022 A 
BRANCH  70  73
ATOM     73  S   UNL     1       0.058  14.159   8.530  1.00  0.00     0.127 S 
ATOM     74  O   UNL     1       0.908  14.605   7.427  1.00  0.00    -0.237 OA
ATOM     75  O   UNL     1      -1.058  15.053   8.841  1.00  0.00    -0.237 OA
ATOM     76  O   UNL     1       0.764  13.644   9.695  1.00  0.00    -0.744 OA
ENDBRANCH  70  73
ENDBRANCH  52  66
BRANCH  53  77
ATOM     77  C   UNL     1       0.485   0.854   9.968  1.00  0.00     0.023 A 
ATOM     78  C   UNL     1      -0.586  -0.024  10.226  1.00  0.00     0.012 A 
ATOM     79  C   UNL     1       1.805   0.380  10.098  1.00  0.00     0.148 A 
ATOM     80  C   UNL     1      -0.349  -1.335  10.641  1.00  0.00     0.002 A 
ATOM     81  C   UNL     1       2.034  -0.944  10.460  1.00  0.00     0.091 A 
ATOM     82  F   UNL     1       2.813   1.235   9.874  1.00  0.00    -0.205 F 
ATOM     83  C   UNL     1       0.960  -1.798  10.749  1.00  0.00     0.022 A 
BRANCH  81  84
ATOM     84  S   UNL     1       3.685  -1.652  10.505  1.00  0.00     0.127 S 
ATOM     85  O   UNL     1       3.927  -1.755  11.941  1.00  0.00    -0.237 OA
ATOM     86  O   UNL     1       3.487  -2.930   9.819  1.00  0.00    -0.237 OA
ATOM     87  O   UNL     1       4.532  -0.712   9.782  1.00  0.00    -0.744 OA
ENDBRANCH  81  84
ENDBRANCH  53  77
BRANCH  65  88
ATOM     88  C   UNL     1      -2.546   6.181  13.316  1.00  0.00     0.023 A 
ATOM     89  C   UNL     1      -1.721   6.218  14.457  1.00  0.00     0.012 A 
ATOM     90  C   UNL     1      -3.938   6.347  13.464  1.00  0.00     0.148 A 
ATOM     91  C   UNL     1      -2.273   6.388  15.727  1.00  0.00     0.002 A 
ATOM     92  C   UNL     1      -4.476   6.562  14.728  1.00  0.00     0.091 A 
ATOM     93  F   UNL     1      -4.710   6.291  12.370  1.00  0.00    -0.205 F 
ATOM     94  C   UNL     1      -3.647   6.571  15.861  1.00  0.00     0.022 A 
BRANCH  92  95
ATOM     95  S   UNL     1      -6.223   6.903  14.983  1.00  0.00     0.127 S 
ATOM     96  O   UNL     1      -6.698   5.633  15.528  1.00  0.00    -0.237 OA
ATOM     97  O   UNL     1      -6.189   8.005  15.945  1.00  0.00    -0.237 OA
ATOM     98  O   UNL     1      -6.753   7.263  13.675  1.00  0.00    -0.744 OA
ENDBRANCH  92  95
ENDBRANCH  65  88
ENDBRANCH  39  40
ENDBRANCH  32  34
ENDBRANCH  31  32
ENDBRANCH  30  31
ENDBRANCH  29  30
ENDBRANCH  28  29
ENDBRANCH  27  28
ENDBRANCH   1  27
TORSDOF 24
