REMARK SMILES O=C(CC[C@]12C[C@H]3C[C@H](C[C@H](C3)C1)C2)OCCOCCOCCOC(=O)c1ccc(-c2c3nc(c(-c4cccc(S(=O)(=O)[O-])c4F)c4ccc([nH]4)c(-c4cccc(S(=O)(=O)[O-])c4F)c4nc(c(-c5cccc(S(=O)(=O)[O-])c5F)c5ccc2[nH]5)C=C4)C=C3)cc1
REMARK SMILES IDX 20 1 19 2 18 3 17 4 16 5 15 6 2 7 1 8 3 9 4 10 5 11 6 12
REMARK SMILES IDX 13 13 14 14 7 15 11 16 9 17 8 18 12 19 10 20 21 21 22 22
REMARK SMILES IDX 23 23 24 24 25 25 26 26 27 27 28 28 89 29 29 30 88 31 30 32
REMARK SMILES IDX 31 33 32 34 82 35 33 36 87 37 81 38 83 39 34 40 86 41 80 42
REMARK SMILES IDX 79 43 35 45 67 46 47 47 66 48 48 49 51 50 65 51 84 52 49 53
REMARK SMILES IDX 50 54 64 56 85 57 52 58 36 59 37 60 45 61 38 62 40 63 46 64
REMARK SMILES IDX 39 65 41 66 42 67 43 68 44 69 68 70 69 71 77 72 70 73 72 74
REMARK SMILES IDX 78 75 71 76 73 77 74 78 75 79 76 80 53 81 54 82 62 83 55 84
REMARK SMILES IDX 57 85 63 86 56 87 58 88 59 89 60 90 61 91
REMARK H PARENT 83 44 51 55
REMARK Flexibility Score: inf
ROOT
ATOM      1  C   UNL     1       1.768   2.168   2.332  1.00  0.00     0.188 C 
ENDROOT
BRANCH   1   2
ATOM      2  C   UNL     1       2.418   0.770   2.324  1.00  0.00     0.188 C 
BRANCH   2   3
ATOM      3  O   UNL     1       3.817   0.683   2.112  1.00  0.00    -0.376 OA
BRANCH   3   4
ATOM      4  C   UNL     1       4.351   1.440   1.047  1.00  0.00     0.202 C 
BRANCH   4   5
ATOM      5  C   UNL     1       3.552   1.479  -0.274  1.00  0.00     0.261 C 
BRANCH   5   6
ATOM      6  O   UNL     1       2.399   0.623  -0.419  1.00  0.00    -0.463 OA
BRANCH   6   7
ATOM      7  C   UNL     1       2.414  -0.602  -0.998  1.00  0.00     0.305 C 
ATOM      8  O   UNL     1       1.590  -0.882  -1.866  1.00  0.00    -0.252 OA
BRANCH   7   9
ATOM      9  C   UNL     1       3.327  -1.654  -0.406  1.00  0.00     0.123 C 
BRANCH   9  10
ATOM     10  C   UNL     1       4.315  -2.336  -1.386  1.00  0.00     0.019 C 
BRANCH  10  11
ATOM     11  C   UNL     1       5.431  -1.447  -2.009  1.00  0.00    -0.028 C 
ATOM     12  C   UNL     1       6.088  -0.594  -0.927  1.00  0.00     0.010 C 
ATOM     13  C   UNL     1       4.842  -0.576  -3.146  1.00  0.00     0.010 C 
ATOM     14  C   UNL     1       6.614  -2.255  -2.602  1.00  0.00     0.010 C 
ATOM     15  C   UNL     1       7.044   0.460  -1.486  1.00  0.00    -0.010 C 
ATOM     16  C   UNL     1       5.892   0.379  -3.724  1.00  0.00    -0.010 C 
ATOM     17  C   UNL     1       7.695  -1.286  -3.162  1.00  0.00    -0.010 C 
ATOM     18  C   UNL     1       8.219  -0.327  -2.066  1.00  0.00     0.007 C 
ATOM     19  C   UNL     1       6.422   1.300  -2.617  1.00  0.00     0.007 C 
ATOM     20  C   UNL     1       7.062  -0.442  -4.282  1.00  0.00     0.007 C 
ENDBRANCH  10  11
ENDBRANCH   9  10
ENDBRANCH   7   9
ENDBRANCH   6   7
ENDBRANCH   5   6
ENDBRANCH   4   5
ENDBRANCH   3   4
ENDBRANCH   2   3
ENDBRANCH   1   2
BRANCH   1  21
ATOM     21  O   UNL     1       2.619   3.224   1.909  1.00  0.00    -0.376 OA
BRANCH  21  22
ATOM     22  C   UNL     1       3.191   4.053   2.915  1.00  0.00     0.202 C 
BRANCH  22  23
ATOM     23  C   UNL     1       4.147   3.452   3.969  1.00  0.00     0.261 C 
BRANCH  23  24
ATOM     24  O   UNL     1       3.776   2.203   4.562  1.00  0.00    -0.460 OA
BRANCH  24  25
ATOM     25  C   UNL     1       2.716   2.217   5.402  1.00  0.00     0.338 C 
ATOM     26  O   UNL     1       2.046   3.179   5.701  1.00  0.00    -0.246 OA
BRANCH  25  27
ATOM     27  C   UNL     1       2.365   0.810   5.721  1.00  0.00     0.060 A 
ATOM     28  C   UNL     1       1.061   0.384   5.425  1.00  0.00     0.016 A 
ATOM     29  C   UNL     1       3.296  -0.083   6.262  1.00  0.00     0.016 A 
ATOM     30  C   UNL     1       0.670  -0.919   5.712  1.00  0.00     0.010 A 
ATOM     31  C   UNL     1       2.883  -1.375   6.610  1.00  0.00     0.010 A 
ATOM     32  C   UNL     1       1.550  -1.770   6.390  1.00  0.00    -0.014 A 
BRANCH  32  33
ATOM     33  C   UNL     1       0.935  -2.854   7.193  1.00  0.00     0.031 A 
ATOM     34  C   UNL     1       0.513  -2.494   8.596  1.00  0.00     0.074 A 
ATOM     35  C   UNL     1       0.653  -4.066   6.685  1.00  0.00     0.049 A 
ATOM     36  N   UNL     1      -0.146  -3.199   9.475  1.00  0.00    -0.248 NA
ATOM     37  C   UNL     1       0.875  -1.143   9.063  1.00  0.00     0.031 C 
ATOM     38  C   UNL     1       0.973  -4.520   5.334  1.00  0.00     0.029 A 
ATOM     39  N   UNL     1       0.022  -5.139   7.263  1.00  0.00    -0.354 N 
ATOM     40  C   UNL     1      -0.254  -2.389  10.600  1.00  0.00     0.074 A 
ATOM     41  C   UNL     1       0.415  -1.146  10.302  1.00  0.00     0.031 C 
ATOM     42  C   UNL     1       0.548  -5.789   5.192  1.00  0.00     0.029 A 
ATOM     43  C   UNL     1      -0.061  -6.239   6.443  1.00  0.00     0.049 A 
ATOM     44  H   UNL     1      -0.338  -5.122   8.180  1.00  0.00     0.167 HD
ATOM     45  C   UNL     1      -0.868  -2.647  11.776  1.00  0.00     0.034 A 
ATOM     46  C   UNL     1      -0.567  -7.465   6.686  1.00  0.00     0.034 A 
ATOM     47  C   UNL     1      -1.540  -3.879  12.072  1.00  0.00     0.049 A 
ATOM     48  C   UNL     1      -1.215  -7.742   8.022  1.00  0.00     0.074 A 
ATOM     49  C   UNL     1      -2.216  -4.234  13.223  1.00  0.00     0.029 A 
ATOM     50  N   UNL     1      -1.601  -4.966  11.215  1.00  0.00    -0.354 N 
ATOM     51  N   UNL     1      -1.397  -6.933   9.039  1.00  0.00    -0.248 NA
ATOM     52  C   UNL     1      -1.765  -9.090   8.226  1.00  0.00     0.031 C 
ATOM     53  C   UNL     1      -2.651  -5.555  13.079  1.00  0.00     0.029 A 
ATOM     54  C   UNL     1      -2.294  -6.000  11.816  1.00  0.00     0.049 A 
ATOM     55  H   UNL     1      -1.210  -4.997  10.312  1.00  0.00     0.167 HD
ATOM     56  C   UNL     1      -2.128  -7.656   9.978  1.00  0.00     0.074 A 
ATOM     57  C   UNL     1      -2.363  -8.964   9.403  1.00  0.00     0.031 C 
ATOM     58  C   UNL     1      -2.566  -7.275  11.205  1.00  0.00     0.034 A 
BRANCH  45  59
ATOM     59  C   UNL     1      -0.820  -1.575  12.832  1.00  0.00     0.023 A 
ATOM     60  C   UNL     1      -1.564  -0.388  12.675  1.00  0.00     0.012 A 
ATOM     61  C   UNL     1      -0.048  -1.760  13.995  1.00  0.00     0.148 A 
ATOM     62  C   UNL     1      -1.511   0.615  13.643  1.00  0.00     0.002 A 
ATOM     63  C   UNL     1      -0.043  -0.780  14.979  1.00  0.00     0.091 A 
ATOM     64  F   UNL     1       0.678  -2.881  14.109  1.00  0.00    -0.205 F 
ATOM     65  C   UNL     1      -0.761   0.414  14.798  1.00  0.00     0.022 A 
BRANCH  63  66
ATOM     66  S   UNL     1       0.825  -0.983  16.537  1.00  0.00     0.127 S 
ATOM     67  O   UNL     1       1.902  -0.002  16.404  1.00  0.00    -0.237 OA
ATOM     68  O   UNL     1      -0.207  -0.627  17.510  1.00  0.00    -0.237 OA
ATOM     69  O   UNL     1       1.252  -2.374  16.583  1.00  0.00    -0.744 OA
ENDBRANCH  63  66
ENDBRANCH  45  59
BRANCH  46  70
ATOM     70  C   UNL     1      -0.521  -8.521   5.634  1.00  0.00     0.023 A 
ATOM     71  C   UNL     1      -1.717  -8.983   5.050  1.00  0.00     0.012 A 
ATOM     72  C   UNL     1       0.704  -9.081   5.222  1.00  0.00     0.148 A 
ATOM     73  C   UNL     1      -1.697 -10.009   4.103  1.00  0.00     0.002 A 
ATOM     74  C   UNL     1       0.722 -10.063   4.238  1.00  0.00     0.091 A 
ATOM     75  F   UNL     1       1.829  -8.641   5.802  1.00  0.00    -0.205 F 
ATOM     76  C   UNL     1      -0.479 -10.542   3.691  1.00  0.00     0.022 A 
BRANCH  74  77
ATOM     77  S   UNL     1       2.248 -10.726   3.563  1.00  0.00     0.127 S 
ATOM     78  O   UNL     1       2.207 -12.109   4.032  1.00  0.00    -0.237 OA
ATOM     79  O   UNL     1       2.038 -10.555   2.125  1.00  0.00    -0.237 OA
ATOM     80  O   UNL     1       3.316  -9.904   4.118  1.00  0.00    -0.744 OA
ENDBRANCH  74  77
ENDBRANCH  46  70
BRANCH  58  81
ATOM     81  C   UNL     1      -3.409  -8.251  11.986  1.00  0.00     0.023 A 
ATOM     82  C   UNL     1      -2.836  -9.417  12.528  1.00  0.00     0.012 A 
ATOM     83  C   UNL     1      -4.767  -7.967  12.238  1.00  0.00     0.148 A 
ATOM     84  C   UNL     1      -3.613 -10.310  13.267  1.00  0.00     0.002 A 
ATOM     85  C   UNL     1      -5.519  -8.831  13.023  1.00  0.00     0.091 A 
ATOM     86  F   UNL     1      -5.300  -6.859  11.702  1.00  0.00    -0.205 F 
ATOM     87  C   UNL     1      -4.949 -10.011  13.524  1.00  0.00     0.022 A 
BRANCH  85  88
ATOM     88  S   UNL     1      -7.214  -8.467  13.493  1.00  0.00     0.127 S 
ATOM     89  O   UNL     1      -7.963  -9.396  12.648  1.00  0.00    -0.237 OA
ATOM     90  O   UNL     1      -7.220  -8.799  14.918  1.00  0.00    -0.237 OA
ATOM     91  O   UNL     1      -7.417  -7.054  13.203  1.00  0.00    -0.744 OA
ENDBRANCH  85  88
ENDBRANCH  58  81
ENDBRANCH  32  33
ENDBRANCH  25  27
ENDBRANCH  24  25
ENDBRANCH  23  24
ENDBRANCH  22  23
ENDBRANCH  21  22
ENDBRANCH   1  21
TORSDOF 22
