REMARK SMILES C[C@H](CNC(=O)N1C[C@H]2CCCC[N@@H+]2C[C@@H]1C)C(=O)OCCOCCOCCOC(=O)c1ccc(-c2c3nc(c(-c4cccc(S(=O)(=O)[O-])c4F)c4ccc([nH]4)c(-c4cccc(S(=O)(=O)[O-])c4F)c4nc(c(-c5cccc(S(=O)(=O)[O-])c5F)c5ccc2[nH]5)C=C4)C=C3)cc1
REMARK SMILES IDX 24 1 23 2 22 3 21 4 20 5 18 6 19 7 2 8 1 9 3 10 4 11 5 12
REMARK SMILES IDX 6 14 7 15 8 16 16 17 9 18 15 19 17 20 10 21 14 22 11 23
REMARK SMILES IDX 13 24 12 26 25 27 26 28 27 29 28 30 29 31 30 32 31 33 32 34
REMARK SMILES IDX 33 35 94 36 34 37 93 38 35 39 36 40 37 41 87 42 38 43 92 44
REMARK SMILES IDX 86 45 88 46 39 47 91 48 85 49 84 50 40 52 72 53 52 54 71 55
REMARK SMILES IDX 53 56 56 57 70 58 89 59 54 60 55 61 69 63 90 64 57 65 41 66
REMARK SMILES IDX 42 67 50 68 43 69 45 70 51 71 44 72 46 73 47 74 48 75 49 76
REMARK SMILES IDX 73 77 74 78 82 79 75 80 77 81 83 82 76 83 78 84 79 85 80 86
REMARK SMILES IDX 81 87 58 88 59 89 67 90 60 91 62 92 68 93 61 94 63 95 64 96
REMARK SMILES IDX 65 97 66 98
REMARK H PARENT 4 13 14 25 88 51 56 62
REMARK Flexibility Score: inf
ROOT
ATOM      1  C   UNL     1      -2.445   0.061   2.174  1.00  0.00     0.188 C 
ENDROOT
BRANCH   1   2
ATOM      2  O   UNL     1      -3.686   0.742   2.014  1.00  0.00    -0.376 OA
BRANCH   2   3
ATOM      3  C   UNL     1      -4.095   1.037   0.679  1.00  0.00     0.202 C 
BRANCH   3   4
ATOM      4  C   UNL     1      -3.197   2.007  -0.106  1.00  0.00     0.261 C 
BRANCH   4   5
ATOM      5  O   UNL     1      -1.819   1.583  -0.189  1.00  0.00    -0.463 OA
BRANCH   5   6
ATOM      6  C   UNL     1      -0.894   2.517   0.164  1.00  0.00     0.310 C 
ATOM      7  O   UNL     1      -1.158   3.699   0.360  1.00  0.00    -0.252 OA
BRANCH   6   8
ATOM      8  C   UNL     1       0.487   1.933   0.449  1.00  0.00     0.115 C 
ATOM      9  C   UNL     1       1.567   2.957   0.105  1.00  0.00     0.022 C 
BRANCH   8  10
ATOM     10  C   UNL     1       0.797   0.532  -0.100  1.00  0.00     0.132 C 
BRANCH  10  11
ATOM     11  N   UNL     1       1.184   0.460  -1.501  1.00  0.00    -0.337 N 
ATOM     12  C   UNL     1       2.413   0.300  -2.070  1.00  0.00     0.318 C 
ATOM     13  H   UNL     1       0.440   0.538  -2.140  1.00  0.00     0.165 HD
ATOM     14  O   UNL     1       2.527   0.466  -3.283  1.00  0.00    -0.249 OA
BRANCH  12  15
ATOM     15  N   UNL     1       3.475   0.043  -1.237  1.00  0.00    -0.311 N 
ATOM     16  C   UNL     1       3.517  -1.239  -0.525  1.00  0.00     0.186 C 
ATOM     17  C   UNL     1       4.817   0.569  -1.548  1.00  0.00     0.139 C 
ATOM     18  C   UNL     1       4.283  -1.087   0.799  1.00  0.00     0.203 C 
ATOM     19  C   UNL     1       5.744   0.535  -0.289  1.00  0.00     0.287 C 
ATOM     20  C   UNL     1       4.792   2.023  -2.045  1.00  0.00     0.037 C 
ATOM     21  C   UNL     1       4.263  -2.393   1.604  1.00  0.00     0.067 C 
ATOM     22  N   UNL     1       5.687  -0.674   0.562  1.00  0.00    -0.329 N 
ATOM     23  C   UNL     1       4.944  -2.191   2.956  1.00  0.00     0.012 C 
ATOM     24  C   UNL     1       6.356  -0.402   1.850  1.00  0.00     0.262 C 
ATOM     25  H   UNL     1       6.167  -1.435   0.081  1.00  0.00     0.348 HD
ATOM     26  C   UNL     1       6.346  -1.620   2.775  1.00  0.00     0.062 C 
ENDBRANCH  12  15
ENDBRANCH  10  11
ENDBRANCH   8  10
ENDBRANCH   6   8
ENDBRANCH   5   6
ENDBRANCH   4   5
ENDBRANCH   3   4
ENDBRANCH   2   3
ENDBRANCH   1   2
BRANCH   1  27
ATOM     27  C   UNL     1      -2.330  -1.286   1.457  1.00  0.00     0.188 C 
BRANCH  27  28
ATOM     28  O   UNL     1      -2.611  -1.233   0.062  1.00  0.00    -0.376 OA
BRANCH  28  29
ATOM     29  C   UNL     1      -2.560  -2.469  -0.655  1.00  0.00     0.202 C 
BRANCH  29  30
ATOM     30  C   UNL     1      -3.341  -3.653  -0.050  1.00  0.00     0.261 C 
BRANCH  30  31
ATOM     31  O   UNL     1      -2.874  -4.096   1.240  1.00  0.00    -0.460 OA
BRANCH  31  32
ATOM     32  C   UNL     1      -1.555  -4.365   1.371  1.00  0.00     0.338 C 
ATOM     33  O   UNL     1      -0.754  -4.524   0.464  1.00  0.00    -0.246 OA
BRANCH  32  34
ATOM     34  C   UNL     1      -1.173  -4.166   2.793  1.00  0.00     0.060 A 
ATOM     35  C   UNL     1       0.065  -3.562   3.062  1.00  0.00     0.016 A 
ATOM     36  C   UNL     1      -2.032  -4.492   3.848  1.00  0.00     0.016 A 
ATOM     37  C   UNL     1       0.467  -3.333   4.380  1.00  0.00     0.010 A 
ATOM     38  C   UNL     1      -1.625  -4.270   5.168  1.00  0.00     0.010 A 
ATOM     39  C   UNL     1      -0.358  -3.726   5.442  1.00  0.00    -0.014 A 
BRANCH  39  40
ATOM     40  C   UNL     1       0.192  -3.772   6.821  1.00  0.00     0.031 A 
ATOM     41  C   UNL     1       0.711  -5.090   7.333  1.00  0.00     0.074 A 
ATOM     42  C   UNL     1       0.252  -2.680   7.605  1.00  0.00     0.049 A 
ATOM     43  N   UNL     1       1.234  -5.382   8.495  1.00  0.00    -0.248 NA
ATOM     44  C   UNL     1       0.627  -6.233   6.407  1.00  0.00     0.031 C 
ATOM     45  C   UNL     1      -0.208  -1.343   7.237  1.00  0.00     0.029 A 
ATOM     46  N   UNL     1       0.712  -2.535   8.892  1.00  0.00    -0.354 N 
ATOM     47  C   UNL     1       1.524  -6.740   8.447  1.00  0.00     0.074 A 
ATOM     48  C   UNL     1       1.101  -7.220   7.150  1.00  0.00     0.031 C 
ATOM     49  C   UNL     1      -0.031  -0.518   8.286  1.00  0.00     0.029 A 
ATOM     50  C   UNL     1       0.536  -1.271   9.404  1.00  0.00     0.049 A 
ATOM     51  H   UNL     1       1.128  -3.269   9.400  1.00  0.00     0.167 HD
ATOM     52  C   UNL     1       2.110  -7.520   9.386  1.00  0.00     0.034 A 
ATOM     53  C   UNL     1       0.788  -0.785  10.638  1.00  0.00     0.034 A 
ATOM     54  C   UNL     1       2.541  -7.052  10.674  1.00  0.00     0.049 A 
ATOM     55  C   UNL     1       1.402  -1.686  11.683  1.00  0.00     0.074 A 
ATOM     56  C   UNL     1       3.171  -7.765  11.679  1.00  0.00     0.029 A 
ATOM     57  N   UNL     1       2.376  -5.759  11.142  1.00  0.00    -0.354 N 
ATOM     58  N   UNL     1       1.782  -2.937  11.579  1.00  0.00    -0.248 NA
ATOM     59  C   UNL     1       1.654  -1.095  13.007  1.00  0.00     0.031 C 
ATOM     60  C   UNL     1       3.364  -6.907  12.767  1.00  0.00     0.029 A 
ATOM     61  C   UNL     1       2.884  -5.653  12.426  1.00  0.00     0.049 A 
ATOM     62  H   UNL     1       1.960  -5.024  10.637  1.00  0.00     0.167 HD
ATOM     63  C   UNL     1       2.352  -3.267  12.806  1.00  0.00     0.074 A 
ATOM     64  C   UNL     1       2.286  -2.080  13.631  1.00  0.00     0.031 C 
ATOM     65  C   UNL     1       2.871  -4.451  13.218  1.00  0.00     0.034 A 
BRANCH  52  66
ATOM     66  C   UNL     1       2.344  -8.965   9.037  1.00  0.00     0.023 A 
ATOM     67  C   UNL     1       3.354  -9.302   8.113  1.00  0.00     0.012 A 
ATOM     68  C   UNL     1       1.597  -9.988   9.652  1.00  0.00     0.148 A 
ATOM     69  C   UNL     1       3.597 -10.634   7.783  1.00  0.00     0.002 A 
ATOM     70  C   UNL     1       1.876 -11.315   9.352  1.00  0.00     0.091 A 
ATOM     71  F   UNL     1       0.624  -9.643  10.507  1.00  0.00    -0.205 F 
ATOM     72  C   UNL     1       2.866 -11.640   8.410  1.00  0.00     0.022 A 
BRANCH  70  73
ATOM     73  S   UNL     1       1.042 -12.685  10.160  1.00  0.00     0.127 S 
ATOM     74  O   UNL     1       0.215 -13.208   9.074  1.00  0.00    -0.237 OA
ATOM     75  O   UNL     1       2.163 -13.544  10.542  1.00  0.00    -0.237 OA
ATOM     76  O   UNL     1       0.311 -12.106  11.279  1.00  0.00    -0.744 OA
ENDBRANCH  70  73
ENDBRANCH  52  66
BRANCH  53  77
ATOM     77  C   UNL     1       0.487   0.640  10.962  1.00  0.00     0.023 A 
ATOM     78  C   UNL     1       1.544   1.534  11.222  1.00  0.00     0.012 A 
ATOM     79  C   UNL     1      -0.840   1.106  11.037  1.00  0.00     0.148 A 
ATOM     80  C   UNL     1       1.284   2.857  11.586  1.00  0.00     0.002 A 
ATOM     81  C   UNL     1      -1.090   2.438  11.347  1.00  0.00     0.091 A 
ATOM     82  F   UNL     1      -1.833   0.234  10.810  1.00  0.00    -0.205 F 
ATOM     83  C   UNL     1      -0.031   3.311  11.640  1.00  0.00     0.022 A 
BRANCH  81  84
ATOM     84  S   UNL     1      -2.744   3.137  11.323  1.00  0.00     0.127 S 
ATOM     85  O   UNL     1      -2.994   3.360  12.745  1.00  0.00    -0.237 OA
ATOM     86  O   UNL     1      -2.545   4.353  10.534  1.00  0.00    -0.237 OA
ATOM     87  O   UNL     1      -3.583   2.135  10.682  1.00  0.00    -0.744 OA
ENDBRANCH  81  84
ENDBRANCH  53  77
BRANCH  65  88
ATOM     88  C   UNL     1       3.459  -4.523  14.605  1.00  0.00     0.023 A 
ATOM     89  C   UNL     1       2.613  -4.506  15.731  1.00  0.00     0.012 A 
ATOM     90  C   UNL     1       4.847  -4.688  14.789  1.00  0.00     0.148 A 
ATOM     91  C   UNL     1       3.141  -4.617  17.018  1.00  0.00     0.002 A 
ATOM     92  C   UNL     1       5.361  -4.848  16.070  1.00  0.00     0.091 A 
ATOM     93  F   UNL     1       5.640  -4.686  13.707  1.00  0.00    -0.205 F 
ATOM     94  C   UNL     1       4.511  -4.800  17.187  1.00  0.00     0.022 A 
BRANCH  92  95
ATOM     95  S   UNL     1       7.099  -5.186  16.377  1.00  0.00     0.127 S 
ATOM     96  O   UNL     1       7.558  -3.911  16.925  1.00  0.00    -0.237 OA
ATOM     97  O   UNL     1       7.038  -6.280  17.346  1.00  0.00    -0.237 OA
ATOM     98  O   UNL     1       7.669  -5.553  15.087  1.00  0.00    -0.744 OA
ENDBRANCH  92  95
ENDBRANCH  65  88
ENDBRANCH  39  40
ENDBRANCH  32  34
ENDBRANCH  31  32
ENDBRANCH  30  31
ENDBRANCH  29  30
ENDBRANCH  28  29
ENDBRANCH  27  28
ENDBRANCH   1  27
TORSDOF 23
