REMARK SMILES Cc1ccc(C(=O)Nc2cccc(F)c2C(=O)OCCOCCOCCOC(=O)c2ccc(-c3c4nc(c(-c5cccc(S(=O)(=O)[O-])c5F)c5ccc([nH]5)c(-c5cccc(S(=O)(=O)[O-])c5F)c5nc(c(-c6cccc(S(=O)(=O)[O-])c6F)c6ccc3[nH]6)C=C5)C=C4)cc2)c(F)c1
REMARK SMILES IDX 23 1 22 2 21 3 20 4 19 5 18 6 16 7 17 8 15 9 9 10 10 11
REMARK SMILES IDX 11 12 13 13 12 14 14 15 8 16 6 17 7 18 5 20 1 21 2 22 3 23
REMARK SMILES IDX 95 24 4 25 93 26 94 27 24 28 25 29 26 30 27 31 28 32 29 33
REMARK SMILES IDX 30 34 31 35 92 36 32 37 91 38 33 39 34 40 35 41 85 42 36 43
REMARK SMILES IDX 90 44 84 45 86 46 37 47 89 48 83 49 82 50 38 52 70 53 50 54
REMARK SMILES IDX 69 55 51 56 54 57 68 58 87 59 52 60 53 61 67 63 88 64 55 65
REMARK SMILES IDX 39 66 40 67 48 68 41 69 43 70 49 71 42 72 44 73 45 74 46 75
REMARK SMILES IDX 47 76 71 77 72 78 80 79 73 80 75 81 81 82 74 83 76 84 77 85
REMARK SMILES IDX 78 86 79 87 56 88 57 89 65 90 58 91 60 92 66 93 59 94 61 95
REMARK SMILES IDX 62 96 63 97 64 98
REMARK H PARENT 8 19 86 51 54 62
REMARK Flexibility Score: inf
ROOT
ATOM      1  C   UNL     1      -2.635  -7.434   0.035  1.00  0.00     0.188 C 
ENDROOT
BRANCH   1   2
ATOM      2  C   UNL     1      -3.710  -6.553  -0.635  1.00  0.00     0.188 C 
BRANCH   2   3
ATOM      3  O   UNL     1      -4.500  -7.173  -1.623  1.00  0.00    -0.376 OA
BRANCH   3   4
ATOM      4  C   UNL     1      -4.044  -7.261  -2.963  1.00  0.00     0.202 C 
BRANCH   4   5
ATOM      5  C   UNL     1      -2.696  -6.733  -3.493  1.00  0.00     0.261 C 
BRANCH   5   6
ATOM      6  O   UNL     1      -1.669  -6.494  -2.528  1.00  0.00    -0.460 OA
BRANCH   6   7
ATOM      7  C   UNL     1      -1.223  -5.217  -2.442  1.00  0.00     0.343 C 
ATOM      8  O   UNL     1      -1.569  -4.269  -3.132  1.00  0.00    -0.246 OA
BRANCH   7   9
ATOM      9  C   UNL     1      -0.401  -5.073  -1.233  1.00  0.00     0.119 A 
ATOM     10  C   UNL     1      -0.730  -4.127  -0.245  1.00  0.00     0.059 A 
ATOM     11  C   UNL     1       0.067  -4.032   0.906  1.00  0.00     0.027 A 
ATOM     12  C   UNL     1       1.213  -4.822   1.038  1.00  0.00     0.005 A 
ATOM     13  C   UNL     1       0.754  -5.840  -1.101  1.00  0.00     0.139 A 
ATOM     14  C   UNL     1       1.564  -5.714   0.025  1.00  0.00     0.040 A 
ATOM     15  F   UNL     1       1.126  -6.691  -2.068  1.00  0.00    -0.206 F 
BRANCH  10  16
ATOM     16  N   UNL     1      -1.840  -3.281  -0.406  1.00  0.00    -0.321 N 
ATOM     17  C   UNL     1      -1.975  -1.926  -0.177  1.00  0.00     0.258 C 
ATOM     18  O   UNL     1      -3.118  -1.481  -0.127  1.00  0.00    -0.269 OA
ATOM     19  H   UNL     1      -2.653  -3.726  -0.736  1.00  0.00     0.170 HD
BRANCH  17  20
ATOM     20  C   UNL     1      -0.795  -1.012  -0.151  1.00  0.00     0.075 A 
ATOM     21  C   UNL     1       2.598   1.661   0.059  1.00  0.00     0.044 C 
ATOM     22  C   UNL     1       1.417   0.745  -0.031  1.00  0.00    -0.048 A 
ATOM     23  C   UNL     1       1.559  -0.527  -0.579  1.00  0.00     0.004 A 
ATOM     24  C   UNL     1       0.145   1.168   0.369  1.00  0.00     0.043 A 
ATOM     25  C   UNL     1       0.454  -1.373  -0.680  1.00  0.00     0.017 A 
ATOM     26  C   UNL     1      -0.942   0.290   0.328  1.00  0.00     0.136 A 
ATOM     27  F   UNL     1      -2.124   0.749   0.761  1.00  0.00    -0.206 F 
ENDBRANCH  17  20
ENDBRANCH  10  16
ENDBRANCH   7   9
ENDBRANCH   6   7
ENDBRANCH   5   6
ENDBRANCH   4   5
ENDBRANCH   3   4
ENDBRANCH   2   3
ENDBRANCH   1   2
BRANCH   1  28
ATOM     28  O   UNL     1      -2.384  -8.741  -0.439  1.00  0.00    -0.376 OA
BRANCH  28  29
ATOM     29  C   UNL     1      -3.460  -9.659  -0.531  1.00  0.00     0.202 C 
BRANCH  29  30
ATOM     30  C   UNL     1      -4.591  -9.742   0.515  1.00  0.00     0.261 C 
BRANCH  30  31
ATOM     31  O   UNL     1      -5.005  -8.520   1.145  1.00  0.00    -0.460 OA
BRANCH  31  32
ATOM     32  C   UNL     1      -4.606  -8.367   2.433  1.00  0.00     0.338 C 
ATOM     33  O   UNL     1      -3.948  -9.154   3.094  1.00  0.00    -0.246 OA
BRANCH  32  34
ATOM     34  C   UNL     1      -4.907  -6.995   2.896  1.00  0.00     0.060 A 
ATOM     35  C   UNL     1      -3.833  -6.154   3.221  1.00  0.00     0.016 A 
ATOM     36  C   UNL     1      -6.220  -6.564   3.084  1.00  0.00     0.016 A 
ATOM     37  C   UNL     1      -4.068  -4.897   3.772  1.00  0.00     0.010 A 
ATOM     38  C   UNL     1      -6.453  -5.307   3.659  1.00  0.00     0.010 A 
ATOM     39  C   UNL     1      -5.378  -4.484   4.043  1.00  0.00    -0.014 A 
BRANCH  39  40
ATOM     40  C   UNL     1      -5.592  -3.269   4.873  1.00  0.00     0.031 A 
ATOM     41  C   UNL     1      -5.921  -3.433   6.335  1.00  0.00     0.074 A 
ATOM     42  C   UNL     1      -5.428  -2.037   4.353  1.00  0.00     0.049 A 
ATOM     43  N   UNL     1      -6.090  -2.515   7.252  1.00  0.00    -0.248 NA
ATOM     44  C   UNL     1      -6.070  -4.810   6.838  1.00  0.00     0.031 C 
ATOM     45  C   UNL     1      -5.085  -1.746   2.963  1.00  0.00     0.029 A 
ATOM     46  N   UNL     1      -5.533  -0.799   4.940  1.00  0.00    -0.354 N 
ATOM     47  C   UNL     1      -6.381  -3.197   8.427  1.00  0.00     0.074 A 
ATOM     48  C   UNL     1      -6.383  -4.607   8.111  1.00  0.00     0.031 C 
ATOM     49  C   UNL     1      -5.018  -0.413   2.799  1.00  0.00     0.029 A 
ATOM     50  C   UNL     1      -5.337   0.245   4.064  1.00  0.00     0.049 A 
ATOM     51  H   UNL     1      -5.730  -0.670   5.896  1.00  0.00     0.167 HD
ATOM     52  C   UNL     1      -6.602  -2.696   9.664  1.00  0.00     0.034 A 
ATOM     53  C   UNL     1      -5.416   1.578   4.258  1.00  0.00     0.034 A 
ATOM     54  C   UNL     1      -6.566  -1.296   9.986  1.00  0.00     0.049 A 
ATOM     55  C   UNL     1      -5.706   2.107   5.642  1.00  0.00     0.074 A 
ATOM     56  C   UNL     1      -6.734  -0.701  11.224  1.00  0.00     0.029 A 
ATOM     57  N   UNL     1      -6.358  -0.275   9.074  1.00  0.00    -0.354 N 
ATOM     58  N   UNL     1      -5.864   1.445   6.763  1.00  0.00    -0.248 NA
ATOM     59  C   UNL     1      -5.795   3.569   5.799  1.00  0.00     0.031 C 
ATOM     60  C   UNL     1      -6.664   0.682  11.056  1.00  0.00     0.029 A 
ATOM     61  C   UNL     1      -6.409   0.947   9.720  1.00  0.00     0.049 A 
ATOM     62  H   UNL     1      -6.198  -0.400   8.111  1.00  0.00     0.167 HD
ATOM     63  C   UNL     1      -6.028   2.405   7.758  1.00  0.00     0.074 A 
ATOM     64  C   UNL     1      -5.938   3.697   7.112  1.00  0.00     0.031 C 
ATOM     65  C   UNL     1      -6.246   2.228   9.083  1.00  0.00     0.034 A 
BRANCH  52  66
ATOM     66  C   UNL     1      -6.857  -3.653  10.798  1.00  0.00     0.023 A 
ATOM     67  C   UNL     1      -5.780  -4.375  11.349  1.00  0.00     0.012 A 
ATOM     68  C   UNL     1      -8.123  -3.714  11.415  1.00  0.00     0.148 A 
ATOM     69  C   UNL     1      -5.959  -5.145  12.497  1.00  0.00     0.002 A 
ATOM     70  C   UNL     1      -8.282  -4.448  12.584  1.00  0.00     0.091 A 
ATOM     71  F   UNL     1      -9.134  -3.027  10.864  1.00  0.00    -0.205 F 
ATOM     72  C   UNL     1      -7.203  -5.169  13.123  1.00  0.00     0.022 A 
BRANCH  70  73
ATOM     73  S   UNL     1      -9.816  -4.471  13.518  1.00  0.00     0.127 S 
ATOM     74  O   UNL     1     -10.188  -5.884  13.440  1.00  0.00    -0.237 OA
ATOM     75  O   UNL     1      -9.374  -4.030  14.841  1.00  0.00    -0.237 OA
ATOM     76  O   UNL     1     -10.722  -3.558  12.835  1.00  0.00    -0.744 OA
ENDBRANCH  70  73
ENDBRANCH  52  66
BRANCH  53  77
ATOM     77  C   UNL     1      -5.177   2.516   3.122  1.00  0.00     0.023 A 
ATOM     78  C   UNL     1      -4.043   3.351   3.135  1.00  0.00     0.012 A 
ATOM     79  C   UNL     1      -6.067   2.589   2.031  1.00  0.00     0.148 A 
ATOM     80  C   UNL     1      -3.814   4.261   2.102  1.00  0.00     0.002 A 
ATOM     81  C   UNL     1      -5.807   3.460   0.979  1.00  0.00     0.091 A 
ATOM     82  F   UNL     1      -7.159   1.810   2.048  1.00  0.00    -0.205 F 
ATOM     83  C   UNL     1      -4.689   4.308   1.020  1.00  0.00     0.022 A 
BRANCH  81  84
ATOM     84  S   UNL     1      -6.830   3.528  -0.497  1.00  0.00     0.127 S 
ATOM     85  O   UNL     1      -7.499   4.818  -0.335  1.00  0.00    -0.237 OA
ATOM     86  O   UNL     1      -5.832   3.489  -1.566  1.00  0.00    -0.237 OA
ATOM     87  O   UNL     1      -7.696   2.359  -0.434  1.00  0.00    -0.744 OA
ENDBRANCH  81  84
ENDBRANCH  53  77
BRANCH  65  88
ATOM     88  C   UNL     1      -6.364   3.442   9.969  1.00  0.00     0.023 A 
ATOM     89  C   UNL     1      -7.536   4.220   9.938  1.00  0.00     0.012 A 
ATOM     90  C   UNL     1      -5.382   3.707  10.947  1.00  0.00     0.148 A 
ATOM     91  C   UNL     1      -7.728   5.248  10.861  1.00  0.00     0.002 A 
ATOM     92  C   UNL     1      -5.603   4.698  11.896  1.00  0.00     0.091 A 
ATOM     93  F   UNL     1      -4.270   2.957  10.954  1.00  0.00    -0.205 F 
ATOM     94  C   UNL     1      -6.771   5.476  11.848  1.00  0.00     0.022 A 
BRANCH  92  95
ATOM     95  S   UNL     1      -4.484   4.991  13.271  1.00  0.00     0.127 S 
ATOM     96  O   UNL     1      -4.003   6.342  12.981  1.00  0.00    -0.237 OA
ATOM     97  O   UNL     1      -5.381   4.898  14.423  1.00  0.00    -0.237 OA
ATOM     98  O   UNL     1      -3.470   3.948  13.201  1.00  0.00    -0.744 OA
ENDBRANCH  92  95
ENDBRANCH  65  88
ENDBRANCH  39  40
ENDBRANCH  32  34
ENDBRANCH  31  32
ENDBRANCH  30  31
ENDBRANCH  29  30
ENDBRANCH  28  29
ENDBRANCH   1  28
TORSDOF 22
