REMARK SMILES CCC[NH2+][C@]1(C(=O)OCCOCCOCCOC(=O)c2ccc(-c3c4nc(c(-c5cccc(S(=O)(=O)[O-])c5F)c5ccc([nH]5)c(-c5cccc(S(=O)(=O)[O-])c5F)c5nc(c(-c6cccc(S(=O)(=O)[O-])c6F)c6ccc3[nH]6)C=C5)C=C4)cc2)CCC[C@@H]([N@@H+](C)[C@@H](C)C2CC2)C1
REMARK SMILES IDX 12 1 11 2 10 3 9 4 8 5 6 6 7 7 5 8 83 9 94 10 84 11 86 12
REMARK SMILES IDX 85 13 4 14 3 17 2 18 1 19 87 20 88 21 89 23 90 24 91 25
REMARK SMILES IDX 92 26 93 27 13 28 14 29 15 30 16 31 17 32 18 33 19 34 20 35
REMARK SMILES IDX 21 36 82 37 22 38 81 39 23 40 24 41 25 42 75 43 26 44 80 45
REMARK SMILES IDX 74 46 76 47 27 48 79 49 73 50 72 51 28 53 60 54 40 55 59 56
REMARK SMILES IDX 41 57 44 58 58 59 77 60 42 61 43 62 57 64 78 65 45 66 29 67
REMARK SMILES IDX 30 68 38 69 31 70 33 71 39 72 32 73 34 74 35 75 36 76 37 77
REMARK SMILES IDX 61 78 62 79 70 80 63 81 65 82 71 83 64 84 66 85 67 86 68 87
REMARK SMILES IDX 69 88 46 89 47 90 55 91 48 92 50 93 56 94 49 95 51 96 52 97
REMARK SMILES IDX 53 98 54 99
REMARK H PARENT 4 15 4 16 87 22 76 52 44 63
REMARK Flexibility Score: inf
ROOT
ATOM      1  C   UNL     1       0.497  -1.376  -0.783  1.00  0.00     0.188 C 
ENDROOT
BRANCH   1   2
ATOM      2  O   UNL     1      -0.393  -0.570  -0.036  1.00  0.00    -0.376 OA
BRANCH   2   3
ATOM      3  C   UNL     1      -1.583  -0.124  -0.645  1.00  0.00     0.202 C 
BRANCH   3   4
ATOM      4  C   UNL     1      -1.425   0.824  -1.827  1.00  0.00     0.261 C 
BRANCH   4   5
ATOM      5  O   UNL     1      -0.854   0.217  -3.004  1.00  0.00    -0.459 OA
BRANCH   5   6
ATOM      6  C   UNL     1       0.366   0.716  -3.381  1.00  0.00     0.368 C 
ATOM      7  O   UNL     1       1.075   1.385  -2.639  1.00  0.00    -0.245 OA
BRANCH   6   8
ATOM      8  C   UNL     1       0.722   0.406  -4.875  1.00  0.00     0.200 C 
ATOM      9  C   UNL     1       1.746   1.482  -5.306  1.00  0.00     0.081 C 
ATOM     10  C   UNL     1       1.408  -0.998  -4.986  1.00  0.00     0.146 C 
ATOM     11  C   UNL     1       2.367   1.222  -6.668  1.00  0.00     0.013 C 
ATOM     12  C   UNL     1       2.174  -1.274  -6.319  1.00  0.00     0.190 C 
ATOM     13  C   UNL     1       3.114  -0.107  -6.662  1.00  0.00     0.065 C 
BRANCH   8  14
ATOM     14  N   UNL     1      -0.513   0.414  -5.729  1.00  0.00    -0.332 N 
ATOM     15  H   UNL     1      -0.228   0.294  -6.701  1.00  0.00     0.347 HD
ATOM     16  H   UNL     1      -1.104  -0.344  -5.388  1.00  0.00     0.347 HD
BRANCH  14  17
ATOM     17  C   UNL     1      -1.317   1.641  -5.636  1.00  0.00     0.261 C 
BRANCH  17  18
ATOM     18  C   UNL     1      -2.635   1.534  -6.414  1.00  0.00     0.058 C 
ATOM     19  C   UNL     1      -3.542   0.397  -5.958  1.00  0.00     0.010 C 
ENDBRANCH  17  18
ENDBRANCH  14  17
ENDBRANCH   8  14
BRANCH  12  20
ATOM     20  N   UNL     1       2.760  -2.635  -6.497  1.00  0.00    -0.332 N 
ATOM     21  C   UNL     1       2.979  -2.931  -7.924  1.00  0.00     0.333 C 
ATOM     22  H   UNL     1       2.006  -3.141  -6.032  1.00  0.00     0.348 HD
BRANCH  20  23
ATOM     23  C   UNL     1       3.916  -3.157  -5.731  1.00  0.00     0.184 C 
ATOM     24  C   UNL     1       5.060  -2.224  -5.335  1.00  0.00     0.075 C 
BRANCH  23  25
ATOM     25  C   UNL     1       3.530  -4.095  -4.612  1.00  0.00     0.047 C 
ATOM     26  C   UNL     1       2.948  -3.632  -3.320  1.00  0.00     0.010 C 
ATOM     27  C   UNL     1       2.092  -4.413  -4.262  1.00  0.00     0.010 C 
ENDBRANCH  23  25
ENDBRANCH  20  23
ENDBRANCH  12  20
ENDBRANCH   6   8
ENDBRANCH   5   6
ENDBRANCH   4   5
ENDBRANCH   3   4
ENDBRANCH   2   3
ENDBRANCH   1   2
BRANCH   1  28
ATOM     28  C   UNL     1      -0.031  -2.492  -1.707  1.00  0.00     0.188 C 
BRANCH  28  29
ATOM     29  O   UNL     1      -1.233  -3.163  -1.365  1.00  0.00    -0.376 OA
BRANCH  29  30
ATOM     30  C   UNL     1      -1.336  -3.679  -0.045  1.00  0.00     0.202 C 
BRANCH  30  31
ATOM     31  C   UNL     1      -0.229  -4.634   0.417  1.00  0.00     0.261 C 
BRANCH  31  32
ATOM     32  O   UNL     1       1.070  -4.012   0.514  1.00  0.00    -0.460 OA
BRANCH  32  33
ATOM     33  C   UNL     1       2.110  -4.865   0.328  1.00  0.00     0.338 C 
ATOM     34  O   UNL     1       2.004  -6.064   0.122  1.00  0.00    -0.246 OA
BRANCH  33  35
ATOM     35  C   UNL     1       3.447  -4.207   0.339  1.00  0.00     0.060 A 
ATOM     36  C   UNL     1       3.696  -3.030  -0.358  1.00  0.00     0.016 A 
ATOM     37  C   UNL     1       4.536  -4.950   0.794  1.00  0.00     0.016 A 
ATOM     38  C   UNL     1       4.994  -2.732  -0.791  1.00  0.00     0.010 A 
ATOM     39  C   UNL     1       5.849  -4.552   0.494  1.00  0.00     0.010 A 
ATOM     40  C   UNL     1       6.104  -3.477  -0.374  1.00  0.00    -0.014 A 
BRANCH  40  41
ATOM     41  C   UNL     1       7.489  -3.196  -0.890  1.00  0.00     0.031 A 
ATOM     42  C   UNL     1       8.390  -4.340  -1.313  1.00  0.00     0.074 A 
ATOM     43  C   UNL     1       7.977  -1.939  -0.998  1.00  0.00     0.049 A 
ATOM     44  N   UNL     1       9.694  -4.375  -1.419  1.00  0.00    -0.248 NA
ATOM     45  C   UNL     1       7.737  -5.621  -1.635  1.00  0.00     0.031 C 
ATOM     46  C   UNL     1       7.240  -0.704  -0.727  1.00  0.00     0.029 A 
ATOM     47  N   UNL     1       9.231  -1.490  -1.355  1.00  0.00    -0.354 N 
ATOM     48  C   UNL     1      10.024  -5.703  -1.681  1.00  0.00     0.074 A 
ATOM     49  C   UNL     1       8.777  -6.433  -1.767  1.00  0.00     0.031 C 
ATOM     50  C   UNL     1       8.025   0.352  -0.972  1.00  0.00     0.029 A 
ATOM     51  C   UNL     1       9.371  -0.123  -1.245  1.00  0.00     0.049 A 
ATOM     52  H   UNL     1       9.954  -2.086  -1.658  1.00  0.00     0.167 HD
ATOM     53  C   UNL     1      11.252  -6.260  -1.820  1.00  0.00     0.034 A 
ATOM     54  C   UNL     1      10.462   0.668  -1.249  1.00  0.00     0.034 A 
ATOM     55  C   UNL     1      12.477  -5.502  -1.849  1.00  0.00     0.049 A 
ATOM     56  C   UNL     1      11.816   0.036  -1.383  1.00  0.00     0.074 A 
ATOM     57  C   UNL     1      13.774  -5.962  -2.007  1.00  0.00     0.029 A 
ATOM     58  N   UNL     1      12.556  -4.122  -1.744  1.00  0.00    -0.354 N 
ATOM     59  N   UNL     1      12.124  -1.225  -1.557  1.00  0.00    -0.248 NA
ATOM     60  C   UNL     1      12.976   0.936  -1.311  1.00  0.00     0.031 C 
ATOM     61  C   UNL     1      14.637  -4.861  -1.976  1.00  0.00     0.029 A 
ATOM     62  C   UNL     1      13.875  -3.713  -1.834  1.00  0.00     0.049 A 
ATOM     63  H   UNL     1      11.786  -3.521  -1.623  1.00  0.00     0.167 HD
ATOM     64  C   UNL     1      13.510  -1.269  -1.637  1.00  0.00     0.074 A 
ATOM     65  C   UNL     1      13.979   0.096  -1.521  1.00  0.00     0.031 C 
ATOM     66  C   UNL     1      14.322  -2.345  -1.773  1.00  0.00     0.034 A 
BRANCH  53  67
ATOM     67  C   UNL     1      11.347  -7.763  -1.926  1.00  0.00     0.023 A 
ATOM     68  C   UNL     1      10.946  -8.430  -3.100  1.00  0.00     0.012 A 
ATOM     69  C   UNL     1      11.894  -8.513  -0.863  1.00  0.00     0.148 A 
ATOM     70  C   UNL     1      11.047  -9.819  -3.197  1.00  0.00     0.002 A 
ATOM     71  C   UNL     1      12.037  -9.890  -0.985  1.00  0.00     0.091 A 
ATOM     72  F   UNL     1      12.259  -7.866   0.254  1.00  0.00    -0.205 F 
ATOM     73  C   UNL     1      11.601 -10.547  -2.146  1.00  0.00     0.022 A 
BRANCH  71  74
ATOM     74  S   UNL     1      12.814 -10.904   0.279  1.00  0.00     0.127 S 
ATOM     75  O   UNL     1      11.673 -11.653   0.801  1.00  0.00    -0.237 OA
ATOM     76  O   UNL     1      13.761 -11.699  -0.502  1.00  0.00    -0.237 OA
ATOM     77  O   UNL     1      13.432  -9.974   1.217  1.00  0.00    -0.744 OA
ENDBRANCH  71  74
ENDBRANCH  53  67
BRANCH  54  78
ATOM     78  C   UNL     1      10.318   2.142  -1.054  1.00  0.00     0.023 A 
ATOM     79  C   UNL     1      10.648   3.018  -2.105  1.00  0.00     0.012 A 
ATOM     80  C   UNL     1       9.820   2.678   0.152  1.00  0.00     0.148 A 
ATOM     81  C   UNL     1      10.501   4.398  -1.953  1.00  0.00     0.002 A 
ATOM     82  C   UNL     1       9.607   4.046   0.270  1.00  0.00     0.091 A 
ATOM     83  F   UNL     1       9.539   1.834   1.155  1.00  0.00    -0.205 F 
ATOM     84  C   UNL     1       9.965   4.910  -0.774  1.00  0.00     0.022 A 
BRANCH  82  85
ATOM     85  S   UNL     1       8.774   4.767   1.689  1.00  0.00     0.127 S 
ATOM     86  O   UNL     1       9.873   5.448   2.367  1.00  0.00    -0.237 OA
ATOM     87  O   UNL     1       7.800   5.654   1.050  1.00  0.00    -0.237 OA
ATOM     88  O   UNL     1       8.181   3.647   2.407  1.00  0.00    -0.744 OA
ENDBRANCH  82  85
ENDBRANCH  54  78
BRANCH  66  89
ATOM     89  C   UNL     1      15.802  -2.086  -1.865  1.00  0.00     0.023 A 
ATOM     90  C   UNL     1      16.524  -1.702  -0.718  1.00  0.00     0.012 A 
ATOM     91  C   UNL     1      16.482  -2.277  -3.083  1.00  0.00     0.148 A 
ATOM     92  C   UNL     1      17.899  -1.479  -0.791  1.00  0.00     0.002 A 
ATOM     93  C   UNL     1      17.859  -2.104  -3.136  1.00  0.00     0.091 A 
ATOM     94  F   UNL     1      15.770  -2.619  -4.166  1.00  0.00    -0.205 F 
ATOM     95  C   UNL     1      18.567  -1.692  -1.995  1.00  0.00     0.022 A 
BRANCH  93  96
ATOM     96  S   UNL     1      18.814  -2.448  -4.617  1.00  0.00     0.127 S 
ATOM     97  O   UNL     1      19.188  -1.102  -5.050  1.00  0.00    -0.237 OA
ATOM     98  O   UNL     1      19.919  -3.250  -4.093  1.00  0.00    -0.237 OA
ATOM     99  O   UNL     1      17.918  -3.166  -5.515  1.00  0.00    -0.744 OA
ENDBRANCH  93  96
ENDBRANCH  66  89
ENDBRANCH  40  41
ENDBRANCH  33  35
ENDBRANCH  32  33
ENDBRANCH  31  32
ENDBRANCH  30  31
ENDBRANCH  29  30
ENDBRANCH  28  29
ENDBRANCH   1  28
TORSDOF 26
