REMARK SMILES CC(C)CCn1nc(C(=O)OCCOCCOCCOC(=O)c2ccc(-c3c4nc(c(-c5cccc(S(=O)(=O)[O-])c5F)c5ccc([nH]5)c(-c5cccc(S(=O)(=O)[O-])c5F)c5nc(c(-c6cccc(S(=O)(=O)[O-])c6F)c6ccc3[nH]6)C=C5)C=C4)cc2)c2c1CCN(C(=O)[C@@H]1CCc3nn(C)c(=O)n3C1)C2
REMARK SMILES IDX 15 1 14 2 13 3 12 4 11 5 9 6 10 7 8 8 6 9 7 10 87 11 86 12
REMARK SMILES IDX 88 13 104 14 89 15 90 16 5 17 4 18 2 19 1 20 3 21 91 22
REMARK SMILES IDX 92 23 93 24 94 25 103 26 95 27 102 28 96 29 100 30 97 31
REMARK SMILES IDX 98 32 101 33 99 34 16 35 17 36 18 37 19 38 20 39 21 40 22 41
REMARK SMILES IDX 23 42 24 43 85 44 25 45 84 46 26 47 27 48 28 49 78 50 29 51
REMARK SMILES IDX 83 52 77 53 79 54 30 55 82 56 76 57 75 58 31 60 63 61 43 62
REMARK SMILES IDX 62 63 44 64 47 65 61 66 80 67 45 68 46 69 60 71 81 72 48 73
REMARK SMILES IDX 32 74 33 75 41 76 34 77 36 78 42 79 35 80 37 81 38 82 39 83
REMARK SMILES IDX 40 84 64 85 65 86 73 87 66 88 68 89 74 90 67 91 69 92 70 93
REMARK SMILES IDX 71 94 72 95 49 96 50 97 58 98 51 99 53 100 59 101 52 102
REMARK SMILES IDX 54 103 55 104 56 105 57 106
REMARK H PARENT 79 59 47 70
REMARK Flexibility Score: inf
ROOT
ATOM      1  C   UNL     1       0.021   6.923   3.220  1.00  0.00     0.188 C 
ENDROOT
BRANCH   1   2
ATOM      2  O   UNL     1      -0.185   8.058   4.035  1.00  0.00    -0.376 OA
BRANCH   2   3
ATOM      3  C   UNL     1      -0.527   7.983   5.407  1.00  0.00     0.202 C 
BRANCH   3   4
ATOM      4  C   UNL     1      -1.401   6.883   6.024  1.00  0.00     0.261 C 
BRANCH   4   5
ATOM      5  O   UNL     1      -1.175   5.593   5.481  1.00  0.00    -0.458 OA
BRANCH   5   6
ATOM      6  C   UNL     1      -2.119   5.096   4.634  1.00  0.00     0.359 C 
ATOM      7  O   UNL     1      -3.224   5.604   4.442  1.00  0.00    -0.244 OA
BRANCH   6   8
ATOM      8  C   UNL     1      -1.609   3.898   3.959  1.00  0.00     0.175 A 
ATOM      9  N   UNL     1      -1.414   2.261   2.588  1.00  0.00    -0.268 N 
ATOM     10  N   UNL     1      -2.089   3.419   2.784  1.00  0.00    -0.165 NA
ATOM     11  C   UNL     1      -0.719   1.932   3.708  1.00  0.00     0.046 A 
ATOM     12  C   UNL     1      -0.560   3.076   4.454  1.00  0.00     0.028 A 
ATOM     13  C   UNL     1      -0.362   0.602   4.221  1.00  0.00     0.078 C 
ATOM     14  C   UNL     1       0.299   3.179   5.694  1.00  0.00     0.159 C 
ATOM     15  C   UNL     1      -0.146   0.812   5.739  1.00  0.00     0.126 C 
ATOM     16  N   UNL     1       0.831   1.848   6.021  1.00  0.00    -0.338 N 
BRANCH   9  17
ATOM     17  C   UNL     1      -1.691   1.411   1.442  1.00  0.00     0.145 C 
BRANCH  17  18
ATOM     18  C   UNL     1      -1.027   1.807   0.112  1.00  0.00     0.027 C 
BRANCH  18  19
ATOM     19  C   UNL     1       0.503   1.618  -0.007  1.00  0.00    -0.016 C 
ATOM     20  C   UNL     1       0.947   0.157   0.113  1.00  0.00     0.007 C 
ATOM     21  C   UNL     1       0.984   2.156  -1.365  1.00  0.00     0.007 C 
ENDBRANCH  18  19
ENDBRANCH  17  18
ENDBRANCH   9  17
BRANCH  16  22
ATOM     22  C   UNL     1       2.046   1.761   6.678  1.00  0.00     0.227 C 
ATOM     23  O   UNL     1       2.564   2.798   7.123  1.00  0.00    -0.274 OA
BRANCH  22  24
ATOM     24  C   UNL     1       2.868   0.456   6.889  1.00  0.00     0.099 C 
ATOM     25  C   UNL     1       3.506  -0.181   5.649  1.00  0.00     0.023 C 
ATOM     26  C   UNL     1       2.300  -0.621   7.807  1.00  0.00     0.142 C 
ATOM     27  C   UNL     1       2.623  -1.179   4.909  1.00  0.00     0.078 C 
ATOM     28  N   UNL     1       1.506  -1.593   7.089  1.00  0.00    -0.278 N 
ATOM     29  C   UNL     1       1.522  -1.769   5.750  1.00  0.00     0.133 A 
ATOM     30  C   UNL     1       0.276  -2.029   7.534  1.00  0.00     0.345 A 
ATOM     31  N   UNL     1       0.432  -2.295   5.261  1.00  0.00    -0.155 NA
ATOM     32  N   UNL     1      -0.404  -2.434   6.366  1.00  0.00    -0.216 N 
ATOM     33  O   UNL     1      -0.205  -1.859   8.643  1.00  0.00    -0.246 OA
ATOM     34  C   UNL     1      -1.836  -2.245   6.241  1.00  0.00     0.179 C 
ENDBRANCH  22  24
ENDBRANCH  16  22
ENDBRANCH   6   8
ENDBRANCH   5   6
ENDBRANCH   4   5
ENDBRANCH   3   4
ENDBRANCH   2   3
ENDBRANCH   1   2
BRANCH   1  35
ATOM     35  C   UNL     1       1.158   5.919   3.483  1.00  0.00     0.188 C 
BRANCH  35  36
ATOM     36  O   UNL     1       1.719   5.780   4.765  1.00  0.00    -0.376 OA
BRANCH  36  37
ATOM     37  C   UNL     1       2.611   6.693   5.372  1.00  0.00     0.202 C 
BRANCH  37  38
ATOM     38  C   UNL     1       3.392   7.771   4.637  1.00  0.00     0.261 C 
BRANCH  38  39
ATOM     39  O   UNL     1       2.821   8.177   3.418  1.00  0.00    -0.460 OA
BRANCH  39  40
ATOM     40  C   UNL     1       3.371   7.572   2.346  1.00  0.00     0.338 C 
ATOM     41  O   UNL     1       4.140   6.625   2.343  1.00  0.00    -0.246 OA
BRANCH  40  42
ATOM     42  C   UNL     1       2.930   8.278   1.147  1.00  0.00     0.060 A 
ATOM     43  C   UNL     1       3.281   7.696  -0.069  1.00  0.00     0.016 A 
ATOM     44  C   UNL     1       2.545   9.621   1.270  1.00  0.00     0.016 A 
ATOM     45  C   UNL     1       3.549   8.544  -1.111  1.00  0.00     0.010 A 
ATOM     46  C   UNL     1       2.828  10.466   0.233  1.00  0.00     0.010 A 
ATOM     47  C   UNL     1       3.432   9.924  -0.893  1.00  0.00    -0.014 A 
BRANCH  47  48
ATOM     48  C   UNL     1       3.890  10.804  -1.937  1.00  0.00     0.031 A 
ATOM     49  C   UNL     1       2.977  10.780  -3.090  1.00  0.00     0.074 A 
ATOM     50  C   UNL     1       5.000  11.555  -1.821  1.00  0.00     0.049 A 
ATOM     51  N   UNL     1       3.161  10.143  -4.196  1.00  0.00    -0.248 NA
ATOM     52  C   UNL     1       1.612  11.290  -2.903  1.00  0.00     0.031 C 
ATOM     53  C   UNL     1       5.804  11.814  -0.622  1.00  0.00     0.029 A 
ATOM     54  N   UNL     1       5.580  12.354  -2.755  1.00  0.00    -0.354 N 
ATOM     55  C   UNL     1       2.034  10.420  -4.956  1.00  0.00     0.074 A 
ATOM     56  C   UNL     1       1.035  10.902  -4.041  1.00  0.00     0.031 C 
ATOM     57  C   UNL     1       6.594  12.892  -0.843  1.00  0.00     0.029 A 
ATOM     58  C   UNL     1       6.457  13.297  -2.231  1.00  0.00     0.049 A 
ATOM     59  H   UNL     1       5.395  12.271  -3.718  1.00  0.00     0.167 HD
ATOM     60  C   UNL     1       2.133  10.530  -6.306  1.00  0.00     0.034 A 
ATOM     61  C   UNL     1       6.961  14.367  -2.895  1.00  0.00     0.034 A 
ATOM     62  C   UNL     1       3.390  10.005  -6.779  1.00  0.00     0.049 A 
ATOM     63  C   UNL     1       6.847  14.069  -4.340  1.00  0.00     0.074 A 
ATOM     64  C   UNL     1       4.003   8.771  -6.801  1.00  0.00     0.029 A 
ATOM     65  N   UNL     1       4.375  10.943  -6.966  1.00  0.00    -0.354 N 
ATOM     66  N   UNL     1       7.529  13.132  -4.935  1.00  0.00    -0.248 NA
ATOM     67  C   UNL     1       5.668  14.534  -5.053  1.00  0.00     0.031 C 
ATOM     68  C   UNL     1       5.394   9.039  -6.638  1.00  0.00     0.029 A 
ATOM     69  C   UNL     1       5.578  10.423  -6.581  1.00  0.00     0.049 A 
ATOM     70  H   UNL     1       4.235  11.850  -7.324  1.00  0.00     0.167 HD
ATOM     71  C   UNL     1       6.625  12.567  -5.823  1.00  0.00     0.074 A 
ATOM     72  C   UNL     1       5.561  13.558  -5.959  1.00  0.00     0.031 C 
ATOM     73  C   UNL     1       6.685  11.234  -6.116  1.00  0.00     0.034 A 
BRANCH  60  74
ATOM     74  C   UNL     1       1.338  11.507  -7.139  1.00  0.00     0.023 A 
ATOM     75  C   UNL     1       1.460  11.391  -8.541  1.00  0.00     0.012 A 
ATOM     76  C   UNL     1       0.734  12.685  -6.641  1.00  0.00     0.148 A 
ATOM     77  C   UNL     1       1.046  12.414  -9.398  1.00  0.00     0.002 A 
ATOM     78  C   UNL     1       0.252  13.664  -7.500  1.00  0.00     0.091 A 
ATOM     79  F   UNL     1       0.739  12.943  -5.332  1.00  0.00    -0.205 F 
ATOM     80  C   UNL     1       0.434  13.549  -8.879  1.00  0.00     0.022 A 
BRANCH  78  81
ATOM     81  S   UNL     1      -0.578  15.136  -6.887  1.00  0.00     0.127 S 
ATOM     82  O   UNL     1       0.394  16.177  -7.212  1.00  0.00    -0.237 OA
ATOM     83  O   UNL     1      -1.795  15.146  -7.698  1.00  0.00    -0.237 OA
ATOM     84  O   UNL     1      -0.807  14.901  -5.467  1.00  0.00    -0.744 OA
ENDBRANCH  78  81
ENDBRANCH  60  74
BRANCH  61  85
ATOM     85  C   UNL     1       7.277  15.734  -2.418  1.00  0.00     0.023 A 
ATOM     86  C   UNL     1       8.117  16.563  -3.192  1.00  0.00     0.012 A 
ATOM     87  C   UNL     1       6.513  16.332  -1.393  1.00  0.00     0.148 A 
ATOM     88  C   UNL     1       8.161  17.946  -2.981  1.00  0.00     0.002 A 
ATOM     89  C   UNL     1       6.559  17.708  -1.188  1.00  0.00     0.091 A 
ATOM     90  F   UNL     1       5.672  15.564  -0.687  1.00  0.00    -0.205 F 
ATOM     91  C   UNL     1       7.372  18.521  -1.989  1.00  0.00     0.022 A 
BRANCH  89  92
ATOM     92  S   UNL     1       5.537  18.533   0.041  1.00  0.00     0.127 S 
ATOM     93  O   UNL     1       6.528  19.316   0.779  1.00  0.00    -0.237 OA
ATOM     94  O   UNL     1       4.635  19.320  -0.796  1.00  0.00    -0.237 OA
ATOM     95  O   UNL     1       4.909  17.472   0.817  1.00  0.00    -0.744 OA
ENDBRANCH  89  92
ENDBRANCH  61  85
BRANCH  73  96
ATOM     96  C   UNL     1       7.947  10.497  -5.747  1.00  0.00     0.023 A 
ATOM     97  C   UNL     1       8.362  10.294  -4.414  1.00  0.00     0.012 A 
ATOM     98  C   UNL     1       8.657   9.872  -6.784  1.00  0.00     0.148 A 
ATOM     99  C   UNL     1       9.479   9.501  -4.129  1.00  0.00     0.002 A 
ATOM    100  C   UNL     1       9.733   9.046  -6.495  1.00  0.00     0.091 A 
ATOM    101  F   UNL     1       8.247  10.080  -8.045  1.00  0.00    -0.205 F 
ATOM    102  C   UNL     1      10.155   8.865  -5.168  1.00  0.00     0.022 A 
BRANCH 100 103
ATOM    103  S   UNL     1      10.559   8.107  -7.780  1.00  0.00     0.127 S 
ATOM    104  O   UNL     1      11.821   8.829  -7.922  1.00  0.00    -0.237 OA
ATOM    105  O   UNL     1      10.677   6.780  -7.172  1.00  0.00    -0.237 OA
ATOM    106  O   UNL     1       9.677   8.151  -8.940  1.00  0.00    -0.744 OA
ENDBRANCH 100 103
ENDBRANCH  73  96
ENDBRANCH  47  48
ENDBRANCH  40  42
ENDBRANCH  39  40
ENDBRANCH  38  39
ENDBRANCH  37  38
ENDBRANCH  36  37
ENDBRANCH  35  36
ENDBRANCH   1  35
TORSDOF 25
