REMARK SMILES C[C@H]1CC[C@@H]([C@H](C(=O)OCCOCCOCCOC(=O)c2ccc(-c3c4nc(c(-c5cccc(S(=O)(=O)[O-])c5F)c5ccc([nH]5)c(-c5cccc(S(=O)(=O)[O-])c5F)c5nc(c(-c6cccc(S(=O)(=O)[O-])c6F)c6ccc3[nH]6)C=C5)C=C4)cc2)[C@@H]2CCS(=O)(=O)C2)C[C@@H]1C
REMARK SMILES IDX 14 1 13 2 12 3 11 4 10 5 9 6 7 7 8 8 6 9 5 10 1 11 2 12 3 13
REMARK SMILES IDX 92 14 4 15 91 16 93 17 84 18 85 19 90 20 86 21 87 22 88 23
REMARK SMILES IDX 89 24 15 25 16 26 17 27 18 28 19 29 20 30 21 31 22 32 83 33
REMARK SMILES IDX 23 34 82 35 24 36 25 37 26 38 76 39 27 40 81 41 75 42 77 43
REMARK SMILES IDX 28 44 80 45 74 46 73 47 29 49 61 50 41 51 60 52 42 53 45 54
REMARK SMILES IDX 59 55 78 56 43 57 44 58 58 60 79 61 46 62 30 63 31 64 39 65
REMARK SMILES IDX 32 66 34 67 40 68 33 69 35 70 36 71 37 72 38 73 62 74 63 75
REMARK SMILES IDX 71 76 64 77 66 78 72 79 65 80 67 81 68 82 69 83 70 84 47 85
REMARK SMILES IDX 48 86 56 87 49 88 51 89 57 90 50 91 52 92 53 93 54 94 55 95
REMARK H PARENT 77 48 45 59
REMARK Flexibility Score: inf
ROOT
ATOM      1  C   UNL     1       0.405  -6.301  -5.945  1.00  0.00     0.188 C 
ENDROOT
BRANCH   1   2
ATOM      2  C   UNL     1       0.543  -4.892  -5.322  1.00  0.00     0.188 C 
BRANCH   2   3
ATOM      3  O   UNL     1      -0.557  -4.607  -4.466  1.00  0.00    -0.376 OA
BRANCH   3   4
ATOM      4  C   UNL     1      -0.585  -3.400  -3.705  1.00  0.00     0.202 C 
BRANCH   4   5
ATOM      5  C   UNL     1       0.758  -2.802  -3.294  1.00  0.00     0.261 C 
BRANCH   5   6
ATOM      6  O   UNL     1       1.658  -3.840  -2.861  1.00  0.00    -0.463 OA
BRANCH   6   7
ATOM      7  C   UNL     1       1.745  -4.092  -1.530  1.00  0.00     0.309 C 
ATOM      8  O   UNL     1       1.252  -3.374  -0.677  1.00  0.00    -0.252 OA
BRANCH   7   9
ATOM      9  C   UNL     1       2.686  -5.297  -1.291  1.00  0.00     0.106 C 
BRANCH   9  10
ATOM     10  C   UNL     1       3.739  -4.866  -0.184  1.00  0.00     0.004 C 
ATOM     11  C   UNL     1       3.013  -8.322   2.243  1.00  0.00     0.008 C 
ATOM     12  C   UNL     1       3.619  -6.937   1.961  1.00  0.00    -0.011 C 
ATOM     13  C   UNL     1       4.630  -7.085   0.796  1.00  0.00     0.004 C 
ATOM     14  C   UNL     1       2.574  -5.810   1.778  1.00  0.00    -0.011 C 
ATOM     15  C   UNL     1       4.913  -5.841  -0.046  1.00  0.00     0.005 C 
ATOM     16  C   UNL     1       3.211  -4.554   1.234  1.00  0.00     0.008 C 
ATOM     17  C   UNL     1       1.606  -5.615   2.937  1.00  0.00     0.008 C 
ENDBRANCH   9  10
BRANCH   9  18
ATOM     18  C   UNL     1       2.148  -6.804  -1.372  1.00  0.00     0.019 C 
ATOM     19  C   UNL     1       1.593  -7.158  -2.770  1.00  0.00     0.021 C 
ATOM     20  C   UNL     1       1.046  -7.444  -0.486  1.00  0.00     0.141 C 
ATOM     21  C   UNL     1       0.064  -7.101  -2.739  1.00  0.00     0.137 C 
ATOM     22  S   UNL     1      -0.461  -6.792  -1.101  1.00  0.00     0.150 S 
ATOM     23  O   UNL     1      -0.523  -5.375  -0.879  1.00  0.00    -0.229 OA
ATOM     24  O   UNL     1      -1.571  -7.641  -0.759  1.00  0.00    -0.229 OA
ENDBRANCH   9  18
ENDBRANCH   7   9
ENDBRANCH   6   7
ENDBRANCH   5   6
ENDBRANCH   4   5
ENDBRANCH   3   4
ENDBRANCH   2   3
ENDBRANCH   1   2
BRANCH   1  25
ATOM     25  O   UNL     1      -0.591  -6.402  -6.952  1.00  0.00    -0.376 OA
BRANCH  25  26
ATOM     26  C   UNL     1      -1.942  -6.341  -6.482  1.00  0.00     0.202 C 
BRANCH  26  27
ATOM     27  C   UNL     1      -2.563  -7.678  -6.020  1.00  0.00     0.261 C 
BRANCH  27  28
ATOM     28  O   UNL     1      -2.351  -8.070  -4.636  1.00  0.00    -0.460 OA
BRANCH  28  29
ATOM     29  C   UNL     1      -2.024  -9.385  -4.433  1.00  0.00     0.338 C 
ATOM     30  O   UNL     1      -1.606 -10.146  -5.293  1.00  0.00    -0.246 OA
BRANCH  29  31
ATOM     31  C   UNL     1      -2.096  -9.803  -2.994  1.00  0.00     0.060 A 
ATOM     32  C   UNL     1      -0.969 -10.428  -2.429  1.00  0.00     0.016 A 
ATOM     33  C   UNL     1      -3.223  -9.597  -2.190  1.00  0.00     0.016 A 
ATOM     34  C   UNL     1      -0.928 -10.743  -1.058  1.00  0.00     0.010 A 
ATOM     35  C   UNL     1      -3.202  -9.975  -0.824  1.00  0.00     0.010 A 
ATOM     36  C   UNL     1      -2.043 -10.518  -0.231  1.00  0.00    -0.014 A 
BRANCH  36  37
ATOM     37  C   UNL     1      -2.047 -11.060   1.169  1.00  0.00     0.031 A 
ATOM     38  C   UNL     1      -2.284 -12.541   1.311  1.00  0.00     0.074 A 
ATOM     39  C   UNL     1      -1.828 -10.332   2.289  1.00  0.00     0.049 A 
ATOM     40  N   UNL     1      -2.301 -13.286   2.385  1.00  0.00    -0.248 NA
ATOM     41  C   UNL     1      -2.515 -13.281   0.059  1.00  0.00     0.031 C 
ATOM     42  C   UNL     1      -1.545  -8.902   2.344  1.00  0.00     0.029 A 
ATOM     43  N   UNL     1      -1.823 -10.708   3.621  1.00  0.00    -0.354 N 
ATOM     44  C   UNL     1      -2.552 -14.577   1.939  1.00  0.00     0.074 A 
ATOM     45  C   UNL     1      -2.662 -14.519   0.499  1.00  0.00     0.031 C 
ATOM     46  C   UNL     1      -1.412  -8.516   3.627  1.00  0.00     0.029 A 
ATOM     47  C   UNL     1      -1.637  -9.661   4.505  1.00  0.00     0.049 A 
ATOM     48  H   UNL     1      -1.940 -11.640   3.914  1.00  0.00     0.167 HD
ATOM     49  C   UNL     1      -2.700 -15.715   2.652  1.00  0.00     0.034 A 
ATOM     50  C   UNL     1      -1.676  -9.617   5.857  1.00  0.00     0.034 A 
ATOM     51  C   UNL     1      -2.681 -15.788   4.084  1.00  0.00     0.049 A 
ATOM     52  C   UNL     1      -1.946 -10.889   6.633  1.00  0.00     0.074 A 
ATOM     53  C   UNL     1      -2.867 -16.898   4.887  1.00  0.00     0.029 A 
ATOM     54  N   UNL     1      -2.511 -14.704   4.928  1.00  0.00    -0.354 N 
ATOM     55  N   UNL     1      -2.088 -12.114   6.189  1.00  0.00    -0.248 NA
ATOM     56  C   UNL     1      -2.044 -10.776   8.099  1.00  0.00     0.031 C 
ATOM     57  C   UNL     1      -2.856 -16.478   6.219  1.00  0.00     0.029 A 
ATOM     58  C   UNL     1      -2.603 -15.116   6.246  1.00  0.00     0.049 A 
ATOM     59  H   UNL     1      -2.349 -13.778   4.635  1.00  0.00     0.167 HD
ATOM     60  C   UNL     1      -2.253 -12.916   7.316  1.00  0.00     0.074 A 
ATOM     61  C   UNL     1      -2.172 -12.043   8.467  1.00  0.00     0.031 C 
ATOM     62  C   UNL     1      -2.465 -14.253   7.389  1.00  0.00     0.034 A 
BRANCH  49  63
ATOM     63  C   UNL     1      -2.953 -16.972   1.869  1.00  0.00     0.023 A 
ATOM     64  C   UNL     1      -1.907 -17.558   1.126  1.00  0.00     0.012 A 
ATOM     65  C   UNL     1      -4.230 -17.562   1.860  1.00  0.00     0.148 A 
ATOM     66  C   UNL     1      -2.141 -18.694   0.354  1.00  0.00     0.002 A 
ATOM     67  C   UNL     1      -4.443 -18.721   1.128  1.00  0.00     0.091 A 
ATOM     68  F   UNL     1      -5.213 -16.966   2.550  1.00  0.00    -0.205 F 
ATOM     69  C   UNL     1      -3.405 -19.279   0.362  1.00  0.00     0.022 A 
BRANCH  67  70
ATOM     70  S   UNL     1      -6.013 -19.588   1.127  1.00  0.00     0.127 S 
ATOM     71  O   UNL     1      -6.439 -19.426  -0.262  1.00  0.00    -0.237 OA
ATOM     72  O   UNL     1      -5.607 -20.947   1.487  1.00  0.00    -0.237 OA
ATOM     73  O   UNL     1      -6.847 -18.918   2.114  1.00  0.00    -0.744 OA
ENDBRANCH  67  70
ENDBRANCH  49  63
BRANCH  50  74
ATOM     74  C   UNL     1      -1.472  -8.332   6.607  1.00  0.00     0.023 A 
ATOM     75  C   UNL     1      -0.370  -8.194   7.479  1.00  0.00     0.012 A 
ATOM     76  C   UNL     1      -2.401  -7.275   6.522  1.00  0.00     0.148 A 
ATOM     77  C   UNL     1      -0.223  -7.056   8.277  1.00  0.00     0.002 A 
ATOM     78  C   UNL     1      -2.218  -6.120   7.278  1.00  0.00     0.091 A 
ATOM     79  F   UNL     1      -3.461  -7.428   5.717  1.00  0.00    -0.205 F 
ATOM     80  C   UNL     1      -1.141  -6.017   8.171  1.00  0.00     0.022 A 
BRANCH  78  81
ATOM     81  S   UNL     1      -3.295  -4.688   7.143  1.00  0.00     0.127 S 
ATOM     82  O   UNL     1      -3.927  -4.663   8.460  1.00  0.00    -0.237 OA
ATOM     83  O   UNL     1      -2.332  -3.612   6.903  1.00  0.00    -0.237 OA
ATOM     84  O   UNL     1      -4.185  -4.966   6.025  1.00  0.00    -0.744 OA
ENDBRANCH  78  81
ENDBRANCH  50  74
BRANCH  62  85
ATOM     85  C   UNL     1      -2.563 -14.890   8.753  1.00  0.00     0.023 A 
ATOM     86  C   UNL     1      -3.693 -14.673   9.564  1.00  0.00     0.012 A 
ATOM     87  C   UNL     1      -1.568 -15.793   9.183  1.00  0.00     0.148 A 
ATOM     88  C   UNL     1      -3.818 -15.319  10.794  1.00  0.00     0.002 A 
ATOM     89  C   UNL     1      -1.725 -16.475  10.382  1.00  0.00     0.091 A 
ATOM     90  F   UNL     1      -0.492 -15.975   8.404  1.00  0.00    -0.205 F 
ATOM     91  C   UNL     1      -2.842 -16.230  11.196  1.00  0.00     0.022 A 
BRANCH  89  92
ATOM     92  S   UNL     1      -0.575 -17.743  10.927  1.00  0.00     0.127 S 
ATOM     93  O   UNL     1       0.061 -17.095  12.073  1.00  0.00    -0.237 OA
ATOM     94  O   UNL     1      -1.472 -18.847  11.271  1.00  0.00    -0.237 OA
ATOM     95  O   UNL     1       0.303 -18.007   9.795  1.00  0.00    -0.744 OA
ENDBRANCH  89  92
ENDBRANCH  62  85
ENDBRANCH  36  37
ENDBRANCH  29  31
ENDBRANCH  28  29
ENDBRANCH  27  28
ENDBRANCH  26  27
ENDBRANCH  25  26
ENDBRANCH   1  25
TORSDOF 22
