REMARK SMILES COc1ccc(-c2ccc3n(c2=O)C[C@H]2C[C@@H]3CN(C(=O)CCCC(=O)OCCOCCOCCOC(=O)c3ccc(-c4c5nc(c(-c6cccc(S(=O)(=O)[O-])c6F)c6ccc([nH]6)c(-c6cccc(S(=O)(=O)[O-])c6F)c6nc(c(-c7cccc(S(=O)(=O)[O-])c7F)c7ccc4[nH]7)C=C6)C=C5)cc3)C2)cc1
REMARK SMILES IDX 30 1 29 2 28 3 27 4 25 5 26 6 24 7 23 8 22 9 20 10 21 11
REMARK SMILES IDX 19 12 7 13 8 14 12 15 9 16 11 17 13 18 10 19 14 20 17 21
REMARK SMILES IDX 15 22 16 23 18 24 102 25 6 26 3 27 4 28 104 29 5 30 103 31
REMARK SMILES IDX 2 32 1 33 31 34 32 35 33 36 34 37 35 38 36 39 37 40 38 41
REMARK SMILES IDX 39 42 40 43 101 44 41 45 100 46 42 47 43 48 44 49 94 50
REMARK SMILES IDX 45 51 99 52 93 53 95 54 46 55 98 56 92 57 91 58 47 60 79 61
REMARK SMILES IDX 59 62 78 63 60 64 63 65 77 66 96 67 61 68 62 69 76 71 97 72
REMARK SMILES IDX 64 73 48 74 49 75 57 76 50 77 52 78 58 79 51 80 53 81 54 82
REMARK SMILES IDX 55 83 56 84 80 85 81 86 89 87 82 88 84 89 90 90 83 91 85 92
REMARK SMILES IDX 86 93 87 94 88 95 65 96 66 97 74 98 67 99 69 100 75 101
REMARK SMILES IDX 68 102 70 103 71 104 72 105 73 106
REMARK H PARENT 95 59 63 70
REMARK Flexibility Score: inf
ROOT
ATOM      1  O   UNL     1      -3.940 -10.829   7.901  1.00  0.00    -0.376 OA
ENDROOT
BRANCH   1   2
ATOM      2  C   UNL     1      -2.623 -11.042   8.385  1.00  0.00     0.202 C 
BRANCH   2   3
ATOM      3  C   UNL     1      -1.494 -10.375   7.606  1.00  0.00     0.261 C 
BRANCH   3   4
ATOM      4  O   UNL     1      -1.438  -8.958   7.879  1.00  0.00    -0.463 OA
BRANCH   4   5
ATOM      5  C   UNL     1      -1.431  -8.111   6.819  1.00  0.00     0.305 C 
ATOM      6  O   UNL     1      -1.550  -8.482   5.659  1.00  0.00    -0.252 OA
BRANCH   5   7
ATOM      7  C   UNL     1      -1.176  -6.652   7.185  1.00  0.00     0.123 C 
BRANCH   7   8
ATOM      8  C   UNL     1      -1.220  -6.132   8.626  1.00  0.00     0.022 C 
BRANCH   8   9
ATOM      9  C   UNL     1      -0.333  -6.788   9.684  1.00  0.00     0.101 C 
BRANCH   9  10
ATOM     10  C   UNL     1       1.136  -6.391   9.608  1.00  0.00     0.222 C 
ATOM     11  O   UNL     1       1.505  -5.362  10.181  1.00  0.00    -0.275 OA
BRANCH  10  12
ATOM     12  N   UNL     1       2.028  -7.205   8.922  1.00  0.00    -0.342 N 
ATOM     13  C   UNL     1       2.458  -4.266   4.792  1.00  0.00     0.047 A 
ATOM     14  C   UNL     1       3.493  -3.949   5.587  1.00  0.00     0.016 A 
ATOM     15  C   UNL     1       1.884  -5.654   4.883  1.00  0.00     0.258 A 
ATOM     16  C   UNL     1       4.062  -4.899   6.500  1.00  0.00     0.023 A 
ATOM     17  N   UNL     1       2.503  -6.534   5.792  1.00  0.00    -0.311 N 
ATOM     18  O   UNL     1       0.928  -5.979   4.182  1.00  0.00    -0.269 OA
ATOM     19  C   UNL     1       3.578  -6.147   6.592  1.00  0.00     0.026 A 
ATOM     20  C   UNL     1       2.027  -7.918   5.792  1.00  0.00     0.131 C 
ATOM     21  C   UNL     1       4.145  -7.118   7.615  1.00  0.00     0.056 C 
ATOM     22  C   UNL     1       2.456  -8.780   6.988  1.00  0.00     0.029 C 
ATOM     23  C   UNL     1       3.946  -8.576   7.198  1.00  0.00     0.019 C 
ATOM     24  C   UNL     1       3.453  -6.881   8.972  1.00  0.00     0.129 C 
ATOM     25  C   UNL     1       1.702  -8.476   8.294  1.00  0.00     0.125 C 
BRANCH  13  26
ATOM     26  C   UNL     1       1.929  -3.252   3.860  1.00  0.00    -0.013 A 
ATOM     27  C   UNL     1       0.988  -1.239   2.125  1.00  0.00     0.118 A 
ATOM     28  C   UNL     1       0.144  -1.799   3.087  1.00  0.00     0.047 A 
ATOM     29  C   UNL     1       2.304  -1.686   2.028  1.00  0.00     0.047 A 
ATOM     30  C   UNL     1       0.605  -2.807   3.943  1.00  0.00     0.013 A 
ATOM     31  C   UNL     1       2.769  -2.686   2.888  1.00  0.00     0.013 A 
BRANCH  27  32
ATOM     32  O   UNL     1       0.436  -0.242   1.368  1.00  0.00    -0.497 OA
ATOM     33  C   UNL     1       1.020  -0.039   0.086  1.00  0.00     0.278 C 
ENDBRANCH  27  32
ENDBRANCH  13  26
ENDBRANCH  10  12
ENDBRANCH   9  10
ENDBRANCH   8   9
ENDBRANCH   7   8
ENDBRANCH   5   7
ENDBRANCH   4   5
ENDBRANCH   3   4
ENDBRANCH   2   3
ENDBRANCH   1   2
BRANCH   1  34
ATOM     34  C   UNL     1      -4.368  -9.496   7.662  1.00  0.00     0.188 C 
BRANCH  34  35
ATOM     35  C   UNL     1      -4.154  -8.446   8.768  1.00  0.00     0.188 C 
BRANCH  35  36
ATOM     36  O   UNL     1      -4.093  -8.822  10.133  1.00  0.00    -0.376 OA
BRANCH  36  37
ATOM     37  C   UNL     1      -5.082  -9.720  10.605  1.00  0.00     0.202 C 
BRANCH  37  38
ATOM     38  C   UNL     1      -6.547  -9.267  10.541  1.00  0.00     0.261 C 
BRANCH  38  39
ATOM     39  O   UNL     1      -6.973  -8.853   9.231  1.00  0.00    -0.460 OA
BRANCH  39  40
ATOM     40  C   UNL     1      -7.215  -7.518   9.079  1.00  0.00     0.338 C 
ATOM     41  O   UNL     1      -7.195  -6.672   9.940  1.00  0.00    -0.246 OA
BRANCH  40  42
ATOM     42  C   UNL     1      -7.260  -7.208   7.624  1.00  0.00     0.060 A 
ATOM     43  C   UNL     1      -6.428  -6.187   7.134  1.00  0.00     0.016 A 
ATOM     44  C   UNL     1      -8.081  -7.923   6.753  1.00  0.00     0.016 A 
ATOM     45  C   UNL     1      -6.421  -5.872   5.773  1.00  0.00     0.010 A 
ATOM     46  C   UNL     1      -8.100  -7.582   5.398  1.00  0.00     0.010 A 
ATOM     47  C   UNL     1      -7.290  -6.542   4.905  1.00  0.00    -0.014 A 
BRANCH  47  48
ATOM     48  C   UNL     1      -7.528  -6.035   3.532  1.00  0.00     0.031 A 
ATOM     49  C   UNL     1      -8.673  -5.082   3.324  1.00  0.00     0.074 A 
ATOM     50  C   UNL     1      -6.797  -6.451   2.483  1.00  0.00     0.049 A 
ATOM     51  N   UNL     1      -9.177  -4.619   2.211  1.00  0.00    -0.248 NA
ATOM     52  C   UNL     1      -9.344  -4.594   4.541  1.00  0.00     0.031 C 
ATOM     53  C   UNL     1      -5.641  -7.341   2.553  1.00  0.00     0.029 A 
ATOM     54  N   UNL     1      -6.952  -6.201   1.141  1.00  0.00    -0.354 N 
ATOM     55  C   UNL     1     -10.242  -3.812   2.590  1.00  0.00     0.074 A 
ATOM     56  C   UNL     1     -10.314  -3.849   4.034  1.00  0.00     0.031 C 
ATOM     57  C   UNL     1      -5.216  -7.599   1.302  1.00  0.00     0.029 A 
ATOM     58  C   UNL     1      -6.090  -6.920   0.346  1.00  0.00     0.049 A 
ATOM     59  H   UNL     1      -7.617  -5.569   0.783  1.00  0.00     0.167 HD
ATOM     60  C   UNL     1     -11.083  -3.095   1.808  1.00  0.00     0.034 A 
ATOM     61  C   UNL     1      -6.038  -7.040  -0.997  1.00  0.00     0.034 A 
ATOM     62  C   UNL     1     -11.012  -3.052   0.375  1.00  0.00     0.049 A 
ATOM     63  C   UNL     1      -7.030  -6.284  -1.849  1.00  0.00     0.074 A 
ATOM     64  C   UNL     1     -11.803  -2.332  -0.503  1.00  0.00     0.029 A 
ATOM     65  N   UNL     1     -10.108  -3.768  -0.393  1.00  0.00    -0.354 N 
ATOM     66  N   UNL     1      -7.969  -5.445  -1.481  1.00  0.00    -0.248 NA
ATOM     67  C   UNL     1      -6.941  -6.478  -3.305  1.00  0.00     0.031 C 
ATOM     68  C   UNL     1     -11.391  -2.632  -1.806  1.00  0.00     0.029 A 
ATOM     69  C   UNL     1     -10.329  -3.521  -1.737  1.00  0.00     0.049 A 
ATOM     70  H   UNL     1      -9.411  -4.364  -0.036  1.00  0.00     0.167 HD
ATOM     71  C   UNL     1      -8.556  -4.985  -2.657  1.00  0.00     0.074 A 
ATOM     72  C   UNL     1      -7.857  -5.628  -3.751  1.00  0.00     0.031 C 
ATOM     73  C   UNL     1      -9.589  -4.121  -2.817  1.00  0.00     0.034 A 
BRANCH  60  74
ATOM     74  C   UNL     1     -12.144  -2.284   2.500  1.00  0.00     0.023 A 
ATOM     75  C   UNL     1     -11.781  -1.104   3.180  1.00  0.00     0.012 A 
ATOM     76  C   UNL     1     -13.496  -2.672   2.456  1.00  0.00     0.148 A 
ATOM     77  C   UNL     1     -12.745  -0.338   3.833  1.00  0.00     0.002 A 
ATOM     78  C   UNL     1     -14.457  -1.881   3.074  1.00  0.00     0.091 A 
ATOM     79  F   UNL     1     -13.815  -3.814   1.831  1.00  0.00    -0.205 F 
ATOM     80  C   UNL     1     -14.083  -0.721   3.772  1.00  0.00     0.022 A 
BRANCH  78  81
ATOM     81  S   UNL     1     -16.212  -2.255   2.991  1.00  0.00     0.127 S 
ATOM     82  O   UNL     1     -16.473  -2.751   4.341  1.00  0.00    -0.237 OA
ATOM     83  O   UNL     1     -16.794  -0.945   2.699  1.00  0.00    -0.237 OA
ATOM     84  O   UNL     1     -16.360  -3.234   1.922  1.00  0.00    -0.744 OA
ENDBRANCH  78  81
ENDBRANCH  60  74
BRANCH  61  85
ATOM     85  C   UNL     1      -4.995  -7.895  -1.633  1.00  0.00     0.023 A 
ATOM     86  C   UNL     1      -3.966  -7.285  -2.376  1.00  0.00     0.012 A 
ATOM     87  C   UNL     1      -5.015  -9.299  -1.512  1.00  0.00     0.148 A 
ATOM     88  C   UNL     1      -2.991  -8.057  -3.009  1.00  0.00     0.002 A 
ATOM     89  C   UNL     1      -4.012 -10.060  -2.104  1.00  0.00     0.091 A 
ATOM     90  F   UNL     1      -6.016  -9.863  -0.823  1.00  0.00    -0.205 F 
ATOM     91  C   UNL     1      -3.008  -9.442  -2.865  1.00  0.00     0.022 A 
BRANCH  89  92
ATOM     92  S   UNL     1      -3.893 -11.840  -1.891  1.00  0.00     0.127 S 
ATOM     93  O   UNL     1      -4.226 -12.325  -3.228  1.00  0.00    -0.237 OA
ATOM     94  O   UNL     1      -2.491 -12.007  -1.508  1.00  0.00    -0.237 OA
ATOM     95  O   UNL     1      -4.847 -12.177  -0.843  1.00  0.00    -0.744 OA
ENDBRANCH  89  92
ENDBRANCH  61  85
BRANCH  73  96
ATOM     96  C   UNL     1     -10.020  -3.782  -4.222  1.00  0.00     0.023 A 
ATOM     97  C   UNL     1     -10.742  -4.726  -4.977  1.00  0.00     0.012 A 
ATOM     98  C   UNL     1      -9.800  -2.495  -4.753  1.00  0.00     0.148 A 
ATOM     99  C   UNL     1     -11.219  -4.404  -6.248  1.00  0.00     0.002 A 
ATOM    100  C   UNL     1     -10.316  -2.166  -6.002  1.00  0.00     0.091 A 
ATOM    101  F   UNL     1      -9.098  -1.614  -4.025  1.00  0.00    -0.205 F 
ATOM    102  C   UNL     1     -11.017  -3.122  -6.754  1.00  0.00     0.022 A 
BRANCH 100 103
ATOM    103  S   UNL     1     -10.190  -0.512  -6.695  1.00  0.00     0.127 S 
ATOM    104  O   UNL     1      -9.226  -0.715  -7.775  1.00  0.00    -0.237 OA
ATOM    105  O   UNL     1     -11.560  -0.257  -7.141  1.00  0.00    -0.237 OA
ATOM    106  O   UNL     1      -9.738   0.346  -5.609  1.00  0.00    -0.744 OA
ENDBRANCH 100 103
ENDBRANCH  73  96
ENDBRANCH  47  48
ENDBRANCH  40  42
ENDBRANCH  39  40
ENDBRANCH  38  39
ENDBRANCH  37  38
ENDBRANCH  36  37
ENDBRANCH  35  36
ENDBRANCH  34  35
ENDBRANCH   1  34
TORSDOF 26
