REMARK SMILES CCc1n[nH]c(C(=O)Nc2cc(C(=O)OCCOCCOCCOC(=O)c3ccc(-c4c5nc(c(-c6cccc(S(=O)(=O)[O-])c6F)c6ccc([nH]6)c(-c6cccc(S(=O)(=O)[O-])c6F)c6nc(c(-c7cccc(S(=O)(=O)[O-])c7F)c7ccc4[nH]7)C=C6)C=C5)cc3)ccc2Cl)n1
REMARK SMILES IDX 19 1 18 2 17 3 16 4 15 5 13 6 14 7 12 8 10 9 11 10 92 11
REMARK SMILES IDX 91 12 93 13 90 14 9 15 7 16 8 17 6 19 3 20 4 21 94 22 5 23
REMARK SMILES IDX 2 25 1 26 20 27 21 28 22 29 23 30 24 31 25 32 26 33 27 34
REMARK SMILES IDX 28 35 89 36 29 37 88 38 30 39 31 40 32 41 82 42 33 43 87 44
REMARK SMILES IDX 81 45 83 46 34 47 86 48 80 49 79 50 35 52 67 53 47 54 66 55
REMARK SMILES IDX 48 56 51 57 65 58 84 59 49 60 50 61 64 63 85 64 52 65 36 66
REMARK SMILES IDX 37 67 45 68 38 69 40 70 46 71 39 72 41 73 42 74 43 75 44 76
REMARK SMILES IDX 68 77 69 78 77 79 70 80 72 81 78 82 71 83 73 84 74 85 75 86
REMARK SMILES IDX 76 87 53 88 54 89 62 90 55 91 57 92 63 93 56 94 58 95 59 96
REMARK SMILES IDX 60 97 61 98
REMARK H PARENT 9 18 5 24 83 51 51 62
REMARK Flexibility Score: inf
ROOT
ATOM      1  C   UNL     1       0.320   7.681  -0.776  1.00  0.00     0.188 C 
ENDROOT
BRANCH   1   2
ATOM      2  O   UNL     1       0.906   8.250  -1.935  1.00  0.00    -0.376 OA
BRANCH   2   3
ATOM      3  C   UNL     1       1.045   7.460  -3.109  1.00  0.00     0.202 C 
BRANCH   3   4
ATOM      4  C   UNL     1       1.697   6.079  -3.010  1.00  0.00     0.261 C 
BRANCH   4   5
ATOM      5  O   UNL     1       0.953   5.196  -2.158  1.00  0.00    -0.460 OA
BRANCH   5   6
ATOM      6  C   UNL     1       1.686   4.546  -1.224  1.00  0.00     0.338 C 
ATOM      7  O   UNL     1       2.902   4.510  -1.135  1.00  0.00    -0.246 OA
BRANCH   6   8
ATOM      8  C   UNL     1       0.784   4.025  -0.177  1.00  0.00     0.062 A 
ATOM      9  C   UNL     1       0.365   3.717   2.185  1.00  0.00     0.061 A 
ATOM     10  C   UNL     1       1.158   4.229   1.158  1.00  0.00     0.043 A 
ATOM     11  C   UNL     1      -0.859   3.091   1.872  1.00  0.00     0.064 A 
ATOM     12  C   UNL     1      -1.243   2.923   0.537  1.00  0.00     0.023 A 
ATOM     13  Cl  UNL     1      -1.958   2.558   3.098  1.00  0.00    -0.082 Cl
ATOM     14  C   UNL     1      -0.413   3.373  -0.492  1.00  0.00     0.017 A 
BRANCH   9  15
ATOM     15  N   UNL     1       0.887   3.789   3.490  1.00  0.00    -0.318 N 
ATOM     16  C   UNL     1       1.208   2.705   4.298  1.00  0.00     0.293 C 
ATOM     17  O   UNL     1       1.568   2.916   5.457  1.00  0.00    -0.265 OA
ATOM     18  H   UNL     1       1.039   4.688   3.864  1.00  0.00     0.170 HD
BRANCH  16  19
ATOM     19  C   UNL     1       1.214   1.369   3.737  1.00  0.00     0.214 A 
ATOM     20  C   UNL     1       1.092  -0.331   2.482  1.00  0.00     0.151 A 
ATOM     21  N   UNL     1       1.361  -0.870   3.678  1.00  0.00    -0.158 NA
ATOM     22  N   UNL     1       1.035   1.030   2.475  1.00  0.00    -0.207 NA
ATOM     23  N   UNL     1       1.462   0.233   4.450  1.00  0.00    -0.255 N 
ATOM     24  H   UNL     1       1.687   0.219   5.409  1.00  0.00     0.192 HD
BRANCH  20  25
ATOM     25  C   UNL     1       0.767  -1.126   1.270  1.00  0.00     0.076 C 
ATOM     26  C   UNL     1       1.211  -0.460  -0.026  1.00  0.00     0.012 C 
ENDBRANCH  20  25
ENDBRANCH  16  19
ENDBRANCH   9  15
ENDBRANCH   6   8
ENDBRANCH   5   6
ENDBRANCH   4   5
ENDBRANCH   3   4
ENDBRANCH   2   3
ENDBRANCH   1   2
BRANCH   1  27
ATOM     27  C   UNL     1      -1.090   7.062  -0.856  1.00  0.00     0.188 C 
BRANCH  27  28
ATOM     28  O   UNL     1      -1.788   7.045  -2.079  1.00  0.00    -0.376 OA
BRANCH  28  29
ATOM     29  C   UNL     1      -2.308   8.232  -2.649  1.00  0.00     0.202 C 
BRANCH  29  30
ATOM     30  C   UNL     1      -2.558   9.557  -1.909  1.00  0.00     0.261 C 
BRANCH  30  31
ATOM     31  O   UNL     1      -1.862   9.781  -0.685  1.00  0.00    -0.460 OA
BRANCH  31  32
ATOM     32  C   UNL     1      -2.618   9.650   0.433  1.00  0.00     0.338 C 
ATOM     33  O   UNL     1      -3.788   9.316   0.496  1.00  0.00    -0.246 OA
BRANCH  32  34
ATOM     34  C   UNL     1      -1.750   9.799   1.614  1.00  0.00     0.060 A 
ATOM     35  C   UNL     1      -1.657   8.725   2.508  1.00  0.00     0.016 A 
ATOM     36  C   UNL     1      -1.075  10.996   1.861  1.00  0.00     0.016 A 
ATOM     37  C   UNL     1      -0.918   8.862   3.681  1.00  0.00     0.010 A 
ATOM     38  C   UNL     1      -0.348  11.136   3.045  1.00  0.00     0.010 A 
ATOM     39  C   UNL     1      -0.297  10.084   3.976  1.00  0.00    -0.014 A 
BRANCH  39  40
ATOM     40  C   UNL     1       0.243  10.315   5.335  1.00  0.00     0.031 A 
ATOM     41  C   UNL     1      -0.626  11.016   6.345  1.00  0.00     0.074 A 
ATOM     42  C   UNL     1       1.480   9.908   5.671  1.00  0.00     0.049 A 
ATOM     43  N   UNL     1      -0.371  11.315   7.591  1.00  0.00    -0.248 NA
ATOM     44  C   UNL     1      -1.960  11.437   5.885  1.00  0.00     0.031 C 
ATOM     45  C   UNL     1       2.419   9.229   4.781  1.00  0.00     0.029 A 
ATOM     46  N   UNL     1       2.163  10.030   6.855  1.00  0.00    -0.354 N 
ATOM     47  C   UNL     1      -1.500  11.974   8.060  1.00  0.00     0.074 A 
ATOM     48  C   UNL     1      -2.437  12.047   6.959  1.00  0.00     0.031 C 
ATOM     49  C   UNL     1       3.569   9.016   5.444  1.00  0.00     0.029 A 
ATOM     50  C   UNL     1       3.451   9.555   6.798  1.00  0.00     0.049 A 
ATOM     51  H   UNL     1       1.768  10.420   7.668  1.00  0.00     0.167 HD
ATOM     52  C   UNL     1      -1.748  12.458   9.299  1.00  0.00     0.034 A 
ATOM     53  C   UNL     1       4.425   9.567   7.731  1.00  0.00     0.034 A 
ATOM     54  C   UNL     1      -0.824  12.375  10.397  1.00  0.00     0.049 A 
ATOM     55  C   UNL     1       4.130  10.127   9.100  1.00  0.00     0.074 A 
ATOM     56  C   UNL     1      -0.998  12.800  11.702  1.00  0.00     0.029 A 
ATOM     57  N   UNL     1       0.453  11.842  10.316  1.00  0.00    -0.354 N 
ATOM     58  N   UNL     1       3.010  10.626   9.566  1.00  0.00    -0.248 NA
ATOM     59  C   UNL     1       5.224  10.092  10.082  1.00  0.00     0.031 C 
ATOM     60  C   UNL     1       0.182  12.541  12.407  1.00  0.00     0.029 A 
ATOM     61  C   UNL     1       1.083  11.934  11.546  1.00  0.00     0.049 A 
ATOM     62  H   UNL     1       0.853  11.456   9.504  1.00  0.00     0.167 HD
ATOM     63  C   UNL     1       3.253  10.926  10.904  1.00  0.00     0.074 A 
ATOM     64  C   UNL     1       4.620  10.536  11.177  1.00  0.00     0.031 C 
ATOM     65  C   UNL     1       2.424  11.487  11.819  1.00  0.00     0.034 A 
BRANCH  52  66
ATOM     66  C   UNL     1      -3.090  13.093   9.540  1.00  0.00     0.023 A 
ATOM     67  C   UNL     1      -4.236  12.277   9.634  1.00  0.00     0.012 A 
ATOM     68  C   UNL     1      -3.214  14.484   9.716  1.00  0.00     0.148 A 
ATOM     69  C   UNL     1      -5.490  12.839   9.870  1.00  0.00     0.002 A 
ATOM     70  C   UNL     1      -4.462  15.033   9.992  1.00  0.00     0.091 A 
ATOM     71  F   UNL     1      -2.117  15.245   9.596  1.00  0.00    -0.205 F 
ATOM     72  C   UNL     1      -5.601  14.214  10.058  1.00  0.00     0.022 A 
BRANCH  70  73
ATOM     73  S   UNL     1      -4.695  16.783  10.320  1.00  0.00     0.127 S 
ATOM     74  O   UNL     1      -5.357  17.228   9.095  1.00  0.00    -0.237 OA
ATOM     75  O   UNL     1      -5.554  16.764  11.505  1.00  0.00    -0.237 OA
ATOM     76  O   UNL     1      -3.364  17.329  10.546  1.00  0.00    -0.744 OA
ENDBRANCH  70  73
ENDBRANCH  52  66
BRANCH  53  77
ATOM     77  C   UNL     1       5.762   8.986   7.421  1.00  0.00     0.023 A 
ATOM     78  C   UNL     1       6.163   7.793   8.052  1.00  0.00     0.012 A 
ATOM     79  C   UNL     1       6.633   9.605   6.504  1.00  0.00     0.148 A 
ATOM     80  C   UNL     1       7.420   7.243   7.799  1.00  0.00     0.002 A 
ATOM     81  C   UNL     1       7.862   9.023   6.217  1.00  0.00     0.091 A 
ATOM     82  F   UNL     1       6.240  10.750   5.928  1.00  0.00    -0.205 F 
ATOM     83  C   UNL     1       8.265   7.851   6.875  1.00  0.00     0.022 A 
BRANCH  81  84
ATOM     84  S   UNL     1       8.962   9.672   4.953  1.00  0.00     0.127 S 
ATOM     85  O   UNL     1      10.046  10.230   5.757  1.00  0.00    -0.237 OA
ATOM     86  O   UNL     1       9.309   8.463   4.205  1.00  0.00    -0.237 OA
ATOM     87  O   UNL     1       8.169  10.635   4.202  1.00  0.00    -0.744 OA
ENDBRANCH  81  84
ENDBRANCH  53  77
BRANCH  65  88
ATOM     88  C   UNL     1       2.950  11.681  13.219  1.00  0.00     0.023 A 
ATOM     89  C   UNL     1       3.901  12.688  13.477  1.00  0.00     0.012 A 
ATOM     90  C   UNL     1       2.447  10.916  14.290  1.00  0.00     0.148 A 
ATOM     91  C   UNL     1       4.365  12.910  14.773  1.00  0.00     0.002 A 
ATOM     92  C   UNL     1       2.879  11.174  15.586  1.00  0.00     0.091 A 
ATOM     93  F   UNL     1       1.557   9.948  14.024  1.00  0.00    -0.205 F 
ATOM     94  C   UNL     1       3.847  12.162  15.828  1.00  0.00     0.022 A 
BRANCH  92  95
ATOM     95  S   UNL     1       2.192  10.325  17.012  1.00  0.00     0.127 S 
ATOM     96  O   UNL     1       3.256   9.377  17.337  1.00  0.00    -0.237 OA
ATOM     97  O   UNL     1       2.029  11.414  17.977  1.00  0.00    -0.237 OA
ATOM     98  O   UNL     1       0.940   9.735  16.558  1.00  0.00    -0.744 OA
ENDBRANCH  92  95
ENDBRANCH  65  88
ENDBRANCH  39  40
ENDBRANCH  32  34
ENDBRANCH  31  32
ENDBRANCH  30  31
ENDBRANCH  29  30
ENDBRANCH  28  29
ENDBRANCH  27  28
ENDBRANCH   1  27
TORSDOF 23
