REMARK SMILES CN(CC(N)=O)S(=O)(=O)c1ccc(C(=O)OCCOCCOCCOC(=O)c2ccc(-c3c4nc(c(-c5cccc(S(=O)(=O)[O-])c5F)c5ccc([nH]5)c(-c5cccc(S(=O)(=O)[O-])c5F)c5nc(c(-c6cccc(S(=O)(=O)[O-])c6F)c6ccc3[nH]6)C=C5)C=C4)cc2)cc1Br
REMARK SMILES IDX 20 1 19 2 18 3 17 4 16 5 14 6 15 7 13 8 10 9 11 10 92 11
REMARK SMILES IDX 12 12 91 13 93 14 7 15 8 16 9 17 2 18 1 19 3 20 4 21 5 22
REMARK SMILES IDX 6 23 21 26 22 27 23 28 24 29 25 30 26 31 27 32 28 33 29 34
REMARK SMILES IDX 90 35 30 36 89 37 31 38 32 39 33 40 83 41 34 42 88 43 82 44
REMARK SMILES IDX 84 45 35 46 87 47 81 48 80 49 36 51 68 52 48 53 67 54 49 55
REMARK SMILES IDX 52 56 66 57 85 58 50 59 51 60 65 62 86 63 53 64 37 65 38 66
REMARK SMILES IDX 46 67 39 68 41 69 47 70 40 71 42 72 43 73 44 74 45 75 69 76
REMARK SMILES IDX 70 77 78 78 71 79 73 80 79 81 72 82 74 83 75 84 76 85 77 86
REMARK SMILES IDX 54 87 55 88 63 89 56 90 58 91 64 92 57 93 59 94 60 95 61 96
REMARK SMILES IDX 62 97
REMARK H PARENT 5 24 5 25 84 50 52 61
REMARK Flexibility Score: inf
ROOT
ATOM      1  C   UNL     1      -2.616  -2.629   8.460  1.00  0.00     0.188 C 
ENDROOT
BRANCH   1   2
ATOM      2  O   UNL     1      -2.779  -2.000   9.721  1.00  0.00    -0.376 OA
BRANCH   2   3
ATOM      3  C   UNL     1      -1.612  -1.777  10.489  1.00  0.00     0.202 C 
BRANCH   3   4
ATOM      4  C   UNL     1      -0.672  -0.678   9.976  1.00  0.00     0.261 C 
BRANCH   4   5
ATOM      5  O   UNL     1      -0.398  -0.700   8.565  1.00  0.00    -0.460 OA
BRANCH   5   6
ATOM      6  C   UNL     1       0.595  -1.515   8.150  1.00  0.00     0.338 C 
ATOM      7  O   UNL     1       1.264  -2.262   8.840  1.00  0.00    -0.246 OA
BRANCH   6   8
ATOM      8  C   UNL     1       0.673  -1.452   6.671  1.00  0.00     0.061 A 
ATOM      9  C   UNL     1       0.935  -1.380   3.875  1.00  0.00     0.096 A 
ATOM     10  C   UNL     1       0.825  -2.608   4.559  1.00  0.00     0.024 A 
ATOM     11  C   UNL     1       0.894  -0.184   4.599  1.00  0.00     0.038 A 
ATOM     12  C   UNL     1       0.715  -2.645   5.950  1.00  0.00     0.017 A 
ATOM     13  C   UNL     1       0.734  -0.226   5.997  1.00  0.00     0.032 A 
ATOM     14  Br  UNL     1       1.114   1.547   3.852  1.00  0.00    -0.049 Br
BRANCH   9  15
ATOM     15  S   UNL     1       1.291  -1.488   2.133  1.00  0.00     0.244 S 
ATOM     16  O   UNL     1       0.736  -2.742   1.669  1.00  0.00    -0.207 OA
ATOM     17  O   UNL     1       2.705  -1.206   2.002  1.00  0.00    -0.207 OA
BRANCH  15  18
ATOM     18  N   UNL     1       0.428  -0.261   1.341  1.00  0.00    -0.192 NA
ATOM     19  C   UNL     1       0.961   0.032  -0.016  1.00  0.00     0.125 C 
BRANCH  18  20
ATOM     20  C   UNL     1      -1.053  -0.345   1.363  1.00  0.00     0.201 C 
BRANCH  20  21
ATOM     21  C   UNL     1      -1.679  -1.374   0.435  1.00  0.00     0.232 C 
ATOM     22  N   UNL     1      -2.317  -2.419   1.036  1.00  0.00    -0.369 N 
ATOM     23  O   UNL     1      -1.649  -1.279  -0.790  1.00  0.00    -0.274 OA
ATOM     24  H   UNL     1      -2.334  -2.485   2.018  1.00  0.00     0.159 HD
ATOM     25  H   UNL     1      -2.760  -3.107   0.489  1.00  0.00     0.159 HD
ENDBRANCH  20  21
ENDBRANCH  18  20
ENDBRANCH  15  18
ENDBRANCH   9  15
ENDBRANCH   6   8
ENDBRANCH   5   6
ENDBRANCH   4   5
ENDBRANCH   3   4
ENDBRANCH   2   3
ENDBRANCH   1   2
BRANCH   1  26
ATOM     26  C   UNL     1      -3.031  -1.707   7.297  1.00  0.00     0.188 C 
BRANCH  26  27
ATOM     27  O   UNL     1      -3.871  -0.581   7.544  1.00  0.00    -0.376 OA
BRANCH  27  28
ATOM     28  C   UNL     1      -4.941  -0.698   8.473  1.00  0.00     0.202 C 
BRANCH  28  29
ATOM     29  C   UNL     1      -6.086  -1.651   8.126  1.00  0.00     0.261 C 
BRANCH  29  30
ATOM     30  O   UNL     1      -5.667  -2.994   7.843  1.00  0.00    -0.460 OA
BRANCH  30  31
ATOM     31  C   UNL     1      -5.808  -3.380   6.551  1.00  0.00     0.338 C 
ATOM     32  O   UNL     1      -6.251  -2.719   5.627  1.00  0.00    -0.246 OA
BRANCH  31  33
ATOM     33  C   UNL     1      -5.166  -4.693   6.351  1.00  0.00     0.060 A 
ATOM     34  C   UNL     1      -4.200  -4.800   5.342  1.00  0.00     0.016 A 
ATOM     35  C   UNL     1      -5.536  -5.811   7.102  1.00  0.00     0.016 A 
ATOM     36  C   UNL     1      -3.607  -6.031   5.069  1.00  0.00     0.010 A 
ATOM     37  C   UNL     1      -4.956  -7.050   6.811  1.00  0.00     0.010 A 
ATOM     38  C   UNL     1      -4.004  -7.168   5.782  1.00  0.00    -0.014 A 
BRANCH  38  39
ATOM     39  C   UNL     1      -3.503  -8.503   5.383  1.00  0.00     0.031 A 
ATOM     40  C   UNL     1      -4.315  -9.337   4.434  1.00  0.00     0.074 A 
ATOM     41  C   UNL     1      -2.346  -8.974   5.881  1.00  0.00     0.049 A 
ATOM     42  N   UNL     1      -4.080 -10.542   3.986  1.00  0.00    -0.248 NA
ATOM     43  C   UNL     1      -5.556  -8.733   3.921  1.00  0.00     0.031 C 
ATOM     44  C   UNL     1      -1.472  -8.256   6.808  1.00  0.00     0.029 A 
ATOM     45  N   UNL     1      -1.726 -10.184   5.700  1.00  0.00    -0.354 N 
ATOM     46  C   UNL     1      -5.148 -10.851   3.153  1.00  0.00     0.074 A 
ATOM     47  C   UNL     1      -6.036  -9.708   3.162  1.00  0.00     0.031 C 
ATOM     48  C   UNL     1      -0.447  -9.057   7.146  1.00  0.00     0.029 A 
ATOM     49  C   UNL     1      -0.604 -10.347   6.476  1.00  0.00     0.049 A 
ATOM     50  H   UNL     1      -2.054 -10.870   5.074  1.00  0.00     0.167 HD
ATOM     51  C   UNL     1      -5.363 -11.977   2.435  1.00  0.00     0.034 A 
ATOM     52  C   UNL     1       0.189 -11.424   6.646  1.00  0.00     0.034 A 
ATOM     53  C   UNL     1      -4.480 -13.111   2.423  1.00  0.00     0.049 A 
ATOM     54  C   UNL     1      -0.100 -12.684   5.872  1.00  0.00     0.074 A 
ATOM     55  C   UNL     1      -4.589 -14.279   1.688  1.00  0.00     0.029 A 
ATOM     56  N   UNL     1      -3.336 -13.230   3.195  1.00  0.00    -0.354 N 
ATOM     57  N   UNL     1      -1.036 -12.909   4.982  1.00  0.00    -0.248 NA
ATOM     58  C   UNL     1       0.793 -13.829   6.106  1.00  0.00     0.031 C 
ATOM     59  C   UNL     1      -3.519 -15.113   2.032  1.00  0.00     0.029 A 
ATOM     60  C   UNL     1      -2.738 -14.458   2.971  1.00  0.00     0.049 A 
ATOM     61  H   UNL     1      -2.997 -12.542   3.813  1.00  0.00     0.167 HD
ATOM     62  C   UNL     1      -0.830 -14.210   4.532  1.00  0.00     0.074 A 
ATOM     63  C   UNL     1       0.335 -14.714   5.231  1.00  0.00     0.031 C 
ATOM     64  C   UNL     1      -1.551 -14.930   3.637  1.00  0.00     0.034 A 
BRANCH  51  65
ATOM     65  C   UNL     1      -6.593 -12.025   1.572  1.00  0.00     0.023 A 
ATOM     66  C   UNL     1      -6.611 -11.312   0.357  1.00  0.00     0.012 A 
ATOM     67  C   UNL     1      -7.705 -12.809   1.933  1.00  0.00     0.148 A 
ATOM     68  C   UNL     1      -7.726 -11.361  -0.478  1.00  0.00     0.002 A 
ATOM     69  C   UNL     1      -8.801 -12.880   1.080  1.00  0.00     0.091 A 
ATOM     70  F   UNL     1      -7.679 -13.454   3.108  1.00  0.00    -0.205 F 
ATOM     71  C   UNL     1      -8.815 -12.152  -0.121  1.00  0.00     0.022 A 
BRANCH  69  72
ATOM     72  S   UNL     1     -10.225 -13.918   1.426  1.00  0.00     0.127 S 
ATOM     73  O   UNL     1     -11.220 -12.927   1.833  1.00  0.00    -0.237 OA
ATOM     74  O   UNL     1     -10.480 -14.540   0.126  1.00  0.00    -0.237 OA
ATOM     75  O   UNL     1      -9.799 -14.844   2.466  1.00  0.00    -0.744 OA
ENDBRANCH  69  72
ENDBRANCH  51  65
BRANCH  52  76
ATOM     76  C   UNL     1       1.352 -11.351   7.574  1.00  0.00     0.023 A 
ATOM     77  C   UNL     1       2.658 -11.360   7.050  1.00  0.00     0.012 A 
ATOM     78  C   UNL     1       1.171 -11.257   8.968  1.00  0.00     0.148 A 
ATOM     79  C   UNL     1       3.764 -11.300   7.899  1.00  0.00     0.002 A 
ATOM     80  C   UNL     1       2.275 -11.146   9.804  1.00  0.00     0.091 A 
ATOM     81  F   UNL     1      -0.081 -11.275   9.449  1.00  0.00    -0.205 F 
ATOM     82  C   UNL     1       3.574 -11.182   9.273  1.00  0.00     0.022 A 
BRANCH  80  83
ATOM     83  S   UNL     1       2.112 -10.866  11.571  1.00  0.00     0.127 S 
ATOM     84  O   UNL     1       2.447 -12.179  12.115  1.00  0.00    -0.237 OA
ATOM     85  O   UNL     1       3.114  -9.826  11.810  1.00  0.00    -0.237 OA
ATOM     86  O   UNL     1       0.737 -10.425  11.768  1.00  0.00    -0.744 OA
ENDBRANCH  80  83
ENDBRANCH  52  76
BRANCH  64  87
ATOM     87  C   UNL     1      -1.103 -16.339   3.348  1.00  0.00     0.023 A 
ATOM     88  C   UNL     1      -1.338 -17.349   4.302  1.00  0.00     0.012 A 
ATOM     89  C   UNL     1      -0.527 -16.678   2.108  1.00  0.00     0.148 A 
ATOM     90  C   UNL     1      -0.983 -18.671   4.036  1.00  0.00     0.002 A 
ATOM     91  C   UNL     1      -0.215 -18.006   1.834  1.00  0.00     0.091 A 
ATOM     92  F   UNL     1      -0.292 -15.700   1.221  1.00  0.00    -0.205 F 
ATOM     93  C   UNL     1      -0.434 -19.001   2.799  1.00  0.00     0.022 A 
BRANCH  91  94
ATOM     94  S   UNL     1       0.411 -18.532   0.234  1.00  0.00     0.127 S 
ATOM     95  O   UNL     1       1.829 -18.739   0.521  1.00  0.00    -0.237 OA
ATOM     96  O   UNL     1      -0.348 -19.759  -0.012  1.00  0.00    -0.237 OA
ATOM     97  O   UNL     1       0.108 -17.445  -0.688  1.00  0.00    -0.744 OA
ENDBRANCH  91  94
ENDBRANCH  64  87
ENDBRANCH  38  39
ENDBRANCH  31  33
ENDBRANCH  30  31
ENDBRANCH  29  30
ENDBRANCH  28  29
ENDBRANCH  27  28
ENDBRANCH  26  27
ENDBRANCH   1  26
TORSDOF 24
