REMARK SMILES C[C@@H](O)CN(C)C(=O)N[C@H]1C=C[C@@H](C(=O)OCCOCCOCCOC(=O)c2ccc(-c3c4nc(c(-c5cccc(S(=O)(=O)[O-])c5F)c5ccc([nH]5)c(-c5cccc(S(=O)(=O)[O-])c5F)c5nc(c(-c6cccc(S(=O)(=O)[O-])c6F)c6ccc3[nH]6)C=C5)C=C4)cc2)C1
REMARK SMILES IDX 20 1 19 2 18 3 17 4 16 5 14 6 15 7 13 8 10 9 11 10 91 11
REMARK SMILES IDX 12 12 9 13 7 14 8 15 5 17 6 18 4 19 2 20 1 21 3 22 21 24
REMARK SMILES IDX 22 25 23 26 24 27 25 28 26 29 27 30 28 31 29 32 90 33 30 34
REMARK SMILES IDX 89 35 31 36 32 37 33 38 83 39 34 40 88 41 82 42 84 43 35 44
REMARK SMILES IDX 87 45 81 46 80 47 36 49 68 50 48 51 67 52 49 53 52 54 66 55
REMARK SMILES IDX 85 56 50 57 51 58 65 60 86 61 53 62 37 63 38 64 46 65 39 66
REMARK SMILES IDX 41 67 47 68 40 69 42 70 43 71 44 72 45 73 69 74 70 75 78 76
REMARK SMILES IDX 71 77 73 78 79 79 72 80 74 81 75 82 76 83 77 84 54 85 55 86
REMARK SMILES IDX 63 87 56 88 58 89 64 90 57 91 59 92 60 93 61 94 62 95
REMARK H PARENT 9 16 3 23 84 48 52 59
REMARK Flexibility Score: inf
ROOT
ATOM      1  C   UNL     1      -5.070   8.382  -0.669  1.00  0.00     0.188 C 
ENDROOT
BRANCH   1   2
ATOM      2  O   UNL     1      -5.947   8.855   0.343  1.00  0.00    -0.376 OA
BRANCH   2   3
ATOM      3  C   UNL     1      -6.205   8.046   1.483  1.00  0.00     0.202 C 
BRANCH   3   4
ATOM      4  C   UNL     1      -6.540   6.554   1.317  1.00  0.00     0.261 C 
BRANCH   4   5
ATOM      5  O   UNL     1      -5.624   5.810   0.491  1.00  0.00    -0.463 OA
BRANCH   5   6
ATOM      6  C   UNL     1      -6.172   5.142  -0.554  1.00  0.00     0.312 C 
ATOM      7  O   UNL     1      -7.377   5.101  -0.789  1.00  0.00    -0.252 OA
BRANCH   6   8
ATOM      8  C   UNL     1      -5.157   4.447  -1.463  1.00  0.00     0.124 C 
ATOM      9  C   UNL     1      -3.172   2.997  -1.402  1.00  0.00     0.107 C 
ATOM     10  C   UNL     1      -4.435   2.208  -1.386  1.00  0.00    -0.006 C 
ATOM     11  C   UNL     1      -3.670   4.409  -1.079  1.00  0.00     0.048 C 
ATOM     12  C   UNL     1      -5.512   2.990  -1.478  1.00  0.00    -0.014 C 
BRANCH   9  13
ATOM     13  N   UNL     1      -2.260   2.498  -0.408  1.00  0.00    -0.332 N 
ATOM     14  C   UNL     1      -1.580   1.347  -0.275  1.00  0.00     0.317 C 
ATOM     15  O   UNL     1      -1.082   1.152   0.837  1.00  0.00    -0.249 OA
ATOM     16  H   UNL     1      -2.100   3.133   0.328  1.00  0.00     0.165 HD
BRANCH  14  17
ATOM     17  N   UNL     1      -1.467   0.439  -1.294  1.00  0.00    -0.325 N 
ATOM     18  C   UNL     1      -1.735   0.667  -2.707  1.00  0.00     0.148 C 
BRANCH  17  19
ATOM     19  C   UNL     1      -0.873  -0.858  -0.967  1.00  0.00     0.152 C 
BRANCH  19  20
ATOM     20  C   UNL     1       0.649  -0.908  -1.198  1.00  0.00     0.130 C 
ATOM     21  C   UNL     1       1.445  -0.158  -0.136  1.00  0.00     0.040 C 
BRANCH  20  22
ATOM     22  O   UNL     1       1.063  -2.278  -1.202  1.00  0.00    -0.392 OA
ATOM     23  H   UNL     1       0.869  -2.678  -0.340  1.00  0.00     0.211 HD
ENDBRANCH  20  22
ENDBRANCH  19  20
ENDBRANCH  17  19
ENDBRANCH  14  17
ENDBRANCH   9  13
ENDBRANCH   6   8
ENDBRANCH   5   6
ENDBRANCH   4   5
ENDBRANCH   3   4
ENDBRANCH   2   3
ENDBRANCH   1   2
BRANCH   1  24
ATOM     24  C   UNL     1      -3.720   7.776  -0.257  1.00  0.00     0.188 C 
BRANCH  24  25
ATOM     25  O   UNL     1      -3.503   7.641   1.124  1.00  0.00    -0.376 OA
BRANCH  25  26
ATOM     26  C   UNL     1      -2.665   8.571   1.785  1.00  0.00     0.202 C 
BRANCH  26  27
ATOM     27  C   UNL     1      -2.494  10.040   1.343  1.00  0.00     0.261 C 
BRANCH  27  28
ATOM     28  O   UNL     1      -2.740  10.376  -0.028  1.00  0.00    -0.460 OA
BRANCH  28  29
ATOM     29  C   UNL     1      -1.723  10.210  -0.907  1.00  0.00     0.338 C 
ATOM     30  O   UNL     1      -0.606   9.777  -0.662  1.00  0.00    -0.246 OA
BRANCH  29  31
ATOM     31  C   UNL     1      -2.274  10.407  -2.267  1.00  0.00     0.060 A 
ATOM     32  C   UNL     1      -2.323   9.318  -3.153  1.00  0.00     0.016 A 
ATOM     33  C   UNL     1      -2.780  11.649  -2.652  1.00  0.00     0.016 A 
ATOM     34  C   UNL     1      -2.877   9.470  -4.426  1.00  0.00     0.010 A 
ATOM     35  C   UNL     1      -3.306  11.806  -3.937  1.00  0.00     0.010 A 
ATOM     36  C   UNL     1      -3.343  10.724  -4.837  1.00  0.00    -0.014 A 
BRANCH  36  37
ATOM     37  C   UNL     1      -3.725  10.969  -6.250  1.00  0.00     0.031 A 
ATOM     38  C   UNL     1      -2.726  11.637  -7.154  1.00  0.00     0.074 A 
ATOM     39  C   UNL     1      -4.952  10.664  -6.710  1.00  0.00     0.049 A 
ATOM     40  N   UNL     1      -2.878  12.086  -8.370  1.00  0.00    -0.248 NA
ATOM     41  C   UNL     1      -1.374  11.830  -6.603  1.00  0.00     0.031 C 
ATOM     42  C   UNL     1      -6.002   9.996  -5.944  1.00  0.00     0.029 A 
ATOM     43  N   UNL     1      -5.534  10.921  -7.929  1.00  0.00    -0.354 N 
ATOM     44  C   UNL     1      -1.659  12.656  -8.717  1.00  0.00     0.074 A 
ATOM     45  C   UNL     1      -0.776  12.491  -7.583  1.00  0.00     0.031 C 
ATOM     46  C   UNL     1      -7.117   9.938  -6.694  1.00  0.00     0.029 A 
ATOM     47  C   UNL     1      -6.870  10.600  -7.975  1.00  0.00     0.049 A 
ATOM     48  H   UNL     1      -5.042  11.299  -8.693  1.00  0.00     0.167 HD
ATOM     49  C   UNL     1      -1.305  13.260  -9.875  1.00  0.00     0.034 A 
ATOM     50  C   UNL     1      -7.798  10.853  -8.921  1.00  0.00     0.034 A 
ATOM     51  C   UNL     1      -2.182  13.417 -11.004  1.00  0.00     0.049 A 
ATOM     52  C   UNL     1      -7.394  11.578 -10.182  1.00  0.00     0.074 A 
ATOM     53  C   UNL     1      -1.898  13.969 -12.240  1.00  0.00     0.029 A 
ATOM     54  N   UNL     1      -3.517  13.046 -11.027  1.00  0.00    -0.354 N 
ATOM     55  N   UNL     1      -6.210  12.011 -10.543  1.00  0.00    -0.248 NA
ATOM     56  C   UNL     1      -8.450  11.832 -11.175  1.00  0.00     0.031 C 
ATOM     57  C   UNL     1      -3.074  13.972 -12.996  1.00  0.00     0.029 A 
ATOM     58  C   UNL     1      -4.078  13.380 -12.247  1.00  0.00     0.049 A 
ATOM     59  H   UNL     1      -3.995  12.609 -10.286  1.00  0.00     0.167 HD
ATOM     60  C   UNL     1      -6.372  12.555 -11.815  1.00  0.00     0.074 A 
ATOM     61  C   UNL     1      -7.765  12.380 -12.169  1.00  0.00     0.031 C 
ATOM     62  C   UNL     1      -5.454  13.156 -12.611  1.00  0.00     0.034 A 
BRANCH  49  63
ATOM     63  C   UNL     1       0.096  13.800  -9.983  1.00  0.00     0.023 A 
ATOM     64  C   UNL     1       1.185  12.912 -10.095  1.00  0.00     0.012 A 
ATOM     65  C   UNL     1       0.327  15.189 -10.028  1.00  0.00     0.148 A 
ATOM     66  C   UNL     1       2.486  13.398 -10.217  1.00  0.00     0.002 A 
ATOM     67  C   UNL     1       1.621  15.665 -10.198  1.00  0.00     0.091 A 
ATOM     68  F   UNL     1      -0.720  16.016  -9.897  1.00  0.00    -0.205 F 
ATOM     69  C   UNL     1       2.702  14.773 -10.280  1.00  0.00     0.022 A 
BRANCH  67  70
ATOM     70  S   UNL     1       1.995  17.413 -10.370  1.00  0.00     0.127 S 
ATOM     71  O   UNL     1       2.716  17.683  -9.126  1.00  0.00    -0.237 OA
ATOM     72  O   UNL     1       2.828  17.430 -11.573  1.00  0.00    -0.237 OA
ATOM     73  O   UNL     1       0.713  18.089 -10.506  1.00  0.00    -0.744 OA
ENDBRANCH  67  70
ENDBRANCH  49  63
BRANCH  50  74
ATOM     74  C   UNL     1      -9.212  10.422  -8.720  1.00  0.00     0.023 A 
ATOM     75  C   UNL     1      -9.754   9.411  -9.537  1.00  0.00     0.012 A 
ATOM     76  C   UNL     1     -10.022  11.010  -7.728  1.00  0.00     0.148 A 
ATOM     77  C   UNL     1     -11.084   9.014  -9.391  1.00  0.00     0.002 A 
ATOM     78  C   UNL     1     -11.328  10.571  -7.550  1.00  0.00     0.091 A 
ATOM     79  F   UNL     1      -9.494  11.984  -6.973  1.00  0.00    -0.205 F 
ATOM     80  C   UNL     1     -11.867   9.586  -8.393  1.00  0.00     0.022 A 
BRANCH  78  81
ATOM     81  S   UNL     1     -12.376  11.165  -6.218  1.00  0.00     0.127 S 
ATOM     82  O   UNL     1     -13.409  11.892  -6.951  1.00  0.00    -0.237 OA
ATOM     83  O   UNL     1     -12.819   9.912  -5.606  1.00  0.00    -0.237 OA
ATOM     84  O   UNL     1     -11.514  11.978  -5.371  1.00  0.00    -0.744 OA
ENDBRANCH  78  81
ENDBRANCH  50  74
BRANCH  62  85
ATOM     85  C   UNL     1      -5.898  13.640 -13.969  1.00  0.00     0.023 A 
ATOM     86  C   UNL     1      -6.716  14.781 -14.079  1.00  0.00     0.012 A 
ATOM     87  C   UNL     1      -5.418  13.019 -15.141  1.00  0.00     0.148 A 
ATOM     88  C   UNL     1      -7.070  15.282 -15.332  1.00  0.00     0.002 A 
ATOM     89  C   UNL     1      -5.731  13.554 -16.384  1.00  0.00     0.091 A 
ATOM     90  F   UNL     1      -4.649  11.927 -15.015  1.00  0.00    -0.205 F 
ATOM     91  C   UNL     1      -6.568  14.678 -16.482  1.00  0.00     0.022 A 
BRANCH  89  92
ATOM     92  S   UNL     1      -5.054  12.906 -17.917  1.00  0.00     0.127 S 
ATOM     93  O   UNL     1      -6.250  12.380 -18.572  1.00  0.00    -0.237 OA
ATOM     94  O   UNL     1      -4.496  14.107 -18.539  1.00  0.00    -0.237 OA
ATOM     95  O   UNL     1      -4.067  11.906 -17.533  1.00  0.00    -0.744 OA
ENDBRANCH  89  92
ENDBRANCH  62  85
ENDBRANCH  36  37
ENDBRANCH  29  31
ENDBRANCH  28  29
ENDBRANCH  27  28
ENDBRANCH  26  27
ENDBRANCH  25  26
ENDBRANCH  24  25
ENDBRANCH   1  24
TORSDOF 25
