REMARK SMILES O=C(C[C@@H](NC(=O)c1cc(-c2ccc(F)cc2)on1)c1cccc(Br)c1)OCCOCCOCCOC(=O)c1ccc(-c2c3nc(c(-c4cccc(S(=O)(=O)[O-])c4F)c4ccc([nH]4)c(-c4cccc(S(=O)(=O)[O-])c4F)c4nc(c(-c5cccc(S(=O)(=O)[O-])c5F)c5ccc2[nH]5)C=C4)C=C3)cc1
REMARK SMILES IDX 31 1 30 2 29 3 28 4 27 5 2 6 1 7 3 8 4 9 5 10 6 11 7 13 8 14
REMARK SMILES IDX 9 15 19 16 10 17 18 18 11 19 12 20 17 21 13 22 16 23 14 24
REMARK SMILES IDX 15 25 20 26 21 27 26 28 22 29 24 30 23 31 25 32 32 33 33 34
REMARK SMILES IDX 34 35 35 36 36 37 37 38 38 39 39 40 40 41 101 42 41 43
REMARK SMILES IDX 100 44 42 45 43 46 44 47 94 48 45 49 99 50 93 51 95 52 46 53
REMARK SMILES IDX 98 54 92 55 91 56 47 58 79 59 59 60 78 61 60 62 63 63 77 64
REMARK SMILES IDX 96 65 61 66 62 67 76 69 97 70 64 71 48 72 49 73 57 74 50 75
REMARK SMILES IDX 52 76 58 77 51 78 53 79 54 80 55 81 56 82 80 83 81 84 89 85
REMARK SMILES IDX 82 86 84 87 90 88 83 89 85 90 86 91 87 92 88 93 65 94 66 95
REMARK SMILES IDX 74 96 67 97 69 98 75 99 68 100 70 101 71 102 72 103 73 104
REMARK H PARENT 5 12 95 57 63 68
REMARK Flexibility Score: inf
ROOT
ATOM      1  C   UNL     1       2.677  -0.486  -1.739  1.00  0.00     0.188 C 
ENDROOT
BRANCH   1   2
ATOM      2  O   UNL     1       4.074  -0.353  -1.561  1.00  0.00    -0.376 OA
BRANCH   2   3
ATOM      3  C   UNL     1       4.740  -1.054  -0.511  1.00  0.00     0.202 C 
BRANCH   3   4
ATOM      4  C   UNL     1       3.926  -1.717   0.606  1.00  0.00     0.261 C 
BRANCH   4   5
ATOM      5  O   UNL     1       3.672  -0.775   1.670  1.00  0.00    -0.463 OA
BRANCH   5   6
ATOM      6  C   UNL     1       2.548  -0.027   1.575  1.00  0.00     0.308 C 
ATOM      7  O   UNL     1       1.425  -0.515   1.607  1.00  0.00    -0.252 OA
BRANCH   6   8
ATOM      8  C   UNL     1       2.826   1.424   1.241  1.00  0.00     0.152 C 
BRANCH   8   9
ATOM      9  C   UNL     1       4.137   2.094   1.725  1.00  0.00     0.124 C 
BRANCH   9  10
ATOM     10  N   UNL     1       5.227   1.145   1.993  1.00  0.00    -0.343 N 
ATOM     11  C   UNL     1       6.582   1.224   2.167  1.00  0.00     0.273 C 
ATOM     12  H   UNL     1       4.899   0.220   2.065  1.00  0.00     0.164 HD
ATOM     13  O   UNL     1       7.186   0.174   2.391  1.00  0.00    -0.267 OA
BRANCH  11  14
ATOM     14  C   UNL     1       7.234   2.507   2.048  1.00  0.00     0.171 A 
ATOM     15  C   UNL     1       6.881   3.709   2.692  1.00  0.00     0.088 A 
ATOM     16  N   UNL     1       8.270   2.687   1.211  1.00  0.00    -0.074 NA
ATOM     17  C   UNL     1       7.625   4.663   2.050  1.00  0.00     0.167 A 
ATOM     18  O   UNL     1       8.482   4.059   1.182  1.00  0.00    -0.355 OA
BRANCH  17  19
ATOM     19  C   UNL     1       7.629   6.107   2.103  1.00  0.00     0.020 A 
ATOM     20  C   UNL     1       7.371   6.751   3.323  1.00  0.00     0.015 A 
ATOM     21  C   UNL     1       7.794   6.872   0.941  1.00  0.00     0.015 A 
ATOM     22  C   UNL     1       7.313   8.140   3.385  1.00  0.00     0.040 A 
ATOM     23  C   UNL     1       7.721   8.263   1.004  1.00  0.00     0.040 A 
ATOM     24  C   UNL     1       7.503   8.884   2.228  1.00  0.00     0.123 A 
ATOM     25  F   UNL     1       7.496  10.220   2.304  1.00  0.00    -0.207 F 
ENDBRANCH  17  19
ENDBRANCH  11  14
ENDBRANCH   9  10
BRANCH   9  26
ATOM     26  C   UNL     1       4.459   3.197   0.719  1.00  0.00    -0.024 A 
ATOM     27  C   UNL     1       3.986   4.502   0.946  1.00  0.00     0.006 A 
ATOM     28  C   UNL     1       5.189   2.952  -0.459  1.00  0.00     0.021 A 
ATOM     29  C   UNL     1       4.283   5.538   0.058  1.00  0.00     0.002 A 
ATOM     30  C   UNL     1       5.487   3.996  -1.339  1.00  0.00     0.018 A 
ATOM     31  C   UNL     1       5.038   5.288  -1.085  1.00  0.00     0.016 A 
ATOM     32  Br  UNL     1       6.537   3.653  -2.874  1.00  0.00    -0.051 Br
ENDBRANCH   9  26
ENDBRANCH   8   9
ENDBRANCH   6   8
ENDBRANCH   5   6
ENDBRANCH   4   5
ENDBRANCH   3   4
ENDBRANCH   2   3
ENDBRANCH   1   2
BRANCH   1  33
ATOM     33  C   UNL     1       2.139  -1.607  -2.636  1.00  0.00     0.188 C 
BRANCH  33  34
ATOM     34  O   UNL     1       2.947  -2.743  -2.876  1.00  0.00    -0.376 OA
BRANCH  34  35
ATOM     35  C   UNL     1       4.191  -2.556  -3.543  1.00  0.00     0.202 C 
BRANCH  35  36
ATOM     36  C   UNL     1       4.303  -1.667  -4.789  1.00  0.00     0.261 C 
BRANCH  36  37
ATOM     37  O   UNL     1       3.900  -0.298  -4.603  1.00  0.00    -0.460 OA
BRANCH  37  38
ATOM     38  C   UNL     1       2.869   0.107  -5.379  1.00  0.00     0.338 C 
ATOM     39  O   UNL     1       2.216  -0.584  -6.156  1.00  0.00    -0.246 OA
BRANCH  38  40
ATOM     40  C   UNL     1       2.511   1.506  -5.100  1.00  0.00     0.060 A 
ATOM     41  C   UNL     1       1.268   1.778  -4.513  1.00  0.00     0.016 A 
ATOM     42  C   UNL     1       3.317   2.544  -5.568  1.00  0.00     0.016 A 
ATOM     43  C   UNL     1       0.813   3.095  -4.424  1.00  0.00     0.010 A 
ATOM     44  C   UNL     1       2.852   3.861  -5.489  1.00  0.00     0.010 A 
ATOM     45  C   UNL     1       1.583   4.141  -4.950  1.00  0.00    -0.014 A 
BRANCH  45  46
ATOM     46  C   UNL     1       1.012   5.507  -5.058  1.00  0.00     0.031 A 
ATOM     47  C   UNL     1       0.462   5.979  -6.377  1.00  0.00     0.074 A 
ATOM     48  C   UNL     1       0.973   6.327  -3.993  1.00  0.00     0.049 A 
ATOM     49  N   UNL     1      -0.033   7.147  -6.696  1.00  0.00    -0.248 NA
ATOM     50  C   UNL     1       0.463   5.005  -7.480  1.00  0.00     0.031 C 
ATOM     51  C   UNL     1       1.434   5.989  -2.649  1.00  0.00     0.029 A 
ATOM     52  N   UNL     1       0.532   7.623  -3.885  1.00  0.00    -0.354 N 
ATOM     53  C   UNL     1      -0.382   7.059  -8.038  1.00  0.00     0.074 A 
ATOM     54  C   UNL     1      -0.031   5.725  -8.477  1.00  0.00     0.031 C 
ATOM     55  C   UNL     1       1.257   7.055  -1.850  1.00  0.00     0.029 A 
ATOM     56  C   UNL     1       0.713   8.163  -2.635  1.00  0.00     0.049 A 
ATOM     57  H   UNL     1       0.125   8.118  -4.633  1.00  0.00     0.167 HD
ATOM     58  C   UNL     1      -0.959   7.994  -8.830  1.00  0.00     0.034 A 
ATOM     59  C   UNL     1       0.491   9.412  -2.181  1.00  0.00     0.034 A 
ATOM     60  C   UNL     1      -1.326   9.316  -8.398  1.00  0.00     0.049 A 
ATOM     61  C   UNL     1      -0.054  10.466  -3.108  1.00  0.00     0.074 A 
ATOM     62  C   UNL     1      -1.953  10.313  -9.127  1.00  0.00     0.029 A 
ATOM     63  N   UNL     1      -1.093   9.834  -7.135  1.00  0.00    -0.354 N 
ATOM     64  N   UNL     1      -0.448  10.346  -4.351  1.00  0.00    -0.248 NA
ATOM     65  C   UNL     1      -0.199  11.825  -2.562  1.00  0.00     0.031 C 
ATOM     66  C   UNL     1      -2.070  11.444  -8.315  1.00  0.00     0.029 A 
ATOM     67  C   UNL     1      -1.548  11.140  -7.069  1.00  0.00     0.049 A 
ATOM     68  H   UNL     1      -0.666   9.346  -6.394  1.00  0.00     0.167 HD
ATOM     69  C   UNL     1      -0.932  11.598  -4.720  1.00  0.00     0.074 A 
ATOM     70  C   UNL     1      -0.781  12.463  -3.570  1.00  0.00     0.031 C 
ATOM     71  C   UNL     1      -1.452  11.989  -5.909  1.00  0.00     0.034 A 
BRANCH  58  72
ATOM     72  C   UNL     1      -1.266   7.616 -10.255  1.00  0.00     0.023 A 
ATOM     73  C   UNL     1      -2.343   6.748 -10.525  1.00  0.00     0.012 A 
ATOM     74  C   UNL     1      -0.552   8.189 -11.325  1.00  0.00     0.148 A 
ATOM     75  C   UNL     1      -2.690   6.438 -11.839  1.00  0.00     0.002 A 
ATOM     76  C   UNL     1      -0.932   7.911 -12.632  1.00  0.00     0.091 A 
ATOM     77  F   UNL     1       0.482   8.995 -11.044  1.00  0.00    -0.205 F 
ATOM     78  C   UNL     1      -1.994   7.029 -12.890  1.00  0.00     0.022 A 
BRANCH  76  79
ATOM     79  S   UNL     1      -0.156   8.691 -14.051  1.00  0.00     0.127 S 
ATOM     80  O   UNL     1       0.596   7.577 -14.626  1.00  0.00    -0.237 OA
ATOM     81  O   UNL     1      -1.313   9.117 -14.840  1.00  0.00    -0.237 OA
ATOM     82  O   UNL     1       0.650   9.781 -13.519  1.00  0.00    -0.744 OA
ENDBRANCH  76  79
ENDBRANCH  58  72
BRANCH  59  83
ATOM     83  C   UNL     1       0.777   9.742  -0.760  1.00  0.00     0.023 A 
ATOM     84  C   UNL     1      -0.287  10.012   0.122  1.00  0.00     0.012 A 
ATOM     85  C   UNL     1       2.095   9.770  -0.276  1.00  0.00     0.148 A 
ATOM     86  C   UNL     1      -0.038  10.331   1.458  1.00  0.00     0.002 A 
ATOM     87  C   UNL     1       2.331  10.040   1.065  1.00  0.00     0.091 A 
ATOM     88  F   UNL     1       3.092   9.473  -1.122  1.00  0.00    -0.205 F 
ATOM     89  C   UNL     1       1.272  10.344   1.931  1.00  0.00     0.022 A 
BRANCH  87  90
ATOM     90  S   UNL     1       3.985   9.937   1.744  1.00  0.00     0.127 S 
ATOM     91  O   UNL     1       3.963  10.954   2.794  1.00  0.00    -0.237 OA
ATOM     92  O   UNL     1       4.003   8.555   2.225  1.00  0.00    -0.237 OA
ATOM     93  O   UNL     1       4.862  10.236   0.620  1.00  0.00    -0.744 OA
ENDBRANCH  87  90
ENDBRANCH  59  83
BRANCH  71  94
ATOM     94  C   UNL     1      -1.960  13.401  -6.038  1.00  0.00     0.023 A 
ATOM     95  C   UNL     1      -1.051  14.471  -6.145  1.00  0.00     0.012 A 
ATOM     96  C   UNL     1      -3.342  13.653  -6.164  1.00  0.00     0.148 A 
ATOM     97  C   UNL     1      -1.510  15.772  -6.359  1.00  0.00     0.002 A 
ATOM     98  C   UNL     1      -3.788  14.943  -6.426  1.00  0.00     0.091 A 
ATOM     99  F   UNL     1      -4.192  12.623  -6.039  1.00  0.00    -0.205 F 
ATOM    100  C   UNL     1      -2.875  16.005  -6.514  1.00  0.00     0.022 A 
BRANCH  98 101
ATOM    101  S   UNL     1      -5.517  15.321  -6.739  1.00  0.00     0.127 S 
ATOM    102  O   UNL     1      -5.880  16.072  -5.538  1.00  0.00    -0.237 OA
ATOM    103  O   UNL     1      -5.442  16.123  -7.960  1.00  0.00    -0.237 OA
ATOM    104  O   UNL     1      -6.188  14.038  -6.897  1.00  0.00    -0.744 OA
ENDBRANCH  98 101
ENDBRANCH  71  94
ENDBRANCH  45  46
ENDBRANCH  38  40
ENDBRANCH  37  38
ENDBRANCH  36  37
ENDBRANCH  35  36
ENDBRANCH  34  35
ENDBRANCH  33  34
ENDBRANCH   1  33
TORSDOF 25
