REMARK SMILES C[C@H]1CN(C(=O)N[C@@H]2CCCCC[C@@H]2C(=O)OCCOCCOCCOC(=O)c2ccc(-c3c4nc(c(-c5cccc(S(=O)(=O)[O-])c5F)c5ccc([nH]5)c(-c5cccc(S(=O)(=O)[O-])c5F)c5nc(c(-c6cccc(S(=O)(=O)[O-])c6F)c6ccc3[nH]6)C=C5)C=C4)cc2)C[C@H](C)O1
REMARK SMILES IDX 21 1 20 2 19 3 18 4 17 5 15 6 16 7 14 8 8 9 7 10 1 11 2 12
REMARK SMILES IDX 3 13 95 14 4 15 93 16 5 17 92 18 94 19 6 20 9 22 10 23 11 24
REMARK SMILES IDX 13 26 12 27 22 29 23 30 24 31 25 32 26 33 27 34 28 35 29 36
REMARK SMILES IDX 30 37 91 38 31 39 90 40 32 41 33 42 34 43 84 44 35 45 89 46
REMARK SMILES IDX 83 47 85 48 36 49 88 50 82 51 81 52 37 54 69 55 49 56 68 57
REMARK SMILES IDX 50 58 53 59 67 60 86 61 51 62 52 63 66 65 87 66 54 67 38 68
REMARK SMILES IDX 39 69 47 70 40 71 42 72 48 73 41 74 43 75 44 76 45 77 46 78
REMARK SMILES IDX 70 79 71 80 79 81 72 82 74 83 80 84 73 85 75 86 76 87 77 88
REMARK SMILES IDX 78 89 55 90 56 91 64 92 57 93 59 94 65 95 58 96 60 97 61 98
REMARK SMILES IDX 62 99 63 100
REMARK H PARENT 7 21 85 53 53 64
REMARK Flexibility Score: 90.00
ROOT
ATOM      1  C   UNL     1       2.428   0.395  -3.138  1.00  0.00     0.188 C 
ENDROOT
BRANCH   1   2
ATOM      2  O   UNL     1       3.197   0.504  -4.327  1.00  0.00    -0.376 OA
BRANCH   2   3
ATOM      3  C   UNL     1       3.726  -0.675  -4.919  1.00  0.00     0.202 C 
BRANCH   3   4
ATOM      4  C   UNL     1       4.637  -1.539  -4.042  1.00  0.00     0.261 C 
BRANCH   4   5
ATOM      5  O   UNL     1       3.958  -2.130  -2.910  1.00  0.00    -0.463 OA
BRANCH   5   6
ATOM      6  C   UNL     1       4.642  -2.081  -1.745  1.00  0.00     0.311 C 
ATOM      7  O   UNL     1       5.797  -1.671  -1.648  1.00  0.00    -0.252 OA
BRANCH   6   8
ATOM      8  C   UNL     1       3.872  -2.515  -0.499  1.00  0.00     0.121 C 
BRANCH   8   9
ATOM      9  C   UNL     1       2.902  -3.721  -0.542  1.00  0.00     0.098 C 
BRANCH   9  10
ATOM     10  N   UNL     1       1.634  -3.621  -1.308  1.00  0.00    -0.334 N 
ATOM     11  C   UNL     1      -0.110  -0.983   3.090  1.00  0.00     0.040 C 
ATOM     12  C   UNL     1      -0.590  -1.333   1.689  1.00  0.00     0.135 C 
ATOM     13  C   UNL     1       0.097  -2.591   1.142  1.00  0.00     0.153 C 
ATOM     14  O   UNL     1      -2.004  -1.554   1.766  1.00  0.00    -0.372 OA
ATOM     15  N   UNL     1      -0.395  -2.965  -0.171  1.00  0.00    -0.320 N 
ATOM     16  C   UNL     1      -2.582  -1.829   0.482  1.00  0.00     0.135 C 
ATOM     17  C   UNL     1       0.305  -3.428  -1.240  1.00  0.00     0.317 C 
ATOM     18  C   UNL     1      -1.874  -2.998  -0.241  1.00  0.00     0.153 C 
ATOM     19  C   UNL     1      -2.639  -0.565  -0.365  1.00  0.00     0.040 C 
ATOM     20  O   UNL     1      -0.283  -3.714  -2.291  1.00  0.00    -0.249 OA
ATOM     21  H   UNL     1       1.859  -3.749  -2.257  1.00  0.00     0.165 HD
ENDBRANCH   9  10
BRANCH   9  22
ATOM     22  C   UNL     1       2.766  -4.505   0.782  1.00  0.00     0.026 C 
BRANCH  22  23
ATOM     23  C   UNL     1       3.641  -4.068   1.964  1.00  0.00     0.002 C 
BRANCH  23  24
ATOM     24  C   UNL     1       3.325  -2.698   2.569  1.00  0.00     0.000 CG0
ATOM     25  G   UNL     1       3.765  -1.447   1.798  1.00  0.00     0.000 G0
ENDBRANCH  23  24
ENDBRANCH  22  23
ENDBRANCH   9  22
ENDBRANCH   8   9
BRANCH   8  26
ATOM     26  C   UNL     1       3.397  -1.317   0.315  1.00  0.00     0.017 C 
BRANCH  26  27
ATOM     27  C   UNL     1       3.765  -1.447   1.798  1.00  0.00     0.001 CG0
ATOM     28  G   UNL     1       3.325  -2.698   2.569  1.00  0.00     0.000 G0
ENDBRANCH  26  27
ENDBRANCH   8  26
ENDBRANCH   6   8
ENDBRANCH   5   6
ENDBRANCH   4   5
ENDBRANCH   3   4
ENDBRANCH   2   3
ENDBRANCH   1   2
BRANCH   1  29
ATOM     29  C   UNL     1       1.414  -0.753  -3.014  1.00  0.00     0.188 C 
BRANCH  29  30
ATOM     30  O   UNL     1       1.051  -1.383  -4.232  1.00  0.00    -0.376 OA
BRANCH  30  31
ATOM     31  C   UNL     1      -0.314  -1.202  -4.599  1.00  0.00     0.202 C 
BRANCH  31  32
ATOM     32  C   UNL     1      -0.602   0.228  -5.055  1.00  0.00     0.261 C 
BRANCH  32  33
ATOM     33  O   UNL     1      -0.434   1.175  -3.981  1.00  0.00    -0.460 OA
BRANCH  33  34
ATOM     34  C   UNL     1      -1.501   1.383  -3.187  1.00  0.00     0.338 C 
ATOM     35  O   UNL     1      -2.618   0.899  -3.314  1.00  0.00    -0.246 OA
BRANCH  34  36
ATOM     36  C   UNL     1      -1.115   2.302  -2.100  1.00  0.00     0.060 A 
ATOM     37  C   UNL     1      -0.288   1.881  -1.048  1.00  0.00     0.016 A 
ATOM     38  C   UNL     1      -1.660   3.582  -2.088  1.00  0.00     0.016 A 
ATOM     39  C   UNL     1      -0.029   2.720   0.035  1.00  0.00     0.010 A 
ATOM     40  C   UNL     1      -1.369   4.436  -1.024  1.00  0.00     0.010 A 
ATOM     41  C   UNL     1      -0.572   4.005   0.054  1.00  0.00    -0.014 A 
BRANCH  41  42
ATOM     42  C   UNL     1      -0.385   4.913   1.208  1.00  0.00     0.031 A 
ATOM     43  C   UNL     1      -1.582   5.290   2.028  1.00  0.00     0.074 A 
ATOM     44  C   UNL     1       0.814   5.474   1.449  1.00  0.00     0.049 A 
ATOM     45  N   UNL     1      -1.744   6.301   2.836  1.00  0.00    -0.248 NA
ATOM     46  C   UNL     1      -2.760   4.413   1.908  1.00  0.00     0.031 C 
ATOM     47  C   UNL     1       2.064   5.139   0.769  1.00  0.00     0.029 A 
ATOM     48  N   UNL     1       1.156   6.498   2.299  1.00  0.00    -0.354 N 
ATOM     49  C   UNL     1      -3.066   6.236   3.256  1.00  0.00     0.074 A 
ATOM     50  C   UNL     1      -3.651   5.061   2.645  1.00  0.00     0.031 C 
ATOM     51  C   UNL     1       3.028   5.974   1.189  1.00  0.00     0.029 A 
ATOM     52  C   UNL     1       2.443   6.948   2.106  1.00  0.00     0.049 A 
ATOM     53  H   UNL     1       0.545   6.871   2.975  1.00  0.00     0.167 HD
ATOM     54  C   UNL     1      -3.729   7.091   4.068  1.00  0.00     0.034 A 
ATOM     55  C   UNL     1       3.055   8.061   2.556  1.00  0.00     0.034 A 
ATOM     56  C   UNL     1      -3.119   8.226   4.703  1.00  0.00     0.049 A 
ATOM     57  C   UNL     1       2.281   9.024   3.418  1.00  0.00     0.074 A 
ATOM     58  C   UNL     1      -3.690   9.130   5.580  1.00  0.00     0.029 A 
ATOM     59  N   UNL     1      -1.800   8.614   4.528  1.00  0.00    -0.354 N 
ATOM     60  N   UNL     1       1.047   8.935   3.853  1.00  0.00    -0.248 NA
ATOM     61  C   UNL     1       2.986  10.238   3.857  1.00  0.00     0.031 C 
ATOM     62  C   UNL     1      -2.720  10.078   5.920  1.00  0.00     0.029 A 
ATOM     63  C   UNL     1      -1.539   9.749   5.272  1.00  0.00     0.049 A 
ATOM     64  H   UNL     1      -1.145   8.149   3.958  1.00  0.00     0.167 HD
ATOM     65  C   UNL     1       0.841  10.057   4.647  1.00  0.00     0.074 A 
ATOM     66  C   UNL     1       2.080  10.808   4.641  1.00  0.00     0.031 C 
ATOM     67  C   UNL     1      -0.277  10.440   5.312  1.00  0.00     0.034 A 
BRANCH  54  68
ATOM     68  C   UNL     1      -5.190   6.839   4.317  1.00  0.00     0.023 A 
ATOM     69  C   UNL     1      -5.588   5.808   5.189  1.00  0.00     0.012 A 
ATOM     70  C   UNL     1      -6.166   7.678   3.742  1.00  0.00     0.148 A 
ATOM     71  C   UNL     1      -6.939   5.603   5.471  1.00  0.00     0.002 A 
ATOM     72  C   UNL     1      -7.506   7.492   4.059  1.00  0.00     0.091 A 
ATOM     73  F   UNL     1      -5.766   8.635   2.893  1.00  0.00    -0.205 F 
ATOM     74  C   UNL     1      -7.894   6.451   4.916  1.00  0.00     0.022 A 
BRANCH  72  75
ATOM     75  S   UNL     1      -8.800   8.582   3.454  1.00  0.00     0.127 S 
ATOM     76  O   UNL     1      -9.469   7.728   2.473  1.00  0.00    -0.237 OA
ATOM     77  O   UNL     1      -9.577   8.842   4.666  1.00  0.00    -0.237 OA
ATOM     78  O   UNL     1      -8.120   9.748   2.909  1.00  0.00    -0.744 OA
ENDBRANCH  72  75
ENDBRANCH  54  68
BRANCH  55  79
ATOM     79  C   UNL     1       4.474   8.332   2.192  1.00  0.00     0.023 A 
ATOM     80  C   UNL     1       5.462   8.269   3.192  1.00  0.00     0.012 A 
ATOM     81  C   UNL     1       4.854   8.629   0.868  1.00  0.00     0.148 A 
ATOM     82  C   UNL     1       6.801   8.519   2.887  1.00  0.00     0.002 A 
ATOM     83  C   UNL     1       6.196   8.821   0.560  1.00  0.00     0.091 A 
ATOM     84  F   UNL     1       3.897   8.709  -0.067  1.00  0.00    -0.205 F 
ATOM     85  C   UNL     1       7.169   8.782   1.570  1.00  0.00     0.022 A 
BRANCH  83  86
ATOM     86  S   UNL     1       6.773   9.036  -1.128  1.00  0.00     0.127 S 
ATOM     87  O   UNL     1       7.107  10.457  -1.151  1.00  0.00    -0.237 OA
ATOM     88  O   UNL     1       7.923   8.131  -1.174  1.00  0.00    -0.237 OA
ATOM     89  O   UNL     1       5.659   8.630  -1.974  1.00  0.00    -0.744 OA
ENDBRANCH  83  86
ENDBRANCH  55  79
BRANCH  67  90
ATOM     90  C   UNL     1      -0.208  11.691   6.145  1.00  0.00     0.023 A 
ATOM     91  C   UNL     1      -0.243  12.953   5.521  1.00  0.00     0.012 A 
ATOM     92  C   UNL     1      -0.223  11.611   7.552  1.00  0.00     0.148 A 
ATOM     93  C   UNL     1      -0.276  14.118   6.287  1.00  0.00     0.002 A 
ATOM     94  C   UNL     1      -0.303  12.774   8.307  1.00  0.00     0.091 A 
ATOM     95  F   UNL     1      -0.173  10.398   8.123  1.00  0.00    -0.205 F 
ATOM     96  C   UNL     1      -0.320  14.028   7.677  1.00  0.00     0.022 A 
BRANCH  94  97
ATOM     97  S   UNL     1      -0.462  12.752  10.097  1.00  0.00     0.127 S 
ATOM     98  O   UNL     1       0.841  13.264  10.518  1.00  0.00    -0.237 OA
ATOM     99  O   UNL     1      -1.580  13.669  10.319  1.00  0.00    -0.237 OA
ATOM    100  O   UNL     1      -0.734  11.368  10.460  1.00  0.00    -0.744 OA
ENDBRANCH  94  97
ENDBRANCH  67  90
ENDBRANCH  41  42
ENDBRANCH  34  36
ENDBRANCH  33  34
ENDBRANCH  32  33
ENDBRANCH  31  32
ENDBRANCH  30  31
ENDBRANCH  29  30
ENDBRANCH   1  29
TORSDOF 21
