REMARK SMILES O=C(OCCOCCOCCOC(=O)c1ccc(-c2c3nc(c(-c4cccc(S(=O)(=O)[O-])c4F)c4ccc([nH]4)c(-c4cccc(S(=O)(=O)[O-])c4F)c4nc(c(-c5cccc(S(=O)(=O)[O-])c5F)c5ccc2[nH]5)C=C4)C=C3)cc1)C1=Cc2cc(Cl)ccc2O[C@@H]1C(F)(F)F
REMARK SMILES IDX 8 1 7 2 6 3 5 4 4 5 3 6 2 7 1 8 78 9 79 10 88 11 80 12 87 13
REMARK SMILES IDX 81 14 86 15 82 16 85 17 83 18 84 19 89 20 90 21 91 22 92 23
REMARK SMILES IDX 9 24 10 25 11 26 12 27 13 28 14 29 15 30 16 31 77 32 17 33
REMARK SMILES IDX 76 34 18 35 19 36 20 37 70 38 21 39 75 40 69 41 71 42 22 43
REMARK SMILES IDX 74 44 68 45 67 46 23 48 55 49 35 50 54 51 36 52 39 53 53 54
REMARK SMILES IDX 72 55 37 56 38 57 52 59 73 60 40 61 24 62 25 63 33 64 26 65
REMARK SMILES IDX 28 66 34 67 27 68 29 69 30 70 31 71 32 72 56 73 57 74 65 75
REMARK SMILES IDX 58 76 60 77 66 78 59 79 61 80 62 81 63 82 64 83 41 84 42 85
REMARK SMILES IDX 50 86 43 87 45 88 51 89 44 90 46 91 47 92 48 93 49 94
REMARK H PARENT 71 47 39 58
REMARK Flexibility Score: inf
ROOT
ATOM      1  C   UNL     1       2.379   2.783   1.867  1.00  0.00     0.188 C 
ENDROOT
BRANCH   1   2
ATOM      2  C   UNL     1       2.607   1.264   1.991  1.00  0.00     0.188 C 
BRANCH   2   3
ATOM      3  O   UNL     1       3.898   0.609   1.847  1.00  0.00    -0.376 OA
BRANCH   3   4
ATOM      4  C   UNL     1       4.499  -0.334   0.641  1.00  0.00     0.202 C 
BRANCH   4   5
ATOM      5  C   UNL     1       3.745  -0.583  -1.388  1.00  0.00     0.261 C 
BRANCH   5   6
ATOM      6  O   UNL     1       2.884  -1.747  -1.896  1.00  0.00    -0.460 OA
BRANCH   6   7
ATOM      7  C   UNL     1       3.136  -2.896  -1.254  1.00  0.00     0.338 C 
ATOM      8  O   UNL     1       2.587  -3.961  -1.355  1.00  0.00    -0.246 OA
BRANCH   7   9
ATOM      9  C   UNL     1       3.951  -2.309  -0.215  1.00  0.00     0.087 C 
ATOM     10  C   UNL     1       5.328  -2.014  -0.677  1.00  0.00     0.027 C 
ATOM     11  C   UNL     1       2.652  -0.978   0.308  1.00  0.00     0.316 C 
ATOM     12  C   UNL     1       5.929  -0.342  -1.044  1.00  0.00     0.019 A 
ATOM     13  O   UNL     1       3.234   0.804  -0.182  1.00  0.00    -0.475 OA
ATOM     14  C   UNL     1       7.178  -0.159  -1.569  1.00  0.00     0.032 A 
ATOM     15  C   UNL     1       4.913   1.054  -0.854  1.00  0.00     0.128 A 
ATOM     16  C   UNL     1       7.502   1.181  -1.863  1.00  0.00     0.041 A 
ATOM     17  C   UNL     1       5.312   2.324  -1.149  1.00  0.00     0.048 A 
ATOM     18  Cl  UNL     1       9.071   1.466  -2.553  1.00  0.00    -0.084 Cl
ATOM     19  C   UNL     1       6.636   2.345  -1.654  1.00  0.00     0.024 A 
BRANCH  11  20
ATOM     20  C   UNL     1       2.270  -1.613   1.752  1.00  0.00     0.430 C 
ATOM     21  F   UNL     1       1.564  -0.866   2.611  1.00  0.00    -0.167 F 
ATOM     22  F   UNL     1       1.468  -2.690   1.500  1.00  0.00    -0.167 F 
ATOM     23  F   UNL     1       3.332  -2.119   2.424  1.00  0.00    -0.167 F 
ENDBRANCH  11  20
ENDBRANCH   7   9
ENDBRANCH   6   7
ENDBRANCH   5   6
ENDBRANCH   4   5
ENDBRANCH   3   4
ENDBRANCH   2   3
ENDBRANCH   1   2
BRANCH   1  24
ATOM     24  O   UNL     1       3.424   3.624   1.442  1.00  0.00    -0.376 OA
BRANCH  24  25
ATOM     25  C   UNL     1       4.658   3.493   2.133  1.00  0.00     0.202 C 
BRANCH  25  26
ATOM     26  C   UNL     1       4.638   3.598   3.664  1.00  0.00     0.261 C 
BRANCH  26  27
ATOM     27  O   UNL     1       4.155   2.401   4.309  1.00  0.00    -0.460 OA
BRANCH  27  28
ATOM     28  C   UNL     1       3.065   2.536   5.106  1.00  0.00     0.338 C 
ATOM     29  O   UNL     1       2.449   3.564   5.332  1.00  0.00    -0.246 OA
BRANCH  28  30
ATOM     30  C   UNL     1       2.585   1.205   5.544  1.00  0.00     0.060 A 
ATOM     31  C   UNL     1       1.241   0.875   5.304  1.00  0.00     0.016 A 
ATOM     32  C   UNL     1       3.423   0.308   6.209  1.00  0.00     0.016 A 
ATOM     33  C   UNL     1       0.722  -0.333   5.762  1.00  0.00     0.010 A 
ATOM     34  C   UNL     1       2.890  -0.887   6.708  1.00  0.00     0.010 A 
ATOM     35  C   UNL     1       1.526  -1.185   6.528  1.00  0.00    -0.014 A 
BRANCH  35  36
ATOM     36  C   UNL     1       0.851  -2.172   7.405  1.00  0.00     0.031 A 
ATOM     37  C   UNL     1       0.444  -1.701   8.777  1.00  0.00     0.074 A 
ATOM     38  C   UNL     1       0.557  -3.420   6.998  1.00  0.00     0.049 A 
ATOM     39  N   UNL     1      -0.225  -2.324   9.709  1.00  0.00    -0.248 NA
ATOM     40  C   UNL     1       0.846  -0.330   9.143  1.00  0.00     0.031 C 
ATOM     41  C   UNL     1       0.880  -3.987   5.692  1.00  0.00     0.029 A 
ATOM     42  N   UNL     1      -0.079  -4.439   7.663  1.00  0.00    -0.354 N 
ATOM     43  C   UNL     1      -0.307  -1.433  10.773  1.00  0.00     0.074 A 
ATOM     44  C   UNL     1       0.393  -0.232  10.382  1.00  0.00     0.031 C 
ATOM     45  C   UNL     1       0.458  -5.265   5.657  1.00  0.00     0.029 A 
ATOM     46  C   UNL     1      -0.153  -5.607   6.941  1.00  0.00     0.049 A 
ATOM     47  H   UNL     1      -0.447  -4.343   8.571  1.00  0.00     0.167 HD
ATOM     48  C   UNL     1      -0.917  -1.593  11.970  1.00  0.00     0.034 A 
ATOM     49  C   UNL     1      -0.652  -6.811   7.288  1.00  0.00     0.034 A 
ATOM     50  C   UNL     1      -1.598  -2.793  12.364  1.00  0.00     0.049 A 
ATOM     51  C   UNL     1      -1.296  -6.976   8.645  1.00  0.00     0.074 A 
ATOM     52  C   UNL     1      -2.275  -3.050  13.541  1.00  0.00     0.029 A 
ATOM     53  N   UNL     1      -1.660  -3.949  11.602  1.00  0.00    -0.354 N 
ATOM     54  N   UNL     1      -1.466  -6.090   9.597  1.00  0.00    -0.248 NA
ATOM     55  C   UNL     1      -1.856  -8.300   8.957  1.00  0.00     0.031 C 
ATOM     56  C   UNL     1      -2.702  -4.381  13.513  1.00  0.00     0.029 A 
ATOM     57  C   UNL     1      -2.351  -4.929  12.290  1.00  0.00     0.049 A 
ATOM     58  H   UNL     1      -1.271  -4.055  10.704  1.00  0.00     0.167 HD
ATOM     59  C   UNL     1      -2.200  -6.730  10.592  1.00  0.00     0.074 A 
ATOM     60  C   UNL     1      -2.448  -8.077  10.122  1.00  0.00     0.031 C 
ATOM     61  C   UNL     1      -2.631  -6.249  11.785  1.00  0.00     0.034 A 
BRANCH  48  62
ATOM     62  C   UNL     1      -0.852  -0.444  12.941  1.00  0.00     0.023 A 
ATOM     63  C   UNL     1      -1.563   0.746  12.683  1.00  0.00     0.012 A 
ATOM     64  C   UNL     1      -0.098  -0.555  14.124  1.00  0.00     0.148 A 
ATOM     65  C   UNL     1      -1.493   1.821  13.568  1.00  0.00     0.002 A 
ATOM     66  C   UNL     1      -0.075   0.499  15.028  1.00  0.00     0.091 A 
ATOM     67  F   UNL     1       0.595  -1.683  14.337  1.00  0.00    -0.205 F 
ATOM     68  C   UNL     1      -0.758   1.693  14.745  1.00  0.00     0.022 A 
BRANCH  66  69
ATOM     69  S   UNL     1       0.773   0.401  16.607  1.00  0.00     0.127 S 
ATOM     70  O   UNL     1       1.851   1.372  16.424  1.00  0.00    -0.237 OA
ATOM     71  O   UNL     1      -0.273   0.820  17.540  1.00  0.00    -0.237 OA
ATOM     72  O   UNL     1       1.201  -0.983  16.751  1.00  0.00    -0.744 OA
ENDBRANCH  66  69
ENDBRANCH  48  62
BRANCH  49  73
ATOM     73  C   UNL     1      -0.606  -7.954   6.330  1.00  0.00     0.023 A 
ATOM     74  C   UNL     1      -1.803  -8.469   5.794  1.00  0.00     0.012 A 
ATOM     75  C   UNL     1       0.618  -8.548   5.966  1.00  0.00     0.148 A 
ATOM     76  C   UNL     1      -1.786  -9.578   4.947  1.00  0.00     0.002 A 
ATOM     77  C   UNL     1       0.633  -9.618   5.079  1.00  0.00     0.091 A 
ATOM     78  F   UNL     1       1.745  -8.054   6.498  1.00  0.00    -0.205 F 
ATOM     79  C   UNL     1      -0.568 -10.148   4.583  1.00  0.00     0.022 A 
BRANCH  77  80
ATOM     80  S   UNL     1       2.157 -10.350   4.472  1.00  0.00     0.127 S 
ATOM     81  O   UNL     1       2.095 -11.691   5.048  1.00  0.00    -0.237 OA
ATOM     82  O   UNL     1       1.960 -10.292   3.024  1.00  0.00    -0.237 OA
ATOM     83  O   UNL     1       3.231  -9.502   4.971  1.00  0.00    -0.744 OA
ENDBRANCH  77  80
ENDBRANCH  49  73
BRANCH  61  84
ATOM     84  C   UNL     1      -3.489  -7.150  12.639  1.00  0.00     0.023 A 
ATOM     85  C   UNL     1      -2.941  -8.290  13.258  1.00  0.00     0.012 A 
ATOM     86  C   UNL     1      -4.839  -6.818  12.876  1.00  0.00     0.148 A 
ATOM     87  C   UNL     1      -3.736  -9.115  14.055  1.00  0.00     0.002 A 
ATOM     88  C   UNL     1      -5.608  -7.609  13.719  1.00  0.00     0.091 A 
ATOM     89  F   UNL     1      -5.348  -5.736  12.269  1.00  0.00    -0.205 F 
ATOM     90  C   UNL     1      -5.064  -8.768  14.294  1.00  0.00     0.022 A 
BRANCH  88  91
ATOM     91  S   UNL     1      -7.292  -7.177  14.169  1.00  0.00     0.127 S 
ATOM     92  O   UNL     1      -8.063  -8.170  13.423  1.00  0.00    -0.237 OA
ATOM     93  O   UNL     1      -7.285  -7.373  15.619  1.00  0.00    -0.237 OA
ATOM     94  O   UNL     1      -7.480  -5.795  13.748  1.00  0.00    -0.744 OA
ENDBRANCH  88  91
ENDBRANCH  61  84
ENDBRANCH  35  36
ENDBRANCH  28  30
ENDBRANCH  27  28
ENDBRANCH  26  27
ENDBRANCH  25  26
ENDBRANCH  24  25
ENDBRANCH   1  24
TORSDOF 21
