REMARK SMILES O=C(N[C@@H]1C=C[C@@H](C(=O)OCCOCCOCCOC(=O)c2ccc(-c3c4nc(c(-c5cccc(S(=O)(=O)[O-])c5F)c5ccc([nH]5)c(-c5cccc(S(=O)(=O)[O-])c5F)c5nc(c(-c6cccc(S(=O)(=O)[O-])c6F)c6ccc3[nH]6)C=C5)C=C4)cc2)C1)c1ccc2ncccc2c1
REMARK SMILES IDX 15 1 14 2 13 3 12 4 11 5 10 6 8 7 9 8 7 9 4 10 5 11 85 12
REMARK SMILES IDX 6 13 3 14 1 15 2 16 86 18 87 19 95 20 88 21 94 22 89 23
REMARK SMILES IDX 93 24 90 25 92 26 91 27 16 28 17 29 18 30 19 31 20 32 21 33
REMARK SMILES IDX 22 34 23 35 84 36 24 37 83 38 25 39 26 40 27 41 77 42 28 43
REMARK SMILES IDX 82 44 76 45 78 46 29 47 81 48 75 49 74 50 30 52 62 53 42 54
REMARK SMILES IDX 61 55 43 56 46 57 60 58 79 59 44 60 45 61 59 63 80 64 47 65
REMARK SMILES IDX 31 66 32 67 40 68 33 69 35 70 41 71 34 72 36 73 37 74 38 75
REMARK SMILES IDX 39 76 63 77 64 78 72 79 65 80 67 81 73 82 66 83 68 84 69 85
REMARK SMILES IDX 70 86 71 87 48 88 49 89 57 90 50 91 52 92 58 93 51 94 53 95
REMARK SMILES IDX 54 96 55 97 56 98
REMARK H PARENT 3 17 78 51 46 62
REMARK Flexibility Score: inf
ROOT
ATOM      1  C   UNL     1       5.420   5.170   1.246  1.00  0.00     0.188 C 
ENDROOT
BRANCH   1   2
ATOM      2  C   UNL     1       6.763   5.742   0.746  1.00  0.00     0.188 C 
BRANCH   2   3
ATOM      3  O   UNL     1       6.800   7.053   0.199  1.00  0.00    -0.376 OA
BRANCH   3   4
ATOM      4  C   UNL     1       5.811   7.418  -0.755  1.00  0.00     0.202 C 
BRANCH   4   5
ATOM      5  C   UNL     1       5.626   6.505  -1.976  1.00  0.00     0.261 C 
BRANCH   5   6
ATOM      6  O   UNL     1       5.475   5.113  -1.633  1.00  0.00    -0.463 OA
BRANCH   6   7
ATOM      7  C   UNL     1       6.009   4.224  -2.514  1.00  0.00     0.312 C 
ATOM      8  O   UNL     1       6.452   4.540  -3.614  1.00  0.00    -0.252 OA
BRANCH   7   9
ATOM      9  C   UNL     1       6.107   2.797  -1.949  1.00  0.00     0.124 C 
ATOM     10  C   UNL     1       4.484   1.045  -1.229  1.00  0.00     0.106 C 
ATOM     11  C   UNL     1       4.894   0.898  -2.659  1.00  0.00    -0.006 C 
ATOM     12  C   UNL     1       5.117   2.384  -0.847  1.00  0.00     0.048 C 
ATOM     13  C   UNL     1       5.791   1.814  -3.036  1.00  0.00    -0.014 C 
BRANCH  10  14
ATOM     14  N   UNL     1       4.978  -0.125  -0.530  1.00  0.00    -0.346 N 
ATOM     15  O   UNL     1       5.414  -1.628   1.061  1.00  0.00    -0.269 OA
ATOM     16  C   UNL     1       5.021  -0.495   0.786  1.00  0.00     0.251 C 
ATOM     17  H   UNL     1       5.366  -0.799  -1.133  1.00  0.00     0.164 HD
BRANCH  16  18
ATOM     18  C   UNL     1       4.680   0.413   1.902  1.00  0.00     0.040 A 
ATOM     19  C   UNL     1       3.519   1.179   1.943  1.00  0.00     0.016 A 
ATOM     20  C   UNL     1       5.542   0.410   3.010  1.00  0.00     0.024 A 
ATOM     21  C   UNL     1       3.248   1.960   3.076  1.00  0.00     0.030 A 
ATOM     22  C   UNL     1       5.260   1.190   4.144  1.00  0.00     0.001 A 
ATOM     23  C   UNL     1       4.097   1.985   4.178  1.00  0.00     0.070 A 
ATOM     24  C   UNL     1       6.114   1.219   5.257  1.00  0.00     0.012 A 
ATOM     25  N   UNL     1       3.793   2.764   5.226  1.00  0.00    -0.256 NA
ATOM     26  C   UNL     1       5.811   2.040   6.337  1.00  0.00     0.021 A 
ATOM     27  C   UNL     1       4.652   2.788   6.273  1.00  0.00     0.112 A 
ENDBRANCH  16  18
ENDBRANCH  10  14
ENDBRANCH   7   9
ENDBRANCH   6   7
ENDBRANCH   5   6
ENDBRANCH   4   5
ENDBRANCH   3   4
ENDBRANCH   2   3
ENDBRANCH   1   2
BRANCH   1  28
ATOM     28  O   UNL     1       4.280   6.001   1.112  1.00  0.00    -0.376 OA
BRANCH  28  29
ATOM     29  C   UNL     1       3.690   6.370   2.357  1.00  0.00     0.202 C 
BRANCH  29  30
ATOM     30  C   UNL     1       4.577   7.287   3.209  1.00  0.00     0.261 C 
BRANCH  30  31
ATOM     31  O   UNL     1       5.851   6.684   3.518  1.00  0.00    -0.460 OA
BRANCH  31  32
ATOM     32  C   UNL     1       5.927   5.936   4.635  1.00  0.00     0.338 C 
ATOM     33  O   UNL     1       5.064   5.815   5.497  1.00  0.00    -0.246 OA
BRANCH  32  34
ATOM     34  C   UNL     1       7.245   5.270   4.678  1.00  0.00     0.060 A 
ATOM     35  C   UNL     1       7.483   4.076   3.983  1.00  0.00     0.016 A 
ATOM     36  C   UNL     1       8.242   5.810   5.486  1.00  0.00     0.016 A 
ATOM     37  C   UNL     1       8.704   3.407   4.110  1.00  0.00     0.010 A 
ATOM     38  C   UNL     1       9.465   5.144   5.610  1.00  0.00     0.010 A 
ATOM     39  C   UNL     1       9.695   3.924   4.949  1.00  0.00    -0.014 A 
BRANCH  39  40
ATOM     40  C   UNL     1      10.939   3.164   5.225  1.00  0.00     0.031 A 
ATOM     41  C   UNL     1      11.123   2.512   6.567  1.00  0.00     0.074 A 
ATOM     42  C   UNL     1      11.923   3.104   4.310  1.00  0.00     0.049 A 
ATOM     43  N   UNL     1      12.181   1.935   7.072  1.00  0.00    -0.248 NA
ATOM     44  C   UNL     1       9.953   2.514   7.461  1.00  0.00     0.031 C 
ATOM     45  C   UNL     1      11.861   3.672   2.965  1.00  0.00     0.029 A 
ATOM     46  N   UNL     1      13.189   2.579   4.399  1.00  0.00    -0.354 N 
ATOM     47  C   UNL     1      11.825   1.545   8.357  1.00  0.00     0.074 A 
ATOM     48  C   UNL     1      10.446   1.942   8.551  1.00  0.00     0.031 C 
ATOM     49  C   UNL     1      13.054   3.509   2.369  1.00  0.00     0.029 A 
ATOM     50  C   UNL     1      13.974   2.868   3.307  1.00  0.00     0.049 A 
ATOM     51  H   UNL     1      13.503   2.048   5.166  1.00  0.00     0.167 HD
ATOM     52  C   UNL     1      12.576   0.917   9.292  1.00  0.00     0.034 A 
ATOM     53  C   UNL     1      15.294   2.686   3.105  1.00  0.00     0.034 A 
ATOM     54  C   UNL     1      13.947   0.523   9.098  1.00  0.00     0.049 A 
ATOM     55  C   UNL     1      16.125   2.030   4.177  1.00  0.00     0.074 A 
ATOM     56  C   UNL     1      14.779  -0.155   9.971  1.00  0.00     0.029 A 
ATOM     57  N   UNL     1      14.695   0.793   7.963  1.00  0.00    -0.354 N 
ATOM     58  N   UNL     1      15.752   1.576   5.348  1.00  0.00    -0.248 NA
ATOM     59  C   UNL     1      17.554   1.840   3.887  1.00  0.00     0.031 C 
ATOM     60  C   UNL     1      16.042  -0.263   9.378  1.00  0.00     0.029 A 
ATOM     61  C   UNL     1      15.986   0.315   8.120  1.00  0.00     0.049 A 
ATOM     62  H   UNL     1      14.359   1.257   7.162  1.00  0.00     0.167 HD
ATOM     63  C   UNL     1      16.890   1.018   5.923  1.00  0.00     0.074 A 
ATOM     64  C   UNL     1      17.961   1.176   4.961  1.00  0.00     0.031 C 
ATOM     65  C   UNL     1      17.036   0.438   7.140  1.00  0.00     0.034 A 
BRANCH  52  66
ATOM     66  C   UNL     1      11.930   0.618  10.620  1.00  0.00     0.023 A 
ATOM     67  C   UNL     1      10.961  -0.402  10.715  1.00  0.00     0.012 A 
ATOM     68  C   UNL     1      12.313   1.318  11.780  1.00  0.00     0.148 A 
ATOM     69  C   UNL     1      10.359  -0.696  11.939  1.00  0.00     0.002 A 
ATOM     70  C   UNL     1      11.739   0.990  13.004  1.00  0.00     0.091 A 
ATOM     71  F   UNL     1      13.216   2.302  11.665  1.00  0.00    -0.205 F 
ATOM     72  C   UNL     1      10.755  -0.008  13.083  1.00  0.00     0.022 A 
BRANCH  70  73
ATOM     73  S   UNL     1      12.238   1.770  14.543  1.00  0.00     0.127 S 
ATOM     74  O   UNL     1      11.092   2.634  14.820  1.00  0.00    -0.237 OA
ATOM     75  O   UNL     1      12.369   0.623  15.442  1.00  0.00    -0.237 OA
ATOM     76  O   UNL     1      13.488   2.459  14.255  1.00  0.00    -0.744 OA
ENDBRANCH  70  73
ENDBRANCH  52  66
BRANCH  53  77
ATOM     77  C   UNL     1      15.910   3.129   1.823  1.00  0.00     0.023 A 
ATOM     78  C   UNL     1      16.352   2.166   0.896  1.00  0.00     0.012 A 
ATOM     79  C   UNL     1      16.017   4.496   1.500  1.00  0.00     0.148 A 
ATOM     80  C   UNL     1      16.908   2.558  -0.322  1.00  0.00     0.002 A 
ATOM     81  C   UNL     1      16.519   4.878   0.262  1.00  0.00     0.091 A 
ATOM     82  F   UNL     1      15.607   5.396   2.406  1.00  0.00    -0.205 F 
ATOM     83  C   UNL     1      16.979   3.911  -0.645  1.00  0.00     0.022 A 
BRANCH  81  84
ATOM     84  S   UNL     1      16.526   6.586  -0.293  1.00  0.00     0.127 S 
ATOM     85  O   UNL     1      17.956   6.878  -0.343  1.00  0.00    -0.237 OA
ATOM     86  O   UNL     1      15.871   6.479  -1.597  1.00  0.00    -0.237 OA
ATOM     87  O   UNL     1      15.765   7.328   0.704  1.00  0.00    -0.744 OA
ENDBRANCH  81  84
ENDBRANCH  53  77
BRANCH  65  88
ATOM     88  C   UNL     1      18.396  -0.106   7.499  1.00  0.00     0.023 A 
ATOM     89  C   UNL     1      19.453   0.778   7.794  1.00  0.00     0.012 A 
ATOM     90  C   UNL     1      18.607  -1.496   7.610  1.00  0.00     0.148 A 
ATOM     91  C   UNL     1      20.707   0.287   8.160  1.00  0.00     0.002 A 
ATOM     92  C   UNL     1      19.845  -1.975   8.024  1.00  0.00     0.091 A 
ATOM     93  F   UNL     1      17.595  -2.322   7.308  1.00  0.00    -0.205 F 
ATOM     94  C   UNL     1      20.899  -1.086   8.286  1.00  0.00     0.022 A 
BRANCH  92  95
ATOM     95  S   UNL     1      20.155  -3.723   8.306  1.00  0.00     0.127 S 
ATOM     96  O   UNL     1      21.001  -4.063   7.163  1.00  0.00    -0.237 OA
ATOM     97  O   UNL     1      20.846  -3.712   9.595  1.00  0.00    -0.237 OA
ATOM     98  O   UNL     1      18.847  -4.363   8.328  1.00  0.00    -0.744 OA
ENDBRANCH  92  95
ENDBRANCH  65  88
ENDBRANCH  39  40
ENDBRANCH  32  34
ENDBRANCH  31  32
ENDBRANCH  30  31
ENDBRANCH  29  30
ENDBRANCH  28  29
ENDBRANCH   1  28
TORSDOF 22
