REMARK SMILES Cc1nc(CCNc2nccc(-c3cc(C(=O)OCCOCCOCCOC(=O)c4ccc(-c5c6nc(c(-c7cccc(S(=O)(=O)[O-])c7F)c7ccc([nH]7)c(-c7cccc(S(=O)(=O)[O-])c7F)c7nc(c(-c8cccc(S(=O)(=O)[O-])c8F)c8ccc5[nH]8)C=C7)C=C6)cc4)ccn3)n2)cc(=O)[nH]1
REMARK SMILES IDX 22 1 21 2 20 3 19 4 18 5 16 6 17 7 15 8 13 9 14 10 95 11
REMARK SMILES IDX 94 12 93 13 12 14 8 15 9 16 96 17 10 18 11 19 7 20 6 22 5 23
REMARK SMILES IDX 4 24 1 25 2 26 3 27 100 28 98 29 97 31 99 32 23 33 24 34
REMARK SMILES IDX 25 35 26 36 27 37 28 38 29 39 30 40 31 41 92 42 32 43 91 44
REMARK SMILES IDX 33 45 34 46 35 47 85 48 36 49 90 50 84 51 86 52 37 53 89 54
REMARK SMILES IDX 83 55 82 56 38 58 70 59 50 60 69 61 51 62 54 63 68 64 87 65
REMARK SMILES IDX 52 66 53 67 67 69 88 70 55 71 39 72 40 73 48 74 41 75 43 76
REMARK SMILES IDX 49 77 42 78 44 79 45 80 46 81 47 82 71 83 72 84 80 85 73 86
REMARK SMILES IDX 75 87 81 88 74 89 76 90 77 91 78 92 79 93 56 94 57 95 65 96
REMARK SMILES IDX 58 97 60 98 66 99 59 100 61 101 62 102 63 103 64 104
REMARK H PARENT 7 21 100 30 86 57 54 68
REMARK Flexibility Score: inf
ROOT
ATOM      1  C   UNL     1       1.061  12.595   3.338  1.00  0.00     0.188 C 
ENDROOT
BRANCH   1   2
ATOM      2  O   UNL     1       1.366  13.866   2.786  1.00  0.00    -0.376 OA
BRANCH   2   3
ATOM      3  C   UNL     1       2.295  13.973   1.718  1.00  0.00     0.202 C 
BRANCH   3   4
ATOM      4  C   UNL     1       3.652  13.262   1.787  1.00  0.00     0.261 C 
BRANCH   4   5
ATOM      5  O   UNL     1       3.556  11.856   2.058  1.00  0.00    -0.460 OA
BRANCH   5   6
ATOM      6  C   UNL     1       4.230  11.429   3.154  1.00  0.00     0.338 C 
ATOM      7  O   UNL     1       4.992  12.072   3.854  1.00  0.00    -0.246 OA
BRANCH   6   8
ATOM      8  C   UNL     1       3.779  10.069   3.500  1.00  0.00     0.063 A 
ATOM      9  C   UNL     1       3.283   7.798   2.936  1.00  0.00     0.090 A 
ATOM     10  C   UNL     1       3.713   9.060   2.538  1.00  0.00     0.046 A 
ATOM     11  N   UNL     1       2.886   7.555   4.215  1.00  0.00    -0.255 NA
ATOM     12  C   UNL     1       2.945   8.556   5.118  1.00  0.00     0.112 A 
ATOM     13  C   UNL     1       3.402   9.820   4.817  1.00  0.00     0.036 A 
BRANCH   9  14
ATOM     14  C   UNL     1       3.373   6.614   2.054  1.00  0.00     0.094 A 
ATOM     15  C   UNL     1       2.538   4.543   1.499  1.00  0.00     0.223 A 
ATOM     16  N   UNL     1       3.630   4.220   0.793  1.00  0.00    -0.222 NA
ATOM     17  N   UNL     1       2.352   5.723   2.097  1.00  0.00    -0.211 NA
ATOM     18  C   UNL     1       4.588   5.154   0.694  1.00  0.00     0.117 A 
ATOM     19  C   UNL     1       4.518   6.372   1.317  1.00  0.00     0.051 A 
BRANCH  15  20
ATOM     20  N   UNL     1       1.638   3.526   1.668  1.00  0.00    -0.354 N 
ATOM     21  H   UNL     1       1.959   2.642   1.958  1.00  0.00     0.163 HD
BRANCH  20  22
ATOM     22  C   UNL     1       0.222   3.723   1.429  1.00  0.00     0.122 C 
BRANCH  22  23
ATOM     23  C   UNL     1      -0.190   3.161   0.052  1.00  0.00     0.077 C 
BRANCH  23  24
ATOM     24  C   UNL     1      -0.086   1.647  -0.053  1.00  0.00     0.050 A 
ATOM     25  C   UNL     1      -2.439  -1.187   0.176  1.00  0.00     0.087 C 
ATOM     26  C   UNL     1      -1.205  -0.343   0.040  1.00  0.00     0.105 A 
ATOM     27  N   UNL     1      -1.261   0.947   0.121  1.00  0.00    -0.240 NA
ATOM     28  N   UNL     1      -0.049  -1.038  -0.179  1.00  0.00    -0.311 N 
ATOM     29  C   UNL     1       1.141  -0.410  -0.376  1.00  0.00     0.251 A 
ATOM     30  H   UNL     1      -0.079  -2.022  -0.194  1.00  0.00     0.171 HD
ATOM     31  C   UNL     1       1.084   1.056  -0.348  1.00  0.00     0.095 A 
ATOM     32  O   UNL     1       2.191  -1.014  -0.562  1.00  0.00    -0.270 OA
ENDBRANCH  23  24
ENDBRANCH  22  23
ENDBRANCH  20  22
ENDBRANCH  15  20
ENDBRANCH   9  14
ENDBRANCH   6   8
ENDBRANCH   5   6
ENDBRANCH   4   5
ENDBRANCH   3   4
ENDBRANCH   2   3
ENDBRANCH   1   2
BRANCH   1  33
ATOM     33  C   UNL     1       0.584  11.449   2.422  1.00  0.00     0.188 C 
BRANCH  33  34
ATOM     34  O   UNL     1       0.538  11.685   1.035  1.00  0.00    -0.376 OA
BRANCH  34  35
ATOM     35  C   UNL     1      -0.535  12.401   0.450  1.00  0.00     0.202 C 
BRANCH  35  36
ATOM     36  C   UNL     1      -1.796  12.922   1.168  1.00  0.00     0.261 C 
BRANCH  36  37
ATOM     37  O   UNL     1      -1.826  12.899   2.593  1.00  0.00    -0.460 OA
BRANCH  37  38
ATOM     38  C   UNL     1      -2.590  11.923   3.143  1.00  0.00     0.338 C 
ATOM     39  O   UNL     1      -3.196  11.042   2.558  1.00  0.00    -0.246 OA
BRANCH  38  40
ATOM     40  C   UNL     1      -2.443  11.986   4.608  1.00  0.00     0.060 A 
ATOM     41  C   UNL     1      -1.836  10.911   5.268  1.00  0.00     0.016 A 
ATOM     42  C   UNL     1      -2.927  13.083   5.322  1.00  0.00     0.016 A 
ATOM     43  C   UNL     1      -1.733  10.920   6.659  1.00  0.00     0.010 A 
ATOM     44  C   UNL     1      -2.838  13.081   6.716  1.00  0.00     0.010 A 
ATOM     45  C   UNL     1      -2.267  11.988   7.392  1.00  0.00    -0.014 A 
BRANCH  45  46
ATOM     46  C   UNL     1      -2.376  11.894   8.867  1.00  0.00     0.031 A 
ATOM     47  C   UNL     1      -3.686  11.464   9.468  1.00  0.00     0.074 A 
ATOM     48  C   UNL     1      -1.338  12.208   9.662  1.00  0.00     0.049 A 
ATOM     49  N   UNL     1      -4.026  11.357  10.725  1.00  0.00    -0.248 NA
ATOM     50  C   UNL     1      -4.759  11.113   8.522  1.00  0.00     0.031 C 
ATOM     51  C   UNL     1      -0.020  12.641   9.201  1.00  0.00     0.029 A 
ATOM     52  N   UNL     1      -1.244  12.239  11.031  1.00  0.00    -0.354 N 
ATOM     53  C   UNL     1      -5.356  10.954  10.724  1.00  0.00     0.074 A 
ATOM     54  C   UNL     1      -5.765  10.845   9.341  1.00  0.00     0.031 C 
ATOM     55  C   UNL     1       0.742  12.927  10.271  1.00  0.00     0.029 A 
ATOM     56  C   UNL     1      -0.040  12.720  11.489  1.00  0.00     0.049 A 
ATOM     57  H   UNL     1      -1.970  11.945  11.629  1.00  0.00     0.167 HD
ATOM     58  C   UNL     1      -6.161  10.685  11.779  1.00  0.00     0.034 A 
ATOM     59  C   UNL     1       0.372  12.984  12.745  1.00  0.00     0.034 A 
ATOM     60  C   UNL     1      -5.750  10.780  13.153  1.00  0.00     0.049 A 
ATOM     61  C   UNL     1      -0.553  12.699  13.902  1.00  0.00     0.074 A 
ATOM     62  C   UNL     1      -6.479  10.480  14.290  1.00  0.00     0.029 A 
ATOM     63  N   UNL     1      -4.508  11.221  13.579  1.00  0.00    -0.354 N 
ATOM     64  N   UNL     1      -1.763  12.194  13.889  1.00  0.00    -0.248 NA
ATOM     65  C   UNL     1      -0.042  12.990  15.251  1.00  0.00     0.031 C 
ATOM     66  C   UNL     1      -5.685  10.767  15.405  1.00  0.00     0.029 A 
ATOM     67  C   UNL     1      -4.452  11.215  14.962  1.00  0.00     0.049 A 
ATOM     68  H   UNL     1      -3.773  11.498  12.985  1.00  0.00     0.167 HD
ATOM     69  C   UNL     1      -2.142  12.072  15.223  1.00  0.00     0.074 A 
ATOM     70  C   UNL     1      -1.025  12.538  16.018  1.00  0.00     0.031 C 
ATOM     71  C   UNL     1      -3.313  11.627  15.743  1.00  0.00     0.034 A 
BRANCH  58  72
ATOM     72  C   UNL     1      -7.567  10.235  11.484  1.00  0.00     0.023 A 
ATOM     73  C   UNL     1      -7.792   8.938  10.980  1.00  0.00     0.012 A 
ATOM     74  C   UNL     1      -8.665  11.074  11.753  1.00  0.00     0.148 A 
ATOM     75  C   UNL     1      -9.088   8.494  10.719  1.00  0.00     0.002 A 
ATOM     76  C   UNL     1      -9.956  10.609  11.531  1.00  0.00     0.091 A 
ATOM     77  F   UNL     1      -8.428  12.313  12.209  1.00  0.00    -0.205 F 
ATOM     78  C   UNL     1     -10.168   9.324  11.005  1.00  0.00     0.022 A 
BRANCH  76  79
ATOM     79  S   UNL     1     -11.415  11.573  11.938  1.00  0.00     0.127 S 
ATOM     80  O   UNL     1     -11.915  11.927  10.610  1.00  0.00    -0.237 OA
ATOM     81  O   UNL     1     -12.236  10.601  12.659  1.00  0.00    -0.237 OA
ATOM     82  O   UNL     1     -10.946  12.690  12.747  1.00  0.00    -0.744 OA
ENDBRANCH  76  79
ENDBRANCH  58  72
BRANCH  59  83
ATOM     83  C   UNL     1       1.742  13.522  12.985  1.00  0.00     0.023 A 
ATOM     84  C   UNL     1       2.704  12.713  13.619  1.00  0.00     0.012 A 
ATOM     85  C   UNL     1       2.096  14.825  12.584  1.00  0.00     0.148 A 
ATOM     86  C   UNL     1       3.985  13.202  13.878  1.00  0.00     0.002 A 
ATOM     87  C   UNL     1       3.389  15.287  12.797  1.00  0.00     0.091 A 
ATOM     88  F   UNL     1       1.160  15.586  12.000  1.00  0.00    -0.205 F 
ATOM     89  C   UNL     1       4.331  14.483  13.459  1.00  0.00     0.022 A 
BRANCH  87  90
ATOM     90  S   UNL     1       3.958  16.877  12.185  1.00  0.00     0.127 S 
ATOM     91  O   UNL     1       4.114  17.636  13.424  1.00  0.00    -0.237 OA
ATOM     92  O   UNL     1       5.212  16.514  11.524  1.00  0.00    -0.237 OA
ATOM     93  O   UNL     1       2.916  17.346  11.282  1.00  0.00    -0.744 OA
ENDBRANCH  87  90
ENDBRANCH  59  83
BRANCH  71  94
ATOM     94  C   UNL     1      -3.445  11.577  17.244  1.00  0.00     0.023 A 
ATOM     95  C   UNL     1      -3.588  12.772  17.976  1.00  0.00     0.012 A 
ATOM     96  C   UNL     1      -3.512  10.341  17.918  1.00  0.00     0.148 A 
ATOM     97  C   UNL     1      -3.763  12.739  19.360  1.00  0.00     0.002 A 
ATOM     98  C   UNL     1      -3.736  10.314  19.290  1.00  0.00     0.091 A 
ATOM     99  F   UNL     1      -3.357   9.215  17.207  1.00  0.00    -0.205 F 
ATOM    100  C   UNL     1      -3.850  11.512  20.014  1.00  0.00     0.022 A 
BRANCH  98 101
ATOM    101  S   UNL     1      -3.959   8.781  20.200  1.00  0.00     0.127 S 
ATOM    102  O   UNL     1      -2.702   8.687  20.939  1.00  0.00    -0.237 OA
ATOM    103  O   UNL     1      -5.131   9.076  21.025  1.00  0.00    -0.237 OA
ATOM    104  O   UNL     1      -4.175   7.747  19.196  1.00  0.00    -0.744 OA
ENDBRANCH  98 101
ENDBRANCH  71  94
ENDBRANCH  45  46
ENDBRANCH  38  40
ENDBRANCH  37  38
ENDBRANCH  36  37
ENDBRANCH  35  36
ENDBRANCH  34  35
ENDBRANCH  33  34
ENDBRANCH   1  33
TORSDOF 25
