REMARK SMILES COc1ccc(O[C@H]2CC[C@@]([NH2+]C(C)C)(C(=O)OCCOCCOCCOC(=O)c3ccc(-c4c5nc(c(-c6cccc(S(=O)(=O)[O-])c6F)c6ccc([nH]6)c(-c6cccc(S(=O)(=O)[O-])c6F)c6nc(c(-c7cccc(S(=O)(=O)[O-])c7F)c7ccc4[nH]7)C=C6)C=C5)cc3)C2)cc1
REMARK SMILES IDX 22 1 21 2 20 3 19 4 18 5 16 6 17 7 11 8 8 9 9 10 93 11 10 12
REMARK SMILES IDX 7 13 6 14 3 15 4 16 95 17 5 18 94 19 2 20 1 21 12 22 13 25
REMARK SMILES IDX 14 26 15 27 23 28 24 29 25 30 26 31 27 32 28 33 29 34 30 35
REMARK SMILES IDX 31 36 92 37 32 38 91 39 33 40 34 41 35 42 85 43 36 44 90 45
REMARK SMILES IDX 84 46 86 47 37 48 89 49 83 50 82 51 38 53 70 54 50 55 69 56
REMARK SMILES IDX 51 57 54 58 68 59 87 60 52 61 53 62 67 64 88 65 55 66 39 67
REMARK SMILES IDX 40 68 48 69 41 70 43 71 49 72 42 73 44 74 45 75 46 76 47 77
REMARK SMILES IDX 71 78 72 79 80 80 73 81 75 82 81 83 74 84 76 85 77 86 78 87
REMARK SMILES IDX 79 88 56 89 57 90 65 91 58 92 60 93 66 94 59 95 61 96 62 97
REMARK SMILES IDX 63 98 64 99
REMARK H PARENT 12 23 12 24 86 52 54 63
REMARK Flexibility Score: inf
ROOT
ATOM      1  C   UNL     1       5.832   6.456  -6.245  1.00  0.00     0.188 C 
ENDROOT
BRANCH   1   2
ATOM      2  O   UNL     1       6.290   7.684  -5.728  1.00  0.00    -0.376 OA
BRANCH   2   3
ATOM      3  C   UNL     1       7.526   7.738  -5.061  1.00  0.00     0.202 C 
BRANCH   3   4
ATOM      4  C   UNL     1       7.703   6.887  -3.804  1.00  0.00     0.261 C 
BRANCH   4   5
ATOM      5  O   UNL     1       7.196   5.542  -3.875  1.00  0.00    -0.459 OA
BRANCH   5   6
ATOM      6  C   UNL     1       5.887   5.421  -3.509  1.00  0.00     0.368 C 
ATOM      7  O   UNL     1       5.175   6.386  -3.230  1.00  0.00    -0.245 OA
BRANCH   6   8
ATOM      8  C   UNL     1       5.388   3.949  -3.375  1.00  0.00     0.198 C 
ATOM      9  C   UNL     1       3.978   2.854  -5.191  1.00  0.00     0.180 C 
ATOM     10  C   UNL     1       5.209   2.006  -4.930  1.00  0.00     0.052 C 
ATOM     11  C   UNL     1       3.944   3.815  -3.972  1.00  0.00     0.126 C 
ATOM     12  C   UNL     1       6.197   2.890  -4.162  1.00  0.00     0.085 C 
BRANCH   9  13
ATOM     13  O   UNL     1       4.117   3.599  -6.402  1.00  0.00    -0.490 OA
BRANCH  13  14
ATOM     14  C   UNL     1       3.719   3.094  -7.614  1.00  0.00     0.119 A 
ATOM     15  C   UNL     1       3.099   2.496 -10.332  1.00  0.00     0.119 A 
ATOM     16  C   UNL     1       2.965   1.534  -9.320  1.00  0.00     0.050 A 
ATOM     17  C   UNL     1       3.486   3.769  -9.970  1.00  0.00     0.050 A 
ATOM     18  C   UNL     1       3.264   1.829  -7.962  1.00  0.00     0.050 A 
ATOM     19  C   UNL     1       3.825   4.025  -8.644  1.00  0.00     0.050 A 
BRANCH  15  20
ATOM     20  O   UNL     1       2.850   2.111 -11.623  1.00  0.00    -0.497 OA
ATOM     21  C   UNL     1       3.359   2.990 -12.635  1.00  0.00     0.278 C 
ENDBRANCH  15  20
ENDBRANCH  13  14
ENDBRANCH   9  13
BRANCH   8  22
ATOM     22  N   UNL     1       5.491   3.545  -1.935  1.00  0.00    -0.330 N 
ATOM     23  H   UNL     1       6.418   3.143  -1.796  1.00  0.00     0.347 HD
ATOM     24  H   UNL     1       4.711   2.905  -1.788  1.00  0.00     0.347 HD
BRANCH  22  25
ATOM     25  C   UNL     1       5.309   4.597  -0.920  1.00  0.00     0.176 C 
ATOM     26  C   UNL     1       3.838   4.912  -0.670  1.00  0.00     0.075 C 
ATOM     27  C   UNL     1       6.003   4.145   0.365  1.00  0.00     0.075 C 
ENDBRANCH  22  25
ENDBRANCH   8  22
ENDBRANCH   6   8
ENDBRANCH   5   6
ENDBRANCH   4   5
ENDBRANCH   3   4
ENDBRANCH   2   3
ENDBRANCH   1   2
BRANCH   1  28
ATOM     28  C   UNL     1       6.713   5.436  -6.952  1.00  0.00     0.188 C 
BRANCH  28  29
ATOM     29  O   UNL     1       7.978   5.859  -7.391  1.00  0.00    -0.376 OA
BRANCH  29  30
ATOM     30  C   UNL     1       8.017   6.835  -8.424  1.00  0.00     0.202 C 
BRANCH  30  31
ATOM     31  C   UNL     1       6.823   7.062  -9.383  1.00  0.00     0.261 C 
BRANCH  31  32
ATOM     32  O   UNL     1       5.575   7.519  -8.793  1.00  0.00    -0.460 OA
BRANCH  32  33
ATOM     33  C   UNL     1       4.495   7.418  -9.620  1.00  0.00     0.338 C 
ATOM     34  O   UNL     1       4.624   7.208 -10.824  1.00  0.00    -0.246 OA
BRANCH  33  35
ATOM     35  C   UNL     1       3.098   7.377  -9.015  1.00  0.00     0.060 A 
ATOM     36  C   UNL     1       2.750   6.872  -7.757  1.00  0.00     0.016 A 
ATOM     37  C   UNL     1       2.047   7.533  -9.926  1.00  0.00     0.016 A 
ATOM     38  C   UNL     1       1.502   6.273  -7.532  1.00  0.00     0.010 A 
ATOM     39  C   UNL     1       0.743   7.093  -9.632  1.00  0.00     0.010 A 
ATOM     40  C   UNL     1       0.462   6.398  -8.450  1.00  0.00    -0.014 A 
BRANCH  40  41
ATOM     41  C   UNL     1      -0.910   5.885  -8.152  1.00  0.00     0.031 A 
ATOM     42  C   UNL     1      -1.660   5.041  -9.156  1.00  0.00     0.074 A 
ATOM     43  C   UNL     1      -1.524   6.233  -7.000  1.00  0.00     0.049 A 
ATOM     44  N   UNL     1      -2.945   4.810  -9.242  1.00  0.00    -0.248 NA
ATOM     45  C   UNL     1      -0.863   4.368 -10.195  1.00  0.00     0.031 C 
ATOM     46  C   UNL     1      -0.910   6.967  -5.890  1.00  0.00     0.029 A 
ATOM     47  N   UNL     1      -2.827   6.059  -6.591  1.00  0.00    -0.354 N 
ATOM     48  C   UNL     1      -3.125   4.043 -10.390  1.00  0.00     0.074 A 
ATOM     49  C   UNL     1      -1.807   3.804 -10.941  1.00  0.00     0.031 C 
ATOM     50  C   UNL     1      -1.824   7.191  -4.941  1.00  0.00     0.029 A 
ATOM     51  C   UNL     1      -3.117   6.752  -5.436  1.00  0.00     0.049 A 
ATOM     52  H   UNL     1      -3.480   5.500  -7.071  1.00  0.00     0.167 HD
ATOM     53  C   UNL     1      -4.287   3.602 -10.935  1.00  0.00     0.034 A 
ATOM     54  C   UNL     1      -4.290   7.110  -4.880  1.00  0.00     0.034 A 
ATOM     55  C   UNL     1      -5.586   3.812 -10.341  1.00  0.00     0.049 A 
ATOM     56  C   UNL     1      -5.563   6.697  -5.548  1.00  0.00     0.074 A 
ATOM     57  C   UNL     1      -6.821   3.380 -10.797  1.00  0.00     0.029 A 
ATOM     58  N   UNL     1      -5.822   4.517  -9.171  1.00  0.00    -0.354 N 
ATOM     59  N   UNL     1      -5.728   5.982  -6.633  1.00  0.00    -0.248 NA
ATOM     60  C   UNL     1      -6.812   7.130  -4.911  1.00  0.00     0.031 C 
ATOM     61  C   UNL     1      -7.805   3.867  -9.930  1.00  0.00     0.029 A 
ATOM     62  C   UNL     1      -7.181   4.557  -8.904  1.00  0.00     0.049 A 
ATOM     63  H   UNL     1      -5.125   4.930  -8.611  1.00  0.00     0.167 HD
ATOM     64  C   UNL     1      -7.100   5.848  -6.791  1.00  0.00     0.074 A 
ATOM     65  C   UNL     1      -7.718   6.541  -5.678  1.00  0.00     0.031 C 
ATOM     66  C   UNL     1      -7.785   5.215  -7.774  1.00  0.00     0.034 A 
BRANCH  53  67
ATOM     67  C   UNL     1      -4.241   2.873 -12.257  1.00  0.00     0.023 A 
ATOM     68  C   UNL     1      -3.787   1.542 -12.328  1.00  0.00     0.012 A 
ATOM     69  C   UNL     1      -4.766   3.482 -13.418  1.00  0.00     0.148 A 
ATOM     70  C   UNL     1      -3.838   0.837 -13.533  1.00  0.00     0.002 A 
ATOM     71  C   UNL     1      -4.853   2.761 -14.604  1.00  0.00     0.091 A 
ATOM     72  F   UNL     1      -5.183   4.754 -13.337  1.00  0.00    -0.205 F 
ATOM     73  C   UNL     1      -4.381   1.440 -14.665  1.00  0.00     0.022 A 
BRANCH  71  74
ATOM     74  S   UNL     1      -5.612   3.423 -16.093  1.00  0.00     0.127 S 
ATOM     75  O   UNL     1      -4.456   3.561 -16.977  1.00  0.00    -0.237 OA
ATOM     76  O   UNL     1      -6.541   2.357 -16.466  1.00  0.00    -0.237 OA
ATOM     77  O   UNL     1      -6.247   4.674 -15.700  1.00  0.00    -0.744 OA
ENDBRANCH  71  74
ENDBRANCH  53  67
BRANCH  54  78
ATOM     78  C   UNL     1      -4.295   7.952  -3.649  1.00  0.00     0.023 A 
ATOM     79  C   UNL     1      -4.744   7.400  -2.436  1.00  0.00     0.012 A 
ATOM     80  C   UNL     1      -3.802   9.273  -3.664  1.00  0.00     0.148 A 
ATOM     81  C   UNL     1      -4.716   8.154  -1.262  1.00  0.00     0.002 A 
ATOM     82  C   UNL     1      -3.711   9.993  -2.481  1.00  0.00     0.091 A 
ATOM     83  F   UNL     1      -3.399   9.789  -4.835  1.00  0.00    -0.205 F 
ATOM     84  C   UNL     1      -4.185   9.442  -1.281  1.00  0.00     0.022 A 
BRANCH  82  85
ATOM     85  S   UNL     1      -2.897  11.591  -2.383  1.00  0.00     0.127 S 
ATOM     86  O   UNL     1      -4.024  12.492  -2.189  1.00  0.00    -0.237 OA
ATOM     87  O   UNL     1      -2.030  11.420  -1.220  1.00  0.00    -0.237 OA
ATOM     88  O   UNL     1      -2.176  11.740  -3.648  1.00  0.00    -0.744 OA
ENDBRANCH  82  85
ENDBRANCH  54  78
BRANCH  66  89
ATOM     89  C   UNL     1      -9.285   5.190  -7.655  1.00  0.00     0.023 A 
ATOM     90  C   UNL     1     -10.032   6.366  -7.867  1.00  0.00     0.012 A 
ATOM     91  C   UNL     1      -9.955   3.987  -7.359  1.00  0.00     0.148 A 
ATOM     92  C   UNL     1     -11.421   6.353  -7.740  1.00  0.00     0.002 A 
ATOM     93  C   UNL     1     -11.342   3.970  -7.289  1.00  0.00     0.091 A 
ATOM     94  F   UNL     1      -9.223   2.885  -7.141  1.00  0.00    -0.205 F 
ATOM     95  C   UNL     1     -12.075   5.155  -7.462  1.00  0.00     0.022 A 
BRANCH  93  96
ATOM     96  S   UNL     1     -12.275   2.459  -7.028  1.00  0.00     0.127 S 
ATOM     97  O   UNL     1     -12.797   2.660  -5.678  1.00  0.00    -0.237 OA
ATOM     98  O   UNL     1     -13.280   2.530  -8.089  1.00  0.00    -0.237 OA
ATOM     99  O   UNL     1     -11.322   1.366  -7.171  1.00  0.00    -0.744 OA
ENDBRANCH  93  96
ENDBRANCH  66  89
ENDBRANCH  40  41
ENDBRANCH  33  35
ENDBRANCH  32  33
ENDBRANCH  31  32
ENDBRANCH  30  31
ENDBRANCH  29  30
ENDBRANCH  28  29
ENDBRANCH   1  28
TORSDOF 25
