REMARK SMILES CCc1cc(OCCC(=O)OCCOCCOCCOC(=O)c2ccc(-c3c4nc(c(-c5cccc(S(=O)(=O)[O-])c5F)c5ccc([nH]5)c(-c5cccc(S(=O)(=O)[O-])c5F)c5nc(c(-c6cccc(S(=O)(=O)[O-])c6F)c6ccc3[nH]6)C=C5)C=C4)cc2)nc(-c2cnccn2)n1
REMARK SMILES IDX 15 1 14 2 13 3 12 4 11 5 9 6 10 7 8 8 7 9 6 10 5 11 3 12
REMARK SMILES IDX 4 13 94 14 87 15 86 16 2 17 1 18 88 19 89 20 93 21 90 22
REMARK SMILES IDX 92 23 91 24 16 25 17 26 18 27 19 28 20 29 21 30 22 31 23 32
REMARK SMILES IDX 24 33 85 34 25 35 84 36 26 37 27 38 28 39 78 40 29 41 83 42
REMARK SMILES IDX 77 43 79 44 30 45 82 46 76 47 75 48 31 50 63 51 43 52 62 53
REMARK SMILES IDX 44 54 47 55 61 56 80 57 45 58 46 59 60 61 81 62 48 63 32 64
REMARK SMILES IDX 33 65 41 66 34 67 36 68 42 69 35 70 37 71 38 72 39 73 40 74
REMARK SMILES IDX 64 75 65 76 73 77 66 78 68 79 74 80 67 81 69 82 70 83 71 84
REMARK SMILES IDX 72 85 49 86 50 87 58 88 51 89 53 90 59 91 52 92 54 93 55 94
REMARK SMILES IDX 56 95 57 96
REMARK H PARENT 79 49 47 60
REMARK Flexibility Score: inf
ROOT
ATOM      1  C   UNL     1       1.034   4.037  -1.818  1.00  0.00     0.188 C 
ENDROOT
BRANCH   1   2
ATOM      2  O   UNL     1      -0.334   4.061  -1.394  1.00  0.00    -0.376 OA
BRANCH   2   3
ATOM      3  C   UNL     1      -1.128   2.905  -1.650  1.00  0.00     0.202 C 
BRANCH   3   4
ATOM      4  C   UNL     1      -1.810   2.831  -3.024  1.00  0.00     0.261 C 
BRANCH   4   5
ATOM      5  O   UNL     1      -0.848   2.718  -4.087  1.00  0.00    -0.463 OA
BRANCH   5   6
ATOM      6  C   UNL     1      -0.594   3.833  -4.809  1.00  0.00     0.309 C 
ATOM      7  O   UNL     1      -1.212   4.885  -4.710  1.00  0.00    -0.252 OA
BRANCH   6   8
ATOM      8  C   UNL     1       0.532   3.641  -5.798  1.00  0.00     0.164 C 
BRANCH   8   9
ATOM      9  C   UNL     1       1.607   2.610  -5.440  1.00  0.00     0.243 C 
BRANCH   9  10
ATOM     10  O   UNL     1       1.198   1.276  -5.760  1.00  0.00    -0.477 OA
BRANCH  10  11
ATOM     11  C   UNL     1       1.222   0.310  -4.789  1.00  0.00     0.217 A 
ATOM     12  C   UNL     1       0.827  -0.551  -2.608  1.00  0.00     0.048 A 
ATOM     13  C   UNL     1       0.985   0.536  -3.450  1.00  0.00     0.092 A 
ATOM     14  N   UNL     1       0.937  -1.794  -3.074  1.00  0.00    -0.231 NA
ATOM     15  C   UNL     1       1.179  -1.931  -4.392  1.00  0.00     0.183 A 
ATOM     16  N   UNL     1       1.343  -0.931  -5.278  1.00  0.00    -0.192 NA
BRANCH  12  17
ATOM     17  C   UNL     1       0.364  -0.395  -1.182  1.00  0.00     0.053 C 
ATOM     18  C   UNL     1       0.896  -1.431  -0.203  1.00  0.00     0.011 C 
ENDBRANCH  12  17
BRANCH  15  19
ATOM     19  C   UNL     1       1.200  -3.302  -4.873  1.00  0.00     0.126 A 
ATOM     20  C   UNL     1       2.379  -3.910  -5.282  1.00  0.00     0.143 A 
ATOM     21  N   UNL     1       0.032  -4.005  -4.785  1.00  0.00    -0.250 NA
ATOM     22  N   UNL     1       2.453  -5.228  -5.602  1.00  0.00    -0.261 NA
ATOM     23  C   UNL     1       0.104  -5.310  -5.104  1.00  0.00     0.132 A 
ATOM     24  C   UNL     1       1.288  -5.908  -5.495  1.00  0.00     0.131 A 
ENDBRANCH  15  19
ENDBRANCH  10  11
ENDBRANCH   9  10
ENDBRANCH   8   9
ENDBRANCH   6   8
ENDBRANCH   5   6
ENDBRANCH   4   5
ENDBRANCH   3   4
ENDBRANCH   2   3
ENDBRANCH   1   2
BRANCH   1  25
ATOM     25  C   UNL     1       1.978   3.166  -0.960  1.00  0.00     0.188 C 
BRANCH  25  26
ATOM     26  O   UNL     1       2.865   2.393  -1.798  1.00  0.00    -0.376 OA
BRANCH  26  27
ATOM     27  C   UNL     1       3.425   1.223  -1.176  1.00  0.00     0.202 C 
BRANCH  27  28
ATOM     28  C   UNL     1       4.758   1.365  -0.436  1.00  0.00     0.261 C 
BRANCH  28  29
ATOM     29  O   UNL     1       4.926   2.676   0.071  1.00  0.00    -0.460 OA
BRANCH  29  30
ATOM     30  C   UNL     1       5.468   3.516  -0.851  1.00  0.00     0.338 C 
ATOM     31  O   UNL     1       6.059   3.214  -1.863  1.00  0.00    -0.246 OA
BRANCH  30  32
ATOM     32  C   UNL     1       5.003   4.877  -0.529  1.00  0.00     0.060 A 
ATOM     33  C   UNL     1       4.731   5.725  -1.609  1.00  0.00     0.016 A 
ATOM     34  C   UNL     1       4.755   5.279   0.789  1.00  0.00     0.016 A 
ATOM     35  C   UNL     1       4.282   7.014  -1.367  1.00  0.00     0.010 A 
ATOM     36  C   UNL     1       4.290   6.565   1.031  1.00  0.00     0.010 A 
ATOM     37  C   UNL     1       4.117   7.448  -0.046  1.00  0.00    -0.014 A 
BRANCH  37  38
ATOM     38  C   UNL     1       4.065   8.896   0.218  1.00  0.00     0.031 A 
ATOM     39  C   UNL     1       5.362   9.572   0.561  1.00  0.00     0.074 A 
ATOM     40  C   UNL     1       2.912   9.576   0.136  1.00  0.00     0.049 A 
ATOM     41  N   UNL     1       5.595  10.826   0.835  1.00  0.00    -0.248 NA
ATOM     42  C   UNL     1       6.562   8.714   0.605  1.00  0.00     0.031 C 
ATOM     43  C   UNL     1       1.609   9.001  -0.195  1.00  0.00     0.029 A 
ATOM     44  N   UNL     1       2.657  10.903   0.347  1.00  0.00    -0.354 N 
ATOM     45  C   UNL     1       6.955  10.901   1.107  1.00  0.00     0.074 A 
ATOM     46  C   UNL     1       7.496   9.568   0.989  1.00  0.00     0.031 C 
ATOM     47  C   UNL     1       0.681   9.973  -0.139  1.00  0.00     0.029 A 
ATOM     48  C   UNL     1       1.326  11.226   0.250  1.00  0.00     0.049 A 
ATOM     49  H   UNL     1       3.360  11.563   0.548  1.00  0.00     0.167 HD
ATOM     50  C   UNL     1       7.692  11.992   1.411  1.00  0.00     0.034 A 
ATOM     51  C   UNL     1       0.709  12.402   0.473  1.00  0.00     0.034 A 
ATOM     52  C   UNL     1       7.140  13.311   1.518  1.00  0.00     0.049 A 
ATOM     53  C   UNL     1       1.551  13.599   0.837  1.00  0.00     0.074 A 
ATOM     54  C   UNL     1       7.793  14.498   1.785  1.00  0.00     0.029 A 
ATOM     55  N   UNL     1       5.793  13.610   1.379  1.00  0.00    -0.354 N 
ATOM     56  N   UNL     1       2.853  13.684   0.979  1.00  0.00    -0.248 NA
ATOM     57  C   UNL     1       0.842  14.870   1.038  1.00  0.00     0.031 C 
ATOM     58  C   UNL     1       6.832  15.513   1.843  1.00  0.00     0.029 A 
ATOM     59  C   UNL     1       5.588  14.963   1.571  1.00  0.00     0.049 A 
ATOM     60  H   UNL     1       5.086  12.956   1.175  1.00  0.00     0.167 HD
ATOM     61  C   UNL     1       3.123  15.021   1.249  1.00  0.00     0.074 A 
ATOM     62  C   UNL     1       1.849  15.712   1.230  1.00  0.00     0.031 C 
ATOM     63  C   UNL     1       4.311  15.627   1.502  1.00  0.00     0.034 A 
BRANCH  50  64
ATOM     64  C   UNL     1       9.165  11.792   1.641  1.00  0.00     0.023 A 
ATOM     65  C   UNL     1      10.011  11.482   0.556  1.00  0.00     0.012 A 
ATOM     66  C   UNL     1       9.715  11.931   2.929  1.00  0.00     0.148 A 
ATOM     67  C   UNL     1      11.377  11.282   0.755  1.00  0.00     0.002 A 
ATOM     68  C   UNL     1      11.083  11.778   3.112  1.00  0.00     0.091 A 
ATOM     69  F   UNL     1       8.888  12.192   3.952  1.00  0.00    -0.205 F 
ATOM     70  C   UNL     1      11.913  11.441   2.030  1.00  0.00     0.022 A 
BRANCH  68  71
ATOM     71  S   UNL     1      11.881  12.035   4.700  1.00  0.00     0.127 S 
ATOM     72  O   UNL     1      12.312  10.678   5.036  1.00  0.00    -0.237 OA
ATOM     73  O   UNL     1      12.968  12.950   4.350  1.00  0.00    -0.237 OA
ATOM     74  O   UNL     1      10.865  12.600   5.575  1.00  0.00    -0.744 OA
ENDBRANCH  68  71
ENDBRANCH  50  64
BRANCH  51  75
ATOM     75  C   UNL     1      -0.769  12.511   0.330  1.00  0.00     0.023 A 
ATOM     76  C   UNL     1      -1.315  13.269  -0.724  1.00  0.00     0.012 A 
ATOM     77  C   UNL     1      -1.637  11.854   1.225  1.00  0.00     0.148 A 
ATOM     78  C   UNL     1      -2.698  13.399  -0.863  1.00  0.00     0.002 A 
ATOM     79  C   UNL     1      -3.012  11.944   1.048  1.00  0.00     0.091 A 
ATOM     80  F   UNL     1      -1.097  11.149   2.229  1.00  0.00    -0.205 F 
ATOM     81  C   UNL     1      -3.546  12.729   0.016  1.00  0.00     0.022 A 
BRANCH  79  82
ATOM     82  S   UNL     1      -4.176  11.023   2.061  1.00  0.00     0.127 S 
ATOM     83  O   UNL     1      -4.814  12.091   2.828  1.00  0.00    -0.237 OA
ATOM     84  O   UNL     1      -5.028  10.398   1.050  1.00  0.00    -0.237 OA
ATOM     85  O   UNL     1      -3.372  10.086   2.834  1.00  0.00    -0.744 OA
ENDBRANCH  79  82
ENDBRANCH  51  75
BRANCH  63  86
ATOM     86  C   UNL     1       4.297  17.113   1.740  1.00  0.00     0.023 A 
ATOM     87  C   UNL     1       3.769  17.628   2.940  1.00  0.00     0.012 A 
ATOM     88  C   UNL     1       4.883  17.991   0.807  1.00  0.00     0.148 A 
ATOM     89  C   UNL     1       3.788  19.000   3.189  1.00  0.00     0.002 A 
ATOM     90  C   UNL     1       4.948  19.349   1.087  1.00  0.00     0.091 A 
ATOM     91  F   UNL     1       5.368  17.481  -0.335  1.00  0.00    -0.205 F 
ATOM     92  C   UNL     1       4.388  19.857   2.270  1.00  0.00     0.022 A 
BRANCH  90  93
ATOM     93  S   UNL     1       5.794  20.513   0.012  1.00  0.00     0.127 S 
ATOM     94  O   UNL     1       4.674  21.251  -0.568  1.00  0.00    -0.237 OA
ATOM     95  O   UNL     1       6.603  21.279   0.961  1.00  0.00    -0.237 OA
ATOM     96  O   UNL     1       6.565  19.707  -0.925  1.00  0.00    -0.744 OA
ENDBRANCH  90  93
ENDBRANCH  63  86
ENDBRANCH  37  38
ENDBRANCH  30  32
ENDBRANCH  29  30
ENDBRANCH  28  29
ENDBRANCH  27  28
ENDBRANCH  26  27
ENDBRANCH  25  26
ENDBRANCH   1  25
TORSDOF 25
