REMARK SMILES Cc1cc(C(=O)Nc2nc(CC(=O)OCCOCCOCCOC(=O)c3ccc(-c4c5nc(c(-c6cccc(S(=O)(=O)[O-])c6F)c6ccc([nH]6)c(-c6cccc(S(=O)(=O)[O-])c6F)c6nc(c(-c7cccc(S(=O)(=O)[O-])c7F)c7ccc4[nH]7)C=C6)C=C5)cc3)cs2)sc1C
REMARK SMILES IDX 18 1 17 2 16 3 15 4 14 5 12 6 13 7 11 8 10 9 8 10 9 11 90 12
REMARK SMILES IDX 89 13 7 14 5 15 6 16 4 18 1 19 2 20 3 21 92 22 91 23 93 24
REMARK SMILES IDX 19 25 20 26 21 27 22 28 23 29 24 30 25 31 26 32 27 33 88 34
REMARK SMILES IDX 28 35 87 36 29 37 30 38 31 39 81 40 32 41 86 42 80 43 82 44
REMARK SMILES IDX 33 45 85 46 79 47 78 48 34 50 66 51 46 52 65 53 47 54 50 55
REMARK SMILES IDX 64 56 83 57 48 58 49 59 63 61 84 62 51 63 35 64 36 65 44 66
REMARK SMILES IDX 37 67 39 68 45 69 38 70 40 71 41 72 42 73 43 74 67 75 68 76
REMARK SMILES IDX 76 77 69 78 71 79 77 80 70 81 72 82 73 83 74 84 75 85 52 86
REMARK SMILES IDX 53 87 61 88 54 89 56 90 62 91 55 92 57 93 58 94 59 95 60 96
REMARK H PARENT 7 17 82 49 50 60
REMARK Flexibility Score: inf
ROOT
ATOM      1  C   UNL     1       6.699   4.425   1.593  1.00  0.00     0.188 C 
ENDROOT
BRANCH   1   2
ATOM      2  O   UNL     1       7.264   4.729   2.861  1.00  0.00    -0.376 OA
BRANCH   2   3
ATOM      3  C   UNL     1       7.154   3.783   3.921  1.00  0.00     0.202 C 
BRANCH   3   4
ATOM      4  C   UNL     1       5.747   3.300   4.314  1.00  0.00     0.261 C 
BRANCH   4   5
ATOM      5  O   UNL     1       5.042   2.556   3.288  1.00  0.00    -0.463 OA
BRANCH   5   6
ATOM      6  C   UNL     1       3.736   2.874   3.103  1.00  0.00     0.311 C 
ATOM      7  O   UNL     1       3.134   3.677   3.815  1.00  0.00    -0.252 OA
BRANCH   6   8
ATOM      8  C   UNL     1       3.045   2.279   1.891  1.00  0.00     0.179 C 
BRANCH   8   9
ATOM      9  C   UNL     1       3.650   1.135   1.128  1.00  0.00     0.065 A 
ATOM     10  C   UNL     1       3.680  -0.967   0.459  1.00  0.00     0.189 A 
ATOM     11  N   UNL     1       3.221  -0.165   1.391  1.00  0.00    -0.224 NA
ATOM     12  S   UNL     1       4.861  -0.329  -0.587  1.00  0.00    -0.105 S 
ATOM     13  C   UNL     1       4.367   1.227  -0.058  1.00  0.00     0.093 A 
BRANCH  10  14
ATOM     14  N   UNL     1       3.210  -2.183   0.072  1.00  0.00    -0.297 N 
ATOM     15  C   UNL     1       1.876  -2.527   0.001  1.00  0.00     0.267 C 
ATOM     16  O   UNL     1       1.628  -3.734  -0.098  1.00  0.00    -0.268 OA
ATOM     17  H   UNL     1       3.871  -2.868  -0.176  1.00  0.00     0.172 HD
BRANCH  15  18
ATOM     18  C   UNL     1       0.806  -1.526  -0.077  1.00  0.00     0.093 A 
ATOM     19  C   UNL     1      -2.817  -0.508   0.222  1.00  0.00     0.045 C 
ATOM     20  C   UNL     1      -1.339  -0.542   0.033  1.00  0.00    -0.037 A 
ATOM     21  C   UNL     1      -0.542  -1.732   0.167  1.00  0.00     0.029 A 
ATOM     22  C   UNL     1      -0.538   0.546  -0.261  1.00  0.00     0.005 A 
ATOM     23  S   UNL     1       0.999   0.028  -0.780  1.00  0.00    -0.135 S 
ATOM     24  C   UNL     1      -0.866   2.003  -0.269  1.00  0.00     0.056 C 
ENDBRANCH  15  18
ENDBRANCH  10  14
ENDBRANCH   8   9
ENDBRANCH   6   8
ENDBRANCH   5   6
ENDBRANCH   4   5
ENDBRANCH   3   4
ENDBRANCH   2   3
ENDBRANCH   1   2
BRANCH   1  25
ATOM     25  C   UNL     1       6.795   2.982   1.098  1.00  0.00     0.188 C 
BRANCH  25  26
ATOM     26  O   UNL     1       7.755   2.199   1.768  1.00  0.00    -0.376 OA
BRANCH  26  27
ATOM     27  C   UNL     1       8.761   1.589   0.991  1.00  0.00     0.202 C 
BRANCH  27  28
ATOM     28  C   UNL     1       9.687   2.546   0.230  1.00  0.00     0.261 C 
BRANCH  28  29
ATOM     29  O   UNL     1       9.048   3.541  -0.594  1.00  0.00    -0.460 OA
BRANCH  29  30
ATOM     30  C   UNL     1       8.444   3.129  -1.732  1.00  0.00     0.338 C 
ATOM     31  O   UNL     1       8.367   1.977  -2.141  1.00  0.00    -0.246 OA
BRANCH  30  32
ATOM     32  C   UNL     1       7.679   4.274  -2.279  1.00  0.00     0.060 A 
ATOM     33  C   UNL     1       6.282   4.190  -2.353  1.00  0.00     0.016 A 
ATOM     34  C   UNL     1       8.328   5.441  -2.681  1.00  0.00     0.016 A 
ATOM     35  C   UNL     1       5.527   5.278  -2.801  1.00  0.00     0.010 A 
ATOM     36  C   UNL     1       7.574   6.518  -3.162  1.00  0.00     0.010 A 
ATOM     37  C   UNL     1       6.170   6.446  -3.227  1.00  0.00    -0.014 A 
BRANCH  37  38
ATOM     38  C   UNL     1       5.398   7.568  -3.819  1.00  0.00     0.031 A 
ATOM     39  C   UNL     1       5.411   7.760  -5.310  1.00  0.00     0.074 A 
ATOM     40  C   UNL     1       4.727   8.434  -3.035  1.00  0.00     0.049 A 
ATOM     41  N   UNL     1       4.945   8.752  -6.022  1.00  0.00    -0.248 NA
ATOM     42  C   UNL     1       6.033   6.688  -6.105  1.00  0.00     0.031 C 
ATOM     43  C   UNL     1       4.608   8.342  -1.581  1.00  0.00     0.029 A 
ATOM     44  N   UNL     1       4.053   9.589  -3.355  1.00  0.00    -0.354 N 
ATOM     45  C   UNL     1       5.248   8.447  -7.343  1.00  0.00     0.074 A 
ATOM     46  C   UNL     1       5.935   7.173  -7.335  1.00  0.00     0.031 C 
ATOM     47  C   UNL     1       3.945   9.421  -1.128  1.00  0.00     0.029 A 
ATOM     48  C   UNL     1       3.635  10.300  -2.253  1.00  0.00     0.049 A 
ATOM     49  H   UNL     1       3.886   9.879  -4.281  1.00  0.00     0.167 HD
ATOM     50  C   UNL     1       4.973   9.159  -8.461  1.00  0.00     0.034 A 
ATOM     51  C   UNL     1       3.113  11.541  -2.158  1.00  0.00     0.034 A 
ATOM     52  C   UNL     1       4.281  10.420  -8.468  1.00  0.00     0.049 A 
ATOM     53  C   UNL     1       2.886  12.345  -3.414  1.00  0.00     0.074 A 
ATOM     54  C   UNL     1       3.931  11.201  -9.556  1.00  0.00     0.029 A 
ATOM     55  N   UNL     1       3.849  11.094  -7.337  1.00  0.00    -0.354 N 
ATOM     56  N   UNL     1       3.090  12.003  -4.664  1.00  0.00    -0.248 NA
ATOM     57  C   UNL     1       2.341  13.701  -3.248  1.00  0.00     0.031 C 
ATOM     58  C   UNL     1       3.319  12.365  -9.080  1.00  0.00     0.029 A 
ATOM     59  C   UNL     1       3.254  12.291  -7.698  1.00  0.00     0.049 A 
ATOM     60  H   UNL     1       3.950  10.770  -6.413  1.00  0.00     0.167 HD
ATOM     61  C   UNL     1       2.670  13.088  -5.429  1.00  0.00     0.074 A 
ATOM     62  C   UNL     1       2.171  14.084  -4.506  1.00  0.00     0.031 C 
ATOM     63  C   UNL     1       2.713  13.254  -6.774  1.00  0.00     0.034 A 
BRANCH  50  64
ATOM     64  C   UNL     1       5.409   8.591  -9.786  1.00  0.00     0.023 A 
ATOM     65  C   UNL     1       4.713   7.498 -10.339  1.00  0.00     0.012 A 
ATOM     66  C   UNL     1       6.448   9.195 -10.521  1.00  0.00     0.148 A 
ATOM     67  C   UNL     1       5.057   7.001 -11.595  1.00  0.00     0.002 A 
ATOM     68  C   UNL     1       6.756   8.722 -11.791  1.00  0.00     0.091 A 
ATOM     69  F   UNL     1       7.107  10.222  -9.968  1.00  0.00    -0.205 F 
ATOM     70  C   UNL     1       6.069   7.620 -12.325  1.00  0.00     0.022 A 
BRANCH  68  71
ATOM     71  S   UNL     1       7.989   9.495 -12.844  1.00  0.00     0.127 S 
ATOM     72  O   UNL     1       8.998   8.440 -12.940  1.00  0.00    -0.237 OA
ATOM     73  O   UNL     1       7.234   9.730 -14.075  1.00  0.00    -0.237 OA
ATOM     74  O   UNL     1       8.418  10.700 -12.148  1.00  0.00    -0.744 OA
ENDBRANCH  68  71
ENDBRANCH  50  64
BRANCH  51  75
ATOM     75  C   UNL     1       2.785  12.126  -0.824  1.00  0.00     0.023 A 
ATOM     76  C   UNL     1       1.444  12.411  -0.498  1.00  0.00     0.012 A 
ATOM     77  C   UNL     1       3.796  12.433   0.108  1.00  0.00     0.148 A 
ATOM     78  C   UNL     1       1.121  13.029   0.711  1.00  0.00     0.002 A 
ATOM     79  C   UNL     1       3.462  12.993   1.335  1.00  0.00     0.091 A 
ATOM     80  F   UNL     1       5.068  12.177  -0.228  1.00  0.00    -0.205 F 
ATOM     81  C   UNL     1       2.128  13.312   1.631  1.00  0.00     0.022 A 
BRANCH  79  82
ATOM     82  S   UNL     1       4.678  13.278   2.626  1.00  0.00     0.127 S 
ATOM     83  O   UNL     1       4.772  14.736   2.631  1.00  0.00    -0.237 OA
ATOM     84  O   UNL     1       4.017  12.699   3.795  1.00  0.00    -0.237 OA
ATOM     85  O   UNL     1       5.876  12.568   2.199  1.00  0.00    -0.744 OA
ENDBRANCH  79  82
ENDBRANCH  51  75
BRANCH  63  86
ATOM     86  C   UNL     1       2.179  14.545  -7.341  1.00  0.00     0.023 A 
ATOM     87  C   UNL     1       2.901  15.742  -7.159  1.00  0.00     0.012 A 
ATOM     88  C   UNL     1       1.002  14.560  -8.116  1.00  0.00     0.148 A 
ATOM     89  C   UNL     1       2.442  16.938  -7.710  1.00  0.00     0.002 A 
ATOM     90  C   UNL     1       0.579  15.745  -8.705  1.00  0.00     0.091 A 
ATOM     91  F   UNL     1       0.324  13.413  -8.268  1.00  0.00    -0.205 F 
ATOM     92  C   UNL     1       1.289  16.938  -8.492  1.00  0.00     0.022 A 
BRANCH  90  93
ATOM     93  S   UNL     1      -0.840  15.829  -9.804  1.00  0.00     0.127 S 
ATOM     94  O   UNL     1      -1.777  16.632  -9.020  1.00  0.00    -0.237 OA
ATOM     95  O   UNL     1      -0.284  16.509 -10.974  1.00  0.00    -0.237 OA
ATOM     96  O   UNL     1      -1.252  14.451 -10.040  1.00  0.00    -0.744 OA
ENDBRANCH  90  93
ENDBRANCH  63  86
ENDBRANCH  37  38
ENDBRANCH  30  32
ENDBRANCH  29  30
ENDBRANCH  28  29
ENDBRANCH  27  28
ENDBRANCH  26  27
ENDBRANCH  25  26
ENDBRANCH   1  25
TORSDOF 23
