REMARK SMILES Cc1cc(C)n(C)c(=O)c1C(=O)[NH+]1CCC2(CC1)C[NH2+][C@@H](C(=O)OCCOCCOCCOC(=O)c1ccc(-c3c4nc(c(-c5cccc(S(=O)(=O)[O-])c5F)c5ccc([nH]5)c(-c5cccc(S(=O)(=O)[O-])c5F)c5nc(c(-c6cccc(S(=O)(=O)[O-])c6F)c6ccc3[nH]6)C=C5)C=C4)cc1)C2
REMARK SMILES IDX 29 1 28 2 27 3 26 4 25 5 24 6 22 7 23 8 21 9 13 10 14 11
REMARK SMILES IDX 18 12 15 14 17 15 16 16 19 17 99 18 20 19 11 22 12 23 10 24
REMARK SMILES IDX 1 25 2 26 3 27 4 28 8 29 5 30 6 31 9 32 7 33 30 34 31 35
REMARK SMILES IDX 32 36 33 37 34 38 35 39 36 40 37 41 98 42 38 43 97 44 39 45
REMARK SMILES IDX 40 46 41 47 91 48 42 49 96 50 90 51 92 52 43 53 95 54 89 55
REMARK SMILES IDX 88 56 44 58 76 59 56 60 75 61 57 62 60 63 74 64 93 65 58 66
REMARK SMILES IDX 59 67 73 69 94 70 61 71 45 72 46 73 54 74 47 75 49 76 55 77
REMARK SMILES IDX 48 78 50 79 51 80 52 81 53 82 77 83 78 84 86 85 79 86 81 87
REMARK SMILES IDX 87 88 80 89 82 90 83 91 84 92 85 93 62 94 63 95 71 96 64 97
REMARK SMILES IDX 66 98 72 99 65 100 67 101 68 102 69 103 70 104
REMARK H PARENT 13 13 20 20 20 21 92 57 60 68
REMARK Flexibility Score: inf
ROOT
ATOM      1  C   UNL     1       4.299  -0.013   6.593  1.00  0.00     0.188 C 
ENDROOT
BRANCH   1   2
ATOM      2  C   UNL     1       3.563  -0.450   7.868  1.00  0.00     0.188 C 
BRANCH   2   3
ATOM      3  O   UNL     1       4.179  -1.415   8.712  1.00  0.00    -0.376 OA
BRANCH   3   4
ATOM      4  C   UNL     1       4.768  -2.567   8.119  1.00  0.00     0.202 C 
BRANCH   4   5
ATOM      5  C   UNL     1       3.899  -3.424   7.187  1.00  0.00     0.261 C 
BRANCH   5   6
ATOM      6  O   UNL     1       3.151  -2.672   6.213  1.00  0.00    -0.459 OA
BRANCH   6   7
ATOM      7  C   UNL     1       1.830  -2.980   6.113  1.00  0.00     0.364 C 
ATOM      8  O   UNL     1       1.284  -3.901   6.715  1.00  0.00    -0.245 OA
BRANCH   7   9
ATOM      9  C   UNL     1       1.043  -2.071   5.154  1.00  0.00     0.294 C 
ATOM     10  N   UNL     1       1.448   1.448   1.208  1.00  0.00    -0.267 N 
ATOM     11  C   UNL     1       0.925   1.822   2.509  1.00  0.00     0.271 C 
ATOM     12  C   UNL     1       2.547   0.504   1.301  1.00  0.00     0.271 C 
ATOM     13  H   UNL     1       1.911   0.807   0.621  1.00  0.00     0.357 HD
ATOM     14  C   UNL     1       0.193   0.619   3.073  1.00  0.00     0.075 C 
ATOM     15  C   UNL     1       2.117  -0.805   1.983  1.00  0.00     0.075 C 
ATOM     16  C   UNL     1       1.035  -0.687   3.113  1.00  0.00     0.036 C 
ATOM     17  C   UNL     1       0.044  -1.879   3.075  1.00  0.00     0.268 C 
ATOM     18  C   UNL     1       1.727  -0.887   4.481  1.00  0.00     0.090 C 
ATOM     19  N   UNL     1       0.594  -2.865   3.992  1.00  0.00    -0.334 N 
ATOM     20  H   UNL     1       1.379  -3.357   3.565  1.00  0.00     0.347 HD
ATOM     21  H   UNL     1      -0.086  -3.581   4.248  1.00  0.00     0.347 HD
BRANCH  10  22
ATOM     22  C   UNL     1       1.349   2.379   0.183  1.00  0.00     0.350 C 
ATOM     23  O   UNL     1       1.578   3.561   0.437  1.00  0.00    -0.225 OA
BRANCH  22  24
ATOM     24  C   UNL     1       0.778   1.943  -1.169  1.00  0.00     0.147 A 
ATOM     25  C   UNL     1       0.313  -0.531  -0.661  1.00  0.00     0.045 C 
ATOM     26  C   UNL     1       0.339   0.703  -1.502  1.00  0.00    -0.027 A 
ATOM     27  C   UNL     1      -0.233   0.425  -2.803  1.00  0.00     0.026 A 
ATOM     28  C   UNL     1      -0.476   1.382  -3.701  1.00  0.00     0.018 A 
ATOM     29  C   UNL     1       0.593   3.027  -2.234  1.00  0.00     0.267 A 
ATOM     30  C   UNL     1      -1.148   0.994  -4.989  1.00  0.00     0.064 C 
ATOM     31  N   UNL     1      -0.094   2.682  -3.417  1.00  0.00    -0.315 N 
ATOM     32  O   UNL     1       1.026   4.167  -2.073  1.00  0.00    -0.268 OA
ATOM     33  C   UNL     1      -0.368   3.748  -4.374  1.00  0.00     0.153 C 
ENDBRANCH  22  24
ENDBRANCH  10  22
ENDBRANCH   7   9
ENDBRANCH   6   7
ENDBRANCH   5   6
ENDBRANCH   4   5
ENDBRANCH   3   4
ENDBRANCH   2   3
ENDBRANCH   1   2
BRANCH   1  34
ATOM     34  O   UNL     1       5.553  -0.624   6.401  1.00  0.00    -0.376 OA
BRANCH  34  35
ATOM     35  C   UNL     1       6.629   0.221   6.047  1.00  0.00     0.202 C 
BRANCH  35  36
ATOM     36  C   UNL     1       7.067   1.246   7.109  1.00  0.00     0.261 C 
BRANCH  36  37
ATOM     37  O   UNL     1       6.023   1.977   7.780  1.00  0.00    -0.460 OA
BRANCH  37  38
ATOM     38  C   UNL     1       5.423   2.985   7.100  1.00  0.00     0.338 C 
ATOM     39  O   UNL     1       5.692   3.351   5.965  1.00  0.00    -0.246 OA
BRANCH  38  40
ATOM     40  C   UNL     1       4.206   3.385   7.854  1.00  0.00     0.060 A 
ATOM     41  C   UNL     1       2.949   3.272   7.237  1.00  0.00     0.016 A 
ATOM     42  C   UNL     1       4.297   3.830   9.173  1.00  0.00     0.016 A 
ATOM     43  C   UNL     1       1.786   3.614   7.935  1.00  0.00     0.010 A 
ATOM     44  C   UNL     1       3.134   4.199   9.861  1.00  0.00     0.010 A 
ATOM     45  C   UNL     1       1.874   4.115   9.241  1.00  0.00    -0.014 A 
BRANCH  45  46
ATOM     46  C   UNL     1       0.686   4.723   9.898  1.00  0.00     0.031 A 
ATOM     47  C   UNL     1       0.524   6.218   9.841  1.00  0.00     0.074 A 
ATOM     48  C   UNL     1      -0.230   3.976  10.542  1.00  0.00     0.049 A 
ATOM     49  N   UNL     1      -0.400   6.975  10.374  1.00  0.00    -0.248 NA
ATOM     50  C   UNL     1       1.545   6.958   9.081  1.00  0.00     0.031 C 
ATOM     51  C   UNL     1      -0.209   2.520  10.653  1.00  0.00     0.029 A 
ATOM     52  N   UNL     1      -1.354   4.351  11.241  1.00  0.00    -0.354 N 
ATOM     53  C   UNL     1      -0.068   8.278  10.023  1.00  0.00     0.074 A 
ATOM     54  C   UNL     1       1.160   8.212   9.261  1.00  0.00     0.031 C 
ATOM     55  C   UNL     1      -1.265   2.124  11.386  1.00  0.00     0.029 A 
ATOM     56  C   UNL     1      -2.023   3.298  11.821  1.00  0.00     0.049 A 
ATOM     57  H   UNL     1      -1.651   5.286  11.320  1.00  0.00     0.167 HD
ATOM     58  C   UNL     1      -0.735   9.427  10.286  1.00  0.00     0.034 A 
ATOM     59  C   UNL     1      -3.114   3.284  12.616  1.00  0.00     0.034 A 
ATOM     60  C   UNL     1      -1.954   9.497  11.044  1.00  0.00     0.049 A 
ATOM     61  C   UNL     1      -3.799   4.583  12.965  1.00  0.00     0.074 A 
ATOM     62  C   UNL     1      -2.706  10.615  11.358  1.00  0.00     0.029 A 
ATOM     63  N   UNL     1      -2.597   8.410  11.616  1.00  0.00    -0.354 N 
ATOM     64  N   UNL     1      -3.522   5.799  12.557  1.00  0.00    -0.248 NA
ATOM     65  C   UNL     1      -4.963   4.507  13.862  1.00  0.00     0.031 C 
ATOM     66  C   UNL     1      -3.788  10.208  12.144  1.00  0.00     0.029 A 
ATOM     67  C   UNL     1      -3.731   8.831  12.289  1.00  0.00     0.049 A 
ATOM     68  H   UNL     1      -2.292   7.476  11.553  1.00  0.00     0.167 HD
ATOM     69  C   UNL     1      -4.497   6.624  13.113  1.00  0.00     0.074 A 
ATOM     70  C   UNL     1      -5.379   5.768  13.879  1.00  0.00     0.031 C 
ATOM     71  C   UNL     1      -4.639   7.969  13.005  1.00  0.00     0.034 A 
BRANCH  58  72
ATOM     72  C   UNL     1      -0.178  10.703   9.708  1.00  0.00     0.023 A 
ATOM     73  C   UNL     1      -0.245  10.917   8.316  1.00  0.00     0.012 A 
ATOM     74  C   UNL     1       0.359  11.709  10.535  1.00  0.00     0.148 A 
ATOM     75  C   UNL     1       0.245  12.094   7.752  1.00  0.00     0.002 A 
ATOM     76  C   UNL     1       0.799  12.901   9.971  1.00  0.00     0.091 A 
ATOM     77  F   UNL     1       0.434  11.481  11.854  1.00  0.00    -0.205 F 
ATOM     78  C   UNL     1       0.756  13.089   8.579  1.00  0.00     0.022 A 
BRANCH  76  79
ATOM     79  S   UNL     1       1.395  14.280  10.956  1.00  0.00     0.127 S 
ATOM     80  O   UNL     1       2.819  14.286  10.625  1.00  0.00    -0.237 OA
ATOM     81  O   UNL     1       0.637  15.403  10.403  1.00  0.00    -0.237 OA
ATOM     82  O   UNL     1       1.077  13.954  12.339  1.00  0.00    -0.744 OA
ENDBRANCH  76  79
ENDBRANCH  58  72
BRANCH  59  83
ATOM     83  C   UNL     1      -3.676   1.980  13.079  1.00  0.00     0.023 A 
ATOM     84  C   UNL     1      -4.912   1.546  12.561  1.00  0.00     0.012 A 
ATOM     85  C   UNL     1      -2.983   1.151  13.983  1.00  0.00     0.148 A 
ATOM     86  C   UNL     1      -5.453   0.318  12.941  1.00  0.00     0.002 A 
ATOM     87  C   UNL     1      -3.502  -0.096  14.317  1.00  0.00     0.091 A 
ATOM     88  F   UNL     1      -1.817   1.589  14.478  1.00  0.00    -0.205 F 
ATOM     89  C   UNL     1      -4.743  -0.508  13.808  1.00  0.00     0.022 A 
BRANCH  87  90
ATOM     90  S   UNL     1      -2.608  -1.284  15.326  1.00  0.00     0.127 S 
ATOM     91  O   UNL     1      -3.497  -1.429  16.476  1.00  0.00    -0.237 OA
ATOM     92  O   UNL     1      -2.555  -2.445  14.438  1.00  0.00    -0.237 OA
ATOM     93  O   UNL     1      -1.317  -0.673  15.608  1.00  0.00    -0.744 OA
ENDBRANCH  87  90
ENDBRANCH  59  83
BRANCH  71  94
ATOM     94  C   UNL     1      -5.804   8.630  13.701  1.00  0.00     0.023 A 
ATOM     95  C   UNL     1      -5.795   8.768  15.103  1.00  0.00     0.012 A 
ATOM     96  C   UNL     1      -6.835   9.239  12.955  1.00  0.00     0.148 A 
ATOM     97  C   UNL     1      -6.800   9.487  15.752  1.00  0.00     0.002 A 
ATOM     98  C   UNL     1      -7.803   9.997  13.603  1.00  0.00     0.091 A 
ATOM     99  F   UNL     1      -6.833   9.087  11.622  1.00  0.00    -0.205 F 
ATOM    100  C   UNL     1      -7.793  10.114  15.002  1.00  0.00     0.022 A 
BRANCH  98 101
ATOM    101  S   UNL     1      -9.059  10.932  12.719  1.00  0.00     0.127 S 
ATOM    102  O   UNL     1     -10.282  10.234  13.113  1.00  0.00    -0.237 OA
ATOM    103  O   UNL     1      -8.909  12.269  13.294  1.00  0.00    -0.237 OA
ATOM    104  O   UNL     1      -8.718  10.834  11.307  1.00  0.00    -0.744 OA
ENDBRANCH  98 101
ENDBRANCH  71  94
ENDBRANCH  45  46
ENDBRANCH  38  40
ENDBRANCH  37  38
ENDBRANCH  36  37
ENDBRANCH  35  36
ENDBRANCH  34  35
ENDBRANCH   1  34
TORSDOF 22
