REMARK SMILES O=C(Cc1c(F)cccc1F)NC[C@H]1CC[C@H](C(=O)OCCOCCOCCOC(=O)c2ccc(-c3c4nc(c(-c5cccc(S(=O)(=O)[O-])c5F)c5ccc([nH]5)c(-c5cccc(S(=O)(=O)[O-])c5F)c5nc(c(-c6cccc(S(=O)(=O)[O-])c6F)c6ccc3[nH]6)C=C5)C=C4)cc2)O1
REMARK SMILES IDX 24 1 23 2 22 3 21 4 20 5 18 6 19 7 17 8 14 9 15 10 95 11
REMARK SMILES IDX 16 12 13 13 12 14 1 15 2 16 3 18 4 19 5 20 10 21 6 22 7 23
REMARK SMILES IDX 9 24 11 25 8 26 25 27 26 28 27 29 28 30 29 31 30 32 31 33
REMARK SMILES IDX 32 34 33 35 94 36 34 37 93 38 35 39 36 40 37 41 87 42 38 43
REMARK SMILES IDX 92 44 86 45 88 46 39 47 91 48 85 49 84 50 40 52 72 53 52 54
REMARK SMILES IDX 71 55 53 56 56 57 70 58 89 59 54 60 55 61 69 63 90 64 57 65
REMARK SMILES IDX 41 66 42 67 50 68 43 69 45 70 51 71 44 72 46 73 47 74 48 75
REMARK SMILES IDX 49 76 73 77 74 78 82 79 75 80 77 81 83 82 76 83 78 84 79 85
REMARK SMILES IDX 80 86 81 87 58 88 59 89 67 90 60 91 62 92 68 93 61 94 63 95
REMARK SMILES IDX 64 96 65 97 66 98
REMARK H PARENT 12 17 88 51 56 62
REMARK Flexibility Score: inf
ROOT
ATOM      1  C   UNL     1       2.228  -5.825   0.747  1.00  0.00     0.188 C 
ENDROOT
BRANCH   1   2
ATOM      2  O   UNL     1       1.800  -5.829  -0.611  1.00  0.00    -0.376 OA
BRANCH   2   3
ATOM      3  C   UNL     1       1.987  -4.628  -1.362  1.00  0.00     0.202 C 
BRANCH   3   4
ATOM      4  C   UNL     1       1.495  -3.312  -0.735  1.00  0.00     0.261 C 
BRANCH   4   5
ATOM      5  O   UNL     1       2.114  -2.994   0.532  1.00  0.00    -0.461 OA
BRANCH   5   6
ATOM      6  C   UNL     1       1.260  -2.703   1.550  1.00  0.00     0.335 C 
ATOM      7  O   UNL     1       0.044  -2.600   1.415  1.00  0.00    -0.249 OA
BRANCH   6   8
ATOM      8  C   UNL     1       1.942  -2.590   2.921  1.00  0.00     0.228 C 
ATOM      9  C   UNL     1       2.502  -0.489   3.805  1.00  0.00     0.138 C 
ATOM     10  C   UNL     1       3.737  -1.045   3.123  1.00  0.00     0.037 C 
ATOM     11  O   UNL     1       1.422  -1.404   3.556  1.00  0.00    -0.361 OA
ATOM     12  C   UNL     1       3.456  -2.517   3.021  1.00  0.00     0.047 C 
BRANCH   9  13
ATOM     13  C   UNL     1       2.634  -0.287   5.319  1.00  0.00     0.147 C 
BRANCH  13  14
ATOM     14  N   UNL     1       2.350  -1.492   6.076  1.00  0.00    -0.353 N 
ATOM     15  O   UNL     1       4.420  -1.745   7.013  1.00  0.00    -0.275 OA
ATOM     16  C   UNL     1       3.241  -2.081   6.938  1.00  0.00     0.224 C 
ATOM     17  H   UNL     1       1.466  -1.911   5.965  1.00  0.00     0.163 HD
BRANCH  16  18
ATOM     18  C   UNL     1       2.657  -3.224   7.754  1.00  0.00     0.141 C 
BRANCH  18  19
ATOM     19  C   UNL     1       1.418  -2.837   8.523  1.00  0.00     0.033 A 
ATOM     20  C   UNL     1       1.413  -1.736   9.383  1.00  0.00     0.129 A 
ATOM     21  C   UNL     1       0.237  -3.570   8.405  1.00  0.00     0.129 A 
ATOM     22  F   UNL     1       2.524  -1.004   9.541  1.00  0.00    -0.207 F 
ATOM     23  C   UNL     1       0.266  -1.360  10.082  1.00  0.00     0.040 A 
ATOM     24  C   UNL     1      -0.917  -3.214   9.102  1.00  0.00     0.040 A 
ATOM     25  F   UNL     1       0.192  -4.633   7.590  1.00  0.00    -0.207 F 
ATOM     26  C   UNL     1      -0.905  -2.101   9.941  1.00  0.00     0.006 A 
ENDBRANCH  18  19
ENDBRANCH  16  18
ENDBRANCH  13  14
ENDBRANCH   9  13
ENDBRANCH   6   8
ENDBRANCH   5   6
ENDBRANCH   4   5
ENDBRANCH   3   4
ENDBRANCH   2   3
ENDBRANCH   1   2
BRANCH   1  27
ATOM     27  C   UNL     1       3.711  -5.524   0.994  1.00  0.00     0.188 C 
BRANCH  27  28
ATOM     28  O   UNL     1       4.285  -4.640   0.049  1.00  0.00    -0.376 OA
BRANCH  28  29
ATOM     29  C   UNL     1       5.631  -4.841  -0.371  1.00  0.00     0.202 C 
BRANCH  29  30
ATOM     30  C   UNL     1       6.033  -6.222  -0.941  1.00  0.00     0.261 C 
BRANCH  30  31
ATOM     31  O   UNL     1       5.816  -7.364  -0.092  1.00  0.00    -0.460 OA
BRANCH  31  32
ATOM     32  C   UNL     1       6.395  -7.336   1.132  1.00  0.00     0.338 C 
ATOM     33  O   UNL     1       7.249  -6.545   1.505  1.00  0.00    -0.246 OA
BRANCH  32  34
ATOM     34  C   UNL     1       5.618  -8.219   2.045  1.00  0.00     0.060 A 
ATOM     35  C   UNL     1       5.255  -7.704   3.299  1.00  0.00     0.016 A 
ATOM     36  C   UNL     1       5.189  -9.495   1.666  1.00  0.00     0.016 A 
ATOM     37  C   UNL     1       4.547  -8.493   4.208  1.00  0.00     0.010 A 
ATOM     38  C   UNL     1       4.489 -10.290   2.584  1.00  0.00     0.010 A 
ATOM     39  C   UNL     1       4.219  -9.814   3.881  1.00  0.00    -0.014 A 
BRANCH  39  40
ATOM     40  C   UNL     1       3.859 -10.757   4.974  1.00  0.00     0.031 A 
ATOM     41  C   UNL     1       4.947 -11.647   5.522  1.00  0.00     0.074 A 
ATOM     42  C   UNL     1       2.627 -10.800   5.516  1.00  0.00     0.049 A 
ATOM     43  N   UNL     1       4.899 -12.522   6.492  1.00  0.00    -0.248 NA
ATOM     44  C   UNL     1       6.271 -11.532   4.885  1.00  0.00     0.031 C 
ATOM     45  C   UNL     1       1.484  -9.994   5.096  1.00  0.00     0.029 A 
ATOM     46  N   UNL     1       2.135 -11.576   6.538  1.00  0.00    -0.354 N 
ATOM     47  C   UNL     1       6.172 -13.079   6.562  1.00  0.00     0.074 A 
ATOM     48  C   UNL     1       6.963 -12.461   5.523  1.00  0.00     0.031 C 
ATOM     49  C   UNL     1       0.416 -10.332   5.841  1.00  0.00     0.029 A 
ATOM     50  C   UNL     1       0.794 -11.390   6.778  1.00  0.00     0.049 A 
ATOM     51  H   UNL     1       2.691 -12.207   7.051  1.00  0.00     0.167 HD
ATOM     52  C   UNL     1       6.652 -14.007   7.423  1.00  0.00     0.034 A 
ATOM     53  C   UNL     1      -0.034 -12.011   7.644  1.00  0.00     0.034 A 
ATOM     54  C   UNL     1       5.878 -14.615   8.470  1.00  0.00     0.049 A 
ATOM     55  C   UNL     1       0.518 -13.061   8.578  1.00  0.00     0.074 A 
ATOM     56  C   UNL     1       6.289 -15.533   9.420  1.00  0.00     0.029 A 
ATOM     57  N   UNL     1       4.532 -14.380   8.697  1.00  0.00    -0.354 N 
ATOM     58  N   UNL     1       1.750 -13.491   8.708  1.00  0.00    -0.248 NA
ATOM     59  C   UNL     1      -0.432 -13.683   9.514  1.00  0.00     0.031 C 
ATOM     60  C   UNL     1       5.180 -15.884  10.197  1.00  0.00     0.029 A 
ATOM     61  C   UNL     1       4.090 -15.147   9.762  1.00  0.00     0.049 A 
ATOM     62  H   UNL     1       3.971 -13.759   8.177  1.00  0.00     0.167 HD
ATOM     63  C   UNL     1       1.730 -14.401   9.762  1.00  0.00     0.074 A 
ATOM     64  C   UNL     1       0.368 -14.439  10.252  1.00  0.00     0.031 C 
ATOM     65  C   UNL     1       2.743 -15.147  10.272  1.00  0.00     0.034 A 
BRANCH  52  66
ATOM     66  C   UNL     1       8.095 -14.415   7.271  1.00  0.00     0.023 A 
ATOM     67  C   UNL     1       9.122 -13.513   7.617  1.00  0.00     0.012 A 
ATOM     68  C   UNL     1       8.431 -15.706   6.821  1.00  0.00     0.148 A 
ATOM     69  C   UNL     1      10.461 -13.877   7.482  1.00  0.00     0.002 A 
ATOM     70  C   UNL     1       9.767 -16.079   6.737  1.00  0.00     0.091 A 
ATOM     71  F   UNL     1       7.441 -16.541   6.474  1.00  0.00    -0.205 F 
ATOM     72  C   UNL     1      10.783 -15.162   7.053  1.00  0.00     0.022 A 
BRANCH  70  73
ATOM     73  S   UNL     1      10.283 -17.735   6.276  1.00  0.00     0.127 S 
ATOM     74  O   UNL     1      10.904 -17.499   4.973  1.00  0.00    -0.237 OA
ATOM     75  O   UNL     1      11.222 -18.072   7.346  1.00  0.00    -0.237 OA
ATOM     76  O   UNL     1       9.072 -18.543   6.251  1.00  0.00    -0.744 OA
ENDBRANCH  70  73
ENDBRANCH  52  66
BRANCH  53  77
ATOM     77  C   UNL     1      -1.479 -11.644   7.698  1.00  0.00     0.023 A 
ATOM     78  C   UNL     1      -1.999 -11.007   8.842  1.00  0.00     0.012 A 
ATOM     79  C   UNL     1      -2.344 -11.941   6.626  1.00  0.00     0.148 A 
ATOM     80  C   UNL     1      -3.359 -10.706   8.933  1.00  0.00     0.002 A 
ATOM     81  C   UNL     1      -3.686 -11.586   6.699  1.00  0.00     0.091 A 
ATOM     82  F   UNL     1      -1.835 -12.565   5.555  1.00  0.00    -0.205 F 
ATOM     83  C   UNL     1      -4.200 -10.986   7.859  1.00  0.00     0.022 A 
BRANCH  81  84
ATOM     84  S   UNL     1      -4.818 -11.799   5.322  1.00  0.00     0.127 S 
ATOM     85  O   UNL     1      -5.726 -12.820   5.836  1.00  0.00    -0.237 OA
ATOM     86  O   UNL     1      -5.398 -10.460   5.204  1.00  0.00    -0.237 OA
ATOM     87  O   UNL     1      -3.992 -12.200   4.191  1.00  0.00    -0.744 OA
ENDBRANCH  81  84
ENDBRANCH  53  77
BRANCH  65  88
ATOM     88  C   UNL     1       2.435 -16.038  11.451  1.00  0.00     0.023 A 
ATOM     89  C   UNL     1       1.617 -17.174  11.287  1.00  0.00     0.012 A 
ATOM     90  C   UNL     1       2.998 -15.773  12.717  1.00  0.00     0.148 A 
ATOM     91  C   UNL     1       1.321 -18.000  12.372  1.00  0.00     0.002 A 
ATOM     92  C   UNL     1       2.744 -16.632  13.780  1.00  0.00     0.091 A 
ATOM     93  F   UNL     1       3.764 -14.682  12.862  1.00  0.00    -0.205 F 
ATOM     94  C   UNL     1       1.892 -17.735  13.615  1.00  0.00     0.022 A 
BRANCH  92  95
ATOM     95  S   UNL     1       3.516 -16.424  15.389  1.00  0.00     0.127 S 
ATOM     96  O   UNL     1       2.401 -15.927  16.193  1.00  0.00    -0.237 OA
ATOM     97  O   UNL     1       3.938 -17.789  15.710  1.00  0.00    -0.237 OA
ATOM     98  O   UNL     1       4.612 -15.486  15.190  1.00  0.00    -0.744 OA
ENDBRANCH  92  95
ENDBRANCH  65  88
ENDBRANCH  39  40
ENDBRANCH  32  34
ENDBRANCH  31  32
ENDBRANCH  30  31
ENDBRANCH  29  30
ENDBRANCH  28  29
ENDBRANCH  27  28
ENDBRANCH   1  27
TORSDOF 24
