REMARK SMILES O=C(/C=C/c1ccc(O)cc1)NC[C@@H]1CC[C@H](C(=O)OCCOCCOCCOC(=O)c2ccc(-c3c4nc(c(-c5cccc(S(=O)(=O)[O-])c5F)c5ccc([nH]5)c(-c5cccc(S(=O)(=O)[O-])c5F)c5nc(c(-c6cccc(S(=O)(=O)[O-])c6F)c6ccc3[nH]6)C=C5)C=C4)cc2)O1
REMARK SMILES IDX 24 1 23 2 22 3 21 4 20 5 18 6 19 7 17 8 14 9 15 10 95 11
REMARK SMILES IDX 16 12 13 13 12 14 1 15 2 16 3 18 4 19 5 20 6 21 11 22 7 23
REMARK SMILES IDX 10 24 8 25 9 26 25 28 26 29 27 30 28 31 29 32 30 33 31 34
REMARK SMILES IDX 32 35 33 36 94 37 34 38 93 39 35 40 36 41 37 42 87 43 38 44
REMARK SMILES IDX 92 45 86 46 88 47 39 48 91 49 85 50 84 51 40 53 72 54 52 55
REMARK SMILES IDX 71 56 53 57 56 58 70 59 89 60 54 61 55 62 69 64 90 65 57 66
REMARK SMILES IDX 41 67 42 68 50 69 43 70 45 71 51 72 44 73 46 74 47 75 48 76
REMARK SMILES IDX 49 77 73 78 74 79 82 80 75 81 77 82 83 83 76 84 78 85 79 86
REMARK SMILES IDX 80 87 81 88 58 89 59 90 67 91 60 92 62 93 68 94 61 95 63 96
REMARK SMILES IDX 64 97 65 98 66 99
REMARK H PARENT 12 17 9 27 88 52 56 63
REMARK Flexibility Score: inf
ROOT
ATOM      1  C   UNL     1       0.199  -7.787   3.379  1.00  0.00     0.188 C 
ENDROOT
BRANCH   1   2
ATOM      2  O   UNL     1      -1.183  -7.778   3.715  1.00  0.00    -0.376 OA
BRANCH   2   3
ATOM      3  C   UNL     1      -1.953  -6.644   3.309  1.00  0.00     0.202 C 
BRANCH   3   4
ATOM      4  C   UNL     1      -1.349  -5.247   3.540  1.00  0.00     0.261 C 
BRANCH   4   5
ATOM      5  O   UNL     1      -0.117  -5.040   2.817  1.00  0.00    -0.461 OA
BRANCH   5   6
ATOM      6  C   UNL     1       0.856  -4.358   3.477  1.00  0.00     0.335 C 
ATOM      7  O   UNL     1       0.682  -3.792   4.551  1.00  0.00    -0.249 OA
BRANCH   6   8
ATOM      8  C   UNL     1       2.230  -4.457   2.787  1.00  0.00     0.228 C 
ATOM      9  C   UNL     1       2.980  -2.473   1.807  1.00  0.00     0.138 C 
ATOM     10  C   UNL     1       2.235  -3.263   0.745  1.00  0.00     0.037 C 
ATOM     11  O   UNL     1       2.948  -3.233   3.025  1.00  0.00    -0.361 OA
ATOM     12  C   UNL     1       2.291  -4.663   1.283  1.00  0.00     0.047 C 
BRANCH   9  13
ATOM     13  C   UNL     1       2.390  -1.078   2.027  1.00  0.00     0.148 C 
BRANCH  13  14
ATOM     14  N   UNL     1       2.899  -0.148   1.040  1.00  0.00    -0.350 N 
ATOM     15  O   UNL     1       1.087  -0.197  -0.376  1.00  0.00    -0.270 OA
ATOM     16  C   UNL     1       2.236   0.141  -0.121  1.00  0.00     0.244 C 
ATOM     17  H   UNL     1       3.761   0.296   1.212  1.00  0.00     0.163 HD
BRANCH  16  18
ATOM     18  C   UNL     1       3.004   0.960  -1.091  1.00  0.00     0.072 C 
ATOM     19  C   UNL     1       4.338   0.876  -1.222  1.00  0.00     0.014 C 
BRANCH  19  20
ATOM     20  C   UNL     1       5.126   1.654  -2.185  1.00  0.00    -0.025 A 
ATOM     21  C   UNL     1       4.798   2.973  -2.527  1.00  0.00     0.012 A 
ATOM     22  C   UNL     1       6.291   1.085  -2.717  1.00  0.00     0.012 A 
ATOM     23  C   UNL     1       5.610   3.704  -3.400  1.00  0.00     0.047 A 
ATOM     24  C   UNL     1       7.102   1.813  -3.589  1.00  0.00     0.047 A 
ATOM     25  C   UNL     1       6.756   3.116  -3.923  1.00  0.00     0.115 A 
BRANCH  25  26
ATOM     26  O   UNL     1       7.581   3.797  -4.768  1.00  0.00    -0.508 OA
ATOM     27  H   UNL     1       7.377   4.678  -5.013  1.00  0.00     0.293 HD
ENDBRANCH  25  26
ENDBRANCH  19  20
ENDBRANCH  16  18
ENDBRANCH  13  14
ENDBRANCH   9  13
ENDBRANCH   6   8
ENDBRANCH   5   6
ENDBRANCH   4   5
ENDBRANCH   3   4
ENDBRANCH   2   3
ENDBRANCH   1   2
BRANCH   1  28
ATOM     28  C   UNL     1       0.548  -7.710   1.888  1.00  0.00     0.188 C 
BRANCH  28  29
ATOM     29  O   UNL     1      -0.462  -7.131   1.088  1.00  0.00    -0.376 OA
BRANCH  29  30
ATOM     30  C   UNL     1      -0.888  -7.781  -0.102  1.00  0.00     0.202 C 
BRANCH  30  31
ATOM     31  C   UNL     1      -1.260  -9.280  -0.072  1.00  0.00     0.261 C 
BRANCH  31  32
ATOM     32  O   UNL     1      -0.280 -10.192   0.456  1.00  0.00    -0.460 OA
BRANCH  32  33
ATOM     33  C   UNL     1       0.920 -10.249  -0.172  1.00  0.00     0.338 C 
ATOM     34  O   UNL     1       1.204  -9.726  -1.238  1.00  0.00    -0.246 OA
BRANCH  33  35
ATOM     35  C   UNL     1       1.916 -10.787   0.797  1.00  0.00     0.060 A 
ATOM     36  C   UNL     1       3.079 -10.037   1.034  1.00  0.00     0.016 A 
ATOM     37  C   UNL     1       1.675 -11.948   1.536  1.00  0.00     0.016 A 
ATOM     38  C   UNL     1       4.018 -10.467   1.975  1.00  0.00     0.010 A 
ATOM     39  C   UNL     1       2.628 -12.389   2.463  1.00  0.00     0.010 A 
ATOM     40  C   UNL     1       3.821 -11.671   2.665  1.00  0.00    -0.014 A 
BRANCH  40  41
ATOM     41  C   UNL     1       4.940 -12.269   3.441  1.00  0.00     0.031 A 
ATOM     42  C   UNL     1       5.758 -13.355   2.789  1.00  0.00     0.074 A 
ATOM     43  C   UNL     1       5.248 -11.858   4.686  1.00  0.00     0.049 A 
ATOM     44  N   UNL     1       6.757 -14.047   3.272  1.00  0.00    -0.248 NA
ATOM     45  C   UNL     1       5.399 -13.704   1.403  1.00  0.00     0.031 C 
ATOM     46  C   UNL     1       4.550 -10.814   5.434  1.00  0.00     0.029 A 
ATOM     47  N   UNL     1       6.222 -12.297   5.553  1.00  0.00    -0.354 N 
ATOM     48  C   UNL     1       7.135 -14.922   2.260  1.00  0.00     0.074 A 
ATOM     49  C   UNL     1       6.245 -14.689   1.143  1.00  0.00     0.031 C 
ATOM     50  C   UNL     1       5.095 -10.717   6.661  1.00  0.00     0.029 A 
ATOM     51  C   UNL     1       6.164 -11.707   6.795  1.00  0.00     0.049 A 
ATOM     52  H   UNL     1       6.897 -12.970   5.308  1.00  0.00     0.167 HD
ATOM     53  C   UNL     1       8.143 -15.826   2.248  1.00  0.00     0.034 A 
ATOM     54  C   UNL     1       6.871 -11.957   7.917  1.00  0.00     0.034 A 
ATOM     55  C   UNL     1       9.035 -16.059   3.350  1.00  0.00     0.049 A 
ATOM     56  C   UNL     1       7.960 -13.003   7.891  1.00  0.00     0.074 A 
ATOM     57  C   UNL     1      10.098 -16.943   3.422  1.00  0.00     0.029 A 
ATOM     58  N   UNL     1       8.969 -15.415   4.574  1.00  0.00    -0.354 N 
ATOM     59  N   UNL     1       8.371 -13.748   6.893  1.00  0.00    -0.248 NA
ATOM     60  C   UNL     1       8.709 -13.218   9.140  1.00  0.00     0.031 C 
ATOM     61  C   UNL     1      10.657 -16.852   4.700  1.00  0.00     0.029 A 
ATOM     62  C   UNL     1       9.967 -15.884   5.410  1.00  0.00     0.049 A 
ATOM     63  H   UNL     1       8.309 -14.725   4.815  1.00  0.00     0.167 HD
ATOM     64  C   UNL     1       9.445 -14.486   7.382  1.00  0.00     0.074 A 
ATOM     65  C   UNL     1       9.641 -14.078   8.756  1.00  0.00     0.031 C 
ATOM     66  C   UNL     1      10.193 -15.430   6.757  1.00  0.00     0.034 A 
BRANCH  53  67
ATOM     67  C   UNL     1       8.361 -16.614   0.984  1.00  0.00     0.023 A 
ATOM     68  C   UNL     1       8.920 -15.978  -0.142  1.00  0.00     0.012 A 
ATOM     69  C   UNL     1       8.089 -17.995   0.936  1.00  0.00     0.148 A 
ATOM     70  C   UNL     1       9.186 -16.699  -1.306  1.00  0.00     0.002 A 
ATOM     71  C   UNL     1       8.398 -18.716  -0.211  1.00  0.00     0.091 A 
ATOM     72  F   UNL     1       7.540 -18.576   2.013  1.00  0.00    -0.205 F 
ATOM     73  C   UNL     1       8.937 -18.068  -1.335  1.00  0.00     0.022 A 
BRANCH  71  74
ATOM     74  S   UNL     1       8.190 -20.496  -0.326  1.00  0.00     0.127 S 
ATOM     75  O   UNL     1       7.152 -20.606  -1.351  1.00  0.00    -0.237 OA
ATOM     76  O   UNL     1       9.519 -20.931  -0.756  1.00  0.00    -0.237 OA
ATOM     77  O   UNL     1       7.798 -20.945   1.002  1.00  0.00    -0.744 OA
ENDBRANCH  71  74
ENDBRANCH  53  67
BRANCH  54  78
ATOM     78  C   UNL     1       6.584 -11.211   9.178  1.00  0.00     0.023 A 
ATOM     79  C   UNL     1       7.555 -10.346   9.721  1.00  0.00     0.012 A 
ATOM     80  C   UNL     1       5.369 -11.392   9.867  1.00  0.00     0.148 A 
ATOM     81  C   UNL     1       7.341  -9.714  10.948  1.00  0.00     0.002 A 
ATOM     82  C   UNL     1       5.137 -10.713  11.057  1.00  0.00     0.091 A 
ATOM     83  F   UNL     1       4.466 -12.238   9.350  1.00  0.00    -0.205 F 
ATOM     84  C   UNL     1       6.130  -9.891  11.611  1.00  0.00     0.022 A 
BRANCH  82  85
ATOM     85  S   UNL     1       3.560 -10.789  11.913  1.00  0.00     0.127 S 
ATOM     86  O   UNL     1       3.889 -11.612  13.074  1.00  0.00    -0.237 OA
ATOM     87  O   UNL     1       3.308  -9.378  12.208  1.00  0.00    -0.237 OA
ATOM     88  O   UNL     1       2.628 -11.377  10.960  1.00  0.00    -0.744 OA
ENDBRANCH  82  85
ENDBRANCH  54  78
BRANCH  66  89
ATOM     89  C   UNL     1      11.329 -16.054   7.529  1.00  0.00     0.023 A 
ATOM     90  C   UNL     1      11.059 -16.937   8.594  1.00  0.00     0.012 A 
ATOM     91  C   UNL     1      12.667 -15.810   7.159  1.00  0.00     0.148 A 
ATOM     92  C   UNL     1      12.101 -17.530   9.306  1.00  0.00     0.002 A 
ATOM     93  C   UNL     1      13.699 -16.447   7.839  1.00  0.00     0.091 A 
ATOM     94  F   UNL     1      12.907 -14.958   6.152  1.00  0.00    -0.205 F 
ATOM     95  C   UNL     1      13.419 -17.294   8.922  1.00  0.00     0.022 A 
BRANCH  93  96
ATOM     96  S   UNL     1      15.421 -16.280   7.354  1.00  0.00     0.127 S 
ATOM     97  O   UNL     1      15.958 -15.461   8.440  1.00  0.00    -0.237 OA
ATOM     98  O   UNL     1      15.880 -17.669   7.354  1.00  0.00    -0.237 OA
ATOM     99  O   UNL     1      15.411 -15.647   6.042  1.00  0.00    -0.744 OA
ENDBRANCH  93  96
ENDBRANCH  66  89
ENDBRANCH  40  41
ENDBRANCH  33  35
ENDBRANCH  32  33
ENDBRANCH  31  32
ENDBRANCH  30  31
ENDBRANCH  29  30
ENDBRANCH  28  29
ENDBRANCH   1  28
TORSDOF 25
