REMARK SMILES COC(=O)[C@@H]1C[C@@H](C(=O)OCCOCCOCCOC(=O)c2ccc(-c3c4nc(c(-c5cccc(S(=O)(=O)[O-])c5F)c5ccc([nH]5)c(-c5cccc(S(=O)(=O)[O-])c5F)c5nc(c(-c6cccc(S(=O)(=O)[O-])c6F)c6ccc3[nH]6)C=C5)C=C4)cc2)[C@@H](c2cccc(F)c2F)[N@H+]1C
REMARK SMILES IDX 15 1 14 2 13 3 12 4 11 5 10 6 8 7 9 8 7 9 5 10 6 11 94 12
REMARK SMILES IDX 85 13 95 14 3 16 4 17 2 18 1 19 86 20 87 21 92 22 88 23
REMARK SMILES IDX 90 24 93 25 89 26 91 27 16 28 17 29 18 30 19 31 20 32 21 33
REMARK SMILES IDX 22 34 23 35 84 36 24 37 83 38 25 39 26 40 27 41 77 42 28 43
REMARK SMILES IDX 82 44 76 45 78 46 29 47 81 48 75 49 74 50 30 52 62 53 42 54
REMARK SMILES IDX 61 55 43 56 46 57 60 58 79 59 44 60 45 61 59 63 80 64 47 65
REMARK SMILES IDX 31 66 32 67 40 68 33 69 35 70 41 71 34 72 36 73 37 74 38 75
REMARK SMILES IDX 39 76 63 77 64 78 72 79 65 80 67 81 73 82 66 83 68 84 69 85
REMARK SMILES IDX 70 86 71 87 48 88 49 89 57 90 50 91 52 92 58 93 51 94 53 95
REMARK SMILES IDX 54 96 55 97 56 98
REMARK H PARENT 94 15 78 51 46 62
REMARK Flexibility Score: inf
ROOT
ATOM      1  C   UNL     1       4.541  -6.597   1.400  1.00  0.00     0.188 C 
ENDROOT
BRANCH   1   2
ATOM      2  C   UNL     1       4.128  -7.834   0.596  1.00  0.00     0.188 C 
BRANCH   2   3
ATOM      3  O   UNL     1       4.716  -8.038  -0.672  1.00  0.00    -0.376 OA
BRANCH   3   4
ATOM      4  C   UNL     1       4.463  -7.077  -1.689  1.00  0.00     0.202 C 
BRANCH   4   5
ATOM      5  C   UNL     1       3.093  -6.397  -1.778  1.00  0.00     0.261 C 
BRANCH   5   6
ATOM      6  O   UNL     1       2.739  -5.656  -0.589  1.00  0.00    -0.463 OA
BRANCH   6   7
ATOM      7  C   UNL     1       1.457  -5.780  -0.187  1.00  0.00     0.315 C 
ATOM      8  O   UNL     1       0.625  -6.448  -0.798  1.00  0.00    -0.252 OA
BRANCH   7   9
ATOM      9  C   UNL     1       1.064  -5.047   1.084  1.00  0.00     0.168 C 
ATOM     10  C   UNL     1      -0.117  -2.967   1.561  1.00  0.00     0.296 C 
ATOM     11  C   UNL     1      -0.229  -4.267   0.787  1.00  0.00     0.099 C 
ATOM     12  N   UNL     1       0.832  -3.333   2.622  1.00  0.00    -0.319 N 
ATOM     13  C   UNL     1       1.923  -4.097   1.958  1.00  0.00     0.233 C 
ATOM     14  C   UNL     1       1.212  -2.253   3.514  1.00  0.00     0.334 C 
ATOM     15  H   UNL     1       0.393  -3.935   3.318  1.00  0.00     0.349 HD
BRANCH  10  16
ATOM     16  C   UNL     1      -1.496  -2.518   2.025  1.00  0.00     0.364 C 
ATOM     17  O   UNL     1      -2.231  -1.827   1.323  1.00  0.00    -0.245 OA
BRANCH  16  18
ATOM     18  O   UNL     1      -1.833  -2.994   3.253  1.00  0.00    -0.465 OA
ATOM     19  C   UNL     1      -3.098  -2.540   3.728  1.00  0.00     0.282 C 
ENDBRANCH  16  18
ENDBRANCH  10  16
BRANCH  13  20
ATOM     20  C   UNL     1       3.029  -3.238   1.367  1.00  0.00     0.049 A 
ATOM     21  C   UNL     1       3.089  -2.836   0.026  1.00  0.00     0.013 A 
ATOM     22  C   UNL     1       4.087  -2.831   2.208  1.00  0.00     0.167 A 
ATOM     23  C   UNL     1       4.193  -2.124  -0.467  1.00  0.00     0.004 A 
ATOM     24  C   UNL     1       5.155  -2.080   1.728  1.00  0.00     0.159 A 
ATOM     25  F   UNL     1       4.072  -3.161   3.509  1.00  0.00    -0.203 F 
ATOM     26  C   UNL     1       5.226  -1.740   0.387  1.00  0.00     0.042 A 
ATOM     27  F   UNL     1       6.128  -1.678   2.559  1.00  0.00    -0.204 F 
ENDBRANCH  13  20
ENDBRANCH   7   9
ENDBRANCH   6   7
ENDBRANCH   5   6
ENDBRANCH   4   5
ENDBRANCH   3   4
ENDBRANCH   2   3
ENDBRANCH   1   2
BRANCH   1  28
ATOM     28  O   UNL     1       5.231  -5.517   0.818  1.00  0.00    -0.376 OA
BRANCH  28  29
ATOM     29  C   UNL     1       6.619  -5.563   0.531  1.00  0.00     0.202 C 
BRANCH  29  30
ATOM     30  C   UNL     1       7.674  -6.367   1.310  1.00  0.00     0.261 C 
BRANCH  30  31
ATOM     31  O   UNL     1       7.207  -7.425   2.136  1.00  0.00    -0.460 OA
BRANCH  31  32
ATOM     32  C   UNL     1       7.021  -7.084   3.435  1.00  0.00     0.338 C 
ATOM     33  O   UNL     1       7.252  -6.003   3.954  1.00  0.00    -0.246 OA
BRANCH  32  34
ATOM     34  C   UNL     1       6.238  -8.159   4.074  1.00  0.00     0.060 A 
ATOM     35  C   UNL     1       5.042  -7.807   4.718  1.00  0.00     0.016 A 
ATOM     36  C   UNL     1       6.646  -9.492   3.998  1.00  0.00     0.016 A 
ATOM     37  C   UNL     1       4.281  -8.784   5.348  1.00  0.00     0.010 A 
ATOM     38  C   UNL     1       5.894 -10.468   4.651  1.00  0.00     0.010 A 
ATOM     39  C   UNL     1       4.743 -10.104   5.375  1.00  0.00    -0.014 A 
BRANCH  39  40
ATOM     40  C   UNL     1       4.195 -11.023   6.398  1.00  0.00     0.031 A 
ATOM     41  C   UNL     1       4.964 -11.166   7.684  1.00  0.00     0.074 A 
ATOM     42  C   UNL     1       3.038 -11.680   6.215  1.00  0.00     0.049 A 
ATOM     43  N   UNL     1       4.698 -11.895   8.734  1.00  0.00    -0.248 NA
ATOM     44  C   UNL     1       6.207 -10.381   7.796  1.00  0.00     0.031 C 
ATOM     45  C   UNL     1       2.201 -11.611   5.019  1.00  0.00     0.029 A 
ATOM     46  N   UNL     1       2.380 -12.554   7.042  1.00  0.00    -0.354 N 
ATOM     47  C   UNL     1       5.753 -11.685   9.614  1.00  0.00     0.074 A 
ATOM     48  C   UNL     1       6.674 -10.777   8.968  1.00  0.00     0.031 C 
ATOM     49  C   UNL     1       1.148 -12.432   5.180  1.00  0.00     0.029 A 
ATOM     50  C   UNL     1       1.250 -13.096   6.480  1.00  0.00     0.049 A 
ATOM     51  H   UNL     1       2.688 -12.772   7.951  1.00  0.00     0.167 HD
ATOM     52  C   UNL     1       5.935 -12.187  10.856  1.00  0.00     0.034 A 
ATOM     53  C   UNL     1       0.408 -14.033   6.959  1.00  0.00     0.034 A 
ATOM     54  C   UNL     1       5.012 -13.078  11.501  1.00  0.00     0.049 A 
ATOM     55  C   UNL     1       0.638 -14.589   8.341  1.00  0.00     0.074 A 
ATOM     56  C   UNL     1       5.081 -13.617  12.772  1.00  0.00     0.029 A 
ATOM     57  N   UNL     1       3.857 -13.575  10.916  1.00  0.00    -0.354 N 
ATOM     58  N   UNL     1       1.584 -14.305   9.204  1.00  0.00    -0.248 NA
ATOM     59  C   UNL     1      -0.345 -15.566   8.833  1.00  0.00     0.031 C 
ATOM     60  C   UNL     1       3.986 -14.471  12.943  1.00  0.00     0.029 A 
ATOM     61  C   UNL     1       3.208 -14.422  11.797  1.00  0.00     0.049 A 
ATOM     62  H   UNL     1       3.545 -13.358  10.008  1.00  0.00     0.167 HD
ATOM     63  C   UNL     1       1.285 -15.029  10.354  1.00  0.00     0.074 A 
ATOM     64  C   UNL     1       0.060 -15.751  10.082  1.00  0.00     0.031 C 
ATOM     65  C   UNL     1       1.964 -15.096  11.528  1.00  0.00     0.034 A 
BRANCH  52  66
ATOM     66  C   UNL     1       7.183 -11.779  11.593  1.00  0.00     0.023 A 
ATOM     67  C   UNL     1       7.332 -10.454  12.054  1.00  0.00     0.012 A 
ATOM     68  C   UNL     1       8.201 -12.718  11.851  1.00  0.00     0.148 A 
ATOM     69  C   UNL     1       8.490 -10.061  12.724  1.00  0.00     0.002 A 
ATOM     70  C   UNL     1       9.328 -12.332  12.565  1.00  0.00     0.091 A 
ATOM     71  F   UNL     1       8.055 -13.964  11.380  1.00  0.00    -0.205 F 
ATOM     72  C   UNL     1       9.481 -11.002  12.989  1.00  0.00     0.022 A 
BRANCH  70  73
ATOM     73  S   UNL     1      10.620 -13.488  13.030  1.00  0.00     0.127 S 
ATOM     74  O   UNL     1      11.736 -13.033  12.200  1.00  0.00    -0.237 OA
ATOM     75  O   UNL     1      10.773 -13.217  14.459  1.00  0.00    -0.237 OA
ATOM     76  O   UNL     1      10.109 -14.814  12.713  1.00  0.00    -0.744 OA
ENDBRANCH  70  73
ENDBRANCH  52  66
BRANCH  53  77
ATOM     77  C   UNL     1      -0.754 -14.482   6.141  1.00  0.00     0.023 A 
ATOM     78  C   UNL     1      -2.064 -14.160   6.548  1.00  0.00     0.012 A 
ATOM     79  C   UNL     1      -0.566 -15.226   4.961  1.00  0.00     0.148 A 
ATOM     80  C   UNL     1      -3.166 -14.604   5.816  1.00  0.00     0.002 A 
ATOM     81  C   UNL     1      -1.665 -15.617   4.206  1.00  0.00     0.091 A 
ATOM     82  F   UNL     1       0.688 -15.533   4.598  1.00  0.00    -0.205 F 
ATOM     83  C   UNL     1      -2.966 -15.323   4.641  1.00  0.00     0.022 A 
BRANCH  81  84
ATOM     84  S   UNL     1      -1.502 -16.442   2.619  1.00  0.00     0.127 S 
ATOM     85  O   UNL     1      -2.060 -17.760   2.909  1.00  0.00    -0.237 OA
ATOM     86  O   UNL     1      -2.330 -15.597   1.758  1.00  0.00    -0.237 OA
ATOM     87  O   UNL     1      -0.081 -16.416   2.303  1.00  0.00    -0.744 OA
ENDBRANCH  81  84
ENDBRANCH  53  77
BRANCH  65  88
ATOM     88  C   UNL     1       1.364 -15.928  12.635  1.00  0.00     0.023 A 
ATOM     89  C   UNL     1       1.320 -17.332  12.528  1.00  0.00     0.012 A 
ATOM     90  C   UNL     1       0.884 -15.310  13.807  1.00  0.00     0.148 A 
ATOM     91  C   UNL     1       0.756 -18.103  13.546  1.00  0.00     0.002 A 
ATOM     92  C   UNL     1       0.377 -16.088  14.841  1.00  0.00     0.091 A 
ATOM     93  F   UNL     1       0.920 -13.972  13.888  1.00  0.00    -0.205 F 
ATOM     94  C   UNL     1       0.294 -17.483  14.704  1.00  0.00     0.022 A 
BRANCH  92  95
ATOM     95  S   UNL     1      -0.140 -15.380  16.408  1.00  0.00     0.127 S 
ATOM     96  O   UNL     1      -1.596 -15.448  16.300  1.00  0.00    -0.237 OA
ATOM     97  O   UNL     1       0.443 -16.308  17.377  1.00  0.00    -0.237 OA
ATOM     98  O   UNL     1       0.424 -14.037  16.446  1.00  0.00    -0.744 OA
ENDBRANCH  92  95
ENDBRANCH  65  88
ENDBRANCH  39  40
ENDBRANCH  32  34
ENDBRANCH  31  32
ENDBRANCH  30  31
ENDBRANCH  29  30
ENDBRANCH  28  29
ENDBRANCH   1  28
TORSDOF 23
