REMARK SMILES O=C(OCCOCCOCCOC(=O)c1cc(-n2cccc2)ccc1O)c1ccc(-c2c3nc(c(-c4cccc(S(=O)(=O)[O-])c4F)c4ccc([nH]4)c(-c4cccc(S(=O)(=O)[O-])c4F)c4nc(c(-c5cccc(S(=O)(=O)[O-])c5F)c5ccc2[nH]5)C=C4)C=C3)cc1
REMARK SMILES IDX 7 1 6 2 5 3 4 4 3 5 2 6 1 7 27 8 28 9 89 10 29 11 88 12
REMARK SMILES IDX 30 13 31 14 32 15 82 16 33 17 87 18 81 19 83 20 34 21 86 22
REMARK SMILES IDX 80 23 79 24 35 26 67 27 47 28 66 29 48 30 51 31 65 32 84 33
REMARK SMILES IDX 49 34 50 35 64 37 85 38 52 39 36 40 37 41 45 42 38 43 40 44
REMARK SMILES IDX 46 45 39 46 41 47 42 48 43 49 44 50 68 51 69 52 77 53 70 54
REMARK SMILES IDX 72 55 78 56 71 57 73 58 74 59 75 60 76 61 53 62 54 63 62 64
REMARK SMILES IDX 55 65 57 66 63 67 56 68 58 69 59 70 60 71 61 72 8 73 9 74
REMARK SMILES IDX 10 75 11 76 12 77 13 78 14 79 15 80 16 81 25 82 17 83 24 84
REMARK SMILES IDX 23 85 26 86 18 88 19 89 22 90 20 91 21 92
REMARK H PARENT 83 25 51 36 26 87
REMARK Flexibility Score: inf
ROOT
ATOM      1  C   UNL     1       3.623  -1.587  -0.085  1.00  0.00     0.188 C 
ENDROOT
BRANCH   1   2
ATOM      2  O   UNL     1       4.850  -1.255   0.547  1.00  0.00    -0.376 OA
BRANCH   2   3
ATOM      3  C   UNL     1       5.277   0.088   0.556  1.00  0.00     0.202 C 
BRANCH   3   4
ATOM      4  C   UNL     1       4.373   1.117   1.260  1.00  0.00     0.261 C 
BRANCH   4   5
ATOM      5  O   UNL     1       2.956   0.859   1.165  1.00  0.00    -0.460 OA
BRANCH   5   6
ATOM      6  C   UNL     1       1.985   1.302   0.339  1.00  0.00     0.338 C 
ATOM      7  O   UNL     1       0.819   0.999   0.582  1.00  0.00    -0.246 OA
BRANCH   6   8
ATOM      8  C   UNL     1       2.269   2.108  -0.872  1.00  0.00     0.060 A 
ATOM      9  C   UNL     1       3.514   2.161  -1.490  1.00  0.00     0.016 A 
ATOM     10  C   UNL     1       1.196   2.800  -1.459  1.00  0.00     0.016 A 
ATOM     11  C   UNL     1       3.740   2.982  -2.575  1.00  0.00     0.010 A 
ATOM     12  C   UNL     1       1.401   3.604  -2.579  1.00  0.00     0.010 A 
ATOM     13  C   UNL     1       2.688   3.724  -3.101  1.00  0.00    -0.014 A 
BRANCH  13  14
ATOM     14  C   UNL     1       3.025   4.607  -4.229  1.00  0.00     0.031 A 
ATOM     15  C   UNL     1       3.196   3.829  -5.532  1.00  0.00     0.074 A 
ATOM     16  C   UNL     1       3.274   5.907  -3.893  1.00  0.00     0.049 A 
ATOM     17  N   UNL     1       4.131   3.907  -6.435  1.00  0.00    -0.248 NA
ATOM     18  C   UNL     1       2.290   2.681  -5.786  1.00  0.00     0.031 C 
ATOM     19  C   UNL     1       3.042   6.482  -2.549  1.00  0.00     0.029 A 
ATOM     20  N   UNL     1       3.774   6.995  -4.573  1.00  0.00    -0.354 N 
ATOM     21  C   UNL     1       3.773   3.007  -7.466  1.00  0.00     0.074 A 
ATOM     22  C   UNL     1       2.753   2.160  -6.924  1.00  0.00     0.031 C 
ATOM     23  C   UNL     1       3.447   7.766  -2.498  1.00  0.00     0.029 A 
ATOM     24  C   UNL     1       3.968   8.157  -3.794  1.00  0.00     0.049 A 
ATOM     25  H   UNL     1       3.982   6.965  -5.535  1.00  0.00     0.167 HD
ATOM     26  C   UNL     1       4.206   3.140  -8.756  1.00  0.00     0.034 A 
ATOM     27  C   UNL     1       4.552   9.346  -4.135  1.00  0.00     0.034 A 
ATOM     28  C   UNL     1       5.000   4.323  -8.873  1.00  0.00     0.049 A 
ATOM     29  C   UNL     1       4.926   9.229  -5.551  1.00  0.00     0.074 A 
ATOM     30  C   UNL     1       6.295   4.663  -8.592  1.00  0.00     0.029 A 
ATOM     31  N   UNL     1       4.291   5.463  -9.164  1.00  0.00    -0.354 N 
ATOM     32  N   UNL     1       4.092   9.295  -6.546  1.00  0.00    -0.248 NA
ATOM     33  C   UNL     1       6.315   8.895  -5.894  1.00  0.00     0.031 C 
ATOM     34  C   UNL     1       6.269   6.067  -8.422  1.00  0.00     0.029 A 
ATOM     35  C   UNL     1       4.967   6.532  -8.637  1.00  0.00     0.049 A 
ATOM     36  H   UNL     1       3.444   5.504  -9.664  1.00  0.00     0.167 HD
ATOM     37  C   UNL     1       4.785   8.662  -7.551  1.00  0.00     0.074 A 
ATOM     38  C   UNL     1       6.183   8.760  -7.209  1.00  0.00     0.031 C 
ATOM     39  C   UNL     1       4.178   7.691  -8.281  1.00  0.00     0.034 A 
BRANCH  26  40
ATOM     40  C   UNL     1       3.793   2.497 -10.071  1.00  0.00     0.023 A 
ATOM     41  C   UNL     1       4.665   2.754 -11.172  1.00  0.00     0.012 A 
ATOM     42  C   UNL     1       2.550   1.917 -10.378  1.00  0.00     0.148 A 
ATOM     43  C   UNL     1       4.284   2.573 -12.501  1.00  0.00     0.002 A 
ATOM     44  C   UNL     1       2.194   1.679 -11.713  1.00  0.00     0.091 A 
ATOM     45  F   UNL     1       1.671   1.668  -9.403  1.00  0.00    -0.205 F 
ATOM     46  C   UNL     1       3.038   2.044 -12.771  1.00  0.00     0.022 A 
BRANCH  44  47
ATOM     47  S   UNL     1       0.647   0.884 -12.171  1.00  0.00     0.127 S 
ATOM     48  O   UNL     1      -0.185   2.024 -12.544  1.00  0.00    -0.237 OA
ATOM     49  O   UNL     1       1.056   0.040 -13.297  1.00  0.00    -0.237 OA
ATOM     50  O   UNL     1       0.238   0.131 -10.993  1.00  0.00    -0.744 OA
ENDBRANCH  44  47
ENDBRANCH  26  40
BRANCH  27  51
ATOM     51  C   UNL     1       4.972  10.587  -3.388  1.00  0.00     0.023 A 
ATOM     52  C   UNL     1       4.417  10.983  -2.161  1.00  0.00     0.012 A 
ATOM     53  C   UNL     1       6.000  11.429  -3.903  1.00  0.00     0.148 A 
ATOM     54  C   UNL     1       4.929  12.080  -1.442  1.00  0.00     0.002 A 
ATOM     55  C   UNL     1       6.564  12.457  -3.157  1.00  0.00     0.091 A 
ATOM     56  F   UNL     1       6.427  11.264  -5.158  1.00  0.00    -0.205 F 
ATOM     57  C   UNL     1       6.026  12.793  -1.919  1.00  0.00     0.022 A 
BRANCH  55  58
ATOM     58  S   UNL     1       8.063  13.307  -3.691  1.00  0.00     0.127 S 
ATOM     59  O   UNL     1       7.632  14.703  -3.729  1.00  0.00    -0.237 OA
ATOM     60  O   UNL     1       8.988  12.977  -2.607  1.00  0.00    -0.237 OA
ATOM     61  O   UNL     1       8.423  12.734  -4.982  1.00  0.00    -0.744 OA
ENDBRANCH  55  58
ENDBRANCH  27  51
BRANCH  39  62
ATOM     62  C   UNL     1       2.651   7.770  -8.257  1.00  0.00     0.023 A 
ATOM     63  C   UNL     1       2.036   8.887  -8.849  1.00  0.00     0.012 A 
ATOM     64  C   UNL     1       1.821   6.874  -7.543  1.00  0.00     0.148 A 
ATOM     65  C   UNL     1       0.661   9.111  -8.720  1.00  0.00     0.002 A 
ATOM     66  C   UNL     1       0.451   7.101  -7.400  1.00  0.00     0.091 A 
ATOM     67  F   UNL     1       2.380   5.799  -6.998  1.00  0.00    -0.205 F 
ATOM     68  C   UNL     1      -0.130   8.225  -7.994  1.00  0.00     0.022 A 
BRANCH  66  69
ATOM     69  S   UNL     1      -0.638   6.054  -6.410  1.00  0.00     0.127 S 
ATOM     70  O   UNL     1      -1.331   7.029  -5.565  1.00  0.00    -0.237 OA
ATOM     71  O   UNL     1      -1.481   5.439  -7.431  1.00  0.00    -0.237 OA
ATOM     72  O   UNL     1       0.217   5.134  -5.671  1.00  0.00    -0.744 OA
ENDBRANCH  66  69
ENDBRANCH  39  62
ENDBRANCH  13  14
ENDBRANCH   6   8
ENDBRANCH   5   6
ENDBRANCH   4   5
ENDBRANCH   3   4
ENDBRANCH   2   3
ENDBRANCH   1   2
BRANCH   1  73
ATOM     73  C   UNL     1       2.586  -2.119   0.929  1.00  0.00     0.188 C 
BRANCH  73  74
ATOM     74  O   UNL     1       3.031  -2.749   2.131  1.00  0.00    -0.376 OA
BRANCH  74  75
ATOM     75  C   UNL     1       4.249  -3.475   2.135  1.00  0.00     0.202 C 
BRANCH  75  76
ATOM     76  C   UNL     1       4.290  -4.774   1.333  1.00  0.00     0.261 C 
BRANCH  76  77
ATOM     77  O   UNL     1       3.946  -4.634  -0.052  1.00  0.00    -0.460 OA
BRANCH  77  78
ATOM     78  C   UNL     1       2.748  -5.148  -0.406  1.00  0.00     0.342 C 
ATOM     79  O   UNL     1       1.903  -5.649   0.336  1.00  0.00    -0.246 OA
BRANCH  78  80
ATOM     80  C   UNL     1       2.518  -4.968  -1.845  1.00  0.00     0.103 A 
ATOM     81  C   UNL     1       1.565  -4.032  -2.272  1.00  0.00     0.046 A 
ATOM     82  C   UNL     1       3.142  -5.811  -2.769  1.00  0.00     0.130 A 
ATOM     83  C   UNL     1       1.201  -3.998  -3.621  1.00  0.00     0.046 A 
ATOM     84  C   UNL     1       2.771  -5.771  -4.114  1.00  0.00     0.049 A 
ATOM     85  C   UNL     1       1.775  -4.887  -4.537  1.00  0.00     0.030 A 
BRANCH  82  86
ATOM     86  O   UNL     1       4.099  -6.694  -2.356  1.00  0.00    -0.507 OA
ATOM     87  H   UNL     1       4.352  -6.724  -1.454  1.00  0.00     0.293 HD
ENDBRANCH  82  86
BRANCH  83  88
ATOM     88  N   UNL     1       0.249  -3.058  -4.074  1.00  0.00    -0.324 N 
ATOM     89  C   UNL     1      -0.806  -3.324  -4.919  1.00  0.00     0.091 A 
ATOM     90  C   UNL     1       0.249  -1.711  -3.789  1.00  0.00     0.091 A 
ATOM     91  C   UNL     1      -1.458  -2.141  -5.191  1.00  0.00     0.020 A 
ATOM     92  C   UNL     1      -0.764  -1.114  -4.510  1.00  0.00     0.020 A 
ENDBRANCH  83  88
ENDBRANCH  78  80
ENDBRANCH  77  78
ENDBRANCH  76  77
ENDBRANCH  75  76
ENDBRANCH  74  75
ENDBRANCH  73  74
ENDBRANCH   1  73
TORSDOF 22
