REMARK SMILES Cc1c(Cl)cccc1NC(=O)C[C@](C)(C(=O)OCCOCCOCCOC(=O)c1ccc(-c2c3nc(c(-c4cccc(S(=O)(=O)[O-])c4F)c4ccc([nH]4)c(-c4cccc(S(=O)(=O)[O-])c4F)c4nc(c(-c5cccc(S(=O)(=O)[O-])c5F)c5ccc2[nH]5)C=C4)C=C3)cc1)c1ccccc1
REMARK SMILES IDX 21 1 20 2 19 3 18 4 17 5 15 6 16 7 13 8 14 9 12 10 10 11
REMARK SMILES IDX 9 12 11 14 8 15 1 16 2 17 3 18 4 19 5 20 7 21 6 22 92 23
REMARK SMILES IDX 93 24 97 25 94 26 96 27 95 28 22 29 23 30 24 31 25 32 26 33
REMARK SMILES IDX 27 34 28 35 29 36 30 37 91 38 31 39 90 40 32 41 33 42 34 43
REMARK SMILES IDX 84 44 35 45 89 46 83 47 85 48 36 49 88 50 82 51 81 52 37 54
REMARK SMILES IDX 69 55 49 56 68 57 50 58 53 59 67 60 86 61 51 62 52 63 66 65
REMARK SMILES IDX 87 66 54 67 38 68 39 69 47 70 40 71 42 72 48 73 41 74 43 75
REMARK SMILES IDX 44 76 45 77 46 78 70 79 71 80 79 81 72 82 74 83 80 84 73 85
REMARK SMILES IDX 75 86 76 87 77 88 78 89 55 90 56 91 64 92 57 93 59 94 65 95
REMARK SMILES IDX 58 96 60 97 61 98 62 99 63 100
REMARK H PARENT 9 13 85 53 53 64
REMARK Flexibility Score: inf
ROOT
ATOM      1  C   UNL     1      -8.011  -0.930  -1.708  1.00  0.00     0.188 C 
ENDROOT
BRANCH   1   2
ATOM      2  O   UNL     1      -8.376  -2.290  -1.577  1.00  0.00    -0.376 OA
BRANCH   2   3
ATOM      3  C   UNL     1      -7.413  -3.188  -1.040  1.00  0.00     0.202 C 
BRANCH   3   4
ATOM      4  C   UNL     1      -5.952  -3.060  -1.480  1.00  0.00     0.261 C 
BRANCH   4   5
ATOM      5  O   UNL     1      -5.345  -1.798  -1.132  1.00  0.00    -0.463 OA
BRANCH   5   6
ATOM      6  C   UNL     1      -4.331  -1.411  -1.948  1.00  0.00     0.316 C 
ATOM      7  O   UNL     1      -3.909  -2.123  -2.857  1.00  0.00    -0.251 OA
BRANCH   6   8
ATOM      8  C   UNL     1      -3.730  -0.006  -1.648  1.00  0.00     0.099 C 
ATOM      9  C   UNL     1      -4.285   0.727  -0.394  1.00  0.00     0.029 C 
BRANCH   8  10
ATOM     10  C   UNL     1      -2.193  -0.217  -1.422  1.00  0.00     0.123 C 
BRANCH  10  11
ATOM     11  C   UNL     1      -1.638  -1.636  -1.262  1.00  0.00     0.225 C 
ATOM     12  N   UNL     1      -2.058  -2.551  -0.342  1.00  0.00    -0.326 N 
ATOM     13  H   UNL     1      -1.726  -3.458  -0.533  1.00  0.00     0.169 HD
ATOM     14  O   UNL     1      -0.736  -2.012  -2.022  1.00  0.00    -0.275 OA
BRANCH  12  15
ATOM     15  C   UNL     1      -2.856  -2.502   0.817  1.00  0.00     0.045 A 
ATOM     16  C   UNL     1      -3.405  -5.008   0.580  1.00  0.00     0.048 C 
ATOM     17  C   UNL     1      -3.544  -3.664   1.257  1.00  0.00    -0.009 A 
ATOM     18  C   UNL     1      -4.404  -3.556   2.375  1.00  0.00     0.046 A 
ATOM     19  Cl  UNL     1      -5.324  -4.902   2.961  1.00  0.00    -0.084 Cl
ATOM     20  C   UNL     1      -4.557  -2.349   3.055  1.00  0.00     0.021 A 
ATOM     21  C   UNL     1      -2.952  -1.332   1.572  1.00  0.00     0.026 A 
ATOM     22  C   UNL     1      -3.812  -1.245   2.669  1.00  0.00     0.004 A 
ENDBRANCH  12  15
ENDBRANCH  10  11
ENDBRANCH   8  10
BRANCH   8  23
ATOM     23  C   UNL     1      -4.017   0.982  -2.831  1.00  0.00    -0.030 A 
ATOM     24  C   UNL     1      -3.614   2.333  -2.756  1.00  0.00     0.005 A 
ATOM     25  C   UNL     1      -4.774   0.608  -3.959  1.00  0.00     0.005 A 
ATOM     26  C   UNL     1      -3.986   3.264  -3.735  1.00  0.00     0.000 A 
ATOM     27  C   UNL     1      -5.122   1.534  -4.948  1.00  0.00     0.000 A 
ATOM     28  C   UNL     1      -4.744   2.865  -4.830  1.00  0.00     0.000 A 
ENDBRANCH   8  23
ENDBRANCH   6   8
ENDBRANCH   5   6
ENDBRANCH   4   5
ENDBRANCH   3   4
ENDBRANCH   2   3
ENDBRANCH   1   2
BRANCH   1  29
ATOM     29  C   UNL     1      -7.565  -0.177  -0.448  1.00  0.00     0.188 C 
BRANCH  29  30
ATOM     30  O   UNL     1      -7.489  -0.809   0.807  1.00  0.00    -0.376 OA
BRANCH  30  31
ATOM     31  C   UNL     1      -8.670  -1.173   1.499  1.00  0.00     0.202 C 
BRANCH  31  32
ATOM     32  C   UNL     1     -10.052  -0.526   1.288  1.00  0.00     0.261 C 
BRANCH  32  33
ATOM     33  O   UNL     1     -10.282   0.154   0.055  1.00  0.00    -0.460 OA
BRANCH  33  34
ATOM     34  C   UNL     1     -10.201   1.514   0.101  1.00  0.00     0.338 C 
ATOM     35  O   UNL     1      -9.982   2.203   1.071  1.00  0.00    -0.246 OA
BRANCH  34  36
ATOM     36  C   UNL     1     -10.152   1.991  -1.303  1.00  0.00     0.060 A 
ATOM     37  C   UNL     1      -9.033   2.728  -1.724  1.00  0.00     0.016 A 
ATOM     38  C   UNL     1     -11.146   1.627  -2.211  1.00  0.00     0.016 A 
ATOM     39  C   UNL     1      -8.900   3.092  -3.064  1.00  0.00     0.010 A 
ATOM     40  C   UNL     1     -11.031   2.027  -3.542  1.00  0.00     0.010 A 
ATOM     41  C   UNL     1      -9.918   2.773  -3.969  1.00  0.00    -0.014 A 
BRANCH  41  42
ATOM     42  C   UNL     1      -9.945   3.384  -5.316  1.00  0.00     0.031 A 
ATOM     43  C   UNL     1     -10.692   4.676  -5.480  1.00  0.00     0.074 A 
ATOM     44  C   UNL     1      -9.386   2.778  -6.378  1.00  0.00     0.049 A 
ATOM     45  N   UNL     1     -10.973   5.338  -6.569  1.00  0.00    -0.248 NA
ATOM     46  C   UNL     1     -11.202   5.294  -4.245  1.00  0.00     0.031 C 
ATOM     47  C   UNL     1      -8.627   1.531  -6.337  1.00  0.00     0.029 A 
ATOM     48  N   UNL     1      -9.400   3.124  -7.706  1.00  0.00    -0.354 N 
ATOM     49  C   UNL     1     -11.725   6.431  -6.157  1.00  0.00     0.074 A 
ATOM     50  C   UNL     1     -11.854   6.344  -4.719  1.00  0.00     0.031 C 
ATOM     51  C   UNL     1      -8.262   1.204  -7.590  1.00  0.00     0.029 A 
ATOM     52  C   UNL     1      -8.798   2.195  -8.522  1.00  0.00     0.049 A 
ATOM     53  H   UNL     1      -9.804   3.956  -8.042  1.00  0.00     0.167 HD
ATOM     54  C   UNL     1     -12.260   7.421  -6.907  1.00  0.00     0.034 A 
ATOM     55  C   UNL     1      -8.721   2.141  -9.867  1.00  0.00     0.034 A 
ATOM     56  C   UNL     1     -12.140   7.499  -8.336  1.00  0.00     0.049 A 
ATOM     57  C   UNL     1      -9.380   3.224 -10.687  1.00  0.00     0.074 A 
ATOM     58  C   UNL     1     -12.626   8.474  -9.187  1.00  0.00     0.029 A 
ATOM     59  N   UNL     1     -11.507   6.553  -9.127  1.00  0.00    -0.354 N 
ATOM     60  N   UNL     1      -9.999   4.308 -10.282  1.00  0.00    -0.248 NA
ATOM     61  C   UNL     1      -9.326   3.078 -12.149  1.00  0.00     0.031 C 
ATOM     62  C   UNL     1     -12.310   8.101 -10.498  1.00  0.00     0.029 A 
ATOM     63  C   UNL     1     -11.604   6.909 -10.460  1.00  0.00     0.049 A 
ATOM     64  H   UNL     1     -11.054   5.746  -8.790  1.00  0.00     0.167 HD
ATOM     65  C   UNL     1     -10.383   4.984 -11.437  1.00  0.00     0.074 A 
ATOM     66  C   UNL     1      -9.907   4.199 -12.557  1.00  0.00     0.031 C 
ATOM     67  C   UNL     1     -11.081   6.141 -11.561  1.00  0.00     0.034 A 
BRANCH  54  68
ATOM     68  C   UNL     1     -13.020   8.496  -6.181  1.00  0.00     0.023 A 
ATOM     69  C   UNL     1     -12.319   9.436  -5.397  1.00  0.00     0.012 A 
ATOM     70  C   UNL     1     -14.422   8.581  -6.275  1.00  0.00     0.148 A 
ATOM     71  C   UNL     1     -13.005  10.419  -4.686  1.00  0.00     0.002 A 
ATOM     72  C   UNL     1     -15.095   9.591  -5.599  1.00  0.00     0.091 A 
ATOM     73  F   UNL     1     -15.072   7.659  -7.000  1.00  0.00    -0.205 F 
ATOM     74  C   UNL     1     -14.391  10.502  -4.795  1.00  0.00     0.022 A 
BRANCH  72  75
ATOM     75  S   UNL     1     -16.871   9.821  -5.733  1.00  0.00     0.127 S 
ATOM     76  O   UNL     1     -17.329   9.339  -4.431  1.00  0.00    -0.237 OA
ATOM     77  O   UNL     1     -16.981  11.268  -5.920  1.00  0.00    -0.237 OA
ATOM     78  O   UNL     1     -17.291   9.029  -6.880  1.00  0.00    -0.744 OA
ENDBRANCH  72  75
ENDBRANCH  54  68
BRANCH  55  79
ATOM     79  C   UNL     1      -7.973   1.037 -10.536  1.00  0.00     0.023 A 
ATOM     80  C   UNL     1      -6.781   1.335 -11.225  1.00  0.00     0.012 A 
ATOM     81  C   UNL     1      -8.425  -0.296 -10.495  1.00  0.00     0.148 A 
ATOM     82  C   UNL     1      -6.066   0.332 -11.880  1.00  0.00     0.002 A 
ATOM     83  C   UNL     1      -7.680  -1.300 -11.105  1.00  0.00     0.091 A 
ATOM     84  F   UNL     1      -9.572  -0.558  -9.853  1.00  0.00    -0.205 F 
ATOM     85  C   UNL     1      -6.508  -0.986 -11.811  1.00  0.00     0.022 A 
BRANCH  83  86
ATOM     86  S   UNL     1      -8.110  -3.039 -10.976  1.00  0.00     0.127 S 
ATOM     87  O   UNL     1      -8.489  -3.357 -12.350  1.00  0.00    -0.237 OA
ATOM     88  O   UNL     1      -6.847  -3.629 -10.533  1.00  0.00    -0.237 OA
ATOM     89  O   UNL     1      -9.184  -3.107  -9.994  1.00  0.00    -0.744 OA
ENDBRANCH  83  86
ENDBRANCH  55  79
BRANCH  67  90
ATOM     90  C   UNL     1     -11.358   6.653 -12.951  1.00  0.00     0.023 A 
ATOM     91  C   UNL     1     -12.332   6.019 -13.748  1.00  0.00     0.012 A 
ATOM     92  C   UNL     1     -10.733   7.824 -13.425  1.00  0.00     0.148 A 
ATOM     93  C   UNL     1     -12.662   6.529 -15.003  1.00  0.00     0.002 A 
ATOM     94  C   UNL     1     -11.102   8.354 -14.655  1.00  0.00     0.091 A 
ATOM     95  F   UNL     1      -9.800   8.405 -12.655  1.00  0.00    -0.205 F 
ATOM     96  C   UNL     1     -12.059   7.702 -15.450  1.00  0.00     0.022 A 
BRANCH  94  97
ATOM     97  S   UNL     1     -10.453   9.911 -15.273  1.00  0.00     0.127 S 
ATOM     98  O   UNL     1      -9.647   9.468 -16.410  1.00  0.00    -0.237 OA
ATOM     99  O   UNL     1     -11.673  10.633 -15.634  1.00  0.00    -0.237 OA
ATOM    100  O   UNL     1      -9.702  10.501 -14.173  1.00  0.00    -0.744 OA
ENDBRANCH  94  97
ENDBRANCH  67  90
ENDBRANCH  41  42
ENDBRANCH  34  36
ENDBRANCH  33  34
ENDBRANCH  32  33
ENDBRANCH  31  32
ENDBRANCH  30  31
ENDBRANCH  29  30
ENDBRANCH   1  29
TORSDOF 24
