REMARK SMILES O=C(OCCOCCOCCOC(=O)c1cc(NC(=O)c2ccccc2Cl)ccc1N1CCC[C@H](C[NH+]2CCCC2)C1)c1ccc(-c2c3nc(c(-c4cccc(S(=O)(=O)[O-])c4F)c4ccc([nH]4)c(-c4cccc(S(=O)(=O)[O-])c4F)c4nc(c(-c5cccc(S(=O)(=O)[O-])c5F)c5ccc2[nH]5)C=C4)C=C3)cc1
REMARK SMILES IDX 7 1 6 2 5 3 4 4 3 5 2 6 1 7 43 8 44 9 105 10 45 11 104 12
REMARK SMILES IDX 46 13 47 14 48 15 98 16 49 17 103 18 97 19 99 20 50 21
REMARK SMILES IDX 102 22 96 23 95 24 51 26 83 27 63 28 82 29 64 30 67 31 81 32
REMARK SMILES IDX 100 33 65 34 66 35 80 37 101 38 68 39 52 40 53 41 61 42
REMARK SMILES IDX 54 43 56 44 62 45 55 46 57 47 58 48 59 49 60 50 84 51 85 52
REMARK SMILES IDX 93 53 86 54 88 55 94 56 87 57 89 58 90 59 91 60 92 61 69 62
REMARK SMILES IDX 70 63 78 64 71 65 73 66 79 67 72 68 74 69 75 70 76 71 77 72
REMARK SMILES IDX 8 73 9 74 10 75 11 76 12 77 13 78 14 79 15 80 16 81 30 82
REMARK SMILES IDX 17 83 29 84 28 85 31 86 32 87 42 88 33 89 35 90 34 91 36 92
REMARK SMILES IDX 37 93 38 94 41 95 39 97 40 98 18 99 19 100 20 102 21 103
REMARK SMILES IDX 22 104 26 105 23 106 25 107 27 108 24 109
REMARK H PARENT 99 25 67 36 37 96 18 101
REMARK Flexibility Score: inf
ROOT
ATOM      1  C   UNL     1       2.821   1.683   0.157  1.00  0.00     0.188 C 
ENDROOT
BRANCH   1   2
ATOM      2  O   UNL     1       4.227   1.558   0.348  1.00  0.00    -0.376 OA
BRANCH   2   3
ATOM      3  C   UNL     1       4.994   1.578  -0.860  1.00  0.00     0.202 C 
BRANCH   3   4
ATOM      4  C   UNL     1       4.961   0.294  -1.712  1.00  0.00     0.261 C 
BRANCH   4   5
ATOM      5  O   UNL     1       3.648  -0.272  -1.854  1.00  0.00    -0.460 OA
BRANCH   5   6
ATOM      6  C   UNL     1       3.115  -1.349  -1.227  1.00  0.00     0.338 C 
ATOM      7  O   UNL     1       2.084  -1.829  -1.698  1.00  0.00    -0.246 OA
BRANCH   6   8
ATOM      8  C   UNL     1       3.670  -1.963   0.026  1.00  0.00     0.060 A 
ATOM      9  C   UNL     1       4.709  -1.438   0.792  1.00  0.00     0.016 A 
ATOM     10  C   UNL     1       3.067  -3.151   0.484  1.00  0.00     0.016 A 
ATOM     11  C   UNL     1       5.219  -2.121   1.891  1.00  0.00     0.010 A 
ATOM     12  C   UNL     1       3.538  -3.819   1.623  1.00  0.00     0.010 A 
ATOM     13  C   UNL     1       4.667  -3.338   2.287  1.00  0.00    -0.014 A 
BRANCH  13  14
ATOM     14  C   UNL     1       5.453  -4.149   3.243  1.00  0.00     0.031 A 
ATOM     15  C   UNL     1       6.244  -5.305   2.707  1.00  0.00     0.074 A 
ATOM     16  C   UNL     1       5.601  -3.739   4.516  1.00  0.00     0.049 A 
ATOM     17  N   UNL     1       7.146  -6.032   3.308  1.00  0.00    -0.248 NA
ATOM     18  C   UNL     1       5.987  -5.700   1.311  1.00  0.00     0.031 C 
ATOM     19  C   UNL     1       4.861  -2.639   5.127  1.00  0.00     0.029 A 
ATOM     20  N   UNL     1       6.454  -4.161   5.506  1.00  0.00    -0.354 N 
ATOM     21  C   UNL     1       7.513  -7.006   2.390  1.00  0.00     0.074 A 
ATOM     22  C   UNL     1       6.754  -6.770   1.185  1.00  0.00     0.031 C 
ATOM     23  C   UNL     1       5.335  -2.435   6.366  1.00  0.00     0.029 A 
ATOM     24  C   UNL     1       6.413  -3.376   6.636  1.00  0.00     0.049 A 
ATOM     25  H   UNL     1       7.038  -4.949   5.416  1.00  0.00     0.167 HD
ATOM     26  C   UNL     1       8.403  -8.012   2.540  1.00  0.00     0.034 A 
ATOM     27  C   UNL     1       7.181  -3.394   7.745  1.00  0.00     0.034 A 
ATOM     28  C   UNL     1       9.162  -8.224   3.739  1.00  0.00     0.049 A 
ATOM     29  C   UNL     1       8.243  -4.456   7.843  1.00  0.00     0.074 A 
ATOM     30  C   UNL     1      10.041  -9.247   4.037  1.00  0.00     0.029 A 
ATOM     31  N   UNL     1       9.130  -7.383   4.842  1.00  0.00    -0.354 N 
ATOM     32  N   UNL     1       8.600  -5.348   6.949  1.00  0.00    -0.248 NA
ATOM     33  C   UNL     1       9.007  -4.521   9.097  1.00  0.00     0.031 C 
ATOM     34  C   UNL     1      10.536  -9.027   5.328  1.00  0.00     0.029 A 
ATOM     35  C   UNL     1       9.984  -7.854   5.821  1.00  0.00     0.049 A 
ATOM     36  H   UNL     1       8.579  -6.570   4.917  1.00  0.00     0.167 HD
ATOM     37  C   UNL     1       9.607  -6.098   7.542  1.00  0.00     0.074 A 
ATOM     38  C   UNL     1       9.862  -5.500   8.838  1.00  0.00     0.031 C 
ATOM     39  C   UNL     1      10.228  -7.213   7.087  1.00  0.00     0.034 A 
BRANCH  26  40
ATOM     40  C   UNL     1       8.559  -8.958   1.383  1.00  0.00     0.023 A 
ATOM     41  C   UNL     1       9.247  -8.546   0.224  1.00  0.00     0.012 A 
ATOM     42  C   UNL     1       7.990 -10.245   1.432  1.00  0.00     0.148 A 
ATOM     43  C   UNL     1       9.332  -9.387  -0.885  1.00  0.00     0.002 A 
ATOM     44  C   UNL     1       8.113 -11.092   0.338  1.00  0.00     0.091 A 
ATOM     45  F   UNL     1       7.316 -10.603   2.534  1.00  0.00    -0.205 F 
ATOM     46  C   UNL     1       8.771 -10.660  -0.826  1.00  0.00     0.022 A 
BRANCH  44  47
ATOM     47  S   UNL     1       7.471 -12.768   0.331  1.00  0.00     0.127 S 
ATOM     48  O   UNL     1       6.442 -12.686  -0.706  1.00  0.00    -0.237 OA
ATOM     49  O   UNL     1       8.653 -13.544  -0.043  1.00  0.00    -0.237 OA
ATOM     50  O   UNL     1       6.975 -13.018   1.677  1.00  0.00    -0.744 OA
ENDBRANCH  44  47
ENDBRANCH  26  40
BRANCH  27  51
ATOM     51  C   UNL     1       7.020  -2.359   8.813  1.00  0.00     0.023 A 
ATOM     52  C   UNL     1       8.087  -1.486   9.115  1.00  0.00     0.012 A 
ATOM     53  C   UNL     1       5.813  -2.205   9.517  1.00  0.00     0.148 A 
ATOM     54  C   UNL     1       7.962  -0.509  10.107  1.00  0.00     0.002 A 
ATOM     55  C   UNL     1       5.666  -1.175  10.441  1.00  0.00     0.091 A 
ATOM     56  F   UNL     1       4.809  -3.058   9.267  1.00  0.00    -0.205 F 
ATOM     57  C   UNL     1       6.744  -0.340  10.758  1.00  0.00     0.022 A 
BRANCH  55  58
ATOM     58  S   UNL     1       4.048  -0.801  11.124  1.00  0.00     0.127 S 
ATOM     59  O   UNL     1       3.998  -1.677  12.290  1.00  0.00    -0.237 OA
ATOM     60  O   UNL     1       4.155   0.625  11.429  1.00  0.00    -0.237 OA
ATOM     61  O   UNL     1       3.127  -1.107  10.034  1.00  0.00    -0.744 OA
ENDBRANCH  55  58
ENDBRANCH  27  51
BRANCH  39  62
ATOM     62  C   UNL     1      11.216  -7.866   8.012  1.00  0.00     0.023 A 
ATOM     63  C   UNL     1      10.745  -8.565   9.142  1.00  0.00     0.012 A 
ATOM     64  C   UNL     1      12.594  -7.840   7.732  1.00  0.00     0.148 A 
ATOM     65  C   UNL     1      11.638  -9.201  10.001  1.00  0.00     0.002 A 
ATOM     66  C   UNL     1      13.473  -8.516   8.567  1.00  0.00     0.091 A 
ATOM     67  F   UNL     1      13.018  -7.148   6.665  1.00  0.00    -0.205 F 
ATOM     68  C   UNL     1      13.000  -9.187   9.708  1.00  0.00     0.022 A 
BRANCH  66  69
ATOM     69  S   UNL     1      15.229  -8.625   8.212  1.00  0.00     0.127 S 
ATOM     70  O   UNL     1      15.785  -7.669   9.166  1.00  0.00    -0.237 OA
ATOM     71  O   UNL     1      15.521 -10.028   8.510  1.00  0.00    -0.237 OA
ATOM     72  O   UNL     1      15.372  -8.267   6.807  1.00  0.00    -0.744 OA
ENDBRANCH  66  69
ENDBRANCH  39  62
ENDBRANCH  13  14
ENDBRANCH   6   8
ENDBRANCH   5   6
ENDBRANCH   4   5
ENDBRANCH   3   4
ENDBRANCH   2   3
ENDBRANCH   1   2
BRANCH   1  73
ATOM     73  C   UNL     1       2.168   3.020   0.526  1.00  0.00     0.188 C 
BRANCH  73  74
ATOM     74  O   UNL     1       2.889   4.219   0.292  1.00  0.00    -0.376 OA
BRANCH  74  75
ATOM     75  C   UNL     1       4.117   4.391   0.988  1.00  0.00     0.202 C 
BRANCH  75  76
ATOM     76  C   UNL     1       4.149   4.262   2.512  1.00  0.00     0.261 C 
BRANCH  76  77
ATOM     77  O   UNL     1       3.656   3.029   3.058  1.00  0.00    -0.460 OA
BRANCH  77  78
ATOM     78  C   UNL     1       2.535   3.155   3.820  1.00  0.00     0.340 C 
ATOM     79  O   UNL     1       1.781   4.116   3.833  1.00  0.00    -0.246 OA
BRANCH  78  80
ATOM     80  C   UNL     1       2.294   1.962   4.652  1.00  0.00     0.085 A 
ATOM     81  C   UNL     1       1.022   1.365   4.519  1.00  0.00     0.044 A 
ATOM     82  C   UNL     1       3.221   1.522   5.613  1.00  0.00     0.051 A 
ATOM     83  C   UNL     1       0.634   0.320   5.355  1.00  0.00     0.042 A 
ATOM     84  C   UNL     1       2.783   0.494   6.467  1.00  0.00     0.029 A 
ATOM     85  C   UNL     1       1.513  -0.086   6.355  1.00  0.00     0.028 A 
BRANCH  82  86
ATOM     86  N   UNL     1       4.483   2.053   5.802  1.00  0.00    -0.370 N 
ATOM     87  C   UNL     1       5.643   1.170   5.831  1.00  0.00     0.116 C 
ATOM     88  C   UNL     1       4.756   3.480   5.821  1.00  0.00     0.126 C 
ATOM     89  C   UNL     1       6.469   1.463   7.076  1.00  0.00     0.022 C 
ATOM     90  C   UNL     1       5.582   3.859   7.055  1.00  0.00     0.064 C 
ATOM     91  C   UNL     1       6.822   2.949   7.144  1.00  0.00     0.013 C 
BRANCH  90  92
ATOM     92  C   UNL     1       4.663   3.874   8.301  1.00  0.00     0.267 C 
BRANCH  92  93
ATOM     93  N   UNL     1       5.091   4.646   9.472  1.00  0.00    -0.335 N 
ATOM     94  C   UNL     1       5.474   6.029   9.227  1.00  0.00     0.262 C 
ATOM     95  C   UNL     1       6.125   4.015  10.285  1.00  0.00     0.262 C 
ATOM     96  H   UNL     1       4.217   4.658   9.997  1.00  0.00     0.348 HD
ATOM     97  C   UNL     1       6.989   6.025   9.228  1.00  0.00     0.067 C 
ATOM     98  C   UNL     1       7.353   4.918  10.202  1.00  0.00     0.067 C 
ENDBRANCH  92  93
ENDBRANCH  90  92
ENDBRANCH  82  86
BRANCH  83  99
ATOM     99  N   UNL     1      -0.632  -0.295   5.317  1.00  0.00    -0.322 N 
ATOM    100  C   UNL     1      -1.567  -0.378   4.312  1.00  0.00     0.257 C 
ATOM    101  H   UNL     1      -0.892  -0.743   6.154  1.00  0.00     0.170 HD
ATOM    102  O   UNL     1      -2.731  -0.703   4.542  1.00  0.00    -0.269 OA
BRANCH 100 103
ATOM    103  C   UNL     1      -1.179  -0.162   2.909  1.00  0.00     0.058 A 
ATOM    104  C   UNL     1      -1.782   0.898   2.214  1.00  0.00     0.015 A 
ATOM    105  C   UNL     1      -0.297  -1.022   2.251  1.00  0.00     0.053 A 
ATOM    106  C   UNL     1      -1.447   1.138   0.881  1.00  0.00     0.001 A 
ATOM    107  C   UNL     1       0.011  -0.786   0.910  1.00  0.00     0.021 A 
ATOM    108  Cl  UNL     1       0.403  -2.407   3.005  1.00  0.00    -0.083 Cl
ATOM    109  C   UNL     1      -0.547   0.298   0.230  1.00  0.00     0.002 A 
ENDBRANCH 100 103
ENDBRANCH  83  99
ENDBRANCH  78  80
ENDBRANCH  77  78
ENDBRANCH  76  77
ENDBRANCH  75  76
ENDBRANCH  74  75
ENDBRANCH  73  74
ENDBRANCH   1  73
TORSDOF 25
