REMARK SMILES COc1cccc(-c2ccc(C#N)c(SCC(=O)OCCOCCOCCOC(=O)c3ccc(-c4c5nc(c(-c6cccc(S(=O)(=O)[O-])c6F)c6ccc([nH]6)c(-c6cccc(S(=O)(=O)[O-])c6F)c6nc(c(-c7cccc(S(=O)(=O)[O-])c7F)c7ccc4[nH]7)C=C6)C=C5)cc3)n2)c1
REMARK SMILES IDX 23 1 22 2 21 3 20 4 19 5 17 6 18 7 16 8 15 9 14 10 8 11 9 12
REMARK SMILES IDX 94 13 10 14 11 15 7 16 3 17 4 18 95 19 5 20 6 21 2 22 1 23
REMARK SMILES IDX 12 24 13 25 24 26 25 27 26 28 27 29 28 30 29 31 30 32 31 33
REMARK SMILES IDX 32 34 93 35 33 36 92 37 34 38 35 39 36 40 86 41 37 42 91 43
REMARK SMILES IDX 85 44 87 45 38 46 90 47 84 48 83 49 39 51 71 52 51 53 70 54
REMARK SMILES IDX 52 55 55 56 69 57 88 58 53 59 54 60 68 62 89 63 56 64 40 65
REMARK SMILES IDX 41 66 49 67 42 68 44 69 50 70 43 71 45 72 46 73 47 74 48 75
REMARK SMILES IDX 72 76 73 77 81 78 74 79 76 80 82 81 75 82 77 83 78 84 79 85
REMARK SMILES IDX 80 86 57 87 58 88 66 89 59 90 61 91 67 92 60 93 62 94 63 95
REMARK SMILES IDX 64 96 65 97
REMARK H PARENT 87 50 55 61
REMARK Flexibility Score: inf
ROOT
ATOM      1  C   UNL     1       8.950   0.902   3.612  1.00  0.00     0.188 C 
ENDROOT
BRANCH   1   2
ATOM      2  O   UNL     1       9.629  -0.337   3.663  1.00  0.00    -0.376 OA
BRANCH   2   3
ATOM      3  C   UNL     1       9.337  -1.241   4.717  1.00  0.00     0.202 C 
BRANCH   3   4
ATOM      4  C   UNL     1       9.294  -0.733   6.171  1.00  0.00     0.261 C 
BRANCH   4   5
ATOM      5  O   UNL     1       8.248   0.224   6.494  1.00  0.00    -0.463 OA
BRANCH   5   6
ATOM      6  C   UNL     1       8.650   1.443   6.939  1.00  0.00     0.316 C 
ATOM      7  O   UNL     1       9.835   1.742   7.079  1.00  0.00    -0.251 OA
BRANCH   6   8
ATOM      8  C   UNL     1       7.564   2.432   7.347  1.00  0.00     0.199 C 
BRANCH   8   9
ATOM      9  S   UNL     1       5.819   2.196   6.830  1.00  0.00    -0.093 SA
BRANCH   9  10
ATOM     10  C   UNL     1       5.423   3.148   5.337  1.00  0.00     0.115 A 
ATOM     11  C   UNL     1       3.796   3.241   3.604  1.00  0.00     0.072 A 
ATOM     12  C   UNL     1       4.519   4.203   2.920  1.00  0.00     0.030 A 
ATOM     13  N   UNL     1       4.228   2.724   4.791  1.00  0.00    -0.240 NA
ATOM     14  C   UNL     1       5.665   4.704   3.506  1.00  0.00     0.024 A 
ATOM     15  C   UNL     1       6.143   4.173   4.717  1.00  0.00     0.084 A 
BRANCH  11  16
ATOM     16  C   UNL     1       2.430   2.960   3.128  1.00  0.00     0.004 A 
ATOM     17  C   UNL     1       0.907   2.028   1.461  1.00  0.00     0.119 A 
ATOM     18  C   UNL     1      -0.067   2.956   1.838  1.00  0.00     0.046 A 
ATOM     19  C   UNL     1       2.153   2.028   2.106  1.00  0.00     0.056 A 
ATOM     20  C   UNL     1       0.172   3.854   2.872  1.00  0.00     0.005 A 
ATOM     21  C   UNL     1       1.407   3.847   3.517  1.00  0.00     0.010 A 
BRANCH  17  22
ATOM     22  O   UNL     1       0.534   1.248   0.400  1.00  0.00    -0.497 OA
ATOM     23  C   UNL     1       1.252   0.042   0.196  1.00  0.00     0.278 C 
ENDBRANCH  17  22
ENDBRANCH  11  16
BRANCH  15  24
ATOM     24  C   UNL     1       7.386   4.718   5.158  1.00  0.00     0.102 C 
ATOM     25  N   UNL     1       8.415   5.168   5.422  1.00  0.00    -0.192 NA
ENDBRANCH  15  24
ENDBRANCH   9  10
ENDBRANCH   8   9
ENDBRANCH   6   8
ENDBRANCH   5   6
ENDBRANCH   4   5
ENDBRANCH   3   4
ENDBRANCH   2   3
ENDBRANCH   1   2
BRANCH   1  26
ATOM     26  C   UNL     1       7.434   0.928   3.858  1.00  0.00     0.188 C 
BRANCH  26  27
ATOM     27  O   UNL     1       6.804  -0.290   4.138  1.00  0.00    -0.376 OA
BRANCH  27  28
ATOM     28  C   UNL     1       6.189  -1.014   3.093  1.00  0.00     0.202 C 
BRANCH  28  29
ATOM     29  C   UNL     1       6.393  -0.724   1.593  1.00  0.00     0.261 C 
BRANCH  29  30
ATOM     30  O   UNL     1       7.152   0.436   1.223  1.00  0.00    -0.460 OA
BRANCH  30  31
ATOM     31  C   UNL     1       6.430   1.481   0.755  1.00  0.00     0.338 C 
ATOM     32  O   UNL     1       5.216   1.534   0.638  1.00  0.00    -0.246 OA
BRANCH  31  33
ATOM     33  C   UNL     1       7.291   2.637   0.435  1.00  0.00     0.060 A 
ATOM     34  C   UNL     1       7.807   3.451   1.447  1.00  0.00     0.016 A 
ATOM     35  C   UNL     1       7.381   3.047  -0.890  1.00  0.00     0.016 A 
ATOM     36  C   UNL     1       8.315   4.713   1.159  1.00  0.00     0.010 A 
ATOM     37  C   UNL     1       7.954   4.286  -1.186  1.00  0.00     0.010 A 
ATOM     38  C   UNL     1       8.379   5.152  -0.161  1.00  0.00    -0.014 A 
BRANCH  38  39
ATOM     39  C   UNL     1       8.802   6.536  -0.490  1.00  0.00     0.031 A 
ATOM     40  C   UNL     1       7.858   7.417  -1.259  1.00  0.00     0.074 A 
ATOM     41  C   UNL     1      10.023   6.988  -0.147  1.00  0.00     0.049 A 
ATOM     42  N   UNL     1       8.109   8.493  -1.952  1.00  0.00    -0.248 NA
ATOM     43  C   UNL     1       6.438   7.021  -1.255  1.00  0.00     0.031 C 
ATOM     44  C   UNL     1      10.990   6.284   0.696  1.00  0.00     0.029 A 
ATOM     45  N   UNL     1      10.678   8.139  -0.515  1.00  0.00    -0.354 N 
ATOM     46  C   UNL     1       6.904   8.848  -2.547  1.00  0.00     0.074 A 
ATOM     47  C   UNL     1       5.912   7.895  -2.102  1.00  0.00     0.031 C 
ATOM     48  C   UNL     1      12.124   6.997   0.755  1.00  0.00     0.029 A 
ATOM     49  C   UNL     1      12.002   8.142  -0.136  1.00  0.00     0.049 A 
ATOM     50  H   UNL     1      10.247   8.881  -0.998  1.00  0.00     0.167 HD
ATOM     51  C   UNL     1       6.665   9.866  -3.407  1.00  0.00     0.034 A 
ATOM     52  C   UNL     1      13.027   8.918  -0.538  1.00  0.00     0.034 A 
ATOM     53  C   UNL     1       7.670  10.813  -3.808  1.00  0.00     0.049 A 
ATOM     54  C   UNL     1      12.761   9.993  -1.554  1.00  0.00     0.074 A 
ATOM     55  C   UNL     1       7.545  11.892  -4.663  1.00  0.00     0.029 A 
ATOM     56  N   UNL     1       8.991  10.788  -3.384  1.00  0.00    -0.354 N 
ATOM     57  N   UNL     1      11.632  10.313  -2.137  1.00  0.00    -0.248 NA
ATOM     58  C   UNL     1      13.904  10.821  -1.961  1.00  0.00     0.031 C 
ATOM     59  C   UNL     1       8.802  12.488  -4.797  1.00  0.00     0.029 A 
ATOM     60  C   UNL     1       9.694  11.823  -3.969  1.00  0.00     0.049 A 
ATOM     61  H   UNL     1       9.371  10.129  -2.758  1.00  0.00     0.167 HD
ATOM     62  C   UNL     1      11.915  11.412  -2.937  1.00  0.00     0.074 A 
ATOM     63  C   UNL     1      13.325  11.699  -2.768  1.00  0.00     0.031 C 
ATOM     64  C   UNL     1      11.083  12.123  -3.736  1.00  0.00     0.034 A 
BRANCH  51  65
ATOM     65  C   UNL     1       5.289   9.982  -4.009  1.00  0.00     0.023 A 
ATOM     66  C   UNL     1       4.191  10.379  -3.222  1.00  0.00     0.012 A 
ATOM     67  C   UNL     1       5.099   9.740  -5.386  1.00  0.00     0.148 A 
ATOM     68  C   UNL     1       2.920  10.496  -3.787  1.00  0.00     0.002 A 
ATOM     69  C   UNL     1       3.842   9.909  -5.951  1.00  0.00     0.091 A 
ATOM     70  F   UNL     1       6.153   9.345  -6.115  1.00  0.00    -0.205 F 
ATOM     71  C   UNL     1       2.748  10.273  -5.151  1.00  0.00     0.022 A 
BRANCH  69  72
ATOM     72  S   UNL     1       3.538   9.723  -7.712  1.00  0.00     0.127 S 
ATOM     73  O   UNL     1       2.681   8.539  -7.739  1.00  0.00    -0.237 OA
ATOM     74  O   UNL     1       2.857  10.976  -8.038  1.00  0.00    -0.237 OA
ATOM     75  O   UNL     1       4.844   9.558  -8.334  1.00  0.00    -0.744 OA
ENDBRANCH  69  72
ENDBRANCH  51  65
BRANCH  52  76
ATOM     76  C   UNL     1      14.400   8.672  -0.014  1.00  0.00     0.023 A 
ATOM     77  C   UNL     1      15.008   9.630   0.818  1.00  0.00     0.012 A 
ATOM     78  C   UNL     1      15.096   7.483  -0.316  1.00  0.00     0.148 A 
ATOM     79  C   UNL     1      16.296   9.424   1.315  1.00  0.00     0.002 A 
ATOM     80  C   UNL     1      16.353   7.257   0.231  1.00  0.00     0.091 A 
ATOM     81  F   UNL     1      14.505   6.588  -1.119  1.00  0.00    -0.205 F 
ATOM     82  C   UNL     1      16.963   8.235   1.032  1.00  0.00     0.022 A 
BRANCH  80  83
ATOM     83  S   UNL     1      17.232   5.705   0.023  1.00  0.00     0.127 S 
ATOM     84  O   UNL     1      18.372   6.116  -0.794  1.00  0.00    -0.237 OA
ATOM     85  O   UNL     1      17.559   5.358   1.406  1.00  0.00    -0.237 OA
ATOM     86  O   UNL     1      16.291   4.799  -0.620  1.00  0.00    -0.744 OA
ENDBRANCH  80  83
ENDBRANCH  52  76
BRANCH  64  87
ATOM     87  C   UNL     1      11.635  13.348  -4.412  1.00  0.00     0.023 A 
ATOM     88  C   UNL     1      12.502  13.234  -5.514  1.00  0.00     0.012 A 
ATOM     89  C   UNL     1      11.184  14.621  -4.007  1.00  0.00     0.148 A 
ATOM     90  C   UNL     1      12.926  14.375  -6.194  1.00  0.00     0.002 A 
ATOM     91  C   UNL     1      11.563  15.745  -4.724  1.00  0.00     0.091 A 
ATOM     92  F   UNL     1      10.374  14.701  -2.941  1.00  0.00    -0.205 F 
ATOM     93  C   UNL     1      12.445  15.626  -5.811  1.00  0.00     0.022 A 
BRANCH  91  94
ATOM     94  S   UNL     1      10.905  17.377  -4.372  1.00  0.00     0.127 S 
ATOM     95  O   UNL     1      12.101  18.090  -3.925  1.00  0.00    -0.237 OA
ATOM     96  O   UNL     1      10.399  17.792  -5.680  1.00  0.00    -0.237 OA
ATOM     97  O   UNL     1       9.880  17.192  -3.354  1.00  0.00    -0.744 OA
ENDBRANCH  91  94
ENDBRANCH  64  87
ENDBRANCH  38  39
ENDBRANCH  31  33
ENDBRANCH  30  31
ENDBRANCH  29  30
ENDBRANCH  28  29
ENDBRANCH  27  28
ENDBRANCH  26  27
ENDBRANCH   1  26
TORSDOF 25
