REMARK SMILES C[C@@H](O)[C@H](C)C1(C(=O)OCCOCCOCCOC(=O)c2ccc(-c3c4nc(c(-c5cccc(S(=O)(=O)[O-])c5F)c5ccc([nH]5)c(-c5cccc(S(=O)(=O)[O-])c5F)c5nc(c(-c6cccc(S(=O)(=O)[O-])c6F)c6ccc3[nH]6)C=C5)C=C4)cc2)CCCCCC1
REMARK SMILES IDX 13 1 12 2 11 3 10 4 9 5 7 6 8 7 6 8 4 9 5 10 2 11 1 12 3 13
REMARK SMILES IDX 84 15 85 16 86 17 87 18 89 20 88 21 14 23 15 24 16 25 17 26
REMARK SMILES IDX 18 27 19 28 20 29 21 30 22 31 83 32 23 33 82 34 24 35 25 36
REMARK SMILES IDX 26 37 76 38 27 39 81 40 75 41 77 42 28 43 80 44 74 45 73 46
REMARK SMILES IDX 29 48 61 49 41 50 60 51 42 52 45 53 59 54 78 55 43 56 44 57
REMARK SMILES IDX 58 59 79 60 46 61 30 62 31 63 39 64 32 65 34 66 40 67 33 68
REMARK SMILES IDX 35 69 36 70 37 71 38 72 62 73 63 74 71 75 64 76 66 77 72 78
REMARK SMILES IDX 65 79 67 80 68 81 69 82 70 83 47 84 48 85 56 86 49 87 51 88
REMARK SMILES IDX 57 89 50 90 52 91 53 92 54 93 55 94
REMARK H PARENT 3 14 77 47 45 58
REMARK Flexibility Score: 100.00
ROOT
ATOM      1  C   UNL     1      -2.059   1.824   4.247  1.00  0.00     0.188 C 
ENDROOT
BRANCH   1   2
ATOM      2  O   UNL     1      -3.159   2.031   5.111  1.00  0.00    -0.376 OA
BRANCH   2   3
ATOM      3  C   UNL     1      -3.827   0.889   5.636  1.00  0.00     0.202 C 
BRANCH   3   4
ATOM      4  C   UNL     1      -4.140  -0.312   4.724  1.00  0.00     0.261 C 
BRANCH   4   5
ATOM      5  O   UNL     1      -2.995  -1.044   4.214  1.00  0.00    -0.463 OA
BRANCH   5   6
ATOM      6  C   UNL     1      -2.927  -1.163   2.861  1.00  0.00     0.312 C 
ATOM      7  O   UNL     1      -3.754  -0.648   2.112  1.00  0.00    -0.252 OA
BRANCH   6   8
ATOM      8  C   UNL     1      -1.779  -2.078   2.317  1.00  0.00     0.073 C 
BRANCH   8   9
ATOM      9  C   UNL     1      -1.165  -1.216   1.070  1.00  0.00     0.032 C 
ATOM     10  C   UNL     1       0.310  -0.769   1.210  1.00  0.00     0.011 C 
BRANCH   9  11
ATOM     11  C   UNL     1      -1.436  -1.622  -0.409  1.00  0.00     0.115 C 
ATOM     12  C   UNL     1      -0.362  -2.487  -1.060  1.00  0.00     0.038 C 
BRANCH  11  13
ATOM     13  O   UNL     1      -2.695  -2.237  -0.597  1.00  0.00    -0.393 OA
ATOM     14  H   UNL     1      -2.706  -3.095  -0.145  1.00  0.00     0.210 HD
ENDBRANCH  11  13
ENDBRANCH   9  11
ENDBRANCH   8   9
BRANCH   8  15
ATOM     15  C   UNL     1      -2.585  -3.374   2.015  1.00  0.00     0.019 C 
BRANCH  15  16
ATOM     16  C   UNL     1      -1.776  -4.638   1.743  1.00  0.00     0.001 C 
BRANCH  16  17
ATOM     17  C   UNL     1      -1.567  -5.475   3.007  1.00  0.00     0.000 C 
BRANCH  17  18
ATOM     18  C   UNL     1      -0.613  -4.875   4.035  1.00  0.00     0.000 CG0
ATOM     19  G   UNL     1      -0.917  -3.433   4.439  1.00  0.00     0.000 G0
ENDBRANCH  17  18
ENDBRANCH  16  17
ENDBRANCH  15  16
ENDBRANCH   8  15
BRANCH   8  20
ATOM     20  C   UNL     1      -0.629  -2.439   3.312  1.00  0.00     0.019 C 
BRANCH  20  21
ATOM     21  C   UNL     1      -0.917  -3.433   4.439  1.00  0.00     0.001 CG0
ATOM     22  G   UNL     1      -0.613  -4.875   4.035  1.00  0.00     0.000 G0
ENDBRANCH  20  21
ENDBRANCH   8  20
ENDBRANCH   6   8
ENDBRANCH   5   6
ENDBRANCH   4   5
ENDBRANCH   3   4
ENDBRANCH   2   3
ENDBRANCH   1   2
BRANCH   1  23
ATOM     23  C   UNL     1      -0.943   0.902   4.728  1.00  0.00     0.188 C 
BRANCH  23  24
ATOM     24  O   UNL     1      -1.158   0.162   5.902  1.00  0.00    -0.376 OA
BRANCH  24  25
ATOM     25  C   UNL     1      -0.569   0.533   7.136  1.00  0.00     0.202 C 
BRANCH  25  26
ATOM     26  C   UNL     1       0.069   1.900   7.463  1.00  0.00     0.261 C 
BRANCH  26  27
ATOM     27  O   UNL     1       0.514   2.727   6.387  1.00  0.00    -0.460 OA
BRANCH  27  28
ATOM     28  C   UNL     1       1.714   2.429   5.830  1.00  0.00     0.338 C 
ATOM     29  O   UNL     1       2.479   1.540   6.167  1.00  0.00    -0.246 OA
BRANCH  28  30
ATOM     30  C   UNL     1       1.789   3.187   4.558  1.00  0.00     0.060 A 
ATOM     31  C   UNL     1       1.850   2.473   3.349  1.00  0.00     0.016 A 
ATOM     32  C   UNL     1       1.703   4.578   4.552  1.00  0.00     0.016 A 
ATOM     33  C   UNL     1       1.817   3.148   2.128  1.00  0.00     0.010 A 
ATOM     34  C   UNL     1       1.716   5.254   3.331  1.00  0.00     0.010 A 
ATOM     35  C   UNL     1       1.791   4.546   2.115  1.00  0.00    -0.014 A 
BRANCH  35  36
ATOM     36  C   UNL     1       2.081   5.300   0.873  1.00  0.00     0.031 A 
ATOM     37  C   UNL     1       3.483   5.805   0.688  1.00  0.00     0.074 A 
ATOM     38  C   UNL     1       1.128   5.595  -0.029  1.00  0.00     0.049 A 
ATOM     39  N   UNL     1       3.946   6.682  -0.160  1.00  0.00    -0.248 NA
ATOM     40  C   UNL     1       4.498   5.249   1.601  1.00  0.00     0.031 C 
ATOM     41  C   UNL     1      -0.252   5.117   0.003  1.00  0.00     0.029 A 
ATOM     42  N   UNL     1       1.177   6.420  -1.128  1.00  0.00    -0.354 N 
ATOM     43  C   UNL     1       5.290   6.832   0.157  1.00  0.00     0.074 A 
ATOM     44  C   UNL     1       5.573   5.943   1.262  1.00  0.00     0.031 C 
ATOM     45  C   UNL     1      -0.935   5.697  -1.001  1.00  0.00     0.029 A 
ATOM     46  C   UNL     1      -0.054   6.628  -1.707  1.00  0.00     0.049 A 
ATOM     47  H   UNL     1       2.009   6.821  -1.467  1.00  0.00     0.167 HD
ATOM     48  C   UNL     1       6.206   7.645  -0.416  1.00  0.00     0.034 A 
ATOM     49  C   UNL     1      -0.433   7.510  -2.655  1.00  0.00     0.034 A 
ATOM     50  C   UNL     1       5.921   8.515  -1.522  1.00  0.00     0.049 A 
ATOM     51  C   UNL     1       0.592   8.449  -3.245  1.00  0.00     0.074 A 
ATOM     52  C   UNL     1       6.785   9.360  -2.194  1.00  0.00     0.029 A 
ATOM     53  N   UNL     1       4.675   8.661  -2.110  1.00  0.00    -0.354 N 
ATOM     54  N   UNL     1       1.873   8.547  -2.980  1.00  0.00    -0.248 NA
ATOM     55  C   UNL     1       0.126   9.389  -4.278  1.00  0.00     0.031 C 
ATOM     56  C   UNL     1       6.052  10.046  -3.165  1.00  0.00     0.029 A 
ATOM     57  C   UNL     1       4.743   9.589  -3.131  1.00  0.00     0.049 A 
ATOM     58  H   UNL     1       3.861   8.177  -1.839  1.00  0.00     0.167 HD
ATOM     59  C   UNL     1       2.372   9.516  -3.846  1.00  0.00     0.074 A 
ATOM     60  C   UNL     1       1.256   9.978  -4.644  1.00  0.00     0.031 C 
ATOM     61  C   UNL     1       3.639   9.983  -3.967  1.00  0.00     0.034 A 
BRANCH  48  62
ATOM     62  C   UNL     1       7.597   7.643   0.154  1.00  0.00     0.023 A 
ATOM     63  C   UNL     1       8.441   6.532  -0.045  1.00  0.00     0.012 A 
ATOM     64  C   UNL     1       8.083   8.766   0.852  1.00  0.00     0.148 A 
ATOM     65  C   UNL     1       9.736   6.525   0.471  1.00  0.00     0.002 A 
ATOM     66  C   UNL     1       9.390   8.773   1.319  1.00  0.00     0.091 A 
ATOM     67  F   UNL     1       7.255   9.801   1.052  1.00  0.00    -0.205 F 
ATOM     68  C   UNL     1      10.213   7.649   1.142  1.00  0.00     0.022 A 
BRANCH  66  69
ATOM     69  S   UNL     1      10.123  10.202   2.121  1.00  0.00     0.127 S 
ATOM     70  O   UNL     1      10.276   9.723   3.494  1.00  0.00    -0.237 OA
ATOM     71  O   UNL     1      11.378  10.355   1.385  1.00  0.00    -0.237 OA
ATOM     72  O   UNL     1       9.177  11.294   1.943  1.00  0.00    -0.744 OA
ENDBRANCH  66  69
ENDBRANCH  48  62
BRANCH  49  73
ATOM     73  C   UNL     1      -1.853   7.564  -3.109  1.00  0.00     0.023 A 
ATOM     74  C   UNL     1      -2.177   7.174  -4.424  1.00  0.00     0.012 A 
ATOM     75  C   UNL     1      -2.881   8.005  -2.252  1.00  0.00     0.148 A 
ATOM     76  C   UNL     1      -3.492   7.253  -4.887  1.00  0.00     0.002 A 
ATOM     77  C   UNL     1      -4.197   8.028  -2.702  1.00  0.00     0.091 A 
ATOM     78  F   UNL     1      -2.551   8.390  -1.012  1.00  0.00    -0.205 F 
ATOM     79  C   UNL     1      -4.502   7.670  -4.024  1.00  0.00     0.022 A 
BRANCH  77  80
ATOM     80  S   UNL     1      -5.578   8.444  -1.633  1.00  0.00     0.127 S 
ATOM     81  O   UNL     1      -6.039   9.702  -2.215  1.00  0.00    -0.237 OA
ATOM     82  O   UNL     1      -6.472   7.304  -1.843  1.00  0.00    -0.237 OA
ATOM     83  O   UNL     1      -5.024   8.538  -0.289  1.00  0.00    -0.744 OA
ENDBRANCH  77  80
ENDBRANCH  49  73
BRANCH  61  84
ATOM     84  C   UNL     1       3.936  10.983  -5.054  1.00  0.00     0.023 A 
ATOM     85  C   UNL     1       3.533  12.325  -4.920  1.00  0.00     0.012 A 
ATOM     86  C   UNL     1       4.743  10.607  -6.148  1.00  0.00     0.148 A 
ATOM     87  C   UNL     1       3.917  13.275  -5.867  1.00  0.00     0.002 A 
ATOM     88  C   UNL     1       5.166  11.568  -7.057  1.00  0.00     0.091 A 
ATOM     89  F   UNL     1       5.103   9.320  -6.261  1.00  0.00    -0.205 F 
ATOM     90  C   UNL     1       4.745  12.901  -6.924  1.00  0.00     0.022 A 
BRANCH  88  91
ATOM     91  S   UNL     1       6.319  11.201  -8.385  1.00  0.00     0.127 S 
ATOM     92  O   UNL     1       5.483  11.399  -9.568  1.00  0.00    -0.237 OA
ATOM     93  O   UNL     1       7.349  12.221  -8.188  1.00  0.00    -0.237 OA
ATOM     94  O   UNL     1       6.768   9.832  -8.166  1.00  0.00    -0.744 OA
ENDBRANCH  88  91
ENDBRANCH  61  84
ENDBRANCH  35  36
ENDBRANCH  28  30
ENDBRANCH  27  28
ENDBRANCH  26  27
ENDBRANCH  25  26
ENDBRANCH  24  25
ENDBRANCH  23  24
ENDBRANCH   1  23
TORSDOF 23
