REMARK SMILES Cc1nsc(NC(=O)[C@]2([NH3+])CCC[C@@H](C)C2)c1C(=O)OCCOCCOCCOC(=O)c1ccc(-c2c3nc(c(-c4cccc(S(=O)(=O)[O-])c4F)c4ccc([nH]4)c(-c4cccc(S(=O)(=O)[O-])c4F)c4nc(c(-c5cccc(S(=O)(=O)[O-])c5F)c5ccc2[nH]5)C=C4)C=C3)cc1
REMARK SMILES IDX 24 1 23 2 22 3 21 4 20 5 18 6 19 7 17 8 1 9 2 10 3 11 4 12
REMARK SMILES IDX 5 13 6 14 7 15 8 17 9 18 11 19 16 20 12 21 14 22 13 23 15 24
REMARK SMILES IDX 10 25 25 29 26 30 27 31 28 32 29 33 30 34 31 35 32 36 33 37
REMARK SMILES IDX 94 38 34 39 93 40 35 41 36 42 37 43 87 44 38 45 92 46 86 47
REMARK SMILES IDX 88 48 39 49 91 50 85 51 84 52 40 54 72 55 52 56 71 57 53 58
REMARK SMILES IDX 56 59 70 60 89 61 54 62 55 63 69 65 90 66 57 67 41 68 42 69
REMARK SMILES IDX 50 70 43 71 45 72 51 73 44 74 46 75 47 76 48 77 49 78 73 79
REMARK SMILES IDX 74 80 82 81 75 82 77 83 83 84 76 85 78 86 79 87 80 88 81 89
REMARK SMILES IDX 58 90 59 91 67 92 60 93 62 94 68 95 61 96 63 97 64 98 65 99
REMARK SMILES IDX 66 100
REMARK H PARENT 6 16 10 26 10 27 10 28 88 53 56 64
REMARK Flexibility Score: inf
ROOT
ATOM      1  C   UNL     1       0.964  -4.898   1.334  1.00  0.00     0.188 C 
ENDROOT
BRANCH   1   2
ATOM      2  O   UNL     1       0.422  -5.439   0.139  1.00  0.00    -0.376 OA
BRANCH   2   3
ATOM      3  C   UNL     1       0.684  -4.799  -1.104  1.00  0.00     0.202 C 
BRANCH   3   4
ATOM      4  C   UNL     1       0.389  -3.291  -1.244  1.00  0.00     0.261 C 
BRANCH   4   5
ATOM      5  O   UNL     1       1.105  -2.440  -0.322  1.00  0.00    -0.460 OA
BRANCH   5   6
ATOM      6  C   UNL     1       0.342  -1.752   0.585  1.00  0.00     0.343 C 
ATOM      7  O   UNL     1      -0.863  -1.684   0.550  1.00  0.00    -0.246 OA
BRANCH   6   8
ATOM      8  C   UNL     1       1.109  -1.277   1.744  1.00  0.00     0.117 A 
ATOM      9  C   UNL     1       3.374  -0.523   0.649  1.00  0.00     0.069 C 
ATOM     10  C   UNL     1       2.443  -0.732   1.795  1.00  0.00     0.068 A 
ATOM     11  N   UNL     1       2.880  -0.399   3.012  1.00  0.00    -0.195 NA
ATOM     12  S   UNL     1       1.751  -0.843   4.130  1.00  0.00    -0.017 S 
ATOM     13  C   UNL     1       0.620  -1.441   3.044  1.00  0.00     0.131 A 
BRANCH  13  14
ATOM     14  N   UNL     1      -0.546  -2.088   3.367  1.00  0.00    -0.310 N 
ATOM     15  C   UNL     1      -1.242  -2.540   4.415  1.00  0.00     0.286 C 
ATOM     16  H   UNL     1      -1.041  -2.289   2.541  1.00  0.00     0.171 HD
ATOM     17  O   UNL     1      -2.230  -3.205   4.022  1.00  0.00    -0.267 OA
BRANCH  15  18
ATOM     18  C   UNL     1      -1.162  -2.319   5.963  1.00  0.00     0.174 C 
ATOM     19  C   UNL     1      -0.117  -1.461   6.670  1.00  0.00     0.079 C 
ATOM     20  C   UNL     1      -1.086  -3.741   6.595  1.00  0.00     0.082 C 
ATOM     21  C   UNL     1      -0.354  -1.395   8.194  1.00  0.00     0.007 C 
ATOM     22  C   UNL     1      -1.258  -3.813   8.123  1.00  0.00    -0.008 C 
ATOM     23  C   UNL     1      -0.395  -2.775   8.853  1.00  0.00     0.004 C 
ATOM     24  C   UNL     1      -2.729  -3.763   8.546  1.00  0.00     0.008 C 
BRANCH  18  25
ATOM     25  N   UNL     1      -2.482  -1.684   6.268  1.00  0.00    -0.345 N 
ATOM     26  H   UNL     1      -2.544  -1.491   7.268  1.00  0.00     0.345 HD
ATOM     27  H   UNL     1      -3.235  -2.317   5.997  1.00  0.00     0.345 HD
ATOM     28  H   UNL     1      -2.568  -0.811   5.747  1.00  0.00     0.345 HD
ENDBRANCH  18  25
ENDBRANCH  15  18
ENDBRANCH  13  14
ENDBRANCH   6   8
ENDBRANCH   5   6
ENDBRANCH   4   5
ENDBRANCH   3   4
ENDBRANCH   2   3
ENDBRANCH   1   2
BRANCH   1  29
ATOM     29  C   UNL     1       2.440  -4.443   1.383  1.00  0.00     0.188 C 
BRANCH  29  30
ATOM     30  O   UNL     1       3.074  -4.318   0.119  1.00  0.00    -0.376 OA
BRANCH  30  31
ATOM     31  C   UNL     1       4.209  -5.146  -0.120  1.00  0.00     0.202 C 
BRANCH  31  32
ATOM     32  C   UNL     1       3.959  -6.651  -0.233  1.00  0.00     0.261 C 
BRANCH  32  33
ATOM     33  O   UNL     1       3.064  -7.155   0.742  1.00  0.00    -0.460 OA
BRANCH  33  34
ATOM     34  C   UNL     1       3.546  -7.210   1.998  1.00  0.00     0.338 C 
ATOM     35  O   UNL     1       4.610  -6.768   2.395  1.00  0.00    -0.246 OA
BRANCH  34  36
ATOM     36  C   UNL     1       2.571  -7.926   2.829  1.00  0.00     0.060 A 
ATOM     37  C   UNL     1       2.864  -7.997   4.191  1.00  0.00     0.016 A 
ATOM     38  C   UNL     1       1.670  -8.797   2.199  1.00  0.00     0.016 A 
ATOM     39  C   UNL     1       2.525  -9.153   4.846  1.00  0.00     0.010 A 
ATOM     40  C   UNL     1       1.358  -9.963   2.843  1.00  0.00     0.010 A 
ATOM     41  C   UNL     1       1.907 -10.165   4.106  1.00  0.00    -0.014 A 
BRANCH  41  42
ATOM     42  C   UNL     1       1.979 -11.501   4.642  1.00  0.00     0.031 A 
ATOM     43  C   UNL     1       0.934 -11.818   5.625  1.00  0.00     0.074 A 
ATOM     44  C   UNL     1       2.899 -12.373   4.186  1.00  0.00     0.049 A 
ATOM     45  N   UNL     1       1.082 -12.084   6.878  1.00  0.00    -0.248 NA
ATOM     46  C   UNL     1      -0.459 -11.672   5.185  1.00  0.00     0.031 C 
ATOM     47  C   UNL     1       3.744 -12.240   2.992  1.00  0.00     0.029 A 
ATOM     48  N   UNL     1       3.146 -13.642   4.605  1.00  0.00    -0.354 N 
ATOM     49  C   UNL     1      -0.201 -12.361   7.334  1.00  0.00     0.074 A 
ATOM     50  C   UNL     1      -1.112 -11.894   6.323  1.00  0.00     0.031 C 
ATOM     51  C   UNL     1       4.187 -13.466   2.636  1.00  0.00     0.029 A 
ATOM     52  C   UNL     1       3.757 -14.426   3.637  1.00  0.00     0.049 A 
ATOM     53  H   UNL     1       2.914 -13.971   5.503  1.00  0.00     0.167 HD
ATOM     54  C   UNL     1      -0.416 -13.196   8.383  1.00  0.00     0.034 A 
ATOM     55  C   UNL     1       3.778 -15.780   3.611  1.00  0.00     0.034 A 
ATOM     56  C   UNL     1       0.774 -13.404   9.162  1.00  0.00     0.049 A 
ATOM     57  C   UNL     1       3.452 -16.260   4.976  1.00  0.00     0.074 A 
ATOM     58  C   UNL     1       1.638 -12.590   9.866  1.00  0.00     0.029 A 
ATOM     59  N   UNL     1       1.421 -14.606   9.006  1.00  0.00    -0.354 N 
ATOM     60  N   UNL     1       4.224 -16.095   6.016  1.00  0.00    -0.248 NA
ATOM     61  C   UNL     1       2.065 -16.583   5.275  1.00  0.00     0.031 C 
ATOM     62  C   UNL     1       2.919 -13.193   9.723  1.00  0.00     0.029 A 
ATOM     63  C   UNL     1       2.764 -14.349   8.953  1.00  0.00     0.049 A 
ATOM     64  H   UNL     1       0.995 -15.491   8.944  1.00  0.00     0.167 HD
ATOM     65  C   UNL     1       3.349 -15.875   7.073  1.00  0.00     0.074 A 
ATOM     66  C   UNL     1       2.045 -16.309   6.582  1.00  0.00     0.031 C 
ATOM     67  C   UNL     1       3.702 -15.092   8.136  1.00  0.00     0.034 A 
BRANCH  54  68
ATOM     68  C   UNL     1      -1.609 -14.108   8.499  1.00  0.00     0.023 A 
ATOM     69  C   UNL     1      -1.802 -14.761   9.735  1.00  0.00     0.012 A 
ATOM     70  C   UNL     1      -2.383 -14.559   7.406  1.00  0.00     0.148 A 
ATOM     71  C   UNL     1      -2.686 -15.836   9.862  1.00  0.00     0.002 A 
ATOM     72  C   UNL     1      -3.329 -15.563   7.561  1.00  0.00     0.091 A 
ATOM     73  F   UNL     1      -2.121 -14.130   6.166  1.00  0.00    -0.205 F 
ATOM     74  C   UNL     1      -3.461 -16.230   8.779  1.00  0.00     0.022 A 
BRANCH  72  75
ATOM     75  S   UNL     1      -4.395 -16.037   6.196  1.00  0.00     0.127 S 
ATOM     76  O   UNL     1      -3.683 -17.188   5.652  1.00  0.00    -0.237 OA
ATOM     77  O   UNL     1      -5.650 -16.350   6.880  1.00  0.00    -0.237 OA
ATOM     78  O   UNL     1      -4.464 -14.853   5.347  1.00  0.00    -0.744 OA
ENDBRANCH  72  75
ENDBRANCH  54  68
BRANCH  55  79
ATOM     79  C   UNL     1       3.762 -16.669   2.427  1.00  0.00     0.023 A 
ATOM     80  C   UNL     1       4.210 -17.997   2.549  1.00  0.00     0.012 A 
ATOM     81  C   UNL     1       3.095 -16.298   1.235  1.00  0.00     0.148 A 
ATOM     82  C   UNL     1       3.991 -18.928   1.526  1.00  0.00     0.002 A 
ATOM     83  C   UNL     1       2.902 -17.219   0.211  1.00  0.00     0.091 A 
ATOM     84  F   UNL     1       2.566 -15.071   1.141  1.00  0.00    -0.205 F 
ATOM     85  C   UNL     1       3.339 -18.540   0.358  1.00  0.00     0.022 A 
BRANCH  83  86
ATOM     86  S   UNL     1       2.080 -16.774  -1.326  1.00  0.00     0.127 S 
ATOM     87  O   UNL     1       2.937 -17.412  -2.327  1.00  0.00    -0.237 OA
ATOM     88  O   UNL     1       0.768 -17.393  -1.159  1.00  0.00    -0.237 OA
ATOM     89  O   UNL     1       2.097 -15.317  -1.374  1.00  0.00    -0.744 OA
ENDBRANCH  83  86
ENDBRANCH  55  79
BRANCH  67  90
ATOM     90  C   UNL     1       5.149 -14.699   8.294  1.00  0.00     0.023 A 
ATOM     91  C   UNL     1       5.795 -13.873   7.352  1.00  0.00     0.012 A 
ATOM     92  C   UNL     1       5.787 -14.965   9.519  1.00  0.00     0.148 A 
ATOM     93  C   UNL     1       7.054 -13.331   7.620  1.00  0.00     0.002 A 
ATOM     94  C   UNL     1       7.018 -14.384   9.803  1.00  0.00     0.091 A 
ATOM     95  F   UNL     1       5.155 -15.746  10.408  1.00  0.00    -0.205 F 
ATOM     96  C   UNL     1       7.658 -13.572   8.852  1.00  0.00     0.022 A 
BRANCH  94  97
ATOM     97  S   UNL     1       7.777 -14.527  11.424  1.00  0.00     0.127 S 
ATOM     98  O   UNL     1       8.855 -15.481  11.174  1.00  0.00    -0.237 OA
ATOM     99  O   UNL     1       8.221 -13.157  11.686  1.00  0.00    -0.237 OA
ATOM    100  O   UNL     1       6.724 -14.990  12.319  1.00  0.00    -0.744 OA
ENDBRANCH  94  97
ENDBRANCH  67  90
ENDBRANCH  41  42
ENDBRANCH  34  36
ENDBRANCH  33  34
ENDBRANCH  32  33
ENDBRANCH  31  32
ENDBRANCH  30  31
ENDBRANCH  29  30
ENDBRANCH   1  29
TORSDOF 23
