REMARK SMILES C[NH2+][C@@]1(C(=O)OCCOCCOCCOC(=O)c2ccc(-c3c4nc(c(-c5cccc(S(=O)(=O)[O-])c5F)c5ccc([nH]5)c(-c5cccc(S(=O)(=O)[O-])c5F)c5nc(c(-c6cccc(S(=O)(=O)[O-])c6F)c6ccc3[nH]6)C=C5)C=C4)cc2)CCC[C@@H]([N@@H+](C)C2CC[NH+](C)CC2)C1
REMARK SMILES IDX 11 1 10 2 9 3 8 4 7 5 6 6 4 7 5 8 3 9 81 10 94 11 82 12
REMARK SMILES IDX 84 13 83 14 2 15 1 16 85 19 86 20 87 22 88 23 93 24 89 25
REMARK SMILES IDX 92 26 90 27 91 28 12 30 13 31 14 32 15 33 16 34 17 35 18 36
REMARK SMILES IDX 19 37 80 38 20 39 79 40 21 41 22 42 23 43 73 44 24 45 78 46
REMARK SMILES IDX 72 47 74 48 25 49 77 50 71 51 70 52 26 54 58 55 38 56 57 57
REMARK SMILES IDX 39 58 42 59 56 60 75 61 40 62 41 63 55 65 76 66 43 67 27 68
REMARK SMILES IDX 28 69 36 70 29 71 31 72 37 73 30 74 32 75 33 76 34 77 35 78
REMARK SMILES IDX 59 79 60 80 68 81 61 82 63 83 69 84 62 85 64 86 65 87 66 88
REMARK SMILES IDX 67 89 44 90 45 91 53 92 46 93 48 94 54 95 47 96 49 97 50 98
REMARK SMILES IDX 51 99 52 100
REMARK H PARENT 2 17 2 18 85 21 90 29 74 53 42 64
REMARK Flexibility Score: inf
ROOT
ATOM      1  C   UNL     1      -1.162   1.634  -4.435  1.00  0.00     0.188 C 
ENDROOT
BRANCH   1   2
ATOM      2  C   UNL     1      -0.634   0.247  -4.798  1.00  0.00     0.188 C 
BRANCH   2   3
ATOM      3  O   UNL     1      -1.319  -0.462  -5.819  1.00  0.00    -0.376 OA
BRANCH   3   4
ATOM      4  C   UNL     1      -2.724  -0.628  -5.676  1.00  0.00     0.202 C 
BRANCH   4   5
ATOM      5  C   UNL     1      -3.225  -1.492  -4.507  1.00  0.00     0.261 C 
BRANCH   5   6
ATOM      6  O   UNL     1      -2.772  -1.092  -3.198  1.00  0.00    -0.459 OA
BRANCH   6   7
ATOM      7  C   UNL     1      -1.803  -1.887  -2.670  1.00  0.00     0.368 C 
ATOM      8  O   UNL     1      -1.345  -2.876  -3.241  1.00  0.00    -0.245 OA
BRANCH   7   9
ATOM      9  C   UNL     1      -1.290  -1.446  -1.256  1.00  0.00     0.199 C 
ATOM     10  C   UNL     1      -1.790  -2.551  -0.315  1.00  0.00     0.081 C 
ATOM     11  C   UNL     1      -1.788  -0.071  -0.755  1.00  0.00     0.146 C 
ATOM     12  C   UNL     1      -3.310  -2.613  -0.263  1.00  0.00     0.013 C 
ATOM     13  C   UNL     1      -3.224   0.010  -0.184  1.00  0.00     0.190 C 
ATOM     14  C   UNL     1      -3.995  -1.297   0.076  1.00  0.00     0.065 C 
BRANCH   9  15
ATOM     15  N   UNL     1       0.204  -1.587  -1.316  1.00  0.00    -0.334 N 
ATOM     16  C   UNL     1       1.070  -0.561  -0.775  1.00  0.00     0.331 C 
ATOM     17  H   UNL     1       0.434  -2.451  -0.825  1.00  0.00     0.347 HD
ATOM     18  H   UNL     1       0.394  -1.538  -2.317  1.00  0.00     0.347 HD
ENDBRANCH   9  15
BRANCH  13  19
ATOM     19  N   UNL     1      -3.414   1.068   0.853  1.00  0.00    -0.332 N 
ATOM     20  C   UNL     1      -4.808   1.543   0.869  1.00  0.00     0.333 C 
ATOM     21  H   UNL     1      -2.726   1.723   0.483  1.00  0.00     0.348 HD
BRANCH  19  22
ATOM     22  C   UNL     1      -2.879   0.989   2.249  1.00  0.00     0.195 C 
ATOM     23  C   UNL     1      -1.357   1.109   2.452  1.00  0.00     0.126 C 
ATOM     24  C   UNL     1      -3.435  -0.056   3.237  1.00  0.00     0.126 C 
ATOM     25  C   UNL     1      -0.618  -0.218   2.594  1.00  0.00     0.268 C 
ATOM     26  C   UNL     1      -2.637  -1.356   3.300  1.00  0.00     0.268 C 
ATOM     27  N   UNL     1      -1.211  -1.138   3.569  1.00  0.00    -0.337 N 
ATOM     28  C   UNL     1      -0.500  -2.427   3.525  1.00  0.00     0.332 C 
ATOM     29  H   UNL     1      -1.122  -0.721   4.496  1.00  0.00     0.347 HD
ENDBRANCH  19  22
ENDBRANCH  13  19
ENDBRANCH   7   9
ENDBRANCH   6   7
ENDBRANCH   5   6
ENDBRANCH   4   5
ENDBRANCH   3   4
ENDBRANCH   2   3
ENDBRANCH   1   2
BRANCH   1  30
ATOM     30  O   UNL     1      -2.554   1.702  -4.141  1.00  0.00    -0.376 OA
BRANCH  30  31
ATOM     31  C   UNL     1      -3.020   2.955  -3.626  1.00  0.00     0.202 C 
BRANCH  31  32
ATOM     32  C   UNL     1      -2.581   4.213  -4.402  1.00  0.00     0.261 C 
BRANCH  32  33
ATOM     33  O   UNL     1      -1.157   4.441  -4.391  1.00  0.00    -0.460 OA
BRANCH  33  34
ATOM     34  C   UNL     1      -0.559   4.545  -3.179  1.00  0.00     0.338 C 
ATOM     35  O   UNL     1      -1.124   4.738  -2.115  1.00  0.00    -0.246 OA
BRANCH  34  36
ATOM     36  C   UNL     1       0.864   4.126  -3.312  1.00  0.00     0.060 A 
ATOM     37  C   UNL     1       1.446   3.416  -2.251  1.00  0.00     0.016 A 
ATOM     38  C   UNL     1       1.598   4.347  -4.482  1.00  0.00     0.016 A 
ATOM     39  C   UNL     1       2.774   2.986  -2.332  1.00  0.00     0.010 A 
ATOM     40  C   UNL     1       2.928   3.917  -4.562  1.00  0.00     0.010 A 
ATOM     41  C   UNL     1       3.538   3.274  -3.470  1.00  0.00    -0.014 A 
BRANCH  41  42
ATOM     42  C   UNL     1       5.016   3.112  -3.436  1.00  0.00     0.031 A 
ATOM     43  C   UNL     1       5.855   4.332  -3.152  1.00  0.00     0.074 A 
ATOM     44  C   UNL     1       5.619   1.927  -3.646  1.00  0.00     0.049 A 
ATOM     45  N   UNL     1       7.155   4.454  -3.100  1.00  0.00    -0.248 NA
ATOM     46  C   UNL     1       5.123   5.585  -2.896  1.00  0.00     0.031 C 
ATOM     47  C   UNL     1       4.941   0.664  -3.924  1.00  0.00     0.029 A 
ATOM     48  N   UNL     1       6.957   1.607  -3.679  1.00  0.00    -0.354 N 
ATOM     49  C   UNL     1       7.399   5.795  -2.829  1.00  0.00     0.074 A 
ATOM     50  C   UNL     1       6.112   6.451  -2.746  1.00  0.00     0.031 C 
ATOM     51  C   UNL     1       5.868  -0.291  -4.128  1.00  0.00     0.029 A 
ATOM     52  C   UNL     1       7.204   0.297  -4.018  1.00  0.00     0.049 A 
ATOM     53  H   UNL     1       7.670   2.255  -3.480  1.00  0.00     0.167 HD
ATOM     54  C   UNL     1       8.581   6.428  -2.646  1.00  0.00     0.034 A 
ATOM     55  C   UNL     1       8.370  -0.347  -4.235  1.00  0.00     0.034 A 
ATOM     56  C   UNL     1       9.865   5.788  -2.711  1.00  0.00     0.049 A 
ATOM     57  C   UNL     1       9.678   0.390  -4.064  1.00  0.00     0.074 A 
ATOM     58  C   UNL     1      11.114   6.348  -2.503  1.00  0.00     0.029 A 
ATOM     59  N   UNL     1      10.071   4.454  -3.021  1.00  0.00    -0.354 N 
ATOM     60  N   UNL     1       9.889   1.629  -3.691  1.00  0.00    -0.248 NA
ATOM     61  C   UNL     1      10.912  -0.374  -4.314  1.00  0.00     0.031 C 
ATOM     62  C   UNL     1      12.077   5.356  -2.713  1.00  0.00     0.029 A 
ATOM     63  C   UNL     1      11.426   4.173  -3.021  1.00  0.00     0.049 A 
ATOM     64  H   UNL     1       9.358   3.803  -3.212  1.00  0.00     0.167 HD
ATOM     65  C   UNL     1      11.272   1.780  -3.625  1.00  0.00     0.074 A 
ATOM     66  C   UNL     1      11.850   0.502  -3.978  1.00  0.00     0.031 C 
ATOM     67  C   UNL     1      11.997   2.884  -3.313  1.00  0.00     0.034 A 
BRANCH  54  68
ATOM     68  C   UNL     1       8.535   7.899  -2.332  1.00  0.00     0.023 A 
ATOM     69  C   UNL     1       8.105   8.326  -1.059  1.00  0.00     0.012 A 
ATOM     70  C   UNL     1       8.955   8.853  -3.279  1.00  0.00     0.148 A 
ATOM     71  C   UNL     1       8.063   9.683  -0.744  1.00  0.00     0.002 A 
ATOM     72  C   UNL     1       8.953  10.200  -2.941  1.00  0.00     0.091 A 
ATOM     73  F   UNL     1       9.335   8.426  -4.491  1.00  0.00    -0.205 F 
ATOM     74  C   UNL     1       8.497  10.618  -1.680  1.00  0.00     0.022 A 
BRANCH  72  75
ATOM     75  S   UNL     1       9.564  11.474  -4.051  1.00  0.00     0.127 S 
ATOM     76  O   UNL     1       8.323  12.140  -4.444  1.00  0.00    -0.237 OA
ATOM     77  O   UNL     1      10.426  12.261  -3.169  1.00  0.00    -0.237 OA
ATOM     78  O   UNL     1      10.264  10.774  -5.118  1.00  0.00    -0.744 OA
ENDBRANCH  72  75
ENDBRANCH  54  68
BRANCH  55  79
ATOM     79  C   UNL     1       8.370  -1.787  -4.624  1.00  0.00     0.023 A 
ATOM     80  C   UNL     1       8.868  -2.753  -3.727  1.00  0.00     0.012 A 
ATOM     81  C   UNL     1       7.895  -2.201  -5.884  1.00  0.00     0.148 A 
ATOM     82  C   UNL     1       8.923  -4.099  -4.090  1.00  0.00     0.002 A 
ATOM     83  C   UNL     1       7.904  -3.551  -6.218  1.00  0.00     0.091 A 
ATOM     84  F   UNL     1       7.448  -1.265  -6.732  1.00  0.00    -0.205 F 
ATOM     85  C   UNL     1       8.433  -4.500  -5.330  1.00  0.00     0.022 A 
BRANCH  83  86
ATOM     86  S   UNL     1       7.191  -4.170  -7.746  1.00  0.00     0.127 S 
ATOM     87  O   UNL     1       8.380  -4.605  -8.475  1.00  0.00    -0.237 OA
ATOM     88  O   UNL     1       6.336  -5.254  -7.261  1.00  0.00    -0.237 OA
ATOM     89  O   UNL     1       6.469  -3.047  -8.327  1.00  0.00    -0.744 OA
ENDBRANCH  83  86
ENDBRANCH  55  79
BRANCH  67  90
ATOM     90  C   UNL     1      13.501   2.766  -3.291  1.00  0.00     0.023 A 
ATOM     91  C   UNL     1      14.216   2.651  -4.500  1.00  0.00     0.012 A 
ATOM     92  C   UNL     1      14.212   2.861  -2.077  1.00  0.00     0.148 A 
ATOM     93  C   UNL     1      15.611   2.602  -4.498  1.00  0.00     0.002 A 
ATOM     94  C   UNL     1      15.602   2.859  -2.087  1.00  0.00     0.091 A 
ATOM     95  F   UNL     1      13.516   2.954  -0.934  1.00  0.00    -0.205 F 
ATOM     96  C   UNL     1      16.303   2.718  -3.295  1.00  0.00     0.022 A 
BRANCH  94  97
ATOM     97  S   UNL     1      16.579   3.101  -0.597  1.00  0.00     0.127 S 
ATOM     98  O   UNL     1      17.121   1.762  -0.375  1.00  0.00    -0.237 OA
ATOM     99  O   UNL     1      17.564   4.094  -1.029  1.00  0.00    -0.237 OA
ATOM    100  O   UNL     1      15.649   3.576   0.419  1.00  0.00    -0.744 OA
ENDBRANCH  94  97
ENDBRANCH  67  90
ENDBRANCH  41  42
ENDBRANCH  34  36
ENDBRANCH  33  34
ENDBRANCH  32  33
ENDBRANCH  31  32
ENDBRANCH  30  31
ENDBRANCH   1  30
TORSDOF 23
