REMARK SMILES CSc1nc(O)nc(C)c1C(=O)N1C[C@@H](O)C[C@@H]1C(=O)OCCOCCOCCOC(=O)c1ccc(-c2c3nc(c(-c4cccc(S(=O)(=O)[O-])c4F)c4ccc([nH]4)c(-c4cccc(S(=O)(=O)[O-])c4F)c4nc(c(-c5cccc(S(=O)(=O)[O-])c5F)c5ccc2[nH]5)C=C4)C=C3)cc1
REMARK SMILES IDX 25 1 24 2 23 3 22 4 21 5 19 6 20 7 18 8 13 9 14 10 15 11
REMARK SMILES IDX 17 12 11 13 12 14 10 15 3 16 4 17 5 18 8 19 7 20 9 21 2 22
REMARK SMILES IDX 1 23 6 24 16 26 26 28 27 29 28 30 29 31 30 32 31 33 32 34
REMARK SMILES IDX 33 35 34 36 95 37 35 38 94 39 36 40 37 41 38 42 88 43 39 44
REMARK SMILES IDX 93 45 87 46 89 47 40 48 92 49 86 50 85 51 41 53 73 54 53 55
REMARK SMILES IDX 72 56 54 57 57 58 71 59 90 60 55 61 56 62 70 64 91 65 58 66
REMARK SMILES IDX 42 67 43 68 51 69 44 70 46 71 52 72 45 73 47 74 48 75 49 76
REMARK SMILES IDX 50 77 74 78 75 79 83 80 76 81 78 82 84 83 77 84 79 85 80 86
REMARK SMILES IDX 81 87 82 88 59 89 60 90 68 91 61 92 63 93 69 94 62 95 64 96
REMARK SMILES IDX 65 97 66 98 67 99
REMARK H PARENT 6 25 16 27 89 52 57 63
REMARK Flexibility Score: inf
ROOT
ATOM      1  C   UNL     1       3.756  -3.585   0.990  1.00  0.00     0.188 C 
ENDROOT
BRANCH   1   2
ATOM      2  O   UNL     1       4.784  -4.054   1.852  1.00  0.00    -0.376 OA
BRANCH   2   3
ATOM      3  C   UNL     1       4.753  -5.406   2.269  1.00  0.00     0.202 C 
BRANCH   3   4
ATOM      4  C   UNL     1       3.547  -5.818   3.111  1.00  0.00     0.261 C 
BRANCH   4   5
ATOM      5  O   UNL     1       2.260  -5.544   2.501  1.00  0.00    -0.462 OA
BRANCH   5   6
ATOM      6  C   UNL     1       1.399  -4.825   3.269  1.00  0.00     0.329 C 
ATOM      7  O   UNL     1       1.699  -4.444   4.398  1.00  0.00    -0.250 OA
BRANCH   6   8
ATOM      8  C   UNL     1      -0.049  -4.700   2.690  1.00  0.00     0.198 C 
ATOM      9  N   UNL     1      -0.439  -3.920   1.439  1.00  0.00    -0.322 N 
ATOM     10  C   UNL     1      -1.472  -2.991   1.856  1.00  0.00     0.152 C 
ATOM     11  C   UNL     1      -1.196  -2.667   3.301  1.00  0.00     0.136 C 
ATOM     12  C   UNL     1      -0.895  -4.047   3.829  1.00  0.00     0.071 C 
BRANCH   9  13
ATOM     13  C   UNL     1      -0.639  -4.535   0.175  1.00  0.00     0.259 C 
ATOM     14  O   UNL     1      -0.889  -5.739   0.132  1.00  0.00    -0.269 OA
BRANCH  13  15
ATOM     15  C   UNL     1      -0.393  -3.792  -1.142  1.00  0.00     0.093 A 
ATOM     16  C   UNL     1      -0.782  -2.503  -1.531  1.00  0.00     0.116 A 
ATOM     17  N   UNL     1      -0.310  -1.869  -2.637  1.00  0.00    -0.188 NA
ATOM     18  C   UNL     1       0.475  -2.567  -3.436  1.00  0.00     0.315 A 
ATOM     19  C   UNL     1       0.326  -4.453  -2.157  1.00  0.00     0.058 A 
ATOM     20  N   UNL     1       0.804  -3.837  -3.276  1.00  0.00    -0.200 NA
ATOM     21  C   UNL     1       0.544  -5.940  -2.203  1.00  0.00     0.068 C 
BRANCH  16  22
ATOM     22  S   UNL     1      -2.207  -1.610  -0.926  1.00  0.00    -0.109 SA
ATOM     23  C   UNL     1      -1.360  -0.139  -0.260  1.00  0.00     0.092 C 
ENDBRANCH  16  22
BRANCH  18  24
ATOM     24  O   UNL     1       1.024  -1.934  -4.503  1.00  0.00    -0.479 OA
ATOM     25  H   UNL     1       0.827  -1.033  -4.666  1.00  0.00     0.297 HD
ENDBRANCH  18  24
ENDBRANCH  13  15
ENDBRANCH   9  13
BRANCH  11  26
ATOM     26  O   UNL     1      -2.288  -2.062   3.963  1.00  0.00    -0.391 OA
ATOM     27  H   UNL     1      -3.066  -2.637   3.897  1.00  0.00     0.211 HD
ENDBRANCH  11  26
ENDBRANCH   6   8
ENDBRANCH   5   6
ENDBRANCH   4   5
ENDBRANCH   3   4
ENDBRANCH   2   3
ENDBRANCH   1   2
BRANCH   1  28
ATOM     28  C   UNL     1       3.135  -4.538  -0.052  1.00  0.00     0.188 C 
BRANCH  28  29
ATOM     29  O   UNL     1       4.012  -5.553  -0.514  1.00  0.00    -0.376 OA
BRANCH  29  30
ATOM     30  C   UNL     1       4.308  -5.497  -1.903  1.00  0.00     0.202 C 
BRANCH  30  31
ATOM     31  C   UNL     1       5.262  -4.358  -2.253  1.00  0.00     0.261 C 
BRANCH  31  32
ATOM     32  O   UNL     1       4.685  -3.065  -1.983  1.00  0.00    -0.460 OA
BRANCH  32  33
ATOM     33  C   UNL     1       4.075  -2.422  -3.004  1.00  0.00     0.338 C 
ATOM     34  O   UNL     1       3.943  -2.822  -4.147  1.00  0.00    -0.246 OA
BRANCH  33  35
ATOM     35  C   UNL     1       3.561  -1.121  -2.511  1.00  0.00     0.060 A 
ATOM     36  C   UNL     1       2.767  -1.054  -1.363  1.00  0.00     0.016 A 
ATOM     37  C   UNL     1       3.785   0.037  -3.254  1.00  0.00     0.016 A 
ATOM     38  C   UNL     1       2.186   0.145  -0.965  1.00  0.00     0.010 A 
ATOM     39  C   UNL     1       3.208   1.248  -2.846  1.00  0.00     0.010 A 
ATOM     40  C   UNL     1       2.377   1.307  -1.714  1.00  0.00    -0.014 A 
BRANCH  40  41
ATOM     41  C   UNL     1       1.609   2.536  -1.383  1.00  0.00     0.031 A 
ATOM     42  C   UNL     1       0.577   3.045  -2.351  1.00  0.00     0.074 A 
ATOM     43  C   UNL     1       1.757   3.168  -0.201  1.00  0.00     0.049 A 
ATOM     44  N   UNL     1      -0.051   4.191  -2.354  1.00  0.00    -0.248 NA
ATOM     45  C   UNL     1       0.185   2.139  -3.445  1.00  0.00     0.031 C 
ATOM     46  C   UNL     1       2.612   2.728   0.900  1.00  0.00     0.029 A 
ATOM     47  N   UNL     1       1.180   4.326   0.266  1.00  0.00    -0.354 N 
ATOM     48  C   UNL     1      -0.854   4.178  -3.486  1.00  0.00     0.074 A 
ATOM     49  C   UNL     1      -0.668   2.893  -4.125  1.00  0.00     0.031 C 
ATOM     50  C   UNL     1       2.497   3.598   1.917  1.00  0.00     0.029 A 
ATOM     51  C   UNL     1       1.633   4.703   1.508  1.00  0.00     0.049 A 
ATOM     52  H   UNL     1       0.508   4.836  -0.241  1.00  0.00     0.167 HD
ATOM     53  C   UNL     1      -1.672   5.149  -3.951  1.00  0.00     0.034 A 
ATOM     54  C   UNL     1       1.428   5.832   2.216  1.00  0.00     0.034 A 
ATOM     55  C   UNL     1      -1.920   6.399  -3.289  1.00  0.00     0.049 A 
ATOM     56  C   UNL     1       0.596   6.942   1.635  1.00  0.00     0.074 A 
ATOM     57  C   UNL     1      -2.720   7.447  -3.711  1.00  0.00     0.029 A 
ATOM     58  N   UNL     1      -1.393   6.766  -2.064  1.00  0.00    -0.354 N 
ATOM     59  N   UNL     1      -0.108   6.950   0.530  1.00  0.00    -0.248 NA
ATOM     60  C   UNL     1       0.543   8.204   2.390  1.00  0.00     0.031 C 
ATOM     61  C   UNL     1      -2.674   8.452  -2.741  1.00  0.00     0.029 A 
ATOM     62  C   UNL     1      -1.849   8.025  -1.714  1.00  0.00     0.049 A 
ATOM     63  H   UNL     1      -0.783   6.214  -1.522  1.00  0.00     0.167 HD
ATOM     64  C   UNL     1      -0.692   8.211   0.461  1.00  0.00     0.074 A 
ATOM     65  C   UNL     1      -0.279   8.934   1.644  1.00  0.00     0.031 C 
ATOM     66  C   UNL     1      -1.479   8.726  -0.514  1.00  0.00     0.034 A 
BRANCH  53  67
ATOM     67  C   UNL     1      -2.374   4.914  -5.255  1.00  0.00     0.023 A 
ATOM     68  C   UNL     1      -3.585   4.199  -5.276  1.00  0.00     0.012 A 
ATOM     69  C   UNL     1      -1.891   5.512  -6.435  1.00  0.00     0.148 A 
ATOM     70  C   UNL     1      -4.312   4.085  -6.460  1.00  0.00     0.002 A 
ATOM     71  C   UNL     1      -2.636   5.421  -7.602  1.00  0.00     0.091 A 
ATOM     72  F   UNL     1      -0.724   6.170  -6.384  1.00  0.00    -0.205 F 
ATOM     73  C   UNL     1      -3.845   4.707  -7.617  1.00  0.00     0.022 A 
BRANCH  71  74
ATOM     74  S   UNL     1      -2.153   6.242  -9.125  1.00  0.00     0.127 S 
ATOM     75  O   UNL     1      -1.846   5.103  -9.990  1.00  0.00    -0.237 OA
ATOM     76  O   UNL     1      -3.371   6.969  -9.481  1.00  0.00    -0.237 OA
ATOM     77  O   UNL     1      -1.016   7.086  -8.786  1.00  0.00    -0.744 OA
ENDBRANCH  71  74
ENDBRANCH  53  67
BRANCH  54  78
ATOM     78  C   UNL     1       2.059   5.985   3.556  1.00  0.00     0.023 A 
ATOM     79  C   UNL     1       1.252   5.949   4.707  1.00  0.00     0.012 A 
ATOM     80  C   UNL     1       3.454   6.123   3.692  1.00  0.00     0.148 A 
ATOM     81  C   UNL     1       1.825   6.049   5.976  1.00  0.00     0.002 A 
ATOM     82  C   UNL     1       4.023   6.171   4.958  1.00  0.00     0.091 A 
ATOM     83  F   UNL     1       4.197   6.178   2.578  1.00  0.00    -0.205 F 
ATOM     84  C   UNL     1       3.209   6.146   6.101  1.00  0.00     0.022 A 
BRANCH  82  85
ATOM     85  S   UNL     1       5.799   6.179   5.220  1.00  0.00     0.127 S 
ATOM     86  O   UNL     1       6.003   7.484   5.844  1.00  0.00    -0.237 OA
ATOM     87  O   UNL     1       5.974   5.034   6.112  1.00  0.00    -0.237 OA
ATOM     88  O   UNL     1       6.395   6.016   3.901  1.00  0.00    -0.744 OA
ENDBRANCH  82  85
ENDBRANCH  54  78
BRANCH  66  89
ATOM     89  C   UNL     1      -1.970  10.140  -0.366  1.00  0.00     0.023 A 
ATOM     90  C   UNL     1      -1.108  11.202  -0.699  1.00  0.00     0.012 A 
ATOM     91  C   UNL     1      -3.311  10.411  -0.032  1.00  0.00     0.148 A 
ATOM     92  C   UNL     1      -1.573  12.517  -0.697  1.00  0.00     0.002 A 
ATOM     93  C   UNL     1      -3.776  11.721  -0.061  1.00  0.00     0.091 A 
ATOM     94  F   UNL     1      -4.110   9.381   0.285  1.00  0.00    -0.205 F 
ATOM     95  C   UNL     1      -2.907  12.775  -0.389  1.00  0.00     0.022 A 
BRANCH  93  96
ATOM     96  S   UNL     1      -5.493  12.151   0.250  1.00  0.00     0.127 S 
ATOM     97  O   UNL     1      -5.388  12.912   1.494  1.00  0.00    -0.237 OA
ATOM     98  O   UNL     1      -5.829  12.950  -0.928  1.00  0.00    -0.237 OA
ATOM     99  O   UNL     1      -6.213  10.889   0.356  1.00  0.00    -0.744 OA
ENDBRANCH  93  96
ENDBRANCH  66  89
ENDBRANCH  40  41
ENDBRANCH  33  35
ENDBRANCH  32  33
ENDBRANCH  31  32
ENDBRANCH  30  31
ENDBRANCH  29  30
ENDBRANCH  28  29
ENDBRANCH   1  28
TORSDOF 25
