REMARK SMILES O=C(CCN1C(=O)[C@@H]2[C@@H](C1=O)[C@H]1c3ccccc3[C@]2(Br)c2ccccc21)OCCOCCOCCOC(=O)c1ccc(-c2c3nc(c(-c4cccc(S(=O)(=O)[O-])c4F)c4ccc([nH]4)c(-c4cccc(S(=O)(=O)[O-])c4F)c4nc(c(-c5cccc(S(=O)(=O)[O-])c5F)c5ccc2[nH]5)C=C4)C=C3)cc1
REMARK SMILES IDX 32 1 31 2 30 3 29 4 28 5 27 6 2 7 1 8 3 9 4 10 5 11 6 12
REMARK SMILES IDX 10 13 7 14 8 15 9 16 11 17 19 18 12 19 21 20 20 21 18 22
REMARK SMILES IDX 26 23 13 24 22 25 17 26 25 27 14 28 23 29 16 30 24 31 15 32
REMARK SMILES IDX 33 33 34 34 35 35 36 36 37 37 38 38 39 39 40 40 101 41 41 42
REMARK SMILES IDX 100 43 42 44 43 45 44 46 94 47 45 48 99 49 93 50 95 51 46 52
REMARK SMILES IDX 98 53 92 54 91 55 47 57 79 58 59 59 78 60 60 61 63 62 77 63
REMARK SMILES IDX 96 64 61 65 62 66 76 68 97 69 64 70 48 71 49 72 57 73 50 74
REMARK SMILES IDX 52 75 58 76 51 77 53 78 54 79 55 80 56 81 80 82 81 83 89 84
REMARK SMILES IDX 82 85 84 86 90 87 83 88 85 89 86 90 87 91 88 92 65 93 66 94
REMARK SMILES IDX 74 95 67 96 69 97 75 98 68 99 70 100 71 101 72 102 73 103
REMARK H PARENT 95 56 63 67
REMARK Flexibility Score: inf
ROOT
ATOM      1  C   UNL     1       1.757   2.757   1.712  1.00  0.00     0.188 C 
ENDROOT
BRANCH   1   2
ATOM      2  C   UNL     1       2.098   1.266   1.837  1.00  0.00     0.188 C 
BRANCH   2   3
ATOM      3  O   UNL     1       3.466   0.909   1.893  1.00  0.00    -0.376 OA
BRANCH   3   4
ATOM      4  C   UNL     1       4.219   0.951   0.694  1.00  0.00     0.202 C 
BRANCH   4   5
ATOM      5  C   UNL     1       3.485   1.052  -0.644  1.00  0.00     0.261 C 
BRANCH   5   6
ATOM      6  O   UNL     1       2.423   0.118  -0.955  1.00  0.00    -0.463 OA
BRANCH   6   7
ATOM      7  C   UNL     1       2.237  -1.193  -0.727  1.00  0.00     0.307 C 
ATOM      8  O   UNL     1       1.228  -1.739  -1.171  1.00  0.00    -0.252 OA
BRANCH   7   9
ATOM      9  C   UNL     1       3.222  -1.982   0.088  1.00  0.00     0.144 C 
BRANCH   9  10
ATOM     10  C   UNL     1       4.336  -2.640  -0.721  1.00  0.00     0.140 C 
BRANCH  10  11
ATOM     11  N   UNL     1       5.241  -1.708  -1.378  1.00  0.00    -0.281 N 
ATOM     12  C   UNL     1       6.516  -1.345  -0.918  1.00  0.00     0.235 C 
ATOM     13  C   UNL     1       4.935  -1.113  -2.590  1.00  0.00     0.234 C 
ATOM     14  O   UNL     1       7.160  -1.840  -0.020  1.00  0.00    -0.274 OA
ATOM     15  C   UNL     1       6.799  -0.062  -1.653  1.00  0.00     0.118 C 
ATOM     16  C   UNL     1       6.186  -0.441  -3.006  1.00  0.00     0.105 C 
ATOM     17  O   UNL     1       3.918  -1.206  -3.257  1.00  0.00    -0.274 OA
ATOM     18  C   UNL     1       8.000   0.872  -1.904  1.00  0.00     0.088 C 
ATOM     19  C   UNL     1       6.304   0.742  -3.966  1.00  0.00     0.063 C 
ATOM     20  C   UNL     1       7.238   2.221  -2.182  1.00  0.00    -0.022 A 
ATOM     21  Br  UNL     1       9.152   0.960  -0.369  1.00  0.00    -0.074 Br
ATOM     22  C   UNL     1       8.689   0.539  -3.242  1.00  0.00    -0.022 A 
ATOM     23  C   UNL     1       6.263   2.085  -3.230  1.00  0.00    -0.035 A 
ATOM     24  C   UNL     1       7.782   0.551  -4.362  1.00  0.00    -0.035 A 
ATOM     25  C   UNL     1       7.378   3.449  -1.538  1.00  0.00     0.006 A 
ATOM     26  C   UNL     1      10.027   0.252  -3.468  1.00  0.00     0.006 A 
ATOM     27  C   UNL     1       5.422   3.140  -3.567  1.00  0.00     0.005 A 
ATOM     28  C   UNL     1       8.206   0.279  -5.654  1.00  0.00     0.005 A 
ATOM     29  C   UNL     1       6.543   4.512  -1.904  1.00  0.00     0.000 A 
ATOM     30  C   UNL     1      10.448  -0.030  -4.773  1.00  0.00     0.000 A 
ATOM     31  C   UNL     1       5.565   4.354  -2.895  1.00  0.00     0.000 A 
ATOM     32  C   UNL     1       9.550  -0.015  -5.851  1.00  0.00     0.000 A 
ENDBRANCH  10  11
ENDBRANCH   9  10
ENDBRANCH   7   9
ENDBRANCH   6   7
ENDBRANCH   5   6
ENDBRANCH   4   5
ENDBRANCH   3   4
ENDBRANCH   2   3
ENDBRANCH   1   2
BRANCH   1  33
ATOM     33  O   UNL     1       2.649   3.564   0.973  1.00  0.00    -0.376 OA
BRANCH  33  34
ATOM     34  C   UNL     1       3.817   4.123   1.557  1.00  0.00     0.202 C 
BRANCH  34  35
ATOM     35  C   UNL     1       4.223   4.059   3.042  1.00  0.00     0.261 C 
BRANCH  35  36
ATOM     36  O   UNL     1       3.884   2.885   3.778  1.00  0.00    -0.460 OA
BRANCH  36  37
ATOM     37  C   UNL     1       2.895   3.042   4.694  1.00  0.00     0.338 C 
ATOM     38  O   UNL     1       2.232   4.047   4.888  1.00  0.00    -0.246 OA
BRANCH  37  39
ATOM     39  C   UNL     1       2.619   1.747   5.340  1.00  0.00     0.060 A 
ATOM     40  C   UNL     1       3.626   1.079   6.033  1.00  0.00     0.016 A 
ATOM     41  C   UNL     1       1.320   1.223   5.285  1.00  0.00     0.016 A 
ATOM     42  C   UNL     1       3.324  -0.113   6.693  1.00  0.00     0.010 A 
ATOM     43  C   UNL     1       1.027   0.013   5.918  1.00  0.00     0.010 A 
ATOM     44  C   UNL     1       2.021  -0.646   6.652  1.00  0.00    -0.014 A 
BRANCH  44  45
ATOM     45  C   UNL     1       1.667  -1.750   7.573  1.00  0.00     0.031 A 
ATOM     46  C   UNL     1       1.570  -3.175   7.129  1.00  0.00     0.074 A 
ATOM     47  C   UNL     1       1.440  -1.424   8.861  1.00  0.00     0.049 A 
ATOM     48  N   UNL     1       1.472  -4.248   7.869  1.00  0.00    -0.248 NA
ATOM     49  C   UNL     1       1.575  -3.437   5.683  1.00  0.00     0.031 C 
ATOM     50  C   UNL     1       1.430  -0.057   9.386  1.00  0.00     0.029 A 
ATOM     51  N   UNL     1       1.193  -2.207   9.958  1.00  0.00    -0.354 N 
ATOM     52  C   UNL     1       1.403  -5.317   6.987  1.00  0.00     0.074 A 
ATOM     53  C   UNL     1       1.452  -4.760   5.650  1.00  0.00     0.031 C 
ATOM     54  C   UNL     1       1.229  -0.099  10.711  1.00  0.00     0.029 A 
ATOM     55  C   UNL     1       1.092  -1.491  11.126  1.00  0.00     0.049 A 
ATOM     56  H   UNL     1       1.097  -3.186   9.913  1.00  0.00     0.167 HD
ATOM     57  C   UNL     1       1.327  -6.638   7.276  1.00  0.00     0.034 A 
ATOM     58  C   UNL     1       0.938  -1.905  12.398  1.00  0.00     0.034 A 
ATOM     59  C   UNL     1       1.285  -7.175   8.611  1.00  0.00     0.049 A 
ATOM     60  C   UNL     1       0.893  -3.375  12.691  1.00  0.00     0.074 A 
ATOM     61  C   UNL     1       1.297  -8.504   8.999  1.00  0.00     0.029 A 
ATOM     62  N   UNL     1       1.197  -6.421   9.771  1.00  0.00    -0.354 N 
ATOM     63  N   UNL     1       1.008  -4.380  11.858  1.00  0.00    -0.248 NA
ATOM     64  C   UNL     1       0.731  -3.773  14.097  1.00  0.00     0.031 C 
ATOM     65  C   UNL     1       1.186  -8.555  10.391  1.00  0.00     0.029 A 
ATOM     66  C   UNL     1       1.136  -7.257  10.873  1.00  0.00     0.049 A 
ATOM     67  H   UNL     1       1.181  -5.438   9.806  1.00  0.00     0.167 HD
ATOM     68  C   UNL     1       0.959  -5.528  12.637  1.00  0.00     0.074 A 
ATOM     69  C   UNL     1       0.809  -5.096  14.012  1.00  0.00     0.031 C 
ATOM     70  C   UNL     1       1.026  -6.821  12.241  1.00  0.00     0.034 A 
BRANCH  57  71
ATOM     71  C   UNL     1       1.343  -7.624   6.140  1.00  0.00     0.023 A 
ATOM     72  C   UNL     1       2.568  -7.925   5.513  1.00  0.00     0.012 A 
ATOM     73  C   UNL     1       0.190  -8.358   5.799  1.00  0.00     0.148 A 
ATOM     74  C   UNL     1       2.646  -8.937   4.558  1.00  0.00     0.002 A 
ATOM     75  C   UNL     1       0.280  -9.384   4.865  1.00  0.00     0.091 A 
ATOM     76  F   UNL     1      -0.964  -8.054   6.410  1.00  0.00    -0.205 F 
ATOM     77  C   UNL     1       1.506  -9.673   4.243  1.00  0.00     0.022 A 
BRANCH  75  78
ATOM     78  S   UNL     1      -1.113 -10.430   4.425  1.00  0.00     0.127 S 
ATOM     79  O   UNL     1      -1.304 -10.085   3.016  1.00  0.00    -0.237 OA
ATOM     80  O   UNL     1      -0.576 -11.770   4.658  1.00  0.00    -0.237 OA
ATOM     81  O   UNL     1      -2.204 -10.043   5.308  1.00  0.00    -0.744 OA
ENDBRANCH  75  78
ENDBRANCH  57  71
BRANCH  58  82
ATOM     82  C   UNL     1       0.924  -0.894  13.486  1.00  0.00     0.023 A 
ATOM     83  C   UNL     1       2.076  -0.718  14.276  1.00  0.00     0.012 A 
ATOM     84  C   UNL     1      -0.184  -0.047  13.675  1.00  0.00     0.148 A 
ATOM     85  C   UNL     1       2.122   0.284  15.244  1.00  0.00     0.002 A 
ATOM     86  C   UNL     1      -0.119   0.971  14.617  1.00  0.00     0.091 A 
ATOM     87  F   UNL     1      -1.262  -0.234  12.900  1.00  0.00    -0.205 F 
ATOM     88  C   UNL     1       1.030   1.133  15.408  1.00  0.00     0.022 A 
BRANCH  86  89
ATOM     89  S   UNL     1      -1.436   2.171  14.841  1.00  0.00     0.127 S 
ATOM     90  O   UNL     1      -1.839   1.916  16.222  1.00  0.00    -0.237 OA
ATOM     91  O   UNL     1      -0.727   3.433  14.628  1.00  0.00    -0.237 OA
ATOM     92  O   UNL     1      -2.437   1.856  13.831  1.00  0.00    -0.744 OA
ENDBRANCH  86  89
ENDBRANCH  58  82
BRANCH  70  93
ATOM     93  C   UNL     1       0.956  -7.894  13.291  1.00  0.00     0.023 A 
ATOM     94  C   UNL     1      -0.293  -8.257  13.830  1.00  0.00     0.012 A 
ATOM     95  C   UNL     1       2.102  -8.645  13.621  1.00  0.00     0.148 A 
ATOM     96  C   UNL     1      -0.401  -9.355  14.682  1.00  0.00     0.002 A 
ATOM     97  C   UNL     1       1.982  -9.758  14.442  1.00  0.00     0.091 A 
ATOM     98  F   UNL     1       3.279  -8.272  13.097  1.00  0.00    -0.205 F 
ATOM     99  C   UNL     1       0.732 -10.114  14.975  1.00  0.00     0.022 A 
BRANCH  97 100
ATOM    100  S   UNL     1       3.365 -10.841  14.819  1.00  0.00     0.127 S 
ATOM    101  O   UNL     1       3.485 -10.677  16.267  1.00  0.00    -0.237 OA
ATOM    102  O   UNL     1       2.860 -12.145  14.392  1.00  0.00    -0.237 OA
ATOM    103  O   UNL     1       4.495 -10.340  14.048  1.00  0.00    -0.744 OA
ENDBRANCH  97 100
ENDBRANCH  70  93
ENDBRANCH  44  45
ENDBRANCH  37  39
ENDBRANCH  36  37
ENDBRANCH  35  36
ENDBRANCH  34  35
ENDBRANCH  33  34
ENDBRANCH   1  33
TORSDOF 22
