REMARK SMILES C[N@@H+]1CC[N@@H+](C)[C@H](C[NH2+]Cc2ccc(C(=O)OCCOCCOCCOC(=O)c3ccc(-c4c5nc(c(-c6cccc(S(=O)(=O)[O-])c6F)c6ccc([nH]6)c(-c6cccc(S(=O)(=O)[O-])c6F)c6nc(c(-c7cccc(S(=O)(=O)[O-])c7F)c7ccc4[nH]7)C=C6)C=C5)cc3)cn2)C1
REMARK SMILES IDX 21 1 20 2 19 3 18 4 17 5 15 6 16 7 14 8 11 9 12 10 93 11
REMARK SMILES IDX 13 12 92 13 10 14 9 15 8 18 7 19 1 20 2 21 3 22 94 23 4 25
REMARK SMILES IDX 5 26 6 27 22 29 23 30 24 31 25 32 26 33 27 34 28 35 29 36
REMARK SMILES IDX 30 37 91 38 31 39 90 40 32 41 33 42 34 43 84 44 35 45 89 46
REMARK SMILES IDX 83 47 85 48 36 49 88 50 82 51 81 52 37 54 69 55 49 56 68 57
REMARK SMILES IDX 50 58 53 59 67 60 86 61 51 62 52 63 66 65 87 66 54 67 38 68
REMARK SMILES IDX 39 69 47 70 40 71 42 72 48 73 41 74 43 75 44 76 45 77 46 78
REMARK SMILES IDX 70 79 71 80 79 81 72 82 74 83 80 84 73 85 75 86 76 87 77 88
REMARK SMILES IDX 78 89 55 90 56 91 64 92 57 93 59 94 65 95 58 96 60 97 61 98
REMARK SMILES IDX 62 99 63 100
REMARK H PARENT 9 16 9 17 2 24 5 28 85 53 53 64
REMARK Flexibility Score: inf
ROOT
ATOM      1  C   UNL     1      -2.115   8.628  -4.619  1.00  0.00     0.188 C 
ENDROOT
BRANCH   1   2
ATOM      2  O   UNL     1      -1.596   9.427  -5.665  1.00  0.00    -0.376 OA
BRANCH   2   3
ATOM      3  C   UNL     1      -1.330   8.884  -6.950  1.00  0.00     0.202 C 
BRANCH   3   4
ATOM      4  C   UNL     1      -0.809   7.460  -7.144  1.00  0.00     0.261 C 
BRANCH   4   5
ATOM      5  O   UNL     1      -1.559   6.477  -6.427  1.00  0.00    -0.460 OA
BRANCH   5   6
ATOM      6  C   UNL     1      -0.799   5.641  -5.681  1.00  0.00     0.339 C 
ATOM      7  O   UNL     1       0.417   5.549  -5.670  1.00  0.00    -0.246 OA
BRANCH   6   8
ATOM      8  C   UNL     1      -1.653   4.955  -4.718  1.00  0.00     0.078 A 
ATOM      9  C   UNL     1      -3.027   3.633  -2.776  1.00  0.00     0.094 A 
ATOM     10  C   UNL     1      -3.434   3.487  -4.105  1.00  0.00     0.031 A 
ATOM     11  N   UNL     1      -2.047   4.493  -2.395  1.00  0.00    -0.254 NA
ATOM     12  C   UNL     1      -2.744   4.179  -5.095  1.00  0.00     0.019 A 
ATOM     13  C   UNL     1      -1.351   5.100  -3.373  1.00  0.00     0.127 A 
BRANCH   9  14
ATOM     14  C   UNL     1      -3.504   2.650  -1.731  1.00  0.00     0.318 C 
BRANCH  14  15
ATOM     15  N   UNL     1      -2.427   1.708  -1.419  1.00  0.00    -0.336 N 
ATOM     16  H   UNL     1      -2.831   0.783  -1.269  1.00  0.00     0.346 HD
ATOM     17  H   UNL     1      -1.776   1.701  -2.204  1.00  0.00     0.346 HD
BRANCH  15  18
ATOM     18  C   UNL     1      -1.682   2.106  -0.210  1.00  0.00     0.332 C 
BRANCH  18  19
ATOM     19  C   UNL     1      -0.856   0.919   0.379  1.00  0.00     0.295 C 
ATOM     20  C   UNL     1       2.799  -0.023  -0.209  1.00  0.00     0.333 C 
ATOM     21  N   UNL     1       1.430  -0.136   0.283  1.00  0.00    -0.328 N 
ATOM     22  C   UNL     1       0.795  -1.383  -0.160  1.00  0.00     0.324 C 
ATOM     23  C   UNL     1       0.599   0.992  -0.185  1.00  0.00     0.334 C 
ATOM     24  H   UNL     1       1.491  -0.126   1.301  1.00  0.00     0.348 HD
ATOM     25  C   UNL     1      -0.617  -1.518   0.447  1.00  0.00     0.324 C 
ATOM     26  N   UNL     1      -1.529  -0.402   0.125  1.00  0.00    -0.321 N 
ATOM     27  C   UNL     1      -2.759  -0.539   0.913  1.00  0.00     0.333 C 
ATOM     28  H   UNL     1      -1.773  -0.432  -0.865  1.00  0.00     0.348 HD
ENDBRANCH  18  19
ENDBRANCH  15  18
ENDBRANCH  14  15
ENDBRANCH   9  14
ENDBRANCH   6   8
ENDBRANCH   5   6
ENDBRANCH   4   5
ENDBRANCH   3   4
ENDBRANCH   2   3
ENDBRANCH   1   2
BRANCH   1  29
ATOM     29  C   UNL     1      -3.540   8.039  -4.707  1.00  0.00     0.188 C 
BRANCH  29  30
ATOM     30  O   UNL     1      -4.372   8.288  -5.826  1.00  0.00    -0.376 OA
BRANCH  30  31
ATOM     31  C   UNL     1      -4.597   9.628  -6.233  1.00  0.00     0.202 C 
BRANCH  31  32
ATOM     32  C   UNL     1      -5.095  10.676  -5.235  1.00  0.00     0.261 C 
BRANCH  32  33
ATOM     33  O   UNL     1      -4.311  10.770  -4.039  1.00  0.00    -0.460 OA
BRANCH  33  34
ATOM     34  C   UNL     1      -4.973  10.451  -2.900  1.00  0.00     0.338 C 
ATOM     35  O   UNL     1      -6.140  10.112  -2.794  1.00  0.00    -0.246 OA
BRANCH  34  36
ATOM     36  C   UNL     1      -4.027  10.408  -1.772  1.00  0.00     0.060 A 
ATOM     37  C   UNL     1      -3.901   9.208  -1.061  1.00  0.00     0.016 A 
ATOM     38  C   UNL     1      -3.331  11.550  -1.374  1.00  0.00     0.016 A 
ATOM     39  C   UNL     1      -3.104   9.156   0.081  1.00  0.00     0.010 A 
ATOM     40  C   UNL     1      -2.547  11.500  -0.219  1.00  0.00     0.010 A 
ATOM     41  C   UNL     1      -2.458  10.314   0.531  1.00  0.00    -0.014 A 
BRANCH  41  42
ATOM     42  C   UNL     1      -1.821  10.333   1.869  1.00  0.00     0.031 A 
ATOM     43  C   UNL     1      -2.601  10.881   3.032  1.00  0.00     0.074 A 
ATOM     44  C   UNL     1      -0.562   9.896   2.042  1.00  0.00     0.049 A 
ATOM     45  N   UNL     1      -2.231  11.040   4.276  1.00  0.00    -0.248 NA
ATOM     46  C   UNL     1      -3.982  11.311   2.754  1.00  0.00     0.031 C 
ATOM     47  C   UNL     1       0.291   9.341   0.994  1.00  0.00     0.029 A 
ATOM     48  N   UNL     1       0.225   9.879   3.166  1.00  0.00    -0.354 N 
ATOM     49  C   UNL     1      -3.320  11.610   4.923  1.00  0.00     0.074 A 
ATOM     50  C   UNL     1      -4.362  11.780   3.933  1.00  0.00     0.031 C 
ATOM     51  C   UNL     1       1.500   9.069   1.517  1.00  0.00     0.029 A 
ATOM     52  C   UNL     1       1.509   9.449   2.929  1.00  0.00     0.049 A 
ATOM     53  H   UNL     1      -0.098  10.150   4.055  1.00  0.00     0.167 HD
ATOM     54  C   UNL     1      -3.450  11.948   6.228  1.00  0.00     0.034 A 
ATOM     55  C   UNL     1       2.573   9.389   3.754  1.00  0.00     0.034 A 
ATOM     56  C   UNL     1      -2.420  11.767   7.214  1.00  0.00     0.049 A 
ATOM     57  C   UNL     1       2.414   9.800   5.196  1.00  0.00     0.074 A 
ATOM     58  C   UNL     1      -2.470  12.035   8.570  1.00  0.00     0.029 A 
ATOM     59  N   UNL     1      -1.147  11.286   6.948  1.00  0.00    -0.354 N 
ATOM     60  N   UNL     1       1.340  10.216   5.824  1.00  0.00    -0.248 NA
ATOM     61  C   UNL     1       3.606   9.703   6.051  1.00  0.00     0.031 C 
ATOM     62  C   UNL     1      -1.220  11.736   9.121  1.00  0.00     0.029 A 
ATOM     63  C   UNL     1      -0.398  11.261   8.112  1.00  0.00     0.049 A 
ATOM     64  H   UNL     1      -0.824  11.004   6.062  1.00  0.00     0.167 HD
ATOM     65  C   UNL     1       1.717  10.395   7.151  1.00  0.00     0.074 A 
ATOM     66  C   UNL     1       3.115  10.026   7.241  1.00  0.00     0.031 C 
ATOM     67  C   UNL     1       0.977  10.837   8.199  1.00  0.00     0.034 A 
BRANCH  54  68
ATOM     68  C   UNL     1      -4.770  12.521   6.667  1.00  0.00     0.023 A 
ATOM     69  C   UNL     1      -5.890  11.672   6.781  1.00  0.00     0.012 A 
ATOM     70  C   UNL     1      -4.896  13.882   7.003  1.00  0.00     0.148 A 
ATOM     71  C   UNL     1      -7.124  12.177   7.191  1.00  0.00     0.002 A 
ATOM     72  C   UNL     1      -6.119  14.370   7.449  1.00  0.00     0.091 A 
ATOM     73  F   UNL     1      -3.826  14.678   6.861  1.00  0.00    -0.205 F 
ATOM     74  C   UNL     1      -7.235  13.521   7.533  1.00  0.00     0.022 A 
BRANCH  72  75
ATOM     75  S   UNL     1      -6.341  16.071   7.979  1.00  0.00     0.127 S 
ATOM     76  O   UNL     1      -7.074  16.640   6.849  1.00  0.00    -0.237 OA
ATOM     77  O   UNL     1      -7.132  15.915   9.201  1.00  0.00    -0.237 OA
ATOM     78  O   UNL     1      -5.002  16.600   8.192  1.00  0.00    -0.744 OA
ENDBRANCH  72  75
ENDBRANCH  54  68
BRANCH  55  79
ATOM     79  C   UNL     1       3.878   8.879   3.248  1.00  0.00     0.023 A 
ATOM     80  C   UNL     1       4.349   7.628   3.691  1.00  0.00     0.012 A 
ATOM     81  C   UNL     1       4.642   9.612   2.320  1.00  0.00     0.148 A 
ATOM     82  C   UNL     1       5.570   7.127   3.239  1.00  0.00     0.002 A 
ATOM     83  C   UNL     1       5.834   9.085   1.835  1.00  0.00     0.091 A 
ATOM     84  F   UNL     1       4.185  10.809   1.925  1.00  0.00    -0.205 F 
ATOM     85  C   UNL     1       6.307   7.850   2.305  1.00  0.00     0.022 A 
BRANCH  83  86
ATOM     86  S   UNL     1       6.792   9.890   0.546  1.00  0.00     0.127 S 
ATOM     87  O   UNL     1       7.972  10.335   1.284  1.00  0.00    -0.237 OA
ATOM     88  O   UNL     1       7.028   8.788  -0.387  1.00  0.00    -0.237 OA
ATOM     89  O   UNL     1       5.938  10.948   0.024  1.00  0.00    -0.744 OA
ENDBRANCH  83  86
ENDBRANCH  55  79
BRANCH  67  90
ATOM     90  C   UNL     1       1.644  10.919   9.547  1.00  0.00     0.023 A 
ATOM     91  C   UNL     1       2.572  11.947   9.806  1.00  0.00     0.012 A 
ATOM     92  C   UNL     1       1.285  10.035  10.585  1.00  0.00     0.148 A 
ATOM     93  C   UNL     1       3.152  12.078  11.068  1.00  0.00     0.002 A 
ATOM     94  C   UNL     1       1.833  10.199  11.852  1.00  0.00     0.091 A 
ATOM     95  F   UNL     1       0.414   9.052  10.315  1.00  0.00    -0.205 F 
ATOM     96  C   UNL     1       2.774  11.213  12.092  1.00  0.00     0.022 A 
BRANCH  94  97
ATOM     97  S   UNL     1       1.332   9.193  13.254  1.00  0.00     0.127 S 
ATOM     98  O   UNL     1       2.489   8.314  13.419  1.00  0.00    -0.237 OA
ATOM     99  O   UNL     1       1.169  10.190  14.312  1.00  0.00    -0.237 OA
ATOM    100  O   UNL     1       0.096   8.534  12.852  1.00  0.00    -0.744 OA
ENDBRANCH  94  97
ENDBRANCH  67  90
ENDBRANCH  41  42
ENDBRANCH  34  36
ENDBRANCH  33  34
ENDBRANCH  32  33
ENDBRANCH  31  32
ENDBRANCH  30  31
ENDBRANCH  29  30
ENDBRANCH   1  29
TORSDOF 24
