REMARK SMILES O=C(OCCOCCOCCOC(=O)c1ccc(-c2c3nc(c(-c4cccc(S(=O)(=O)[O-])c4F)c4ccc([nH]4)c(-c4cccc(S(=O)(=O)[O-])c4F)c4nc(c(-c5cccc(S(=O)(=O)[O-])c5F)c5ccc2[nH]5)C=C4)C=C3)cc1)C1=Cc2cc(Cl)cc(-c3ccccc3)c2O[C@@H]1C(F)(F)F
REMARK SMILES IDX 8 1 7 2 6 3 5 4 4 5 3 6 2 7 1 8 78 9 79 10 94 11 80 12 93 13
REMARK SMILES IDX 81 14 92 15 82 16 85 17 83 18 84 19 95 20 96 21 97 22 98 23
REMARK SMILES IDX 86 24 87 25 91 26 88 27 90 28 89 29 9 30 10 31 11 32 12 33
REMARK SMILES IDX 13 34 14 35 15 36 16 37 77 38 17 39 76 40 18 41 19 42 20 43
REMARK SMILES IDX 70 44 21 45 75 46 69 47 71 48 22 49 74 50 68 51 67 52 23 54
REMARK SMILES IDX 55 55 35 56 54 57 36 58 39 59 53 60 72 61 37 62 38 63 52 65
REMARK SMILES IDX 73 66 40 67 24 68 25 69 33 70 26 71 28 72 34 73 27 74 29 75
REMARK SMILES IDX 30 76 31 77 32 78 56 79 57 80 65 81 58 82 60 83 66 84 59 85
REMARK SMILES IDX 61 86 62 87 63 88 64 89 41 90 42 91 50 92 43 93 45 94 51 95
REMARK SMILES IDX 44 96 46 97 47 98 48 99 49 100
REMARK H PARENT 71 53 39 64
REMARK Flexibility Score: inf
ROOT
ATOM      1  C   UNL     1       1.604  -0.300  -3.361  1.00  0.00     0.188 C 
ENDROOT
BRANCH   1   2
ATOM      2  C   UNL     1       2.155   0.431  -2.128  1.00  0.00     0.188 C 
BRANCH   2   3
ATOM      3  O   UNL     1       3.626   0.780  -1.936  1.00  0.00    -0.376 OA
BRANCH   3   4
ATOM      4  C   UNL     1       4.518   0.799  -0.399  1.00  0.00     0.202 C 
BRANCH   4   5
ATOM      5  C   UNL     1       3.883  -0.395   1.302  1.00  0.00     0.261 C 
BRANCH   5   6
ATOM      6  O   UNL     1       2.917   0.036   2.396  1.00  0.00    -0.460 OA
BRANCH   6   7
ATOM      7  C   UNL     1       3.074   1.330   2.718  1.00  0.00     0.338 C 
ATOM      8  O   UNL     1       2.358   2.004   3.417  1.00  0.00    -0.246 OA
BRANCH   7   9
ATOM      9  C   UNL     1       3.948   1.680   1.607  1.00  0.00     0.087 C 
ATOM     10  C   UNL     1       5.338   1.296   1.725  1.00  0.00     0.027 C 
ATOM     11  C   UNL     1       2.738   0.984   0.304  1.00  0.00     0.316 C 
ATOM     12  C   UNL     1       6.066  -0.116   0.911  1.00  0.00     0.019 A 
ATOM     13  O   UNL     1       3.447  -0.678  -0.484  1.00  0.00    -0.475 OA
ATOM     14  C   UNL     1       7.337  -0.462   1.292  1.00  0.00     0.032 A 
ATOM     15  C   UNL     1       5.181  -1.167  -0.143  1.00  0.00     0.135 A 
ATOM     16  C   UNL     1       7.827  -1.643   0.731  1.00  0.00     0.042 A 
ATOM     17  C   UNL     1       5.779  -2.284  -0.706  1.00  0.00     0.026 A 
ATOM     18  Cl  UNL     1       9.411  -2.157   1.211  1.00  0.00    -0.084 Cl
ATOM     19  C   UNL     1       7.111  -2.472  -0.210  1.00  0.00     0.033 A 
BRANCH  11  20
ATOM     20  C   UNL     1       2.507   2.582  -0.344  1.00  0.00     0.430 C 
ATOM     21  F   UNL     1       2.682   2.842  -1.648  1.00  0.00    -0.167 F 
ATOM     22  F   UNL     1       1.253   2.993  -0.023  1.00  0.00    -0.167 F 
ATOM     23  F   UNL     1       3.338   3.488   0.257  1.00  0.00    -0.167 F 
ENDBRANCH  11  20
BRANCH  17  24
ATOM     24  C   UNL     1       5.349  -3.219  -1.741  1.00  0.00    -0.015 A 
ATOM     25  C   UNL     1       4.539  -4.321  -1.455  1.00  0.00     0.009 A 
ATOM     26  C   UNL     1       5.922  -3.142  -3.030  1.00  0.00     0.009 A 
ATOM     27  C   UNL     1       4.228  -5.255  -2.451  1.00  0.00     0.001 A 
ATOM     28  C   UNL     1       5.598  -4.064  -4.032  1.00  0.00     0.001 A 
ATOM     29  C   UNL     1       4.726  -5.107  -3.745  1.00  0.00     0.000 A 
ENDBRANCH  17  24
ENDBRANCH   7   9
ENDBRANCH   6   7
ENDBRANCH   5   6
ENDBRANCH   4   5
ENDBRANCH   3   4
ENDBRANCH   2   3
ENDBRANCH   1   2
BRANCH   1  30
ATOM     30  O   UNL     1       2.249  -1.453  -3.820  1.00  0.00    -0.376 OA
BRANCH  30  31
ATOM     31  C   UNL     1       3.639  -1.305  -4.009  1.00  0.00     0.202 C 
BRANCH  31  32
ATOM     32  C   UNL     1       4.181  -0.299  -5.028  1.00  0.00     0.261 C 
BRANCH  32  33
ATOM     33  O   UNL     1       3.832   1.064  -4.768  1.00  0.00    -0.460 OA
BRANCH  33  34
ATOM     34  C   UNL     1       2.851   1.582  -5.544  1.00  0.00     0.338 C 
ATOM     35  O   UNL     1       2.256   1.034  -6.456  1.00  0.00    -0.246 OA
BRANCH  34  36
ATOM     36  C   UNL     1       2.459   2.880  -4.974  1.00  0.00     0.060 A 
ATOM     37  C   UNL     1       1.183   3.036  -4.411  1.00  0.00     0.016 A 
ATOM     38  C   UNL     1       3.348   3.950  -5.045  1.00  0.00     0.016 A 
ATOM     39  C   UNL     1       0.791   4.269  -3.906  1.00  0.00     0.010 A 
ATOM     40  C   UNL     1       2.936   5.199  -4.589  1.00  0.00     0.010 A 
ATOM     41  C   UNL     1       1.647   5.364  -4.049  1.00  0.00    -0.014 A 
BRANCH  41  42
ATOM     42  C   UNL     1       1.092   6.721  -3.901  1.00  0.00     0.031 A 
ATOM     43  C   UNL     1       0.558   7.384  -5.137  1.00  0.00     0.074 A 
ATOM     44  C   UNL     1       1.071   7.341  -2.711  1.00  0.00     0.049 A 
ATOM     45  N   UNL     1       0.070   8.584  -5.287  1.00  0.00    -0.248 NA
ATOM     46  C   UNL     1       0.583   6.582  -6.375  1.00  0.00     0.031 C 
ATOM     47  C   UNL     1       1.540   6.770  -1.451  1.00  0.00     0.029 A 
ATOM     48  N   UNL     1       0.658   8.605  -2.381  1.00  0.00    -0.354 N 
ATOM     49  C   UNL     1      -0.238   8.695  -6.637  1.00  0.00     0.074 A 
ATOM     50  C   UNL     1       0.123   7.445  -7.266  1.00  0.00     0.031 C 
ATOM     51  C   UNL     1       1.423   7.699  -0.485  1.00  0.00     0.029 A 
ATOM     52  C   UNL     1       0.902   8.934  -1.070  1.00  0.00     0.049 A 
ATOM     53  H   UNL     1       0.229   9.219  -3.022  1.00  0.00     0.167 HD
ATOM     54  C   UNL     1      -0.773   9.748  -7.293  1.00  0.00     0.034 A 
ATOM     55  C   UNL     1       0.751  10.111  -0.433  1.00  0.00     0.034 A 
ATOM     56  C   UNL     1      -1.106  10.991  -6.658  1.00  0.00     0.049 A 
ATOM     57  C   UNL     1       0.201  11.288  -1.200  1.00  0.00     0.074 A 
ATOM     58  C   UNL     1      -1.681  12.115  -7.221  1.00  0.00     0.029 A 
ATOM     59  N   UNL     1      -0.864  11.285  -5.325  1.00  0.00    -0.354 N 
ATOM     60  N   UNL     1      -0.173  11.356  -2.456  1.00  0.00    -0.248 NA
ATOM     61  C   UNL     1       0.025  12.543  -0.456  1.00  0.00     0.031 C 
ATOM     62  C   UNL     1      -1.729  13.111  -6.241  1.00  0.00     0.029 A 
ATOM     63  C   UNL     1      -1.256  12.582  -5.050  1.00  0.00     0.049 A 
ATOM     64  H   UNL     1      -0.471  10.662  -4.671  1.00  0.00     0.167 HD
ATOM     65  C   UNL     1      -0.671  12.642  -2.639  1.00  0.00     0.074 A 
ATOM     66  C   UNL     1      -0.561  13.315  -1.361  1.00  0.00     0.031 C 
ATOM     67  C   UNL     1      -1.174  13.217  -3.760  1.00  0.00     0.034 A 
BRANCH  54  68
ATOM     68  C   UNL     1      -1.004   9.604  -8.773  1.00  0.00     0.023 A 
ATOM     69  C   UNL     1      -1.998   8.728  -9.256  1.00  0.00     0.012 A 
ATOM     70  C   UNL     1      -0.250  10.366  -9.686  1.00  0.00     0.148 A 
ATOM     71  C   UNL     1      -2.212   8.586 -10.626  1.00  0.00     0.002 A 
ATOM     72  C   UNL     1      -0.506  10.260 -11.046  1.00  0.00     0.091 A 
ATOM     73  F   UNL     1       0.708  11.172  -9.207  1.00  0.00    -0.205 F 
ATOM     74  C   UNL     1      -1.475   9.360 -11.519  1.00  0.00     0.022 A 
BRANCH  72  75
ATOM     75  S   UNL     1       0.332  11.271 -12.270  1.00  0.00     0.127 S 
ATOM     76  O   UNL     1       1.085  10.265 -13.018  1.00  0.00    -0.237 OA
ATOM     77  O   UNL     1      -0.793  11.858 -12.998  1.00  0.00    -0.237 OA
ATOM     78  O   UNL     1       1.142  12.223 -11.524  1.00  0.00    -0.744 OA
ENDBRANCH  72  75
ENDBRANCH  54  68
BRANCH  55  79
ATOM     79  C   UNL     1       1.119  10.241   1.005  1.00  0.00     0.023 A 
ATOM     80  C   UNL     1       0.118  10.481   1.966  1.00  0.00     0.012 A 
ATOM     81  C   UNL     1       2.460  10.134   1.422  1.00  0.00     0.148 A 
ATOM     82  C   UNL     1       0.451  10.655   3.310  1.00  0.00     0.002 A 
ATOM     83  C   UNL     1       2.778  10.249   2.770  1.00  0.00     0.091 A 
ATOM     84  F   UNL     1       3.399   9.917   0.491  1.00  0.00    -0.205 F 
ATOM     85  C   UNL     1       1.778  10.530   3.713  1.00  0.00     0.022 A 
BRANCH  83  86
ATOM     86  S   UNL     1       4.442   9.995   3.395  1.00  0.00     0.127 S 
ATOM     87  O   UNL     1       4.780  11.324   3.898  1.00  0.00    -0.237 OA
ATOM     88  O   UNL     1       4.223   8.982   4.428  1.00  0.00    -0.237 OA
ATOM     89  O   UNL     1       5.229   9.537   2.258  1.00  0.00    -0.744 OA
ENDBRANCH  83  86
ENDBRANCH  55  79
BRANCH  67  90
ATOM     90  C   UNL     1      -1.713  14.620  -3.650  1.00  0.00     0.023 A 
ATOM     91  C   UNL     1      -0.843  15.711  -3.460  1.00  0.00     0.012 A 
ATOM     92  C   UNL     1      -3.093  14.857  -3.818  1.00  0.00     0.148 A 
ATOM     93  C   UNL     1      -1.342  17.012  -3.400  1.00  0.00     0.002 A 
ATOM     94  C   UNL     1      -3.575  16.158  -3.817  1.00  0.00     0.091 A 
ATOM     95  F   UNL     1      -3.906  13.804  -3.986  1.00  0.00    -0.205 F 
ATOM     96  C   UNL     1      -2.704  17.236  -3.591  1.00  0.00     0.022 A 
BRANCH  94  97
ATOM     97  S   UNL     1      -5.294  16.549  -4.158  1.00  0.00     0.127 S 
ATOM     98  O   UNL     1      -5.744  17.062  -2.865  1.00  0.00    -0.237 OA
ATOM     99  O   UNL     1      -5.176  17.561  -5.208  1.00  0.00    -0.237 OA
ATOM    100  O   UNL     1      -5.918  15.303  -4.582  1.00  0.00    -0.744 OA
ENDBRANCH  94  97
ENDBRANCH  67  90
ENDBRANCH  41  42
ENDBRANCH  34  36
ENDBRANCH  33  34
ENDBRANCH  32  33
ENDBRANCH  31  32
ENDBRANCH  30  31
ENDBRANCH   1  30
TORSDOF 22
