REMARK SMILES C[C@@H]1CN(C(=O)Nc2ccc(O)c(C(=O)OCCOCCOCCOC(=O)c3ccc(-c4c5nc(c(-c6cccc(S(=O)(=O)[O-])c6F)c6ccc([nH]6)c(-c6cccc(S(=O)(=O)[O-])c6F)c6nc(c(-c7cccc(S(=O)(=O)[O-])c7F)c7ccc4[nH]7)C=C6)C=C5)cc3)c2)C[C@H]1C
REMARK SMILES IDX 21 1 20 2 19 3 18 4 17 5 16 6 14 7 15 8 13 9 8 10 9 11 91 12
REMARK SMILES IDX 10 13 11 14 7 15 1 16 2 17 3 18 93 19 4 20 92 21 94 22 5 23
REMARK SMILES IDX 6 24 12 26 22 28 23 29 24 30 25 31 26 32 27 33 28 34 29 35
REMARK SMILES IDX 90 36 30 37 89 38 31 39 32 40 33 41 83 42 34 43 88 44 82 45
REMARK SMILES IDX 84 46 35 47 87 48 81 49 80 50 36 52 68 53 48 54 67 55 49 56
REMARK SMILES IDX 52 57 66 58 85 59 50 60 51 61 65 63 86 64 53 65 37 66 38 67
REMARK SMILES IDX 46 68 39 69 41 70 47 71 40 72 42 73 43 74 44 75 45 76 69 77
REMARK SMILES IDX 70 78 78 79 71 80 73 81 79 82 72 83 74 84 75 85 76 86 77 87
REMARK SMILES IDX 54 88 55 89 63 90 56 91 58 92 64 93 57 94 59 95 60 96 61 97
REMARK SMILES IDX 62 98
REMARK H PARENT 7 25 12 27 84 51 52 62
REMARK Flexibility Score: inf
ROOT
ATOM      1  C   UNL     1       0.201   3.849  -7.580  1.00  0.00     0.188 C 
ENDROOT
BRANCH   1   2
ATOM      2  C   UNL     1       1.691   4.235  -7.689  1.00  0.00     0.188 C 
BRANCH   2   3
ATOM      3  O   UNL     1       2.465   3.776  -8.781  1.00  0.00    -0.376 OA
BRANCH   3   4
ATOM      4  C   UNL     1       2.707   2.384  -8.943  1.00  0.00     0.202 C 
BRANCH   4   5
ATOM      5  C   UNL     1       2.998   1.486  -7.738  1.00  0.00     0.261 C 
BRANCH   5   6
ATOM      6  O   UNL     1       1.980   1.578  -6.737  1.00  0.00    -0.460 OA
BRANCH   6   7
ATOM      7  C   UNL     1       2.428   1.682  -5.458  1.00  0.00     0.342 C 
ATOM      8  O   UNL     1       3.571   1.589  -5.074  1.00  0.00    -0.246 OA
BRANCH   7   9
ATOM      9  C   UNL     1       1.325   2.179  -4.607  1.00  0.00     0.103 A 
ATOM     10  C   UNL     1       0.603   3.794  -2.969  1.00  0.00     0.044 A 
ATOM     11  C   UNL     1      -0.695   3.280  -3.035  1.00  0.00     0.030 A 
ATOM     12  C   UNL     1       1.595   3.302  -3.812  1.00  0.00     0.045 A 
ATOM     13  C   UNL     1      -0.971   2.174  -3.843  1.00  0.00     0.049 A 
ATOM     14  C   UNL     1       0.051   1.600  -4.598  1.00  0.00     0.130 A 
BRANCH  10  15
ATOM     15  N   UNL     1       0.947   4.758  -2.022  1.00  0.00    -0.308 N 
ATOM     16  C   UNL     1       1.254  -0.080   0.411  1.00  0.00     0.010 C 
ATOM     17  C   UNL     1       0.631   1.273   0.715  1.00  0.00     0.010 C 
ATOM     18  C   UNL     1       0.662   2.188  -0.502  1.00  0.00     0.125 C 
ATOM     19  C   UNL     1       1.363   2.110   1.766  1.00  0.00     0.010 C 
ATOM     20  N   UNL     1       0.685   3.548   0.015  1.00  0.00    -0.324 N 
ATOM     21  C   UNL     1       0.853   3.524   1.462  1.00  0.00     0.125 C 
ATOM     22  C   UNL     1       1.081   1.660   3.188  1.00  0.00     0.010 C 
ATOM     23  C   UNL     1       0.817   4.738  -0.662  1.00  0.00     0.321 C 
ATOM     24  O   UNL     1       0.959   5.804  -0.060  1.00  0.00    -0.248 OA
ATOM     25  H   UNL     1       1.346   5.579  -2.390  1.00  0.00     0.171 HD
ENDBRANCH  10  15
BRANCH  14  26
ATOM     26  O   UNL     1      -0.198   0.465  -5.313  1.00  0.00    -0.507 OA
ATOM     27  H   UNL     1      -1.054   0.083  -5.302  1.00  0.00     0.293 HD
ENDBRANCH  14  26
ENDBRANCH   7   9
ENDBRANCH   6   7
ENDBRANCH   5   6
ENDBRANCH   4   5
ENDBRANCH   3   4
ENDBRANCH   2   3
ENDBRANCH   1   2
BRANCH   1  28
ATOM     28  O   UNL     1      -0.404   2.960  -8.494  1.00  0.00    -0.376 OA
BRANCH  28  29
ATOM     29  C   UNL     1      -0.467   3.282  -9.872  1.00  0.00     0.202 C 
BRANCH  29  30
ATOM     30  C   UNL     1      -0.679   4.705 -10.409  1.00  0.00     0.261 C 
BRANCH  30  31
ATOM     31  O   UNL     1      -0.052   5.764  -9.682  1.00  0.00    -0.460 OA
BRANCH  31  32
ATOM     32  C   UNL     1      -0.914   6.562  -9.002  1.00  0.00     0.338 C 
ATOM     33  O   UNL     1      -2.127   6.455  -8.946  1.00  0.00    -0.246 OA
BRANCH  32  34
ATOM     34  C   UNL     1      -0.158   7.502  -8.156  1.00  0.00     0.060 A 
ATOM     35  C   UNL     1      -0.382   7.464  -6.774  1.00  0.00     0.016 A 
ATOM     36  C   UNL     1       0.686   8.460  -8.718  1.00  0.00     0.016 A 
ATOM     37  C   UNL     1       0.191   8.429  -5.951  1.00  0.00     0.010 A 
ATOM     38  C   UNL     1       1.248   9.438  -7.893  1.00  0.00     0.010 A 
ATOM     39  C   UNL     1       0.960   9.455  -6.516  1.00  0.00    -0.014 A 
BRANCH  39  40
ATOM     40  C   UNL     1       1.260  10.654  -5.698  1.00  0.00     0.031 A 
ATOM     41  C   UNL     1       0.358  11.853  -5.831  1.00  0.00     0.074 A 
ATOM     42  C   UNL     1       2.285  10.670  -4.828  1.00  0.00     0.049 A 
ATOM     43  N   UNL     1       0.400  12.998  -5.202  1.00  0.00    -0.248 NA
ATOM     44  C   UNL     1      -0.741  11.745  -6.807  1.00  0.00     0.031 C 
ATOM     45  C   UNL     1       3.224   9.573  -4.605  1.00  0.00     0.029 A 
ATOM     46  N   UNL     1       2.710  11.659  -3.978  1.00  0.00    -0.354 N 
ATOM     47  C   UNL     1      -0.648  13.751  -5.716  1.00  0.00     0.074 A 
ATOM     48  C   UNL     1      -1.297  12.944  -6.726  1.00  0.00     0.031 C 
ATOM     49  C   UNL     1       4.131   9.958  -3.689  1.00  0.00     0.029 A 
ATOM     50  C   UNL     1       3.844  11.331  -3.275  1.00  0.00     0.049 A 
ATOM     51  H   UNL     1       2.247  12.522  -3.881  1.00  0.00     0.167 HD
ATOM     52  C   UNL     1      -1.053  14.994  -5.366  1.00  0.00     0.034 A 
ATOM     53  C   UNL     1       4.569  12.061  -2.405  1.00  0.00     0.034 A 
ATOM     54  C   UNL     1      -0.421  15.792  -4.351  1.00  0.00     0.049 A 
ATOM     55  C   UNL     1       4.109  13.454  -2.049  1.00  0.00     0.074 A 
ATOM     56  C   UNL     1      -0.776  17.050  -3.900  1.00  0.00     0.029 A 
ATOM     57  N   UNL     1       0.703  15.412  -3.635  1.00  0.00    -0.354 N 
ATOM     58  N   UNL     1       3.046  14.106  -2.455  1.00  0.00    -0.248 NA
ATOM     59  C   UNL     1       4.932  14.196  -1.081  1.00  0.00     0.031 C 
ATOM     60  C   UNL     1       0.149  17.442  -2.926  1.00  0.00     0.029 A 
ATOM     61  C   UNL     1       1.062  16.415  -2.751  1.00  0.00     0.049 A 
ATOM     62  H   UNL     1       1.177  14.556  -3.740  1.00  0.00     0.167 HD
ATOM     63  C   UNL     1       3.052  15.315  -1.766  1.00  0.00     0.074 A 
ATOM     64  C   UNL     1       4.211  15.293  -0.898  1.00  0.00     0.031 C 
ATOM     65  C   UNL     1       2.188  16.358  -1.854  1.00  0.00     0.034 A 
BRANCH  52  66
ATOM     66  C   UNL     1      -2.260  15.556  -6.070  1.00  0.00     0.023 A 
ATOM     67  C   UNL     1      -3.540  15.044  -5.773  1.00  0.00     0.012 A 
ATOM     68  C   UNL     1      -2.135  16.613  -6.992  1.00  0.00     0.148 A 
ATOM     69  C   UNL     1      -4.673  15.553  -6.405  1.00  0.00     0.002 A 
ATOM     70  C   UNL     1      -3.273  17.146  -7.585  1.00  0.00     0.091 A 
ATOM     71  F   UNL     1      -0.907  17.069  -7.279  1.00  0.00    -0.205 F 
ATOM     72  C   UNL     1      -4.541  16.610  -7.301  1.00  0.00     0.022 A 
BRANCH  70  73
ATOM     73  S   UNL     1      -3.218  18.555  -8.697  1.00  0.00     0.127 S 
ATOM     74  O   UNL     1      -3.556  17.934  -9.977  1.00  0.00    -0.237 OA
ATOM     75  O   UNL     1      -4.260  19.422  -8.146  1.00  0.00    -0.237 OA
ATOM     76  O   UNL     1      -1.868  19.091  -8.600  1.00  0.00    -0.744 OA
ENDBRANCH  70  73
ENDBRANCH  52  66
BRANCH  53  77
ATOM     77  C   UNL     1       5.788  11.483  -1.771  1.00  0.00     0.023 A 
ATOM     78  C   UNL     1       5.789  11.206  -0.390  1.00  0.00     0.012 A 
ATOM     79  C   UNL     1       6.948  11.218  -2.525  1.00  0.00     0.148 A 
ATOM     80  C   UNL     1       6.934  10.713   0.236  1.00  0.00     0.002 A 
ATOM     81  C   UNL     1       8.068  10.676  -1.904  1.00  0.00     0.091 A 
ATOM     82  F   UNL     1       6.934  11.505  -3.834  1.00  0.00    -0.205 F 
ATOM     83  C   UNL     1       8.070  10.440  -0.521  1.00  0.00     0.022 A 
BRANCH  81  84
ATOM     84  S   UNL     1       9.532  10.184  -2.821  1.00  0.00     0.127 S 
ATOM     85  O   UNL     1      10.497  11.202  -2.413  1.00  0.00    -0.237 OA
ATOM     86  O   UNL     1       9.786   8.845  -2.289  1.00  0.00    -0.237 OA
ATOM     87  O   UNL     1       9.142  10.207  -4.225  1.00  0.00    -0.744 OA
ENDBRANCH  81  84
ENDBRANCH  53  77
BRANCH  65  88
ATOM     88  C   UNL     1       2.439  17.551  -0.966  1.00  0.00     0.023 A 
ATOM     89  C   UNL     1       3.531  18.402  -1.228  1.00  0.00     0.012 A 
ATOM     90  C   UNL     1       1.560  17.862   0.091  1.00  0.00     0.148 A 
ATOM     91  C   UNL     1       3.770  19.518  -0.426  1.00  0.00     0.002 A 
ATOM     92  C   UNL     1       1.775  19.005   0.854  1.00  0.00     0.091 A 
ATOM     93  F   UNL     1       0.535  17.034   0.337  1.00  0.00    -0.205 F 
ATOM     94  C   UNL     1       2.887  19.825   0.607  1.00  0.00     0.022 A 
BRANCH  92  95
ATOM     95  S   UNL     1       0.633  19.529   2.138  1.00  0.00     0.127 S 
ATOM     96  O   UNL     1       1.354  19.149   3.352  1.00  0.00    -0.237 OA
ATOM     97  O   UNL     1       0.545  20.972   1.909  1.00  0.00    -0.237 OA
ATOM     98  O   UNL     1      -0.606  18.805   1.889  1.00  0.00    -0.744 OA
ENDBRANCH  92  95
ENDBRANCH  65  88
ENDBRANCH  39  40
ENDBRANCH  32  34
ENDBRANCH  31  32
ENDBRANCH  30  31
ENDBRANCH  29  30
ENDBRANCH  28  29
ENDBRANCH   1  28
TORSDOF 22
