REMARK SMILES CCC([NH3+])(CC)C(=O)N(CCC(=O)OCCOCCOCCOC(=O)c1ccc(-c2c3nc(c(-c4cccc(S(=O)(=O)[O-])c4F)c4ccc([nH]4)c(-c4cccc(S(=O)(=O)[O-])c4F)c4nc(c(-c5cccc(S(=O)(=O)[O-])c5F)c5ccc2[nH]5)C=C4)C=C3)cc1)C(C)C
REMARK SMILES IDX 18 1 17 2 16 3 15 4 14 5 12 6 13 7 11 8 10 9 9 10 7 11 8 12
REMARK SMILES IDX 3 13 2 14 1 15 4 16 5 20 6 21 89 22 90 23 91 24 19 25 20 26
REMARK SMILES IDX 21 27 22 28 23 29 24 30 25 31 26 32 27 33 88 34 28 35 87 36
REMARK SMILES IDX 29 37 30 38 31 39 81 40 32 41 86 42 80 43 82 44 33 45 85 46
REMARK SMILES IDX 79 47 78 48 34 50 66 51 46 52 65 53 47 54 50 55 64 56 83 57
REMARK SMILES IDX 48 58 49 59 63 61 84 62 51 63 35 64 36 65 44 66 37 67 39 68
REMARK SMILES IDX 45 69 38 70 40 71 41 72 42 73 43 74 67 75 68 76 76 77 69 78
REMARK SMILES IDX 71 79 77 80 70 81 72 82 73 83 74 84 75 85 52 86 53 87 61 88
REMARK SMILES IDX 54 89 56 90 62 91 55 92 57 93 58 94 59 95 60 96
REMARK H PARENT 4 17 4 18 4 19 82 49 50 60
REMARK Flexibility Score: inf
ROOT
ATOM      1  C   UNL     1       5.464  -4.176  -6.457  1.00  0.00     0.188 C 
ENDROOT
BRANCH   1   2
ATOM      2  O   UNL     1       6.662  -3.707  -7.064  1.00  0.00    -0.376 OA
BRANCH   2   3
ATOM      3  C   UNL     1       7.342  -2.643  -6.402  1.00  0.00     0.202 C 
BRANCH   3   4
ATOM      4  C   UNL     1       6.626  -1.292  -6.460  1.00  0.00     0.261 C 
BRANCH   4   5
ATOM      5  O   UNL     1       5.361  -1.326  -5.770  1.00  0.00    -0.463 OA
BRANCH   5   6
ATOM      6  C   UNL     1       4.279  -0.872  -6.442  1.00  0.00     0.307 C 
ATOM      7  O   UNL     1       4.314  -0.367  -7.559  1.00  0.00    -0.252 OA
BRANCH   6   8
ATOM      8  C   UNL     1       2.969  -1.050  -5.703  1.00  0.00     0.144 C 
BRANCH   8   9
ATOM      9  C   UNL     1       2.923  -1.786  -4.360  1.00  0.00     0.131 C 
BRANCH   9  10
ATOM     10  N   UNL     1       3.263  -0.978  -3.171  1.00  0.00    -0.334 N 
BRANCH  10  11
ATOM     11  C   UNL     1       2.395  -0.236  -2.362  1.00  0.00     0.284 C 
ATOM     12  O   UNL     1       2.865   0.629  -1.609  1.00  0.00    -0.268 OA
BRANCH  11  13
ATOM     13  C   UNL     1       0.833  -0.449  -2.349  1.00  0.00     0.173 C 
BRANCH  13  14
ATOM     14  C   UNL     1       0.204   0.387  -1.178  1.00  0.00     0.075 C 
ATOM     15  C   UNL     1       0.567  -0.054   0.244  1.00  0.00     0.011 C 
ENDBRANCH  13  14
BRANCH  13  16
ATOM     16  N   UNL     1       0.480  -1.862  -2.067  1.00  0.00    -0.345 N 
ATOM     17  H   UNL     1      -0.534  -1.966  -2.066  1.00  0.00     0.345 HD
ATOM     18  H   UNL     1       0.851  -2.130  -1.155  1.00  0.00     0.345 HD
ATOM     19  H   UNL     1       0.883  -2.463  -2.787  1.00  0.00     0.345 HD
ENDBRANCH  13  16
BRANCH  13  20
ATOM     20  C   UNL     1       0.173   0.005  -3.674  1.00  0.00     0.075 C 
ATOM     21  C   UNL     1       0.583   1.403  -4.135  1.00  0.00     0.011 C 
ENDBRANCH  13  20
ENDBRANCH  11  13
ENDBRANCH  10  11
BRANCH  10  22
ATOM     22  C   UNL     1       4.710  -0.892  -2.865  1.00  0.00     0.079 C 
ATOM     23  C   UNL     1       5.310   0.477  -3.190  1.00  0.00     0.031 C 
ATOM     24  C   UNL     1       5.045  -1.347  -1.441  1.00  0.00     0.031 C 
ENDBRANCH  10  22
ENDBRANCH   9  10
ENDBRANCH   8   9
ENDBRANCH   6   8
ENDBRANCH   5   6
ENDBRANCH   4   5
ENDBRANCH   3   4
ENDBRANCH   2   3
ENDBRANCH   1   2
BRANCH   1  25
ATOM     25  C   UNL     1       5.647  -4.830  -5.088  1.00  0.00     0.188 C 
BRANCH  25  26
ATOM     26  O   UNL     1       6.252  -4.002  -4.105  1.00  0.00    -0.376 OA
BRANCH  26  27
ATOM     27  C   UNL     1       6.416  -4.552  -2.795  1.00  0.00     0.202 C 
BRANCH  27  28
ATOM     28  C   UNL     1       6.867  -6.016  -2.634  1.00  0.00     0.261 C 
BRANCH  28  29
ATOM     29  O   UNL     1       6.082  -7.009  -3.314  1.00  0.00    -0.460 OA
BRANCH  29  30
ATOM     30  C   UNL     1       4.742  -7.033  -3.135  1.00  0.00     0.338 C 
ATOM     31  O   UNL     1       4.109  -6.423  -2.290  1.00  0.00    -0.246 OA
BRANCH  30  32
ATOM     32  C   UNL     1       4.156  -7.687  -4.340  1.00  0.00     0.060 A 
ATOM     33  C   UNL     1       2.952  -7.187  -4.863  1.00  0.00     0.016 A 
ATOM     34  C   UNL     1       4.850  -8.689  -5.028  1.00  0.00     0.016 A 
ATOM     35  C   UNL     1       2.429  -7.704  -6.052  1.00  0.00     0.010 A 
ATOM     36  C   UNL     1       4.325  -9.210  -6.209  1.00  0.00     0.010 A 
ATOM     37  C   UNL     1       3.095  -8.746  -6.707  1.00  0.00    -0.014 A 
BRANCH  37  38
ATOM     38  C   UNL     1       2.410  -9.562  -7.737  1.00  0.00     0.031 A 
ATOM     39  C   UNL     1       1.768 -10.839  -7.273  1.00  0.00     0.074 A 
ATOM     40  C   UNL     1       2.432  -9.248  -9.043  1.00  0.00     0.049 A 
ATOM     41  N   UNL     1       1.277 -11.827  -7.969  1.00  0.00    -0.248 NA
ATOM     42  C   UNL     1       1.697 -11.033  -5.813  1.00  0.00     0.031 C 
ATOM     43  C   UNL     1       3.014  -8.038  -9.616  1.00  0.00     0.029 A 
ATOM     44  N   UNL     1       1.990  -9.963 -10.131  1.00  0.00    -0.354 N 
ATOM     45  C   UNL     1       0.891 -12.782  -7.038  1.00  0.00     0.074 A 
ATOM     46  C   UNL     1       1.204 -12.256  -5.728  1.00  0.00     0.031 C 
ATOM     47  C   UNL     1       2.941  -8.116 -10.957  1.00  0.00     0.029 A 
ATOM     48  C   UNL     1       2.346  -9.399 -11.334  1.00  0.00     0.049 A 
ATOM     49  H   UNL     1       1.471 -10.796 -10.056  1.00  0.00     0.167 HD
ATOM     50  C   UNL     1       0.326 -13.992  -7.250  1.00  0.00     0.034 A 
ATOM     51  C   UNL     1       2.246  -9.886 -12.589  1.00  0.00     0.034 A 
ATOM     52  C   UNL     1       0.013 -14.509  -8.551  1.00  0.00     0.049 A 
ATOM     53  C   UNL     1       1.630 -11.245 -12.812  1.00  0.00     0.074 A 
ATOM     54  C   UNL     1      -0.610 -15.699  -8.875  1.00  0.00     0.029 A 
ATOM     55  N   UNL     1       0.319 -13.874  -9.744  1.00  0.00    -0.354 N 
ATOM     56  N   UNL     1       1.171 -12.098 -11.927  1.00  0.00    -0.248 NA
ATOM     57  C   UNL     1       1.495 -11.702 -14.204  1.00  0.00     0.031 C 
ATOM     58  C   UNL     1      -0.644 -15.802 -10.269  1.00  0.00     0.029 A 
ATOM     59  C   UNL     1      -0.088 -14.653 -10.810  1.00  0.00     0.049 A 
ATOM     60  H   UNL     1       0.761 -12.997  -9.821  1.00  0.00     0.167 HD
ATOM     61  C   UNL     1       0.655 -13.168 -12.653  1.00  0.00     0.074 A 
ATOM     62  C   UNL     1       0.860 -12.858 -14.053  1.00  0.00     0.031 C 
ATOM     63  C   UNL     1       0.068 -14.303 -12.200  1.00  0.00     0.034 A 
BRANCH  50  64
ATOM     64  C   UNL     1       0.032 -14.835  -6.039  1.00  0.00     0.023 A 
ATOM     65  C   UNL     1      -0.987 -14.451  -5.142  1.00  0.00     0.012 A 
ATOM     66  C   UNL     1       0.771 -16.006  -5.786  1.00  0.00     0.148 A 
ATOM     67  C   UNL     1      -1.228 -15.191  -3.985  1.00  0.00     0.002 A 
ATOM     68  C   UNL     1       0.488 -16.767  -4.659  1.00  0.00     0.091 A 
ATOM     69  F   UNL     1       1.756 -16.338  -6.633  1.00  0.00    -0.205 F 
ATOM     70  C   UNL     1      -0.498 -16.352  -3.749  1.00  0.00     0.022 A 
BRANCH  68  71
ATOM     71  S   UNL     1       1.321 -18.320  -4.317  1.00  0.00     0.127 S 
ATOM     72  O   UNL     1       2.227 -17.938  -3.236  1.00  0.00    -0.237 OA
ATOM     73  O   UNL     1       0.211 -19.181  -3.908  1.00  0.00    -0.237 OA
ATOM     74  O   UNL     1       1.960 -18.712  -5.566  1.00  0.00    -0.744 OA
ENDBRANCH  68  71
ENDBRANCH  50  64
BRANCH  51  75
ATOM     75  C   UNL     1       2.742  -9.071 -13.734  1.00  0.00     0.023 A 
ATOM     76  C   UNL     1       1.822  -8.485 -14.624  1.00  0.00     0.012 A 
ATOM     77  C   UNL     1       4.119  -8.834 -13.914  1.00  0.00     0.148 A 
ATOM     78  C   UNL     1       2.265  -7.688 -15.682  1.00  0.00     0.002 A 
ATOM     79  C   UNL     1       4.551  -7.996 -14.935  1.00  0.00     0.091 A 
ATOM     80  F   UNL     1       4.977  -9.413 -13.062  1.00  0.00    -0.205 F 
ATOM     81  C   UNL     1       3.627  -7.434 -15.830  1.00  0.00     0.022 A 
BRANCH  79  82
ATOM     82  S   UNL     1       6.269  -7.512 -15.132  1.00  0.00     0.127 S 
ATOM     83  O   UNL     1       6.593  -8.078 -16.439  1.00  0.00    -0.237 OA
ATOM     84  O   UNL     1       6.171  -6.053 -15.099  1.00  0.00    -0.237 OA
ATOM     85  O   UNL     1       6.979  -8.098 -14.003  1.00  0.00    -0.744 OA
ENDBRANCH  79  82
ENDBRANCH  51  75
BRANCH  63  86
ATOM     86  C   UNL     1      -0.472 -15.285 -13.207  1.00  0.00     0.023 A 
ATOM     87  C   UNL     1       0.405 -16.122 -13.924  1.00  0.00     0.012 A 
ATOM     88  C   UNL     1      -1.864 -15.474 -13.326  1.00  0.00     0.148 A 
ATOM     89  C   UNL     1      -0.098 -17.125 -14.753  1.00  0.00     0.002 A 
ATOM     90  C   UNL     1      -2.356 -16.507 -14.113  1.00  0.00     0.091 A 
ATOM     91  F   UNL     1      -2.679 -14.656 -12.644  1.00  0.00    -0.205 F 
ATOM     92  C   UNL     1      -1.475 -17.328 -14.835  1.00  0.00     0.022 A 
BRANCH  90  93
ATOM     93  S   UNL     1      -4.105 -16.912 -14.192  1.00  0.00     0.127 S 
ATOM     94  O   UNL     1      -4.428 -16.567 -15.576  1.00  0.00    -0.237 OA
ATOM     95  O   UNL     1      -4.102 -18.347 -13.906  1.00  0.00    -0.237 OA
ATOM     96  O   UNL     1      -4.757 -16.092 -13.180  1.00  0.00    -0.744 OA
ENDBRANCH  90  93
ENDBRANCH  63  86
ENDBRANCH  37  38
ENDBRANCH  30  32
ENDBRANCH  29  30
ENDBRANCH  28  29
ENDBRANCH  27  28
ENDBRANCH  26  27
ENDBRANCH  25  26
ENDBRANCH   1  25
TORSDOF 28
