REMARK SMILES CCOc1cc(/C=C(\CC(=O)OCCOCCOCCOC(=O)c2ccc(-c3c4nc(c(-c5cccc(S(=O)(=O)[O-])c5F)c5ccc([nH]5)c(-c5cccc(S(=O)(=O)[O-])c5F)c5nc(c(-c6cccc(S(=O)(=O)[O-])c6F)c6ccc3[nH]6)C=C5)C=C4)cc2)c2nc3ccccc3o2)cc(Br)c1OC
REMARK SMILES IDX 16 1 15 2 14 3 13 4 12 5 10 6 11 7 9 8 8 9 7 10 6 11 4 12
REMARK SMILES IDX 5 13 99 14 97 15 96 16 98 17 3 18 2 19 1 20 100 21 101 22
REMARK SMILES IDX 87 23 88 24 95 25 89 26 94 27 90 28 93 29 91 30 92 31 17 32
REMARK SMILES IDX 18 33 19 34 20 35 21 36 22 37 23 38 24 39 25 40 86 41 26 42
REMARK SMILES IDX 85 43 27 44 28 45 29 46 79 47 30 48 84 49 78 50 80 51 31 52
REMARK SMILES IDX 83 53 77 54 76 55 32 57 64 58 44 59 63 60 45 61 48 62 62 63
REMARK SMILES IDX 81 64 46 65 47 66 61 68 82 69 49 70 33 71 34 72 42 73 35 74
REMARK SMILES IDX 37 75 43 76 36 77 38 78 39 79 40 80 41 81 65 82 66 83 74 84
REMARK SMILES IDX 67 85 69 86 75 87 68 88 70 89 71 90 72 91 73 92 50 93 51 94
REMARK SMILES IDX 59 95 52 96 54 97 60 98 53 99 55 100 56 101 57 102 58 103
REMARK H PARENT 80 56 48 67
REMARK Flexibility Score: inf
ROOT
ATOM      1  C   UNL     1       2.931   4.832   1.174  1.00  0.00     0.188 C 
ENDROOT
BRANCH   1   2
ATOM      2  O   UNL     1       1.838   4.912   2.079  1.00  0.00    -0.376 OA
BRANCH   2   3
ATOM      3  C   UNL     1       1.788   4.012   3.170  1.00  0.00     0.202 C 
BRANCH   3   4
ATOM      4  C   UNL     1       1.779   2.510   2.847  1.00  0.00     0.261 C 
BRANCH   4   5
ATOM      5  O   UNL     1       2.878   2.046   2.020  1.00  0.00    -0.463 OA
BRANCH   5   6
ATOM      6  C   UNL     1       2.582   1.848   0.708  1.00  0.00     0.310 C 
ATOM      7  O   UNL     1       1.443   1.936   0.257  1.00  0.00    -0.252 OA
BRANCH   6   8
ATOM      8  C   UNL     1       3.769   1.571  -0.244  1.00  0.00     0.163 C 
BRANCH   8   9
ATOM      9  C   UNL     1       5.204   1.194   0.150  1.00  0.00     0.026 C 
ATOM     10  C   UNL     1       5.554   0.029   0.761  1.00  0.00     0.018 C 
BRANCH  10  11
ATOM     11  C   UNL     1       4.733  -1.117   1.254  1.00  0.00    -0.020 A 
ATOM     12  C   UNL     1       2.600  -2.251   1.660  1.00  0.00     0.162 A 
ATOM     13  C   UNL     1       3.349  -1.176   1.182  1.00  0.00     0.058 A 
ATOM     14  C   UNL     1       3.205  -3.365   2.249  1.00  0.00     0.174 A 
ATOM     15  C   UNL     1       4.605  -3.344   2.333  1.00  0.00     0.064 A 
ATOM     16  C   UNL     1       5.348  -2.230   1.845  1.00  0.00     0.028 A 
ATOM     17  Br  UNL     1       5.686  -4.724   3.078  1.00  0.00    -0.047 Br
BRANCH  12  18
ATOM     18  O   UNL     1       1.228  -2.117   1.669  1.00  0.00    -0.490 OA
BRANCH  18  19
ATOM     19  C   UNL     1       0.632  -2.250   0.371  1.00  0.00     0.226 C 
ATOM     20  C   UNL     1       0.274  -0.898  -0.226  1.00  0.00     0.049 C 
ENDBRANCH  18  19
ENDBRANCH  12  18
BRANCH  14  21
ATOM     21  O   UNL     1       2.284  -4.298   2.620  1.00  0.00    -0.492 OA
ATOM     22  C   UNL     1       2.622  -5.477   3.312  1.00  0.00     0.278 C 
ENDBRANCH  14  21
ENDBRANCH  10  11
BRANCH   9  23
ATOM     23  C   UNL     1       6.296   2.067  -0.309  1.00  0.00     0.223 A 
ATOM     24  N   UNL     1       6.160   3.376  -0.486  1.00  0.00    -0.210 NA
ATOM     25  O   UNL     1       7.575   1.646  -0.708  1.00  0.00    -0.436 OA
ATOM     26  C   UNL     1       7.333   3.829  -1.035  1.00  0.00     0.110 A 
ATOM     27  C   UNL     1       8.203   2.772  -1.194  1.00  0.00     0.155 A 
ATOM     28  C   UNL     1       7.742   5.109  -1.442  1.00  0.00     0.032 A 
ATOM     29  C   UNL     1       9.471   2.911  -1.764  1.00  0.00     0.049 A 
ATOM     30  C   UNL     1       8.988   5.290  -2.038  1.00  0.00     0.003 A 
ATOM     31  C   UNL     1       9.841   4.202  -2.195  1.00  0.00     0.004 A 
ENDBRANCH   9  23
ENDBRANCH   8   9
ENDBRANCH   6   8
ENDBRANCH   5   6
ENDBRANCH   4   5
ENDBRANCH   3   4
ENDBRANCH   2   3
ENDBRANCH   1   2
BRANCH   1  32
ATOM     32  C   UNL     1       4.341   4.495   1.722  1.00  0.00     0.188 C 
BRANCH  32  33
ATOM     33  O   UNL     1       4.491   4.857   3.074  1.00  0.00    -0.376 OA
BRANCH  33  34
ATOM     34  C   UNL     1       5.206   6.035   3.352  1.00  0.00     0.202 C 
BRANCH  34  35
ATOM     35  C   UNL     1       5.208   7.244   2.387  1.00  0.00     0.261 C 
BRANCH  35  36
ATOM     36  O   UNL     1       4.623   7.055   1.077  1.00  0.00    -0.460 OA
BRANCH  36  37
ATOM     37  C   UNL     1       5.348   7.454   0.007  1.00  0.00     0.338 C 
ATOM     38  O   UNL     1       6.421   8.039   0.082  1.00  0.00    -0.246 OA
BRANCH  37  39
ATOM     39  C   UNL     1       4.796   7.080  -1.344  1.00  0.00     0.060 A 
ATOM     40  C   UNL     1       4.559   5.756  -1.730  1.00  0.00     0.016 A 
ATOM     41  C   UNL     1       4.912   8.035  -2.356  1.00  0.00     0.016 A 
ATOM     42  C   UNL     1       4.612   5.374  -3.088  1.00  0.00     0.010 A 
ATOM     43  C   UNL     1       4.880   7.665  -3.715  1.00  0.00     0.010 A 
ATOM     44  C   UNL     1       4.788   6.321  -4.108  1.00  0.00    -0.014 A 
BRANCH  44  45
ATOM     45  C   UNL     1       4.829   5.936  -5.560  1.00  0.00     0.031 A 
ATOM     46  C   UNL     1       5.998   6.288  -6.464  1.00  0.00     0.074 A 
ATOM     47  C   UNL     1       3.770   5.309  -6.114  1.00  0.00     0.049 A 
ATOM     48  N   UNL     1       6.092   6.207  -7.771  1.00  0.00    -0.248 NA
ATOM     49  C   UNL     1       7.220   6.789  -5.817  1.00  0.00     0.031 C 
ATOM     50  C   UNL     1       2.575   4.873  -5.393  1.00  0.00     0.029 A 
ATOM     51  N   UNL     1       3.509   4.968  -7.424  1.00  0.00    -0.354 N 
ATOM     52  C   UNL     1       7.351   6.697  -8.112  1.00  0.00     0.074 A 
ATOM     53  C   UNL     1       7.998   7.053  -6.862  1.00  0.00     0.031 C 
ATOM     54  C   UNL     1       1.703   4.346  -6.262  1.00  0.00     0.029 A 
ATOM     55  C   UNL     1       2.236   4.481  -7.613  1.00  0.00     0.049 A 
ATOM     56  H   UNL     1       4.167   5.064  -8.150  1.00  0.00     0.167 HD
ATOM     57  C   UNL     1       7.917   6.843  -9.340  1.00  0.00     0.034 A 
ATOM     58  C   UNL     1       1.533   4.226  -8.734  1.00  0.00     0.034 A 
ATOM     59  C   UNL     1       7.294   6.460 -10.589  1.00  0.00     0.049 A 
ATOM     60  C   UNL     1       2.160   4.435 -10.081  1.00  0.00     0.074 A 
ATOM     61  C   UNL     1       7.818   6.539 -11.871  1.00  0.00     0.029 A 
ATOM     62  N   UNL     1       6.017   5.939 -10.723  1.00  0.00    -0.354 N 
ATOM     63  N   UNL     1       3.365   4.854 -10.375  1.00  0.00    -0.248 NA
ATOM     64  C   UNL     1       1.334   4.107 -11.252  1.00  0.00     0.031 C 
ATOM     65  C   UNL     1       6.845   6.107 -12.780  1.00  0.00     0.029 A 
ATOM     66  C   UNL     1       5.731   5.708 -12.063  1.00  0.00     0.049 A 
ATOM     67  H   UNL     1       5.401   5.758  -9.977  1.00  0.00     0.167 HD
ATOM     68  C   UNL     1       3.455   4.805 -11.761  1.00  0.00     0.074 A 
ATOM     69  C   UNL     1       2.191   4.292 -12.245  1.00  0.00     0.031 C 
ATOM     70  C   UNL     1       4.492   5.164 -12.558  1.00  0.00     0.034 A 
BRANCH  57  71
ATOM     71  C   UNL     1       9.304   7.446  -9.431  1.00  0.00     0.023 A 
ATOM     72  C   UNL     1      10.430   6.691  -9.045  1.00  0.00     0.012 A 
ATOM     73  C   UNL     1       9.500   8.717 -10.016  1.00  0.00     0.148 A 
ATOM     74  C   UNL     1      11.720   7.198  -9.213  1.00  0.00     0.002 A 
ATOM     75  C   UNL     1      10.790   9.198 -10.220  1.00  0.00     0.091 A 
ATOM     76  F   UNL     1       8.421   9.427 -10.376  1.00  0.00    -0.205 F 
ATOM     77  C   UNL     1      11.901   8.444  -9.809  1.00  0.00     0.022 A 
BRANCH  75  78
ATOM     78  S   UNL     1      11.133  10.751 -11.058  1.00  0.00     0.127 S 
ATOM     79  O   UNL     1      11.599  11.586  -9.955  1.00  0.00    -0.237 OA
ATOM     80  O   UNL     1      12.168  10.367 -12.015  1.00  0.00    -0.237 OA
ATOM     81  O   UNL     1       9.870  11.166 -11.665  1.00  0.00    -0.744 OA
ENDBRANCH  75  78
ENDBRANCH  57  71
BRANCH  58  82
ATOM     82  C   UNL     1       0.128   3.741  -8.618  1.00  0.00     0.023 A 
ATOM     83  C   UNL     1      -0.184   2.420  -8.988  1.00  0.00     0.012 A 
ATOM     84  C   UNL     1      -0.885   4.571  -8.098  1.00  0.00     0.148 A 
ATOM     85  C   UNL     1      -1.488   1.940  -8.862  1.00  0.00     0.002 A 
ATOM     86  C   UNL     1      -2.163   4.064  -7.910  1.00  0.00     0.091 A 
ATOM     87  F   UNL     1      -0.568   5.833  -7.773  1.00  0.00    -0.205 F 
ATOM     88  C   UNL     1      -2.472   2.755  -8.308  1.00  0.00     0.022 A 
BRANCH  86  89
ATOM     89  S   UNL     1      -3.446   4.991  -7.061  1.00  0.00     0.127 S 
ATOM     90  O   UNL     1      -4.369   5.290  -8.153  1.00  0.00    -0.237 OA
ATOM     91  O   UNL     1      -3.934   4.009  -6.092  1.00  0.00    -0.237 OA
ATOM     92  O   UNL     1      -2.775   6.138  -6.466  1.00  0.00    -0.744 OA
ENDBRANCH  86  89
ENDBRANCH  58  82
BRANCH  70  93
ATOM     93  C   UNL     1       4.324   4.963 -14.045  1.00  0.00     0.023 A 
ATOM     94  C   UNL     1       3.410   5.754 -14.771  1.00  0.00     0.012 A 
ATOM     95  C   UNL     1       5.072   3.982 -14.728  1.00  0.00     0.148 A 
ATOM     96  C   UNL     1       3.198   5.532 -16.133  1.00  0.00     0.002 A 
ATOM     97  C   UNL     1       4.894   3.802 -16.096  1.00  0.00     0.091 A 
ATOM     98  F   UNL     1       5.924   3.221 -14.025  1.00  0.00    -0.205 F 
ATOM     99  C   UNL     1       3.945   4.562 -16.796  1.00  0.00     0.022 A 
BRANCH  97 100
ATOM    100  S   UNL     1       5.877   2.636 -17.047  1.00  0.00     0.127 S 
ATOM    101  O   UNL     1       4.920   1.555 -17.275  1.00  0.00    -0.237 OA
ATOM    102  O   UNL     1       6.213   3.413 -18.241  1.00  0.00    -0.237 OA
ATOM    103  O   UNL     1       7.019   2.298 -16.208  1.00  0.00    -0.744 OA
ENDBRANCH  97 100
ENDBRANCH  70  93
ENDBRANCH  44  45
ENDBRANCH  37  39
ENDBRANCH  36  37
ENDBRANCH  35  36
ENDBRANCH  34  35
ENDBRANCH  33  34
ENDBRANCH  32  33
ENDBRANCH   1  32
TORSDOF 26
