REMARK SMILES C[C@@H]1CCc2nc(NC(=O)[C@H]3CC=CC[C@@H]3C(=O)OCCOCCOCCOC(=O)c3ccc(-c4c5nc(c(-c6cccc(S(=O)(=O)[O-])c6F)c6ccc([nH]6)c(-c6cccc(S(=O)(=O)[O-])c6F)c6nc(c(-c7cccc(S(=O)(=O)[O-])c7F)c7ccc4[nH]7)C=C6)C=C5)cc3)sc2C1
REMARK SMILES IDX 24 1 23 2 22 3 21 4 20 5 19 6 17 7 18 8 16 9 11 10 12 11
REMARK SMILES IDX 13 12 15 13 14 14 9 15 8 16 10 18 7 19 1 20 2 21 3 22 96 23
REMARK SMILES IDX 4 24 95 25 5 26 94 27 6 28 25 29 26 30 27 31 28 32 29 33
REMARK SMILES IDX 30 34 31 35 32 36 93 37 33 38 92 39 34 40 35 41 36 42 86 43
REMARK SMILES IDX 37 44 91 45 85 46 87 47 38 48 90 49 84 50 83 51 39 53 71 54
REMARK SMILES IDX 51 55 70 56 52 57 55 58 69 59 88 60 53 61 54 62 68 64 89 65
REMARK SMILES IDX 56 66 40 67 41 68 49 69 42 70 44 71 50 72 43 73 45 74 46 75
REMARK SMILES IDX 47 76 48 77 72 78 73 79 81 80 74 81 76 82 82 83 75 84 77 85
REMARK SMILES IDX 78 86 79 87 80 88 57 89 58 90 66 91 59 92 61 93 67 94 60 95
REMARK SMILES IDX 62 96 63 97 64 98 65 99
REMARK H PARENT 8 17 87 52 55 63
REMARK Flexibility Score: inf
ROOT
ATOM      1  C   UNL     1       7.551  -3.896   5.281  1.00  0.00     0.188 C 
ENDROOT
BRANCH   1   2
ATOM      2  C   UNL     1       6.685  -4.730   4.310  1.00  0.00     0.188 C 
BRANCH   2   3
ATOM      3  O   UNL     1       7.393  -5.575   3.433  1.00  0.00    -0.376 OA
BRANCH   3   4
ATOM      4  C   UNL     1       8.034  -5.002   2.303  1.00  0.00     0.202 C 
BRANCH   4   5
ATOM      5  C   UNL     1       8.187  -3.474   2.069  1.00  0.00     0.261 C 
BRANCH   5   6
ATOM      6  O   UNL     1       7.421  -2.642   2.961  1.00  0.00    -0.463 OA
BRANCH   6   7
ATOM      7  C   UNL     1       6.965  -1.449   2.537  1.00  0.00     0.310 C 
ATOM      8  O   UNL     1       7.333  -0.932   1.484  1.00  0.00    -0.252 OA
BRANCH   7   9
ATOM      9  C   UNL     1       5.694  -0.972   3.275  1.00  0.00     0.116 C 
ATOM     10  C   UNL     1       5.538  -0.784   4.814  1.00  0.00     0.097 C 
ATOM     11  C   UNL     1       4.723  -1.844   5.605  1.00  0.00     0.041 C 
ATOM     12  C   UNL     1       3.852  -2.747   4.804  1.00  0.00    -0.030 C 
ATOM     13  C   UNL     1       4.602  -1.824   2.612  1.00  0.00     0.043 C 
ATOM     14  C   UNL     1       3.800  -2.735   3.472  1.00  0.00    -0.030 C 
BRANCH  10  15
ATOM     15  C   UNL     1       5.079   0.628   5.346  1.00  0.00     0.230 C 
ATOM     16  N   UNL     1       3.781   1.079   5.376  1.00  0.00    -0.302 N 
ATOM     17  H   UNL     1       3.523   1.535   6.210  1.00  0.00     0.172 HD
ATOM     18  O   UNL     1       5.906   1.298   5.983  1.00  0.00    -0.274 OA
BRANCH  16  19
ATOM     19  C   UNL     1       2.789   0.999   4.439  1.00  0.00     0.189 A 
ATOM     20  C   UNL     1       0.395   0.513  -0.224  1.00  0.00     0.008 C 
ATOM     21  C   UNL     1       0.162  -0.550   0.850  1.00  0.00    -0.009 C 
ATOM     22  C   UNL     1      -0.946  -0.200   1.891  1.00  0.00     0.010 C 
ATOM     23  C   UNL     1       1.487  -0.855   1.532  1.00  0.00     0.052 C 
ATOM     24  C   UNL     1      -0.573   0.771   3.059  1.00  0.00     0.058 C 
ATOM     25  C   UNL     1       1.778   0.178   2.542  1.00  0.00     0.030 A 
ATOM     26  C   UNL     1       0.872   0.715   3.420  1.00  0.00     0.057 A 
ATOM     27  S   UNL     1       3.207   1.063   2.782  1.00  0.00    -0.101 S 
ATOM     28  N   UNL     1       1.481   1.159   4.599  1.00  0.00    -0.225 NA
ENDBRANCH  16  19
ENDBRANCH  10  15
ENDBRANCH   7   9
ENDBRANCH   6   7
ENDBRANCH   5   6
ENDBRANCH   4   5
ENDBRANCH   3   4
ENDBRANCH   2   3
ENDBRANCH   1   2
BRANCH   1  29
ATOM     29  O   UNL     1       8.967  -3.917   5.220  1.00  0.00    -0.376 OA
BRANCH  29  30
ATOM     30  C   UNL     1       9.700  -5.128   5.269  1.00  0.00     0.202 C 
BRANCH  30  31
ATOM     31  C   UNL     1       9.309  -6.283   6.179  1.00  0.00     0.261 C 
BRANCH  31  32
ATOM     32  O   UNL     1       7.920  -6.500   6.285  1.00  0.00    -0.460 OA
BRANCH  32  33
ATOM     33  C   UNL     1       7.377  -5.989   7.396  1.00  0.00     0.338 C 
ATOM     34  O   UNL     1       7.891  -5.170   8.179  1.00  0.00    -0.246 OA
BRANCH  33  35
ATOM     35  C   UNL     1       6.080  -6.595   7.615  1.00  0.00     0.060 A 
ATOM     36  C   UNL     1       5.248  -5.986   8.557  1.00  0.00     0.016 A 
ATOM     37  C   UNL     1       5.928  -7.925   7.201  1.00  0.00     0.016 A 
ATOM     38  C   UNL     1       4.434  -6.801   9.298  1.00  0.00     0.010 A 
ATOM     39  C   UNL     1       5.138  -8.739   7.960  1.00  0.00     0.010 A 
ATOM     40  C   UNL     1       4.490  -8.177   9.057  1.00  0.00    -0.014 A 
BRANCH  40  41
ATOM     41  C   UNL     1       3.788  -9.050   9.964  1.00  0.00     0.031 A 
ATOM     42  C   UNL     1       2.332  -9.026   9.733  1.00  0.00     0.074 A 
ATOM     43  C   UNL     1       4.461  -9.857  10.807  1.00  0.00     0.049 A 
ATOM     44  N   UNL     1       1.414  -8.601  10.534  1.00  0.00    -0.248 NA
ATOM     45  C   UNL     1       1.857  -9.303   8.365  1.00  0.00     0.031 C 
ATOM     46  C   UNL     1       5.908 -10.100  10.845  1.00  0.00     0.029 A 
ATOM     47  N   UNL     1       3.974 -10.764  11.694  1.00  0.00    -0.354 N 
ATOM     48  C   UNL     1       0.222  -8.828   9.855  1.00  0.00     0.074 A 
ATOM     49  C   UNL     1       0.565  -9.000   8.472  1.00  0.00     0.031 C 
ATOM     50  C   UNL     1       6.140 -11.263  11.493  1.00  0.00     0.029 A 
ATOM     51  C   UNL     1       4.880 -11.775  12.003  1.00  0.00     0.049 A 
ATOM     52  H   UNL     1       3.071 -10.711  12.081  1.00  0.00     0.167 HD
ATOM     53  C   UNL     1      -0.897  -9.194  10.534  1.00  0.00     0.034 A 
ATOM     54  C   UNL     1       4.580 -12.990  12.526  1.00  0.00     0.034 A 
ATOM     55  C   UNL     1      -0.789  -8.858  11.933  1.00  0.00     0.049 A 
ATOM     56  C   UNL     1       3.217 -12.900  13.103  1.00  0.00     0.074 A 
ATOM     57  C   UNL     1      -0.549  -7.695  12.638  1.00  0.00     0.029 A 
ATOM     58  N   UNL     1      -0.539  -9.892  12.803  1.00  0.00    -0.354 N 
ATOM     59  N   UNL     1       2.922 -12.187  14.152  1.00  0.00    -0.248 NA
ATOM     60  C   UNL     1       2.092 -13.251  12.248  1.00  0.00     0.031 C 
ATOM     61  C   UNL     1       0.261  -8.092  13.741  1.00  0.00     0.029 A 
ATOM     62  C   UNL     1       0.415  -9.478  13.690  1.00  0.00     0.049 A 
ATOM     63  H   UNL     1      -0.973 -10.775  12.789  1.00  0.00     0.167 HD
ATOM     64  C   UNL     1       1.698 -11.608  13.838  1.00  0.00     0.074 A 
ATOM     65  C   UNL     1       1.184 -12.390  12.715  1.00  0.00     0.031 C 
ATOM     66  C   UNL     1       1.367 -10.371  14.312  1.00  0.00     0.034 A 
BRANCH  53  67
ATOM     67  C   UNL     1      -1.881 -10.234  10.040  1.00  0.00     0.023 A 
ATOM     68  C   UNL     1      -3.028 -10.445  10.835  1.00  0.00     0.012 A 
ATOM     69  C   UNL     1      -1.616 -11.197   9.036  1.00  0.00     0.148 A 
ATOM     70  C   UNL     1      -3.818 -11.590  10.694  1.00  0.00     0.002 A 
ATOM     71  C   UNL     1      -2.450 -12.292   8.846  1.00  0.00     0.091 A 
ATOM     72  F   UNL     1      -0.485 -11.153   8.330  1.00  0.00    -0.205 F 
ATOM     73  C   UNL     1      -3.530 -12.514   9.698  1.00  0.00     0.022 A 
BRANCH  71  74
ATOM     74  S   UNL     1      -2.147 -13.488   7.537  1.00  0.00     0.127 S 
ATOM     75  O   UNL     1      -1.671 -14.639   8.299  1.00  0.00    -0.237 OA
ATOM     76  O   UNL     1      -3.481 -13.634   6.956  1.00  0.00    -0.237 OA
ATOM     77  O   UNL     1      -1.175 -12.864   6.647  1.00  0.00    -0.744 OA
ENDBRANCH  71  74
ENDBRANCH  53  67
BRANCH  54  78
ATOM     78  C   UNL     1       5.242 -14.300  12.314  1.00  0.00     0.023 A 
ATOM     79  C   UNL     1       5.003 -15.351  13.223  1.00  0.00     0.012 A 
ATOM     80  C   UNL     1       5.879 -14.610  11.092  1.00  0.00     0.148 A 
ATOM     81  C   UNL     1       5.355 -16.670  12.910  1.00  0.00     0.002 A 
ATOM     82  C   UNL     1       6.239 -15.920  10.791  1.00  0.00     0.091 A 
ATOM     83  F   UNL     1       6.043 -13.641  10.182  1.00  0.00    -0.205 F 
ATOM     84  C   UNL     1       5.966 -16.956  11.693  1.00  0.00     0.022 A 
BRANCH  82  85
ATOM     85  S   UNL     1       7.012 -16.363   9.229  1.00  0.00     0.127 S 
ATOM     86  O   UNL     1       8.124 -17.207   9.668  1.00  0.00    -0.237 OA
ATOM     87  O   UNL     1       5.934 -17.075   8.549  1.00  0.00    -0.237 OA
ATOM     88  O   UNL     1       7.423 -15.105   8.618  1.00  0.00    -0.744 OA
ENDBRANCH  82  85
ENDBRANCH  54  78
BRANCH  66  89
ATOM     89  C   UNL     1       2.213  -9.785  15.413  1.00  0.00     0.023 A 
ATOM     90  C   UNL     1       3.584  -9.495  15.254  1.00  0.00     0.012 A 
ATOM     91  C   UNL     1       1.564  -9.372  16.588  1.00  0.00     0.148 A 
ATOM     92  C   UNL     1       4.296  -8.835  16.259  1.00  0.00     0.002 A 
ATOM     93  C   UNL     1       2.262  -8.674  17.563  1.00  0.00     0.091 A 
ATOM     94  F   UNL     1       0.259  -9.655  16.725  1.00  0.00    -0.205 F 
ATOM     95  C   UNL     1       3.632  -8.412  17.409  1.00  0.00     0.022 A 
BRANCH  93  96
ATOM     96  S   UNL     1       1.421  -8.001  18.997  1.00  0.00     0.127 S 
ATOM     97  O   UNL     1       1.739  -8.986  20.028  1.00  0.00    -0.237 OA
ATOM     98  O   UNL     1       2.074  -6.701  19.168  1.00  0.00    -0.237 OA
ATOM     99  O   UNL     1       0.015  -7.909  18.622  1.00  0.00    -0.744 OA
ENDBRANCH  93  96
ENDBRANCH  66  89
ENDBRANCH  40  41
ENDBRANCH  33  35
ENDBRANCH  32  33
ENDBRANCH  31  32
ENDBRANCH  30  31
ENDBRANCH  29  30
ENDBRANCH   1  29
TORSDOF 22
