REMARK SMILES CN(c1ccc(C(=O)OCCOCCOCCOC(=O)c2ccc(-c3c4nc(c(-c5cccc(S(=O)(=O)[O-])c5F)c5ccc([nH]5)c(-c5cccc(S(=O)(=O)[O-])c5F)c5nc(c(-c6cccc(S(=O)(=O)[O-])c6F)c6ccc3[nH]6)C=C5)C=C4)cc2)cc1[N+](=O)[O-])C1CC1
REMARK SMILES IDX 14 1 13 2 12 3 11 4 10 5 9 6 7 7 8 8 6 9 3 10 4 11 85 12
REMARK SMILES IDX 5 13 84 14 2 15 1 16 89 17 90 18 91 19 86 20 87 21 88 22
REMARK SMILES IDX 15 23 16 24 17 25 18 26 19 27 20 28 21 29 22 30 83 31 23 32
REMARK SMILES IDX 82 33 24 34 25 35 26 36 76 37 27 38 81 39 75 40 77 41 28 42
REMARK SMILES IDX 80 43 74 44 73 45 29 47 61 48 41 49 60 50 42 51 45 52 59 53
REMARK SMILES IDX 78 54 43 55 44 56 58 58 79 59 46 60 30 61 31 62 39 63 32 64
REMARK SMILES IDX 34 65 40 66 33 67 35 68 36 69 37 70 38 71 62 72 63 73 71 74
REMARK SMILES IDX 64 75 66 76 72 77 65 78 67 79 68 80 69 81 70 82 47 83 48 84
REMARK SMILES IDX 56 85 49 86 51 87 57 88 50 89 52 90 53 91 54 92 55 93
REMARK H PARENT 77 46 45 57
REMARK Flexibility Score: inf
ROOT
ATOM      1  C   UNL     1      -4.515   2.949   4.037  1.00  0.00     0.188 C 
ENDROOT
BRANCH   1   2
ATOM      2  C   UNL     1      -3.953   4.064   4.941  1.00  0.00     0.188 C 
BRANCH   2   3
ATOM      3  O   UNL     1      -4.695   5.250   5.116  1.00  0.00    -0.376 OA
BRANCH   3   4
ATOM      4  C   UNL     1      -4.896   6.155   4.046  1.00  0.00     0.202 C 
BRANCH   4   5
ATOM      5  C   UNL     1      -3.966   6.292   2.830  1.00  0.00     0.261 C 
BRANCH   5   6
ATOM      6  O   UNL     1      -3.346   5.090   2.361  1.00  0.00    -0.460 OA
BRANCH   6   7
ATOM      7  C   UNL     1      -1.994   5.078   2.450  1.00  0.00     0.338 C 
ATOM      8  O   UNL     1      -1.272   5.981   2.839  1.00  0.00    -0.246 OA
BRANCH   7   9
ATOM      9  C   UNL     1      -1.472   3.733   2.135  1.00  0.00     0.067 A 
ATOM     10  C   UNL     1      -0.263   1.238   1.524  1.00  0.00     0.116 A 
ATOM     11  C   UNL     1       0.097   1.966   2.674  1.00  0.00     0.034 A 
ATOM     12  C   UNL     1      -1.310   1.770   0.736  1.00  0.00     0.293 A 
ATOM     13  C   UNL     1      -0.488   3.201   2.971  1.00  0.00     0.018 A 
ATOM     14  C   UNL     1      -1.916   3.008   1.031  1.00  0.00     0.103 A 
BRANCH  10  15
ATOM     15  N   UNL     1       0.483   0.093   1.181  1.00  0.00    -0.366 N 
ATOM     16  C   UNL     1       1.271   0.183  -0.046  1.00  0.00     0.144 C 
BRANCH  15  17
ATOM     17  C   UNL     1       0.827  -0.942   2.178  1.00  0.00     0.082 C 
ATOM     18  C   UNL     1       0.501  -2.385   1.896  1.00  0.00     0.027 C 
ATOM     19  C   UNL     1       1.932  -1.950   1.989  1.00  0.00     0.027 C 
ENDBRANCH  15  17
ENDBRANCH  10  15
BRANCH  12  20
ATOM     20  N   UNL     1      -1.815   1.056  -0.436  1.00  0.00     0.065 N 
ATOM     21  O   UNL     1      -2.101   1.746  -1.429  1.00  0.00    -0.258 OA
ATOM     22  O   UNL     1      -1.955  -0.172  -0.376  1.00  0.00    -0.258 OA
ENDBRANCH  12  20
ENDBRANCH   7   9
ENDBRANCH   6   7
ENDBRANCH   5   6
ENDBRANCH   4   5
ENDBRANCH   3   4
ENDBRANCH   2   3
ENDBRANCH   1   2
BRANCH   1  23
ATOM     23  O   UNL     1      -5.689   3.165   3.284  1.00  0.00    -0.376 OA
BRANCH  23  24
ATOM     24  C   UNL     1      -6.925   3.408   3.933  1.00  0.00     0.202 C 
BRANCH  24  25
ATOM     25  C   UNL     1      -7.313   2.878   5.325  1.00  0.00     0.261 C 
BRANCH  25  26
ATOM     26  O   UNL     1      -6.260   2.670   6.267  1.00  0.00    -0.460 OA
BRANCH  26  27
ATOM     27  C   UNL     1      -5.973   1.370   6.526  1.00  0.00     0.338 C 
ATOM     28  O   UNL     1      -6.489   0.385   6.027  1.00  0.00    -0.246 OA
BRANCH  27  29
ATOM     29  C   UNL     1      -4.784   1.307   7.394  1.00  0.00     0.060 A 
ATOM     30  C   UNL     1      -3.614   0.735   6.877  1.00  0.00     0.016 A 
ATOM     31  C   UNL     1      -4.834   1.762   8.712  1.00  0.00     0.016 A 
ATOM     32  C   UNL     1      -2.491   0.595   7.689  1.00  0.00     0.010 A 
ATOM     33  C   UNL     1      -3.713   1.601   9.530  1.00  0.00     0.010 A 
ATOM     34  C   UNL     1      -2.548   0.990   9.031  1.00  0.00    -0.014 A 
BRANCH  34  35
ATOM     35  C   UNL     1      -1.446   0.619   9.949  1.00  0.00     0.031 A 
ATOM     36  C   UNL     1      -1.608  -0.595  10.822  1.00  0.00     0.074 A 
ATOM     37  C   UNL     1      -0.319   1.350  10.009  1.00  0.00     0.049 A 
ATOM     38  N   UNL     1      -0.784  -1.096  11.704  1.00  0.00    -0.248 NA
ATOM     39  C   UNL     1      -2.870  -1.341  10.683  1.00  0.00     0.031 C 
ATOM     40  C   UNL     1      -0.047   2.550   9.220  1.00  0.00     0.029 A 
ATOM     41  N   UNL     1       0.797   1.200  10.795  1.00  0.00    -0.354 N 
ATOM     42  C   UNL     1      -1.437  -2.194  12.250  1.00  0.00     0.074 A 
ATOM     43  C   UNL     1      -2.729  -2.283  11.604  1.00  0.00     0.031 C 
ATOM     44  C   UNL     1       1.145   3.050   9.588  1.00  0.00     0.029 A 
ATOM     45  C   UNL     1       1.709   2.218  10.651  1.00  0.00     0.049 A 
ATOM     46  H   UNL     1       0.930   0.438  11.403  1.00  0.00     0.167 HD
ATOM     47  C   UNL     1      -0.997  -3.059  13.194  1.00  0.00     0.034 A 
ATOM     48  C   UNL     1       2.854   2.463  11.319  1.00  0.00     0.034 A 
ATOM     49  C   UNL     1       0.292  -2.978  13.826  1.00  0.00     0.049 A 
ATOM     50  C   UNL     1       3.317   1.492  12.375  1.00  0.00     0.074 A 
ATOM     51  C   UNL     1       0.852  -3.844  14.748  1.00  0.00     0.029 A 
ATOM     52  N   UNL     1       1.213  -1.964  13.619  1.00  0.00    -0.354 N 
ATOM     53  N   UNL     1       2.753   0.379  12.779  1.00  0.00    -0.248 NA
ATOM     54  C   UNL     1       4.593   1.792  13.042  1.00  0.00     0.031 C 
ATOM     55  C   UNL     1       2.099  -3.333  15.125  1.00  0.00     0.029 A 
ATOM     56  C   UNL     1       2.331  -2.170  14.409  1.00  0.00     0.049 A 
ATOM     57  H   UNL     1       1.090  -1.207  13.001  1.00  0.00     0.167 HD
ATOM     58  C   UNL     1       3.619  -0.169  13.721  1.00  0.00     0.074 A 
ATOM     59  C   UNL     1       4.757   0.723  13.809  1.00  0.00     0.031 C 
ATOM     60  C   UNL     1       3.480  -1.302  14.454  1.00  0.00     0.034 A 
BRANCH  47  61
ATOM     61  C   UNL     1      -1.919  -4.181  13.594  1.00  0.00     0.023 A 
ATOM     62  C   UNL     1      -2.147  -5.251  12.705  1.00  0.00     0.012 A 
ATOM     63  C   UNL     1      -2.519  -4.199  14.867  1.00  0.00     0.148 A 
ATOM     64  C   UNL     1      -2.986  -6.305  13.065  1.00  0.00     0.002 A 
ATOM     65  C   UNL     1      -3.317  -5.275  15.236  1.00  0.00     0.091 A 
ATOM     66  F   UNL     1      -2.309  -3.160  15.688  1.00  0.00    -0.205 F 
ATOM     67  C   UNL     1      -3.561  -6.322  14.333  1.00  0.00     0.022 A 
BRANCH  65  68
ATOM     68  S   UNL     1      -4.037  -5.428  16.874  1.00  0.00     0.127 S 
ATOM     69  O   UNL     1      -5.453  -5.196  16.597  1.00  0.00    -0.237 OA
ATOM     70  O   UNL     1      -3.704  -6.808  17.229  1.00  0.00    -0.237 OA
ATOM     71  O   UNL     1      -3.386  -4.416  17.695  1.00  0.00    -0.744 OA
ENDBRANCH  65  68
ENDBRANCH  47  61
BRANCH  48  72
ATOM     72  C   UNL     1       3.661   3.672  10.990  1.00  0.00     0.023 A 
ATOM     73  C   UNL     1       4.911   3.527  10.359  1.00  0.00     0.012 A 
ATOM     74  C   UNL     1       3.186   4.964  11.288  1.00  0.00     0.148 A 
ATOM     75  C   UNL     1       5.688   4.647  10.057  1.00  0.00     0.002 A 
ATOM     76  C   UNL     1       3.939   6.077  10.934  1.00  0.00     0.091 A 
ATOM     77  F   UNL     1       2.001   5.077  11.904  1.00  0.00    -0.205 F 
ATOM     78  C   UNL     1       5.198   5.920  10.335  1.00  0.00     0.022 A 
BRANCH  76  79
ATOM     79  S   UNL     1       3.333   7.755  11.138  1.00  0.00     0.127 S 
ATOM     80  O   UNL     1       4.212   8.265  12.187  1.00  0.00    -0.237 OA
ATOM     81  O   UNL     1       3.567   8.321   9.809  1.00  0.00    -0.237 OA
ATOM     82  O   UNL     1       1.928   7.626  11.498  1.00  0.00    -0.744 OA
ENDBRANCH  76  79
ENDBRANCH  48  72
BRANCH  60  83
ATOM     83  C   UNL     1       4.599  -1.672  15.395  1.00  0.00     0.023 A 
ATOM     84  C   UNL     1       4.807  -0.924  16.571  1.00  0.00     0.012 A 
ATOM     85  C   UNL     1       5.400  -2.805  15.148  1.00  0.00     0.148 A 
ATOM     86  C   UNL     1       5.817  -1.276  17.467  1.00  0.00     0.002 A 
ATOM     87  C   UNL     1       6.371  -3.179  16.070  1.00  0.00     0.091 A 
ATOM     88  F   UNL     1       5.200  -3.495  14.016  1.00  0.00    -0.205 F 
ATOM     89  C   UNL     1       6.590  -2.409  17.222  1.00  0.00     0.022 A 
BRANCH  87  90
ATOM     90  S   UNL     1       7.345  -4.678  15.885  1.00  0.00     0.127 S 
ATOM     91  O   UNL     1       8.652  -4.139  15.511  1.00  0.00    -0.237 OA
ATOM     92  O   UNL     1       7.286  -5.255  17.229  1.00  0.00    -0.237 OA
ATOM     93  O   UNL     1       6.676  -5.467  14.860  1.00  0.00    -0.744 OA
ENDBRANCH  87  90
ENDBRANCH  60  83
ENDBRANCH  34  35
ENDBRANCH  27  29
ENDBRANCH  26  27
ENDBRANCH  25  26
ENDBRANCH  24  25
ENDBRANCH  23  24
ENDBRANCH   1  23
TORSDOF 23
