REMARK SMILES O=C(Cc1ccn[nH]1)Nc1cc(C(=O)OCCOCCOCCOC(=O)c2ccc(-c3c4nc(c(-c5cccc(S(=O)(=O)[O-])c5F)c5ccc([nH]5)c(-c5cccc(S(=O)(=O)[O-])c5F)c5nc(c(-c6cccc(S(=O)(=O)[O-])c6F)c6ccc3[nH]6)C=C5)C=C4)cc2)c(F)cc1F
REMARK SMILES IDX 19 1 18 2 17 3 16 4 15 5 13 6 14 7 12 8 10 9 11 10 93 11
REMARK SMILES IDX 92 12 94 13 90 14 91 15 9 16 1 17 2 18 3 20 4 21 5 22 8 23
REMARK SMILES IDX 6 24 7 25 20 27 21 28 22 29 23 30 24 31 25 32 26 33 27 34
REMARK SMILES IDX 28 35 89 36 29 37 88 38 30 39 31 40 32 41 82 42 33 43 87 44
REMARK SMILES IDX 81 45 83 46 34 47 86 48 80 49 79 50 35 52 67 53 47 54 66 55
REMARK SMILES IDX 48 56 51 57 65 58 84 59 49 60 50 61 64 63 85 64 52 65 36 66
REMARK SMILES IDX 37 67 45 68 38 69 40 70 46 71 39 72 41 73 42 74 43 75 44 76
REMARK SMILES IDX 68 77 69 78 77 79 70 80 72 81 78 82 71 83 73 84 74 85 75 86
REMARK SMILES IDX 76 87 53 88 54 89 62 90 55 91 57 92 63 93 56 94 58 95 59 96
REMARK SMILES IDX 60 97 61 98
REMARK H PARENT 9 19 8 26 83 51 51 62
REMARK Flexibility Score: inf
ROOT
ATOM      1  C   UNL     1      -2.292   0.694  -3.468  1.00  0.00     0.188 C 
ENDROOT
BRANCH   1   2
ATOM      2  O   UNL     1      -3.174   1.488  -4.238  1.00  0.00    -0.376 OA
BRANCH   2   3
ATOM      3  C   UNL     1      -3.028   1.565  -5.646  1.00  0.00     0.202 C 
BRANCH   3   4
ATOM      4  C   UNL     1      -1.673   1.465  -6.368  1.00  0.00     0.261 C 
BRANCH   4   5
ATOM      5  O   UNL     1      -0.745   0.516  -5.831  1.00  0.00    -0.460 OA
BRANCH   5   6
ATOM      6  C   UNL     1       0.436   1.034  -5.403  1.00  0.00     0.341 C 
ATOM      7  O   UNL     1       0.802   2.187  -5.470  1.00  0.00    -0.246 OA
BRANCH   6   8
ATOM      8  C   UNL     1       1.198   0.004  -4.676  1.00  0.00     0.098 A 
ATOM      9  C   UNL     1       2.395  -0.656  -2.671  1.00  0.00     0.078 A 
ATOM     10  C   UNL     1       1.622   0.280  -3.366  1.00  0.00     0.048 A 
ATOM     11  C   UNL     1       2.760  -1.841  -3.322  1.00  0.00     0.149 A 
ATOM     12  C   UNL     1       2.309  -2.136  -4.606  1.00  0.00     0.081 A 
ATOM     13  F   UNL     1       3.526  -2.738  -2.683  1.00  0.00    -0.205 F 
ATOM     14  C   UNL     1       1.522  -1.208  -5.279  1.00  0.00     0.140 A 
ATOM     15  F   UNL     1       1.111  -1.495  -6.521  1.00  0.00    -0.206 F 
BRANCH   9  16
ATOM     16  N   UNL     1       2.842  -0.463  -1.345  1.00  0.00    -0.323 N 
ATOM     17  O   UNL     1       1.130   0.873  -0.577  1.00  0.00    -0.274 OA
ATOM     18  C   UNL     1       2.213   0.319  -0.391  1.00  0.00     0.230 C 
ATOM     19  H   UNL     1       3.669  -0.924  -1.076  1.00  0.00     0.170 HD
BRANCH  18  20
ATOM     20  C   UNL     1       2.971   0.509   0.922  1.00  0.00     0.155 C 
BRANCH  20  21
ATOM     21  C   UNL     1       3.695  -0.705   1.408  1.00  0.00     0.044 A 
ATOM     22  C   UNL     1       3.379  -2.049   1.441  1.00  0.00     0.045 A 
ATOM     23  N   UNL     1       4.902  -0.604   2.052  1.00  0.00    -0.282 N 
ATOM     24  C   UNL     1       4.492  -2.669   2.036  1.00  0.00     0.135 A 
ATOM     25  N   UNL     1       5.447  -1.794   2.354  1.00  0.00    -0.184 NA
ATOM     26  H   UNL     1       5.328   0.256   2.271  1.00  0.00     0.190 HD
ENDBRANCH  20  21
ENDBRANCH  18  20
ENDBRANCH   9  16
ENDBRANCH   6   8
ENDBRANCH   5   6
ENDBRANCH   4   5
ENDBRANCH   3   4
ENDBRANCH   2   3
ENDBRANCH   1   2
BRANCH   1  27
ATOM     27  C   UNL     1      -2.241  -0.827  -3.713  1.00  0.00     0.188 C 
BRANCH  27  28
ATOM     28  O   UNL     1      -2.930  -1.346  -4.827  1.00  0.00    -0.376 OA
BRANCH  28  29
ATOM     29  C   UNL     1      -4.340  -1.486  -4.809  1.00  0.00     0.202 C 
BRANCH  29  30
ATOM     30  C   UNL     1      -5.274  -1.273  -3.600  1.00  0.00     0.261 C 
BRANCH  30  31
ATOM     31  O   UNL     1      -4.749  -0.641  -2.434  1.00  0.00    -0.460 OA
BRANCH  31  32
ATOM     32  C   UNL     1      -4.458  -1.475  -1.406  1.00  0.00     0.338 C 
ATOM     33  O   UNL     1      -4.566  -2.689  -1.391  1.00  0.00    -0.246 OA
BRANCH  32  34
ATOM     34  C   UNL     1      -3.788  -0.707  -0.342  1.00  0.00     0.060 A 
ATOM     35  C   UNL     1      -2.454  -1.014  -0.049  1.00  0.00     0.016 A 
ATOM     36  C   UNL     1      -4.473   0.265   0.389  1.00  0.00     0.016 A 
ATOM     37  C   UNL     1      -1.811  -0.380   1.009  1.00  0.00     0.010 A 
ATOM     38  C   UNL     1      -3.832   0.885   1.465  1.00  0.00     0.010 A 
ATOM     39  C   UNL     1      -2.513   0.532   1.805  1.00  0.00    -0.014 A 
BRANCH  39  40
ATOM     40  C   UNL     1      -1.922   0.951   3.098  1.00  0.00     0.031 A 
ATOM     41  C   UNL     1      -2.370   0.251   4.352  1.00  0.00     0.074 A 
ATOM     42  C   UNL     1      -0.980   1.907   3.159  1.00  0.00     0.049 A 
ATOM     43  N   UNL     1      -1.973   0.424   5.586  1.00  0.00    -0.248 NA
ATOM     44  C   UNL     1      -3.403  -0.787   4.193  1.00  0.00     0.031 C 
ATOM     45  C   UNL     1      -0.459   2.655   2.017  1.00  0.00     0.029 A 
ATOM     46  N   UNL     1      -0.312   2.429   4.240  1.00  0.00    -0.354 N 
ATOM     47  C   UNL     1      -2.729  -0.455   6.353  1.00  0.00     0.074 A 
ATOM     48  C   UNL     1      -3.613  -1.155   5.447  1.00  0.00     0.031 C 
ATOM     49  C   UNL     1       0.418   3.571   2.462  1.00  0.00     0.029 A 
ATOM     50  C   UNL     1       0.510   3.482   3.919  1.00  0.00     0.049 A 
ATOM     51  H   UNL     1      -0.413   2.082   5.155  1.00  0.00     0.167 HD
ATOM     52  C   UNL     1      -2.685  -0.669   7.688  1.00  0.00     0.034 A 
ATOM     53  C   UNL     1       1.234   4.294   4.714  1.00  0.00     0.034 A 
ATOM     54  C   UNL     1      -1.798   0.018   8.586  1.00  0.00     0.049 A 
ATOM     55  C   UNL     1       1.259   4.046   6.201  1.00  0.00     0.074 A 
ATOM     56  C   UNL     1      -1.634  -0.172   9.947  1.00  0.00     0.029 A 
ATOM     57  N   UNL     1      -0.944   1.048   8.221  1.00  0.00    -0.354 N 
ATOM     58  N   UNL     1       0.647   3.116   6.894  1.00  0.00    -0.248 NA
ATOM     59  C   UNL     1       2.109   4.932   7.009  1.00  0.00     0.031 C 
ATOM     60  C   UNL     1      -0.711   0.771  10.411  1.00  0.00     0.029 A 
ATOM     61  C   UNL     1      -0.266   1.518   9.332  1.00  0.00     0.049 A 
ATOM     62  H   UNL     1      -0.836   1.393   7.306  1.00  0.00     0.167 HD
ATOM     63  C   UNL     1       1.063   3.283   8.211  1.00  0.00     0.074 A 
ATOM     64  C   UNL     1       1.998   4.390   8.214  1.00  0.00     0.031 C 
ATOM     65  C   UNL     1       0.698   2.589   9.319  1.00  0.00     0.034 A 
BRANCH  52  66
ATOM     66  C   UNL     1      -3.631  -1.693   8.258  1.00  0.00     0.023 A 
ATOM     67  C   UNL     1      -3.424  -3.065   8.005  1.00  0.00     0.012 A 
ATOM     68  C   UNL     1      -4.708  -1.295   9.073  1.00  0.00     0.148 A 
ATOM     69  C   UNL     1      -4.300  -4.021   8.520  1.00  0.00     0.002 A 
ATOM     70  C   UNL     1      -5.548  -2.257   9.622  1.00  0.00     0.091 A 
ATOM     71  F   UNL     1      -4.903   0.015   9.281  1.00  0.00    -0.205 F 
ATOM     72  C   UNL     1      -5.354  -3.618   9.335  1.00  0.00     0.022 A 
BRANCH  70  73
ATOM     73  S   UNL     1      -6.882  -1.841  10.749  1.00  0.00     0.127 S 
ATOM     74  O   UNL     1      -8.059  -2.086   9.916  1.00  0.00    -0.237 OA
ATOM     75  O   UNL     1      -6.687  -2.812  11.827  1.00  0.00    -0.237 OA
ATOM     76  O   UNL     1      -6.665  -0.454  11.135  1.00  0.00    -0.744 OA
ENDBRANCH  70  73
ENDBRANCH  52  66
BRANCH  53  77
ATOM     77  C   UNL     1       2.018   5.408   4.112  1.00  0.00     0.023 A 
ATOM     78  C   UNL     1       3.425   5.355   4.106  1.00  0.00     0.012 A 
ATOM     79  C   UNL     1       1.368   6.513   3.528  1.00  0.00     0.148 A 
ATOM     80  C   UNL     1       4.172   6.395   3.551  1.00  0.00     0.002 A 
ATOM     81  C   UNL     1       2.116   7.518   2.929  1.00  0.00     0.091 A 
ATOM     82  F   UNL     1       0.029   6.550   3.561  1.00  0.00    -0.205 F 
ATOM     83  C   UNL     1       3.518   7.470   2.953  1.00  0.00     0.022 A 
BRANCH  81  84
ATOM     84  S   UNL     1       1.363   8.880   2.033  1.00  0.00     0.127 S 
ATOM     85  O   UNL     1       1.729  10.023   2.866  1.00  0.00    -0.237 OA
ATOM     86  O   UNL     1       2.058   8.808   0.747  1.00  0.00    -0.237 OA
ATOM     87  O   UNL     1      -0.059   8.576   1.971  1.00  0.00    -0.744 OA
ENDBRANCH  81  84
ENDBRANCH  53  77
BRANCH  65  88
ATOM     88  C   UNL     1       1.341   2.967  10.630  1.00  0.00     0.023 A 
ATOM     89  C   UNL     1       1.006   4.183  11.259  1.00  0.00     0.012 A 
ATOM     90  C   UNL     1       2.228   2.080  11.273  1.00  0.00     0.148 A 
ATOM     91  C   UNL     1       1.573   4.527  12.487  1.00  0.00     0.002 A 
ATOM     92  C   UNL     1       2.748   2.405  12.521  1.00  0.00     0.091 A 
ATOM     93  F   UNL     1       2.550   0.936  10.653  1.00  0.00    -0.205 F 
ATOM     94  C   UNL     1       2.433   3.634  13.122  1.00  0.00     0.022 A 
BRANCH  92  95
ATOM     95  S   UNL     1       3.781   1.272  13.456  1.00  0.00     0.127 S 
ATOM     96  O   UNL     1       5.098   1.893  13.325  1.00  0.00    -0.237 OA
ATOM     97  O   UNL     1       3.200   1.354  14.796  1.00  0.00    -0.237 OA
ATOM     98  O   UNL     1       3.635  -0.027  12.814  1.00  0.00    -0.744 OA
ENDBRANCH  92  95
ENDBRANCH  65  88
ENDBRANCH  39  40
ENDBRANCH  32  34
ENDBRANCH  31  32
ENDBRANCH  30  31
ENDBRANCH  29  30
ENDBRANCH  28  29
ENDBRANCH  27  28
ENDBRANCH   1  27
TORSDOF 23
