REMARK SMILES O=C(OCCOCCOCCOC(=O)c1cc2c(Cl)c(C(F)(F)F)cnc2n1S(=O)(=O)c1ccccc1)c1ccc(-c2c3nc(c(-c4cccc(S(=O)(=O)[O-])c4F)c4ccc([nH]4)c(-c4cccc(S(=O)(=O)[O-])c4F)c4nc(c(-c5cccc(S(=O)(=O)[O-])c5F)c5ccc2[nH]5)C=C4)C=C3)cc1
REMARK SMILES IDX 7 1 6 2 5 3 4 4 3 5 2 6 1 7 38 8 39 9 100 10 40 11 99 12
REMARK SMILES IDX 41 13 42 14 43 15 93 16 44 17 98 18 92 19 94 20 45 21 97 22
REMARK SMILES IDX 91 23 90 24 46 26 78 27 58 28 77 29 59 30 62 31 76 32 95 33
REMARK SMILES IDX 60 34 61 35 75 37 96 38 63 39 47 40 48 41 56 42 49 43 51 44
REMARK SMILES IDX 57 45 50 46 52 47 53 48 54 49 55 50 79 51 80 52 88 53 81 54
REMARK SMILES IDX 83 55 89 56 82 57 84 58 85 59 86 60 87 61 64 62 65 63 73 64
REMARK SMILES IDX 66 65 68 66 74 67 67 68 69 69 70 70 71 71 72 72 8 73 9 74
REMARK SMILES IDX 10 75 11 76 12 77 13 78 14 79 15 80 16 81 28 82 17 83 27 84
REMARK SMILES IDX 18 85 26 86 19 87 20 88 25 89 29 90 30 91 31 92 32 93 33 94
REMARK SMILES IDX 37 95 34 96 36 97 35 98 21 99 22 100 23 101 24 102
REMARK H PARENT 94 25 62 36
REMARK Flexibility Score: inf
ROOT
ATOM      1  C   UNL     1       3.618  -1.275   1.121  1.00  0.00     0.188 C 
ENDROOT
BRANCH   1   2
ATOM      2  O   UNL     1       4.674  -0.476   0.586  1.00  0.00    -0.376 OA
BRANCH   2   3
ATOM      3  C   UNL     1       4.985   0.787   1.155  1.00  0.00     0.202 C 
BRANCH   3   4
ATOM      4  C   UNL     1       4.290   1.982   0.500  1.00  0.00     0.261 C 
BRANCH   4   5
ATOM      5  O   UNL     1       2.867   1.950   0.708  1.00  0.00    -0.460 OA
BRANCH   5   6
ATOM      6  C   UNL     1       1.940   1.199   0.071  1.00  0.00     0.338 C 
ATOM      7  O   UNL     1       0.891   0.936   0.658  1.00  0.00    -0.246 OA
BRANCH   6   8
ATOM      8  C   UNL     1       2.070   0.775  -1.348  1.00  0.00     0.060 A 
ATOM      9  C   UNL     1       3.266   0.563  -2.034  1.00  0.00     0.016 A 
ATOM     10  C   UNL     1       0.856   0.589  -2.034  1.00  0.00     0.016 A 
ATOM     11  C   UNL     1       3.262   0.407  -3.410  1.00  0.00     0.010 A 
ATOM     12  C   UNL     1       0.843   0.373  -3.403  1.00  0.00     0.010 A 
ATOM     13  C   UNL     1       2.050   0.391  -4.095  1.00  0.00    -0.014 A 
BRANCH  13  14
ATOM     14  C   UNL     1       2.114   0.542  -5.539  1.00  0.00     0.031 A 
ATOM     15  C   UNL     1       2.706  -0.559  -6.335  1.00  0.00     0.074 A 
ATOM     16  C   UNL     1       1.646   1.654  -6.136  1.00  0.00     0.049 A 
ATOM     17  N   UNL     1       3.769  -0.525  -7.074  1.00  0.00    -0.248 NA
ATOM     18  C   UNL     1       2.051  -1.871  -6.267  1.00  0.00     0.031 C 
ATOM     19  C   UNL     1       0.803   2.700  -5.546  1.00  0.00     0.029 A 
ATOM     20  N   UNL     1       1.718   2.008  -7.449  1.00  0.00    -0.354 N 
ATOM     21  C   UNL     1       3.810  -1.755  -7.725  1.00  0.00     0.074 A 
ATOM     22  C   UNL     1       2.800  -2.582  -7.111  1.00  0.00     0.031 C 
ATOM     23  C   UNL     1       0.230   3.408  -6.541  1.00  0.00     0.029 A 
ATOM     24  C   UNL     1       0.774   2.957  -7.808  1.00  0.00     0.049 A 
ATOM     25  H   UNL     1       2.373   1.629  -8.079  1.00  0.00     0.167 HD
ATOM     26  C   UNL     1       4.535  -1.970  -8.855  1.00  0.00     0.034 A 
ATOM     27  C   UNL     1       0.396   3.268  -9.067  1.00  0.00     0.034 A 
ATOM     28  C   UNL     1       5.501  -0.946  -9.123  1.00  0.00     0.049 A 
ATOM     29  C   UNL     1       1.498   2.867  -9.974  1.00  0.00     0.074 A 
ATOM     30  C   UNL     1       6.620  -0.449  -8.490  1.00  0.00     0.029 A 
ATOM     31  N   UNL     1       5.205  -0.060 -10.127  1.00  0.00    -0.354 N 
ATOM     32  N   UNL     1       2.675   3.429  -9.999  1.00  0.00    -0.248 NA
ATOM     33  C   UNL     1       1.398   1.599 -10.680  1.00  0.00     0.031 C 
ATOM     34  C   UNL     1       6.692   0.922  -8.874  1.00  0.00     0.029 A 
ATOM     35  C   UNL     1       5.596   1.181  -9.701  1.00  0.00     0.049 A 
ATOM     36  H   UNL     1       4.789  -0.276 -10.993  1.00  0.00     0.167 HD
ATOM     37  C   UNL     1       3.546   2.415 -10.372  1.00  0.00     0.074 A 
ATOM     38  C   UNL     1       2.691   1.369 -10.919  1.00  0.00     0.031 C 
ATOM     39  C   UNL     1       4.842   2.395  -9.940  1.00  0.00     0.034 A 
BRANCH  26  40
ATOM     40  C   UNL     1       4.169  -2.987  -9.899  1.00  0.00     0.023 A 
ATOM     41  C   UNL     1       5.168  -3.438 -10.787  1.00  0.00     0.012 A 
ATOM     42  C   UNL     1       2.834  -3.337 -10.191  1.00  0.00     0.148 A 
ATOM     43  C   UNL     1       4.849  -4.213 -11.908  1.00  0.00     0.002 A 
ATOM     44  C   UNL     1       2.533  -4.175 -11.258  1.00  0.00     0.091 A 
ATOM     45  F   UNL     1       1.833  -2.764  -9.510  1.00  0.00    -0.205 F 
ATOM     46  C   UNL     1       3.533  -4.601 -12.133  1.00  0.00     0.022 A 
BRANCH  44  47
ATOM     47  S   UNL     1       0.851  -4.750 -11.493  1.00  0.00     0.127 S 
ATOM     48  O   UNL     1       0.281  -3.687 -12.312  1.00  0.00    -0.237 OA
ATOM     49  O   UNL     1       1.046  -6.027 -12.183  1.00  0.00    -0.237 OA
ATOM     50  O   UNL     1       0.333  -4.886 -10.136  1.00  0.00    -0.744 OA
ENDBRANCH  44  47
ENDBRANCH  26  40
BRANCH  27  51
ATOM     51  C   UNL     1      -0.941   3.681  -9.554  1.00  0.00     0.023 A 
ATOM     52  C   UNL     1      -1.057   4.261 -10.831  1.00  0.00     0.012 A 
ATOM     53  C   UNL     1      -2.131   3.302  -8.890  1.00  0.00     0.148 A 
ATOM     54  C   UNL     1      -2.307   4.432 -11.437  1.00  0.00     0.002 A 
ATOM     55  C   UNL     1      -3.374   3.504  -9.482  1.00  0.00     0.091 A 
ATOM     56  F   UNL     1      -2.056   2.651  -7.721  1.00  0.00    -0.205 F 
ATOM     57  C   UNL     1      -3.466   4.055 -10.763  1.00  0.00     0.022 A 
BRANCH  55  58
ATOM     58  S   UNL     1      -4.892   3.061  -8.625  1.00  0.00     0.127 S 
ATOM     59  O   UNL     1      -5.841   4.057  -9.124  1.00  0.00    -0.237 OA
ATOM     60  O   UNL     1      -5.128   1.701  -9.097  1.00  0.00    -0.237 OA
ATOM     61  O   UNL     1      -4.578   3.207  -7.207  1.00  0.00    -0.744 OA
ENDBRANCH  55  58
ENDBRANCH  27  51
BRANCH  39  62
ATOM     62  C   UNL     1       5.410   3.649  -9.324  1.00  0.00     0.023 A 
ATOM     63  C   UNL     1       4.929   4.131  -8.089  1.00  0.00     0.012 A 
ATOM     64  C   UNL     1       6.572   4.219  -9.875  1.00  0.00     0.148 A 
ATOM     65  C   UNL     1       5.582   5.171  -7.425  1.00  0.00     0.002 A 
ATOM     66  C   UNL     1       7.241   5.229  -9.190  1.00  0.00     0.091 A 
ATOM     67  F   UNL     1       7.029   3.731 -11.038  1.00  0.00    -0.205 F 
ATOM     68  C   UNL     1       6.744   5.711  -7.968  1.00  0.00     0.022 A 
BRANCH  66  69
ATOM     69  S   UNL     1       8.813   5.890  -9.756  1.00  0.00     0.127 S 
ATOM     70  O   UNL     1       8.445   7.241 -10.174  1.00  0.00    -0.237 OA
ATOM     71  O   UNL     1       9.632   5.827  -8.544  1.00  0.00    -0.237 OA
ATOM     72  O   UNL     1       9.262   5.007 -10.825  1.00  0.00    -0.744 OA
ENDBRANCH  66  69
ENDBRANCH  39  62
ENDBRANCH  13  14
ENDBRANCH   6   8
ENDBRANCH   5   6
ENDBRANCH   4   5
ENDBRANCH   3   4
ENDBRANCH   2   3
ENDBRANCH   1   2
BRANCH   1  73
ATOM     73  C   UNL     1       2.951  -0.909   2.460  1.00  0.00     0.188 C 
BRANCH  73  74
ATOM     74  O   UNL     1       3.788  -0.749   3.604  1.00  0.00    -0.376 OA
BRANCH  74  75
ATOM     75  C   UNL     1       4.881  -1.643   3.762  1.00  0.00     0.202 C 
BRANCH  75  76
ATOM     76  C   UNL     1       4.472  -3.031   4.236  1.00  0.00     0.261 C 
BRANCH  76  77
ATOM     77  O   UNL     1       3.911  -3.784   3.149  1.00  0.00    -0.459 OA
BRANCH  77  78
ATOM     78  C   UNL     1       2.625  -4.180   3.293  1.00  0.00     0.356 C 
ATOM     79  O   UNL     1       1.894  -3.922   4.236  1.00  0.00    -0.244 OA
BRANCH  78  80
ATOM     80  C   UNL     1       2.188  -4.859   2.104  1.00  0.00     0.145 A 
ATOM     81  C   UNL     1       1.075  -4.550   1.337  1.00  0.00     0.048 A 
ATOM     82  N   UNL     1       2.740  -5.997   1.555  1.00  0.00    -0.209 N 
ATOM     83  C   UNL     1       0.898  -5.575   0.370  1.00  0.00     0.040 A 
ATOM     84  C   UNL     1       1.946  -6.478   0.543  1.00  0.00     0.156 A 
ATOM     85  C   UNL     1      -0.050  -5.891  -0.622  1.00  0.00     0.065 A 
ATOM     86  N   UNL     1       2.099  -7.630  -0.136  1.00  0.00    -0.237 NA
ATOM     87  Cl  UNL     1      -1.291  -4.736  -0.838  1.00  0.00    -0.083 Cl
ATOM     88  C   UNL     1       0.030  -7.092  -1.314  1.00  0.00     0.093 A 
ATOM     89  C   UNL     1       1.120  -7.898  -1.031  1.00  0.00     0.128 A 
BRANCH  82  90
ATOM     90  S   UNL     1       4.275  -6.588   1.962  1.00  0.00     0.270 S 
ATOM     91  O   UNL     1       5.198  -5.821   1.147  1.00  0.00    -0.201 OA
ATOM     92  O   UNL     1       4.325  -6.528   3.414  1.00  0.00    -0.201 OA
BRANCH  90  93
ATOM     93  C   UNL     1       4.402  -8.294   1.515  1.00  0.00     0.088 A 
ATOM     94  C   UNL     1       4.113  -9.276   2.468  1.00  0.00     0.022 A 
ATOM     95  C   UNL     1       4.868  -8.650   0.245  1.00  0.00     0.022 A 
ATOM     96  C   UNL     1       4.245 -10.622   2.129  1.00  0.00     0.001 A 
ATOM     97  C   UNL     1       4.978  -9.999  -0.092  1.00  0.00     0.001 A 
ATOM     98  C   UNL     1       4.664 -10.982   0.848  1.00  0.00     0.000 A 
ENDBRANCH  90  93
ENDBRANCH  82  90
BRANCH  88  99
ATOM     99  C   UNL     1      -1.007  -7.537  -2.289  1.00  0.00     0.419 C 
ATOM    100  F   UNL     1      -2.265  -7.515  -1.769  1.00  0.00    -0.166 F 
ATOM    101  F   UNL     1      -1.037  -6.789  -3.420  1.00  0.00    -0.166 F 
ATOM    102  F   UNL     1      -0.820  -8.826  -2.700  1.00  0.00    -0.166 F 
ENDBRANCH  88  99
ENDBRANCH  78  80
ENDBRANCH  77  78
ENDBRANCH  76  77
ENDBRANCH  75  76
ENDBRANCH  74  75
ENDBRANCH  73  74
ENDBRANCH   1  73
TORSDOF 23
