REMARK SMILES Cc1nn(CC(=O)OCCOCCOCCOC(=O)c2ccc(-c3c4nc(c(-c5cccc(S(=O)(=O)[O-])c5F)c5ccc([nH]5)c(-c5cccc(S(=O)(=O)[O-])c5F)c5nc(c(-c6cccc(S(=O)(=O)[O-])c6F)c6ccc3[nH]6)C=C5)C=C4)cc2)c(C)c1NC(=O)C(=O)Nc1ccc(F)cc1
REMARK SMILES IDX 12 1 11 2 10 3 9 4 8 5 6 6 7 7 5 8 4 9 1 10 2 11 3 12 85 13
REMARK SMILES IDX 83 14 84 15 86 16 87 17 88 19 89 20 90 21 91 22 92 24 93 25
REMARK SMILES IDX 98 26 94 27 97 28 95 29 96 30 13 31 14 32 15 33 16 34 17 35
REMARK SMILES IDX 18 36 19 37 20 38 21 39 82 40 22 41 81 42 23 43 24 44 25 45
REMARK SMILES IDX 75 46 26 47 80 48 74 49 76 50 27 51 79 52 73 53 72 54 28 56
REMARK SMILES IDX 60 57 40 58 59 59 41 60 44 61 58 62 77 63 42 64 43 65 57 67
REMARK SMILES IDX 78 68 45 69 29 70 30 71 38 72 31 73 33 74 39 75 32 76 34 77
REMARK SMILES IDX 35 78 36 79 37 80 61 81 62 82 70 83 63 84 65 85 71 86 64 87
REMARK SMILES IDX 66 88 67 89 68 90 69 91 46 92 47 93 55 94 48 95 50 96 56 97
REMARK SMILES IDX 49 98 51 99 52 100 53 101 54 102
REMARK H PARENT 86 18 91 23 76 55 44 66
REMARK Flexibility Score: inf
ROOT
ATOM      1  C   UNL     1       3.423  -6.133  -1.165  1.00  0.00     0.188 C 
ENDROOT
BRANCH   1   2
ATOM      2  O   UNL     1       3.781  -6.855  -2.336  1.00  0.00    -0.376 OA
BRANCH   2   3
ATOM      3  C   UNL     1       2.907  -6.746  -3.461  1.00  0.00     0.202 C 
BRANCH   3   4
ATOM      4  C   UNL     1       1.392  -6.951  -3.214  1.00  0.00     0.261 C 
BRANCH   4   5
ATOM      5  O   UNL     1       0.798  -6.027  -2.264  1.00  0.00    -0.462 OA
BRANCH   5   6
ATOM      6  C   UNL     1       0.069  -6.533  -1.240  1.00  0.00     0.327 C 
ATOM      7  O   UNL     1      -0.287  -7.707  -1.175  1.00  0.00    -0.250 OA
BRANCH   6   8
ATOM      8  C   UNL     1      -0.165  -5.573  -0.096  1.00  0.00     0.267 C 
BRANCH   8   9
ATOM      9  N   UNL     1      -0.342  -4.162  -0.423  1.00  0.00    -0.256 N 
ATOM     10  C   UNL     1       0.690  -0.822   0.177  1.00  0.00     0.071 C 
ATOM     11  C   UNL     1      -0.029  -2.073  -0.182  1.00  0.00     0.083 A 
ATOM     12  N   UNL     1       0.492  -3.260   0.133  1.00  0.00    -0.175 NA
ATOM     13  C   UNL     1      -1.324  -2.223  -0.746  1.00  0.00     0.086 A 
ATOM     14  C   UNL     1      -1.433  -3.576  -1.025  1.00  0.00     0.060 A 
ATOM     15  C   UNL     1      -2.408  -4.390  -1.788  1.00  0.00     0.069 C 
BRANCH  13  16
ATOM     16  N   UNL     1      -2.211  -1.182  -0.950  1.00  0.00    -0.315 N 
ATOM     17  C   UNL     1      -3.583  -1.191  -0.818  1.00  0.00     0.314 C 
ATOM     18  H   UNL     1      -1.811  -0.325  -1.224  1.00  0.00     0.170 HD
ATOM     19  O   UNL     1      -4.227  -0.151  -0.916  1.00  0.00    -0.263 OA
BRANCH  17  20
ATOM     20  C   UNL     1      -4.269  -2.485  -0.383  1.00  0.00     0.314 C 
ATOM     21  O   UNL     1      -3.905  -3.048   0.649  1.00  0.00    -0.263 OA
ATOM     22  N   UNL     1      -5.306  -3.044  -1.104  1.00  0.00    -0.318 N 
ATOM     23  H   UNL     1      -5.347  -4.027  -1.119  1.00  0.00     0.170 HD
BRANCH  22  24
ATOM     24  C   UNL     1      -6.307  -2.370  -1.816  1.00  0.00     0.041 A 
ATOM     25  C   UNL     1      -7.617  -2.736  -1.478  1.00  0.00     0.029 A 
ATOM     26  C   UNL     1      -6.090  -1.338  -2.727  1.00  0.00     0.029 A 
ATOM     27  C   UNL     1      -8.695  -1.984  -1.932  1.00  0.00     0.041 A 
ATOM     28  C   UNL     1      -7.177  -0.596  -3.201  1.00  0.00     0.041 A 
ATOM     29  C   UNL     1      -8.464  -0.907  -2.775  1.00  0.00     0.123 A 
ATOM     30  F   UNL     1      -9.495  -0.152  -3.172  1.00  0.00    -0.207 F 
ENDBRANCH  22  24
ENDBRANCH  17  20
ENDBRANCH  13  16
ENDBRANCH   8   9
ENDBRANCH   6   8
ENDBRANCH   5   6
ENDBRANCH   4   5
ENDBRANCH   3   4
ENDBRANCH   2   3
ENDBRANCH   1   2
BRANCH   1  31
ATOM     31  C   UNL     1       3.093  -4.639  -1.328  1.00  0.00     0.188 C 
BRANCH  31  32
ATOM     32  O   UNL     1       2.648  -4.293  -2.626  1.00  0.00    -0.376 OA
BRANCH  32  33
ATOM     33  C   UNL     1       2.927  -3.048  -3.243  1.00  0.00     0.202 C 
BRANCH  33  34
ATOM     34  C   UNL     1       4.393  -2.688  -3.494  1.00  0.00     0.261 C 
BRANCH  34  35
ATOM     35  O   UNL     1       5.207  -2.817  -2.351  1.00  0.00    -0.460 OA
BRANCH  35  36
ATOM     36  C   UNL     1       4.843  -2.098  -1.267  1.00  0.00     0.338 C 
ATOM     37  O   UNL     1       4.014  -1.215  -1.207  1.00  0.00    -0.246 OA
BRANCH  36  38
ATOM     38  C   UNL     1       5.632  -2.638  -0.146  1.00  0.00     0.060 A 
ATOM     39  C   UNL     1       5.528  -1.967   1.066  1.00  0.00     0.016 A 
ATOM     40  C   UNL     1       6.630  -3.599  -0.403  1.00  0.00     0.016 A 
ATOM     41  C   UNL     1       6.657  -1.931   1.836  1.00  0.00     0.010 A 
ATOM     42  C   UNL     1       7.763  -3.547   0.347  1.00  0.00     0.010 A 
ATOM     43  C   UNL     1       7.790  -2.588   1.347  1.00  0.00    -0.014 A 
BRANCH  43  44
ATOM     44  C   UNL     1       9.065  -2.141   1.829  1.00  0.00     0.031 A 
ATOM     45  C   UNL     1       9.415  -2.755   3.111  1.00  0.00     0.074 A 
ATOM     46  C   UNL     1       9.806  -1.290   1.095  1.00  0.00     0.049 A 
ATOM     47  N   UNL     1       9.388  -2.197   4.273  1.00  0.00    -0.248 NA
ATOM     48  C   UNL     1       9.573  -4.216   3.132  1.00  0.00     0.031 C 
ATOM     49  C   UNL     1       9.629  -0.900  -0.310  1.00  0.00     0.029 A 
ATOM     50  N   UNL     1      10.985  -0.712   1.423  1.00  0.00    -0.354 N 
ATOM     51  C   UNL     1       9.803  -3.197   5.140  1.00  0.00     0.074 A 
ATOM     52  C   UNL     1       9.629  -4.443   4.444  1.00  0.00     0.031 C 
ATOM     53  C   UNL     1      10.797  -0.395  -0.773  1.00  0.00     0.029 A 
ATOM     54  C   UNL     1      11.741  -0.317   0.328  1.00  0.00     0.049 A 
ATOM     55  H   UNL     1      11.280  -0.583   2.354  1.00  0.00     0.167 HD
ATOM     56  C   UNL     1      10.576  -2.900   6.216  1.00  0.00     0.034 A 
ATOM     57  C   UNL     1      13.076  -0.080   0.342  1.00  0.00     0.034 A 
ATOM     58  C   UNL     1      10.527  -1.494   6.532  1.00  0.00     0.049 A 
ATOM     59  C   UNL     1      13.469   0.120   1.762  1.00  0.00     0.074 A 
ATOM     60  C   UNL     1       9.515  -0.601   6.830  1.00  0.00     0.029 A 
ATOM     61  N   UNL     1      11.611  -0.733   6.166  1.00  0.00    -0.354 N 
ATOM     62  N   UNL     1      13.082   1.137   2.483  1.00  0.00    -0.248 NA
ATOM     63  C   UNL     1      13.902  -1.050   2.515  1.00  0.00     0.031 C 
ATOM     64  C   UNL     1       9.895   0.613   6.188  1.00  0.00     0.029 A 
ATOM     65  C   UNL     1      11.139   0.414   5.585  1.00  0.00     0.049 A 
ATOM     66  H   UNL     1      12.558  -0.969   6.298  1.00  0.00     0.167 HD
ATOM     67  C   UNL     1      12.796   0.592   3.730  1.00  0.00     0.074 A 
ATOM     68  C   UNL     1      13.416  -0.732   3.719  1.00  0.00     0.031 C 
ATOM     69  C   UNL     1      11.830   1.130   4.534  1.00  0.00     0.034 A 
BRANCH  56  70
ATOM     70  C   UNL     1      11.684  -3.792   6.713  1.00  0.00     0.023 A 
ATOM     71  C   UNL     1      12.274  -3.447   7.945  1.00  0.00     0.012 A 
ATOM     72  C   UNL     1      12.349  -4.767   5.931  1.00  0.00     0.148 A 
ATOM     73  C   UNL     1      13.488  -4.007   8.353  1.00  0.00     0.002 A 
ATOM     74  C   UNL     1      13.505  -5.386   6.382  1.00  0.00     0.091 A 
ATOM     75  F   UNL     1      11.965  -5.008   4.675  1.00  0.00    -0.205 F 
ATOM     76  C   UNL     1      14.099  -4.985   7.577  1.00  0.00     0.022 A 
BRANCH  74  77
ATOM     77  S   UNL     1      14.293  -6.692   5.431  1.00  0.00     0.127 S 
ATOM     78  O   UNL     1      15.432  -5.987   4.855  1.00  0.00    -0.237 OA
ATOM     79  O   UNL     1      14.624  -7.663   6.475  1.00  0.00    -0.237 OA
ATOM     80  O   UNL     1      13.278  -7.156   4.492  1.00  0.00    -0.744 OA
ENDBRANCH  74  77
ENDBRANCH  56  70
BRANCH  57  81
ATOM     81  C   UNL     1      14.080  -0.344  -0.718  1.00  0.00     0.023 A 
ATOM     82  C   UNL     1      15.339   0.283  -0.646  1.00  0.00     0.012 A 
ATOM     83  C   UNL     1      13.918  -1.405  -1.639  1.00  0.00     0.148 A 
ATOM     84  C   UNL     1      16.409  -0.151  -1.439  1.00  0.00     0.002 A 
ATOM     85  C   UNL     1      14.980  -1.825  -2.434  1.00  0.00     0.091 A 
ATOM     86  F   UNL     1      12.754  -2.067  -1.668  1.00  0.00    -0.205 F 
ATOM     87  C   UNL     1      16.232  -1.209  -2.327  1.00  0.00     0.022 A 
BRANCH  85  88
ATOM     88  S   UNL     1      14.828  -3.196  -3.589  1.00  0.00     0.127 S 
ATOM     89  O   UNL     1      15.441  -2.643  -4.798  1.00  0.00    -0.237 OA
ATOM     90  O   UNL     1      15.610  -4.237  -2.929  1.00  0.00    -0.237 OA
ATOM     91  O   UNL     1      13.399  -3.456  -3.711  1.00  0.00    -0.744 OA
ENDBRANCH  85  88
ENDBRANCH  57  81
BRANCH  69  92
ATOM     92  C   UNL     1      11.246   2.467   4.150  1.00  0.00     0.023 A 
ATOM     93  C   UNL     1      10.505   2.655   2.964  1.00  0.00     0.012 A 
ATOM     94  C   UNL     1      11.281   3.503   5.099  1.00  0.00     0.148 A 
ATOM     95  C   UNL     1       9.831   3.856   2.723  1.00  0.00     0.002 A 
ATOM     96  C   UNL     1      10.572   4.677   4.877  1.00  0.00     0.091 A 
ATOM     97  F   UNL     1      11.984   3.307   6.224  1.00  0.00    -0.205 F 
ATOM     98  C   UNL     1       9.852   4.862   3.686  1.00  0.00     0.022 A 
BRANCH  96  99
ATOM     99  S   UNL     1      10.454   5.951   6.135  1.00  0.00     0.127 S 
ATOM    100  O   UNL     1      11.358   6.976   5.617  1.00  0.00    -0.237 OA
ATOM    101  O   UNL     1       9.035   6.307   6.091  1.00  0.00    -0.237 OA
ATOM    102  O   UNL     1      10.868   5.320   7.382  1.00  0.00    -0.744 OA
ENDBRANCH  96  99
ENDBRANCH  69  92
ENDBRANCH  43  44
ENDBRANCH  36  38
ENDBRANCH  35  36
ENDBRANCH  34  35
ENDBRANCH  33  34
ENDBRANCH  32  33
ENDBRANCH  31  32
ENDBRANCH   1  31
TORSDOF 24
