REMARK SMILES C[C@@](NC(=O)CCOC1CC[NH2+]CC1)(C(=O)OCCOCCOCCOC(=O)c1ccc(-c2c3nc(c(-c4cccc(S(=O)(=O)[O-])c4F)c4ccc([nH]4)c(-c4cccc(S(=O)(=O)[O-])c4F)c4nc(c(-c5cccc(S(=O)(=O)[O-])c5F)c5ccc2[nH]5)C=C4)C=C3)cc1)C(F)(F)F
REMARK SMILES IDX 21 1 20 2 19 3 18 4 17 5 15 6 16 7 2 8 1 9 3 10 4 11 5 13
REMARK SMILES IDX 6 14 7 15 8 16 9 17 10 18 14 19 11 20 13 21 12 22 92 25
REMARK SMILES IDX 93 26 94 27 95 28 22 29 23 30 24 31 25 32 26 33 27 34 28 35
REMARK SMILES IDX 29 36 30 37 91 38 31 39 90 40 32 41 33 42 34 43 84 44 35 45
REMARK SMILES IDX 89 46 83 47 85 48 36 49 88 50 82 51 81 52 37 54 69 55 49 56
REMARK SMILES IDX 68 57 50 58 53 59 67 60 86 61 51 62 52 63 66 65 87 66 54 67
REMARK SMILES IDX 38 68 39 69 47 70 40 71 42 72 48 73 41 74 43 75 44 76 45 77
REMARK SMILES IDX 46 78 70 79 71 80 79 81 72 82 74 83 80 84 73 85 75 86 76 87
REMARK SMILES IDX 77 88 78 89 55 90 56 91 64 92 57 93 59 94 65 95 58 96 60 97
REMARK SMILES IDX 61 98 62 99 63 100
REMARK H PARENT 3 12 12 23 12 24 85 53 53 64
REMARK Flexibility Score: inf
ROOT
ATOM      1  C   UNL     1      -3.144  -2.619  -0.135  1.00  0.00     0.188 C 
ENDROOT
BRANCH   1   2
ATOM      2  O   UNL     1      -4.435  -2.546   0.449  1.00  0.00    -0.376 OA
BRANCH   2   3
ATOM      3  C   UNL     1      -4.811  -1.292   1.007  1.00  0.00     0.202 C 
BRANCH   3   4
ATOM      4  C   UNL     1      -4.050  -0.855   2.265  1.00  0.00     0.261 C 
BRANCH   4   5
ATOM      5  O   UNL     1      -2.626  -0.920   2.094  1.00  0.00    -0.461 OA
BRANCH   5   6
ATOM      6  C   UNL     1      -1.904  -1.718   2.946  1.00  0.00     0.341 C 
ATOM      7  O   UNL     1      -2.368  -2.241   3.942  1.00  0.00    -0.249 OA
BRANCH   6   8
ATOM      8  C   UNL     1      -0.419  -1.723   2.562  1.00  0.00     0.231 C 
ATOM      9  C   UNL     1      -0.158  -1.275   1.123  1.00  0.00     0.058 C 
BRANCH   8  10
ATOM     10  N   UNL     1       0.392  -0.932   3.561  1.00  0.00    -0.333 N 
ATOM     11  C   UNL     1       0.422   0.378   3.917  1.00  0.00     0.223 C 
ATOM     12  H   UNL     1       1.036  -1.484   4.062  1.00  0.00     0.164 HD
ATOM     13  O   UNL     1       1.333   0.762   4.654  1.00  0.00    -0.275 OA
BRANCH  11  14
ATOM     14  C   UNL     1      -0.624   1.347   3.437  1.00  0.00     0.128 C 
BRANCH  14  15
ATOM     15  C   UNL     1      -0.147   2.164   2.246  1.00  0.00     0.170 C 
BRANCH  15  16
ATOM     16  O   UNL     1       0.589   1.347   1.339  1.00  0.00    -0.377 OA
BRANCH  16  17
ATOM     17  C   UNL     1       1.903   1.809   1.017  1.00  0.00     0.129 C 
ATOM     18  C   UNL     1       1.816   2.646  -0.252  1.00  0.00     0.093 C 
ATOM     19  C   UNL     1       2.868   0.625   0.825  1.00  0.00     0.093 C 
ATOM     20  C   UNL     1       1.554   1.762  -1.470  1.00  0.00     0.263 C 
ATOM     21  C   UNL     1       2.761  -0.091  -0.530  1.00  0.00     0.263 C 
ATOM     22  N   UNL     1       2.665   0.829  -1.660  1.00  0.00    -0.346 N 
ATOM     23  H   UNL     1       3.535   1.355  -1.739  1.00  0.00     0.346 HD
ATOM     24  H   UNL     1       2.501   0.290  -2.510  1.00  0.00     0.346 HD
ENDBRANCH  16  17
ENDBRANCH  15  16
ENDBRANCH  14  15
ENDBRANCH  11  14
ENDBRANCH   8  10
BRANCH   8  25
ATOM     25  C   UNL     1       0.027  -3.202   2.588  1.00  0.00     0.422 C 
ATOM     26  F   UNL     1      -0.652  -3.968   1.708  1.00  0.00    -0.168 F 
ATOM     27  F   UNL     1       1.342  -3.270   2.225  1.00  0.00    -0.168 F 
ATOM     28  F   UNL     1      -0.052  -3.763   3.809  1.00  0.00    -0.168 F 
ENDBRANCH   8  25
ENDBRANCH   6   8
ENDBRANCH   5   6
ENDBRANCH   4   5
ENDBRANCH   3   4
ENDBRANCH   2   3
ENDBRANCH   1   2
BRANCH   1  29
ATOM     29  C   UNL     1      -2.893  -1.726  -1.344  1.00  0.00     0.188 C 
BRANCH  29  30
ATOM     30  O   UNL     1      -3.280  -0.361  -1.278  1.00  0.00    -0.376 OA
BRANCH  30  31
ATOM     31  C   UNL     1      -3.090   0.374  -2.499  1.00  0.00     0.202 C 
BRANCH  31  32
ATOM     32  C   UNL     1      -3.534  -0.288  -3.832  1.00  0.00     0.261 C 
BRANCH  32  33
ATOM     33  O   UNL     1      -2.980  -1.594  -4.134  1.00  0.00    -0.460 OA
BRANCH  33  34
ATOM     34  C   UNL     1      -1.635  -1.747  -4.120  1.00  0.00     0.338 C 
ATOM     35  O   UNL     1      -0.822  -0.832  -4.144  1.00  0.00    -0.246 OA
BRANCH  34  36
ATOM     36  C   UNL     1      -1.284  -3.168  -3.781  1.00  0.00     0.060 A 
ATOM     37  C   UNL     1      -0.120  -3.393  -3.027  1.00  0.00     0.016 A 
ATOM     38  C   UNL     1      -2.103  -4.261  -4.094  1.00  0.00     0.016 A 
ATOM     39  C   UNL     1       0.259  -4.691  -2.649  1.00  0.00     0.010 A 
ATOM     40  C   UNL     1      -1.717  -5.563  -3.721  1.00  0.00     0.010 A 
ATOM     41  C   UNL     1      -0.510  -5.796  -3.032  1.00  0.00    -0.014 A 
BRANCH  41  42
ATOM     42  C   UNL     1       0.042  -7.181  -2.906  1.00  0.00     0.031 A 
ATOM     43  C   UNL     1       0.601  -7.844  -4.145  1.00  0.00     0.074 A 
ATOM     44  C   UNL     1       0.084  -7.856  -1.738  1.00  0.00     0.049 A 
ATOM     45  N   UNL     1       1.077  -9.053  -4.305  1.00  0.00    -0.248 NA
ATOM     46  C   UNL     1       0.624  -7.025  -5.368  1.00  0.00     0.031 C 
ATOM     47  C   UNL     1      -0.375  -7.353  -0.446  1.00  0.00     0.029 A 
ATOM     48  N   UNL     1       0.518  -9.136  -1.463  1.00  0.00    -0.354 N 
ATOM     49  C   UNL     1       1.419  -9.153  -5.650  1.00  0.00     0.074 A 
ATOM     50  C   UNL     1       1.090  -7.883  -6.262  1.00  0.00     0.031 C 
ATOM     51  C   UNL     1      -0.228  -8.322   0.477  1.00  0.00     0.029 A 
ATOM     52  C   UNL     1       0.305  -9.528  -0.160  1.00  0.00     0.049 A 
ATOM     53  H   UNL     1       0.942  -9.716  -2.136  1.00  0.00     0.167 HD
ATOM     54  C   UNL     1       1.965 -10.194  -6.322  1.00  0.00     0.034 A 
ATOM     55  C   UNL     1       0.487 -10.723   0.445  1.00  0.00     0.034 A 
ATOM     56  C   UNL     1       2.318 -11.456  -5.729  1.00  0.00     0.049 A 
ATOM     57  C   UNL     1       1.049 -11.889  -0.337  1.00  0.00     0.074 A 
ATOM     58  C   UNL     1       2.909 -12.552  -6.334  1.00  0.00     0.029 A 
ATOM     59  N   UNL     1       2.103 -11.799  -4.405  1.00  0.00    -0.354 N 
ATOM     60  N   UNL     1       1.447 -11.936  -1.585  1.00  0.00    -0.248 NA
ATOM     61  C   UNL     1       1.214 -13.163   0.385  1.00  0.00     0.031 C 
ATOM     62  C   UNL     1       3.012 -13.574  -5.385  1.00  0.00     0.029 A 
ATOM     63  C   UNL     1       2.534 -13.096  -4.177  1.00  0.00     0.049 A 
ATOM     64  H   UNL     1       1.703 -11.209  -3.726  1.00  0.00     0.167 HD
ATOM     65  C   UNL     1       1.948 -13.222  -1.782  1.00  0.00     0.074 A 
ATOM     66  C   UNL     1       1.817 -13.920  -0.522  1.00  0.00     0.031 C 
ATOM     67  C   UNL     1       2.461 -13.774  -2.909  1.00  0.00     0.034 A 
BRANCH  54  68
ATOM     68  C   UNL     1       2.220 -10.017  -7.797  1.00  0.00     0.023 A 
ATOM     69  C   UNL     1       3.263  -9.176  -8.236  1.00  0.00     0.012 A 
ATOM     70  C   UNL     1       1.461 -10.730  -8.746  1.00  0.00     0.148 A 
ATOM     71  C   UNL     1       3.522  -9.019  -9.597  1.00  0.00     0.002 A 
ATOM     72  C   UNL     1       1.756 -10.606 -10.098  1.00  0.00     0.091 A 
ATOM     73  F   UNL     1       0.463 -11.511  -8.309  1.00  0.00    -0.205 F 
ATOM     74  C   UNL     1       2.776  -9.741 -10.526  1.00  0.00     0.022 A 
BRANCH  72  75
ATOM     75  S   UNL     1       0.910 -11.555 -11.366  1.00  0.00     0.127 S 
ATOM     76  O   UNL     1       0.158 -10.511 -12.061  1.00  0.00    -0.237 OA
ATOM     77  O   UNL     1       2.027 -12.113 -12.128  1.00  0.00    -0.237 OA
ATOM     78  O   UNL     1       0.101 -12.540 -10.661  1.00  0.00    -0.744 OA
ENDBRANCH  72  75
ENDBRANCH  54  68
BRANCH  55  79
ATOM     79  C   UNL     1       0.135 -10.902   1.887  1.00  0.00     0.023 A 
ATOM     80  C   UNL     1       1.150 -11.154   2.832  1.00  0.00     0.012 A 
ATOM     81  C   UNL     1      -1.206 -10.859   2.319  1.00  0.00     0.148 A 
ATOM     82  C   UNL     1       0.834 -11.395   4.171  1.00  0.00     0.002 A 
ATOM     83  C   UNL     1      -1.508 -11.043   3.663  1.00  0.00     0.091 A 
ATOM     84  F   UNL     1      -2.160 -10.646   1.403  1.00  0.00    -0.205 F 
ATOM     85  C   UNL     1      -0.492 -11.329   4.588  1.00  0.00     0.022 A 
BRANCH  83  86
ATOM     86  S   UNL     1      -3.174 -10.870   4.312  1.00  0.00     0.127 S 
ATOM     87  O   UNL     1      -3.480 -12.239   4.720  1.00  0.00    -0.237 OA
ATOM     88  O   UNL     1      -2.971  -9.930   5.413  1.00  0.00    -0.237 OA
ATOM     89  O   UNL     1      -3.974 -10.349   3.212  1.00  0.00    -0.744 OA
ENDBRANCH  83  86
ENDBRANCH  55  79
BRANCH  67  90
ATOM     90  C   UNL     1       2.990 -15.187  -2.840  1.00  0.00     0.023 A 
ATOM     91  C   UNL     1       2.104 -16.275  -2.714  1.00  0.00     0.012 A 
ATOM     92  C   UNL     1       4.371 -15.438  -2.990  1.00  0.00     0.148 A 
ATOM     93  C   UNL     1       2.585 -17.585  -2.703  1.00  0.00     0.002 A 
ATOM     94  C   UNL     1       4.837 -16.748  -3.032  1.00  0.00     0.091 A 
ATOM     95  F   UNL     1       5.202 -14.392  -3.096  1.00  0.00    -0.205 F 
ATOM     96  C   UNL     1       3.947 -17.822  -2.874  1.00  0.00     0.022 A 
BRANCH  94  97
ATOM     97  S   UNL     1       6.559 -17.152  -3.348  1.00  0.00     0.127 S 
ATOM     98  O   UNL     1       6.986 -17.673  -2.050  1.00  0.00    -0.237 OA
ATOM     99  O   UNL     1       6.451 -18.160  -4.404  1.00  0.00    -0.237 OA
ATOM    100  O   UNL     1       7.197 -15.909  -3.760  1.00  0.00    -0.744 OA
ENDBRANCH  94  97
ENDBRANCH  67  90
ENDBRANCH  41  42
ENDBRANCH  34  36
ENDBRANCH  33  34
ENDBRANCH  32  33
ENDBRANCH  31  32
ENDBRANCH  30  31
ENDBRANCH  29  30
ENDBRANCH   1  29
TORSDOF 26
