REMARK SMILES Cc1nccn1CCC[NH+]1CCC2(CC1)[C@@H](C(=O)OCCOCCOCCOC(=O)c1ccc(-c3c4nc(c(-c5cccc(S(=O)(=O)[O-])c5F)c5ccc([nH]5)c(-c5cccc(S(=O)(=O)[O-])c5F)c5nc(c(-c6cccc(S(=O)(=O)[O-])c6F)c6ccc3[nH]6)C=C5)C=C4)cc1)CC(=O)N2C
REMARK SMILES IDX 23 1 22 2 21 3 20 4 19 5 17 6 18 7 16 8 10 9 11 10 15 11
REMARK SMILES IDX 12 13 14 14 13 15 97 16 94 17 95 18 98 19 96 20 9 21 8 22
REMARK SMILES IDX 7 23 6 24 1 25 2 26 3 27 4 28 5 29 24 30 25 31 26 32 27 33
REMARK SMILES IDX 28 34 29 35 30 36 31 37 32 38 93 39 33 40 92 41 34 42 35 43
REMARK SMILES IDX 36 44 86 45 37 46 91 47 85 48 87 49 38 50 90 51 84 52 83 53
REMARK SMILES IDX 39 55 71 56 51 57 70 58 52 59 55 60 69 61 88 62 53 63 54 64
REMARK SMILES IDX 68 66 89 67 56 68 40 69 41 70 49 71 42 72 44 73 50 74 43 75
REMARK SMILES IDX 45 76 46 77 47 78 48 79 72 80 73 81 81 82 74 83 76 84 82 85
REMARK SMILES IDX 75 86 77 87 78 88 79 89 80 90 57 91 58 92 66 93 59 94 61 95
REMARK SMILES IDX 67 96 60 97 62 98 63 99 64 100 65 101
REMARK H PARENT 10 12 87 54 55 65
REMARK Flexibility Score: inf
ROOT
ATOM      1  C   UNL     1       3.465   6.370  -6.402  1.00  0.00     0.188 C 
ENDROOT
BRANCH   1   2
ATOM      2  O   UNL     1       4.172   6.988  -7.456  1.00  0.00    -0.376 OA
BRANCH   2   3
ATOM      3  C   UNL     1       4.532   8.353  -7.322  1.00  0.00     0.202 C 
BRANCH   3   4
ATOM      4  C   UNL     1       3.441   9.365  -6.970  1.00  0.00     0.261 C 
BRANCH   4   5
ATOM      5  O   UNL     1       2.916   9.175  -5.642  1.00  0.00    -0.463 OA
BRANCH   5   6
ATOM      6  C   UNL     1       1.563   9.044  -5.502  1.00  0.00     0.311 C 
ATOM      7  O   UNL     1       0.753   9.066  -6.417  1.00  0.00    -0.252 OA
BRANCH   6   8
ATOM      8  C   UNL     1       1.214   8.937  -4.028  1.00  0.00     0.134 C 
ATOM      9  N   UNL     1      -0.110   4.986  -2.564  1.00  0.00    -0.335 N 
ATOM     10  C   UNL     1      -0.093   6.127  -1.655  1.00  0.00     0.264 C 
ATOM     11  C   UNL     1      -0.538   5.358  -3.920  1.00  0.00     0.264 C 
ATOM     12  H   UNL     1      -0.819   4.372  -2.163  1.00  0.00     0.348 HD
ATOM     13  C   UNL     1       0.662   7.345  -2.181  1.00  0.00     0.091 C 
ATOM     14  C   UNL     1       0.168   6.589  -4.513  1.00  0.00     0.091 C 
ATOM     15  C   UNL     1       0.210   7.822  -3.589  1.00  0.00     0.067 C 
ATOM     16  N   UNL     1      -1.055   8.578  -3.526  1.00  0.00    -0.339 N 
ATOM     17  C   UNL     1       0.582  10.261  -3.600  1.00  0.00     0.118 C 
ATOM     18  C   UNL     1      -0.881   9.953  -3.499  1.00  0.00     0.223 C 
ATOM     19  C   UNL     1      -2.385   8.000  -3.567  1.00  0.00     0.147 C 
ATOM     20  O   UNL     1      -1.754  10.799  -3.385  1.00  0.00    -0.275 OA
BRANCH   9  21
ATOM     21  C   UNL     1       1.105   4.163  -2.579  1.00  0.00     0.264 C 
BRANCH  21  22
ATOM     22  C   UNL     1       1.523   3.504  -1.256  1.00  0.00     0.083 C 
BRANCH  22  23
ATOM     23  C   UNL     1       0.427   2.688  -0.564  1.00  0.00     0.129 C 
BRANCH  23  24
ATOM     24  N   UNL     1       0.080   1.446  -1.226  1.00  0.00    -0.335 N 
ATOM     25  C   UNL     1       1.215  -0.185   0.361  1.00  0.00     0.087 C 
ATOM     26  C   UNL     1       0.409   0.167  -0.835  1.00  0.00     0.105 A 
ATOM     27  N   UNL     1      -0.098  -0.712  -1.673  1.00  0.00    -0.242 NA
ATOM     28  C   UNL     1      -0.785  -0.000  -2.614  1.00  0.00     0.131 A 
ATOM     29  C   UNL     1      -0.727   1.341  -2.330  1.00  0.00     0.107 A 
ENDBRANCH  23  24
ENDBRANCH  22  23
ENDBRANCH  21  22
ENDBRANCH   9  21
ENDBRANCH   6   8
ENDBRANCH   5   6
ENDBRANCH   4   5
ENDBRANCH   3   4
ENDBRANCH   2   3
ENDBRANCH   1   2
BRANCH   1  30
ATOM     30  C   UNL     1       4.010   6.439  -4.960  1.00  0.00     0.188 C 
BRANCH  30  31
ATOM     31  O   UNL     1       5.325   6.868  -4.659  1.00  0.00    -0.376 OA
BRANCH  31  32
ATOM     32  C   UNL     1       6.462   6.336  -5.323  1.00  0.00     0.202 C 
BRANCH  32  33
ATOM     33  C   UNL     1       6.695   4.835  -5.393  1.00  0.00     0.261 C 
BRANCH  33  34
ATOM     34  O   UNL     1       5.670   4.151  -6.101  1.00  0.00    -0.460 OA
BRANCH  34  35
ATOM     35  C   UNL     1       4.863   3.463  -5.274  1.00  0.00     0.338 C 
ATOM     36  O   UNL     1       4.843   3.510  -4.052  1.00  0.00    -0.246 OA
BRANCH  35  37
ATOM     37  C   UNL     1       3.949   2.606  -6.020  1.00  0.00     0.060 A 
ATOM     38  C   UNL     1       2.749   2.348  -5.362  1.00  0.00     0.016 A 
ATOM     39  C   UNL     1       4.448   1.780  -7.023  1.00  0.00     0.016 A 
ATOM     40  C   UNL     1       2.213   1.091  -5.449  1.00  0.00     0.010 A 
ATOM     41  C   UNL     1       3.866   0.538  -7.163  1.00  0.00     0.010 A 
ATOM     42  C   UNL     1       2.858   0.162  -6.262  1.00  0.00    -0.014 A 
BRANCH  42  43
ATOM     43  C   UNL     1       2.489  -1.235  -6.077  1.00  0.00     0.031 A 
ATOM     44  C   UNL     1       1.078  -1.572  -6.405  1.00  0.00     0.074 A 
ATOM     45  C   UNL     1       3.431  -2.136  -5.726  1.00  0.00     0.049 A 
ATOM     46  N   UNL     1       0.259  -2.349  -5.771  1.00  0.00    -0.248 NA
ATOM     47  C   UNL     1       0.473  -0.868  -7.550  1.00  0.00     0.031 C 
ATOM     48  C   UNL     1       4.874  -1.893  -5.581  1.00  0.00     0.029 A 
ATOM     49  N   UNL     1       3.338  -3.495  -5.643  1.00  0.00    -0.354 N 
ATOM     50  C   UNL     1      -0.890  -2.392  -6.557  1.00  0.00     0.074 A 
ATOM     51  C   UNL     1      -0.763  -1.357  -7.546  1.00  0.00     0.031 C 
ATOM     52  C   UNL     1       5.530  -3.052  -5.781  1.00  0.00     0.029 A 
ATOM     53  C   UNL     1       4.551  -4.111  -5.942  1.00  0.00     0.049 A 
ATOM     54  H   UNL     1       2.516  -3.980  -5.402  1.00  0.00     0.167 HD
ATOM     55  C   UNL     1      -1.767  -3.428  -6.505  1.00  0.00     0.034 A 
ATOM     56  C   UNL     1       4.729  -5.354  -6.445  1.00  0.00     0.034 A 
ATOM     57  C   UNL     1      -1.721  -4.129  -5.254  1.00  0.00     0.049 A 
ATOM     58  C   UNL     1       3.485  -6.121  -6.220  1.00  0.00     0.074 A 
ATOM     59  C   UNL     1      -1.915  -3.775  -3.933  1.00  0.00     0.029 A 
ATOM     60  N   UNL     1      -1.136  -5.370  -5.227  1.00  0.00    -0.354 N 
ATOM     61  N   UNL     1       3.059  -6.500  -5.048  1.00  0.00    -0.248 NA
ATOM     62  C   UNL     1       2.496  -6.147  -7.285  1.00  0.00     0.031 C 
ATOM     63  C   UNL     1      -1.023  -4.599  -3.191  1.00  0.00     0.029 A 
ATOM     64  C   UNL     1      -0.360  -5.424  -4.100  1.00  0.00     0.049 A 
ATOM     65  H   UNL     1      -1.253  -6.086  -5.892  1.00  0.00     0.167 HD
ATOM     66  C   UNL     1       1.676  -6.395  -5.130  1.00  0.00     0.074 A 
ATOM     67  C   UNL     1       1.388  -6.300  -6.558  1.00  0.00     0.031 C 
ATOM     68  C   UNL     1       0.919  -6.096  -4.032  1.00  0.00     0.034 A 
BRANCH  55  69
ATOM     69  C   UNL     1      -2.441  -3.994  -7.730  1.00  0.00     0.023 A 
ATOM     70  C   UNL     1      -3.473  -4.936  -7.538  1.00  0.00     0.012 A 
ATOM     71  C   UNL     1      -1.942  -3.848  -9.046  1.00  0.00     0.148 A 
ATOM     72  C   UNL     1      -3.956  -5.717  -8.595  1.00  0.00     0.002 A 
ATOM     73  C   UNL     1      -2.487  -4.559 -10.107  1.00  0.00     0.091 A 
ATOM     74  F   UNL     1      -0.844  -3.120  -9.276  1.00  0.00    -0.205 F 
ATOM     75  C   UNL     1      -3.473  -5.519  -9.884  1.00  0.00     0.022 A 
BRANCH  73  76
ATOM     76  S   UNL     1      -1.933  -4.261 -11.790  1.00  0.00     0.127 S 
ATOM     77  O   UNL     1      -0.931  -5.307 -11.963  1.00  0.00    -0.237 OA
ATOM     78  O   UNL     1      -3.165  -4.449 -12.558  1.00  0.00    -0.237 OA
ATOM     79  O   UNL     1      -1.447  -2.885 -11.785  1.00  0.00    -0.744 OA
ENDBRANCH  73  76
ENDBRANCH  55  69
BRANCH  56  80
ATOM     80  C   UNL     1       5.801  -5.816  -7.357  1.00  0.00     0.023 A 
ATOM     81  C   UNL     1       6.127  -7.183  -7.409  1.00  0.00     0.012 A 
ATOM     82  C   UNL     1       6.370  -4.958  -8.329  1.00  0.00     0.148 A 
ATOM     83  C   UNL     1       6.993  -7.679  -8.392  1.00  0.00     0.002 A 
ATOM     84  C   UNL     1       7.256  -5.449  -9.282  1.00  0.00     0.091 A 
ATOM     85  F   UNL     1       5.976  -3.678  -8.380  1.00  0.00    -0.205 F 
ATOM     86  C   UNL     1       7.562  -6.813  -9.323  1.00  0.00     0.022 A 
BRANCH  84  87
ATOM     87  S   UNL     1       8.048  -4.370 -10.484  1.00  0.00     0.127 S 
ATOM     88  O   UNL     1       9.418  -4.885 -10.506  1.00  0.00    -0.237 OA
ATOM     89  O   UNL     1       7.274  -4.638 -11.692  1.00  0.00    -0.237 OA
ATOM     90  O   UNL     1       7.932  -3.023  -9.935  1.00  0.00    -0.744 OA
ENDBRANCH  84  87
ENDBRANCH  56  80
BRANCH  68  91
ATOM     91  C   UNL     1       1.573  -6.138  -2.672  1.00  0.00     0.023 A 
ATOM     92  C   UNL     1       2.642  -5.278  -2.346  1.00  0.00     0.012 A 
ATOM     93  C   UNL     1       0.982  -6.901  -1.649  1.00  0.00     0.148 A 
ATOM     94  C   UNL     1       3.132  -5.202  -1.041  1.00  0.00     0.002 A 
ATOM     95  C   UNL     1       1.444  -6.790  -0.341  1.00  0.00     0.091 A 
ATOM     96  F   UNL     1      -0.043  -7.707  -1.965  1.00  0.00    -0.205 F 
ATOM     97  C   UNL     1       2.525  -5.949  -0.035  1.00  0.00     0.022 A 
BRANCH  95  98
ATOM     98  S   UNL     1       0.622  -7.627   1.019  1.00  0.00     0.127 S 
ATOM     99  O   UNL     1       1.474  -8.797   1.221  1.00  0.00    -0.237 OA
ATOM    100  O   UNL     1       0.686  -6.636   2.095  1.00  0.00    -0.237 OA
ATOM    101  O   UNL     1      -0.731  -7.906   0.553  1.00  0.00    -0.744 OA
ENDBRANCH  95  98
ENDBRANCH  68  91
ENDBRANCH  42  43
ENDBRANCH  35  37
ENDBRANCH  34  35
ENDBRANCH  33  34
ENDBRANCH  32  33
ENDBRANCH  31  32
ENDBRANCH  30  31
ENDBRANCH   1  30
TORSDOF 24
