REMARK SMILES CCOc1ccccc1[C@H]1CC(C(=O)OCCOCCOCCOC(=O)c2ccc(-c3c4nc(c(-c5cccc(S(=O)(=O)[O-])c5F)c5ccc([nH]5)c(-c5cccc(S(=O)(=O)[O-])c5F)c5nc(c(-c6cccc(S(=O)(=O)[O-])c6F)c6ccc3[nH]6)C=C5)C=C4)cc2)=Nc2c(C(=O)Nc3ccccc3)cnn21
REMARK SMILES IDX 19 1 18 2 17 3 16 4 15 5 13 6 14 7 12 8 10 9 11 10 104 11
REMARK SMILES IDX 91 12 103 13 90 14 92 15 102 16 9 17 4 18 5 19 6 20 8 21
REMARK SMILES IDX 7 22 3 23 2 24 1 25 93 26 94 27 95 28 96 30 97 31 101 32
REMARK SMILES IDX 98 33 100 34 99 35 20 36 21 37 22 38 23 39 24 40 25 41 26 42
REMARK SMILES IDX 27 43 28 44 89 45 29 46 88 47 30 48 31 49 32 50 82 51 33 52
REMARK SMILES IDX 87 53 81 54 83 55 34 56 86 57 80 58 79 59 35 61 67 62 47 63
REMARK SMILES IDX 66 64 48 65 51 66 65 67 84 68 49 69 50 70 64 72 85 73 52 74
REMARK SMILES IDX 36 75 37 76 45 77 38 78 40 79 46 80 39 81 41 82 42 83 43 84
REMARK SMILES IDX 44 85 68 86 69 87 77 88 70 89 72 90 78 91 71 92 73 93 74 94
REMARK SMILES IDX 75 95 76 96 53 97 54 98 62 99 55 100 57 101 63 102 56 103
REMARK SMILES IDX 58 104 59 105 60 106 61 107
REMARK H PARENT 95 29 83 60 51 71
REMARK Flexibility Score: inf
ROOT
ATOM      1  C   UNL     1      -1.546  -2.428   2.961  1.00  0.00     0.188 C 
ENDROOT
BRANCH   1   2
ATOM      2  O   UNL     1      -2.129  -3.672   3.250  1.00  0.00    -0.376 OA
BRANCH   2   3
ATOM      3  C   UNL     1      -2.361  -4.497   2.118  1.00  0.00     0.202 C 
BRANCH   3   4
ATOM      4  C   UNL     1      -1.251  -4.684   1.032  1.00  0.00     0.261 C 
BRANCH   4   5
ATOM      5  O   UNL     1      -0.288  -3.603   0.836  1.00  0.00    -0.459 OA
BRANCH   5   6
ATOM      6  C   UNL     1      -0.201  -2.986  -0.366  1.00  0.00     0.352 C 
ATOM      7  O   UNL     1      -0.789  -3.307  -1.382  1.00  0.00    -0.245 OA
BRANCH   6   8
ATOM      8  C   UNL     1       0.722  -1.720  -0.312  1.00  0.00     0.130 C 
ATOM      9  C   UNL     1       3.253  -0.921  -0.133  1.00  0.00     0.150 C 
ATOM     10  C   UNL     1       2.174  -2.014   0.031  1.00  0.00     0.096 C 
ATOM     11  N   UNL     1       2.699   0.356  -0.516  1.00  0.00    -0.239 N 
ATOM     12  C   UNL     1       0.875   0.596  -0.387  1.00  0.00     0.164 A 
ATOM     13  N   UNL     1       3.573   1.996  -0.604  1.00  0.00    -0.178 NA
ATOM     14  N   UNL     1       0.153  -0.556  -0.503  1.00  0.00    -0.225 NA
ATOM     15  C   UNL     1       0.593   2.377  -0.283  1.00  0.00     0.104 A 
ATOM     16  C   UNL     1       2.355   3.208  -0.476  1.00  0.00     0.151 A 
BRANCH   9  17
ATOM     17  C   UNL     1       4.027  -0.794   1.153  1.00  0.00     0.019 A 
ATOM     18  C   UNL     1       4.044   0.377   1.913  1.00  0.00     0.124 A 
ATOM     19  C   UNL     1       4.757   0.404   3.118  1.00  0.00     0.047 A 
ATOM     20  C   UNL     1       5.411  -0.734   3.597  1.00  0.00     0.004 A 
ATOM     21  C   UNL     1       4.737  -1.924   1.624  1.00  0.00     0.010 A 
ATOM     22  C   UNL     1       5.403  -1.902   2.847  1.00  0.00     0.001 A 
BRANCH  18  23
ATOM     23  O   UNL     1       3.499   1.573   1.538  1.00  0.00    -0.494 OA
BRANCH  23  24
ATOM     24  C   UNL     1       2.173   1.680   0.682  1.00  0.00     0.226 C 
ATOM     25  C   UNL     1       1.952   1.708  -1.564  1.00  0.00     0.049 C 
ENDBRANCH  23  24
ENDBRANCH  18  23
ENDBRANCH   9  17
BRANCH  15  26
ATOM     26  C   UNL     1      -0.535   3.369  -0.257  1.00  0.00     0.261 C 
ATOM     27  O   UNL     1      -0.258   4.538  -0.551  1.00  0.00    -0.269 OA
ATOM     28  N   UNL     1      -1.875   3.151   0.007  1.00  0.00    -0.322 N 
ATOM     29  H   UNL     1      -2.478   3.908  -0.175  1.00  0.00     0.170 HD
BRANCH  28  30
ATOM     30  C   UNL     1      -2.473   2.008   0.493  1.00  0.00     0.041 A 
ATOM     31  C   UNL     1      -3.611   1.505  -0.150  1.00  0.00     0.026 A 
ATOM     32  C   UNL     1      -1.766   1.270   1.392  1.00  0.00     0.026 A 
ATOM     33  C   UNL     1      -3.773   0.128  -0.222  1.00  0.00     0.002 A 
ATOM     34  C   UNL     1      -1.871  -0.074   1.216  1.00  0.00     0.002 A 
ATOM     35  C   UNL     1      -2.813  -0.667   0.368  1.00  0.00     0.000 A 
ENDBRANCH  28  30
ENDBRANCH  15  26
ENDBRANCH   6   8
ENDBRANCH   5   6
ENDBRANCH   4   5
ENDBRANCH   3   4
ENDBRANCH   2   3
ENDBRANCH   1   2
BRANCH   1  36
ATOM     36  C   UNL     1      -0.062  -2.243   3.358  1.00  0.00     0.188 C 
BRANCH  36  37
ATOM     37  O   UNL     1       0.690  -3.361   3.800  1.00  0.00    -0.376 OA
BRANCH  37  38
ATOM     38  C   UNL     1       0.046  -4.325   4.624  1.00  0.00     0.202 C 
BRANCH  38  39
ATOM     39  C   UNL     1      -0.772  -3.892   5.850  1.00  0.00     0.261 C 
BRANCH  39  40
ATOM     40  O   UNL     1      -1.477  -2.665   5.723  1.00  0.00    -0.460 OA
BRANCH  40  41
ATOM     41  C   UNL     1      -0.822  -1.565   6.151  1.00  0.00     0.338 C 
ATOM     42  O   UNL     1       0.332  -1.500   6.535  1.00  0.00    -0.246 OA
BRANCH  41  43
ATOM     43  C   UNL     1      -1.760  -0.420   6.092  1.00  0.00     0.060 A 
ATOM     44  C   UNL     1      -1.213   0.819   6.413  1.00  0.00     0.016 A 
ATOM     45  C   UNL     1      -3.061  -0.725   6.463  1.00  0.00     0.016 A 
ATOM     46  C   UNL     1      -1.663   1.414   7.576  1.00  0.00     0.010 A 
ATOM     47  C   UNL     1      -3.564  -0.049   7.538  1.00  0.00     0.010 A 
ATOM     48  C   UNL     1      -2.739   0.826   8.246  1.00  0.00    -0.014 A 
BRANCH  48  49
ATOM     49  C   UNL     1      -3.260   1.354   9.506  1.00  0.00     0.031 A 
ATOM     50  C   UNL     1      -4.072   2.560   9.143  1.00  0.00     0.074 A 
ATOM     51  C   UNL     1      -3.119   0.742  10.720  1.00  0.00     0.049 A 
ATOM     52  N   UNL     1      -3.638   3.784   9.129  1.00  0.00    -0.248 NA
ATOM     53  C   UNL     1      -5.294   2.395   8.317  1.00  0.00     0.031 C 
ATOM     54  C   UNL     1      -2.417  -0.501  11.094  1.00  0.00     0.029 A 
ATOM     55  N   UNL     1      -3.650   1.103  11.937  1.00  0.00    -0.354 N 
ATOM     56  C   UNL     1      -4.720   4.521   8.648  1.00  0.00     0.074 A 
ATOM     57  C   UNL     1      -5.455   3.624   7.820  1.00  0.00     0.031 C 
ATOM     58  C   UNL     1      -2.787  -0.904  12.342  1.00  0.00     0.029 A 
ATOM     59  C   UNL     1      -3.649   0.099  12.934  1.00  0.00     0.049 A 
ATOM     60  H   UNL     1      -4.008   2.004  12.103  1.00  0.00     0.167 HD
ATOM     61  C   UNL     1      -5.197   5.571   9.375  1.00  0.00     0.034 A 
ATOM     62  C   UNL     1      -4.319   0.127  14.135  1.00  0.00     0.034 A 
ATOM     63  C   UNL     1      -4.189   5.981  10.325  1.00  0.00     0.049 A 
ATOM     64  C   UNL     1      -4.628   1.550  14.407  1.00  0.00     0.074 A 
ATOM     65  C   UNL     1      -2.893   6.443  10.250  1.00  0.00     0.029 A 
ATOM     66  N   UNL     1      -4.345   5.427  11.569  1.00  0.00    -0.354 N 
ATOM     67  N   UNL     1      -3.689   2.421  14.642  1.00  0.00    -0.248 NA
ATOM     68  C   UNL     1      -5.862   2.061  13.834  1.00  0.00     0.031 C 
ATOM     69  C   UNL     1      -2.206   5.797  11.320  1.00  0.00     0.029 A 
ATOM     70  C   UNL     1      -3.132   5.101  12.097  1.00  0.00     0.049 A 
ATOM     71  H   UNL     1      -5.210   5.285  12.017  1.00  0.00     0.167 HD
ATOM     72  C   UNL     1      -3.993   3.459  13.775  1.00  0.00     0.074 A 
ATOM     73  C   UNL     1      -5.370   3.198  13.332  1.00  0.00     0.031 C 
ATOM     74  C   UNL     1      -2.991   4.202  13.216  1.00  0.00     0.034 A 
BRANCH  61  75
ATOM     75  C   UNL     1      -6.679   5.854   9.642  1.00  0.00     0.023 A 
ATOM     76  C   UNL     1      -6.955   6.999  10.423  1.00  0.00     0.012 A 
ATOM     77  C   UNL     1      -7.768   4.965   9.437  1.00  0.00     0.148 A 
ATOM     78  C   UNL     1      -8.205   7.211  11.018  1.00  0.00     0.002 A 
ATOM     79  C   UNL     1      -9.024   5.201   9.990  1.00  0.00     0.091 A 
ATOM     80  F   UNL     1      -7.606   3.820   8.778  1.00  0.00    -0.205 F 
ATOM     81  C   UNL     1      -9.240   6.311  10.805  1.00  0.00     0.022 A 
BRANCH  79  82
ATOM     82  S   UNL     1     -10.412   4.077   9.739  1.00  0.00     0.127 S 
ATOM     83  O   UNL     1     -10.668   3.617  11.101  1.00  0.00    -0.237 OA
ATOM     84  O   UNL     1     -11.423   4.981   9.190  1.00  0.00    -0.237 OA
ATOM     85  O   UNL     1      -9.947   3.058   8.808  1.00  0.00    -0.744 OA
ENDBRANCH  79  82
ENDBRANCH  61  75
BRANCH  62  86
ATOM     86  C   UNL     1      -5.073  -0.935  14.885  1.00  0.00     0.023 A 
ATOM     87  C   UNL     1      -5.507  -0.753  16.226  1.00  0.00     0.012 A 
ATOM     88  C   UNL     1      -5.670  -1.984  14.159  1.00  0.00     0.148 A 
ATOM     89  C   UNL     1      -6.500  -1.574  16.801  1.00  0.00     0.002 A 
ATOM     90  C   UNL     1      -6.662  -2.785  14.726  1.00  0.00     0.091 A 
ATOM     91  F   UNL     1      -5.330  -2.132  12.874  1.00  0.00    -0.205 F 
ATOM     92  C   UNL     1      -7.088  -2.583  16.045  1.00  0.00     0.022 A 
BRANCH  90  93
ATOM     93  S   UNL     1      -7.497  -4.064  13.775  1.00  0.00     0.127 S 
ATOM     94  O   UNL     1      -7.301  -5.241  14.621  1.00  0.00    -0.237 OA
ATOM     95  O   UNL     1      -8.868  -3.562  13.729  1.00  0.00    -0.237 OA
ATOM     96  O   UNL     1      -6.808  -4.121  12.493  1.00  0.00    -0.744 OA
ENDBRANCH  90  93
ENDBRANCH  62  86
BRANCH  74  97
ATOM     97  C   UNL     1      -1.597   4.029  13.761  1.00  0.00     0.023 A 
ATOM     98  C   UNL     1      -0.775   2.897  13.558  1.00  0.00     0.012 A 
ATOM     99  C   UNL     1      -1.055   5.158  14.387  1.00  0.00     0.148 A 
ATOM    100  C   UNL     1       0.554   2.896  14.005  1.00  0.00     0.002 A 
ATOM    101  C   UNL     1       0.268   5.169  14.789  1.00  0.00     0.091 A 
ATOM    102  F   UNL     1      -1.850   6.227  14.540  1.00  0.00    -0.205 F 
ATOM    103  C   UNL     1       1.077   4.035  14.616  1.00  0.00     0.022 A 
BRANCH 101 104
ATOM    104  S   UNL     1       1.005   6.652  15.467  1.00  0.00     0.127 S 
ATOM    105  O   UNL     1       1.187   6.282  16.869  1.00  0.00    -0.237 OA
ATOM    106  O   UNL     1       2.241   6.764  14.693  1.00  0.00    -0.237 OA
ATOM    107  O   UNL     1       0.050   7.727  15.225  1.00  0.00    -0.744 OA
ENDBRANCH 101 104
ENDBRANCH  74  97
ENDBRANCH  48  49
ENDBRANCH  41  43
ENDBRANCH  40  41
ENDBRANCH  39  40
ENDBRANCH  38  39
ENDBRANCH  37  38
ENDBRANCH  36  37
ENDBRANCH   1  36
TORSDOF 25
