REMARK SMILES CCCC[C@@H](Sc1nc(OCCC2CCCCC2)cc(OCCC2CCCCC2)n1)C(=O)OCCOCCOCCOC(=O)c1ccc(-c2c3nc(c(-c4cccc(S(=O)(=O)[O-])c4F)c4ccc([nH]4)c(-c4cccc(S(=O)(=O)[O-])c4F)c4nc(c(-c5cccc(S(=O)(=O)[O-])c5F)c5ccc2[nH]5)C=C4)C=C3)cc1
REMARK SMILES IDX 36 1 35 2 34 3 33 4 31 5 32 6 5 7 4 8 3 9 2 10 1 11 6 12
REMARK SMILES IDX 7 13 8 14 30 15 9 16 20 17 19 18 10 19 11 20 12 21 13 22
REMARK SMILES IDX 14 23 18 24 15 25 17 26 16 27 21 28 22 29 23 30 24 31 25 32
REMARK SMILES IDX 29 33 26 34 28 35 27 36 37 37 38 38 39 39 40 40 41 41 42 42
REMARK SMILES IDX 43 43 44 44 45 45 46 46 107 47 47 48 106 49 48 50 49 51
REMARK SMILES IDX 50 52 100 53 51 54 105 55 99 56 101 57 52 58 104 59 98 60
REMARK SMILES IDX 97 61 53 63 85 64 65 65 84 66 66 67 69 68 83 69 102 70 67 71
REMARK SMILES IDX 68 72 82 74 103 75 70 76 54 77 55 78 63 79 56 80 58 81 64 82
REMARK SMILES IDX 57 83 59 84 60 85 61 86 62 87 86 88 87 89 95 90 88 91 90 92
REMARK SMILES IDX 96 93 89 94 91 95 92 96 93 97 94 98 71 99 72 100 80 101
REMARK SMILES IDX 73 102 75 103 81 104 74 105 76 106 77 107 78 108 79 109
REMARK H PARENT 101 62 69 73
REMARK Flexibility Score: inf
ROOT
ATOM      1  O   UNL     1      -2.490   5.706  -1.026  1.00  0.00    -0.376 OA
ENDROOT
BRANCH   1   2
ATOM      2  C   UNL     1      -2.173   6.641  -0.003  1.00  0.00     0.202 C 
BRANCH   2   3
ATOM      3  C   UNL     1      -2.326   6.205   1.462  1.00  0.00     0.261 C 
BRANCH   3   4
ATOM      4  O   UNL     1      -1.577   5.037   1.854  1.00  0.00    -0.462 OA
BRANCH   4   5
ATOM      5  C   UNL     1      -2.314   3.898   1.951  1.00  0.00     0.319 C 
ATOM      6  O   UNL     1      -3.511   3.833   1.677  1.00  0.00    -0.251 OA
BRANCH   5   7
ATOM      7  C   UNL     1      -1.550   2.691   2.498  1.00  0.00     0.164 C 
BRANCH   7   8
ATOM      8  C   UNL     1      -0.002   2.757   2.429  1.00  0.00     0.027 C 
BRANCH   8   9
ATOM      9  C   UNL     1       0.791   1.426   2.476  1.00  0.00     0.001 C 
BRANCH   9  10
ATOM     10  C   UNL     1       0.437   0.370   1.417  1.00  0.00    -0.003 C 
ATOM     11  C   UNL     1       1.327   0.422   0.191  1.00  0.00     0.004 C 
ENDBRANCH   9  10
ENDBRANCH   8   9
ENDBRANCH   7   8
BRANCH   7  12
ATOM     12  S   UNL     1      -2.246   2.580   4.193  1.00  0.00    -0.071 SA
BRANCH  12  13
ATOM     13  C   UNL     1      -1.744   0.972   4.642  1.00  0.00     0.195 A 
ATOM     14  N   UNL     1      -1.291   0.902   5.892  1.00  0.00    -0.187 NA
ATOM     15  N   UNL     1      -1.742  -0.026   3.752  1.00  0.00    -0.187 NA
ATOM     16  C   UNL     1      -0.733  -0.235   6.276  1.00  0.00     0.221 A 
ATOM     17  C   UNL     1      -1.158  -1.159   4.153  1.00  0.00     0.221 A 
ATOM     18  C   UNL     1      -0.574  -1.275   5.396  1.00  0.00     0.136 A 
BRANCH  16  19
ATOM     19  O   UNL     1      -0.478  -0.202   7.606  1.00  0.00    -0.477 OA
BRANCH  19  20
ATOM     20  C   UNL     1       0.071  -1.271   8.348  1.00  0.00     0.231 C 
BRANCH  20  21
ATOM     21  C   UNL     1      -0.862  -2.415   8.789  1.00  0.00     0.045 C 
BRANCH  21  22
ATOM     22  C   UNL     1      -1.887  -2.913   7.768  1.00  0.00    -0.008 C 
ATOM     23  C   UNL     1      -2.363  -4.349   8.010  1.00  0.00     0.004 C 
ATOM     24  C   UNL     1      -3.110  -1.993   7.657  1.00  0.00     0.004 C 
ATOM     25  C   UNL     1      -3.257  -4.806   6.849  1.00  0.00     0.000 C 
ATOM     26  C   UNL     1      -3.954  -2.386   6.452  1.00  0.00     0.000 C 
ATOM     27  C   UNL     1      -4.404  -3.839   6.552  1.00  0.00     0.000 C 
ENDBRANCH  21  22
ENDBRANCH  20  21
ENDBRANCH  19  20
ENDBRANCH  16  19
BRANCH  17  28
ATOM     28  O   UNL     1      -1.077  -2.123   3.179  1.00  0.00    -0.477 OA
BRANCH  28  29
ATOM     29  C   UNL     1      -1.139  -3.498   3.568  1.00  0.00     0.231 C 
BRANCH  29  30
ATOM     30  C   UNL     1       0.076  -4.327   3.094  1.00  0.00     0.045 C 
BRANCH  30  31
ATOM     31  C   UNL     1       1.454  -4.097   3.783  1.00  0.00    -0.008 C 
ATOM     32  C   UNL     1       2.031  -2.710   3.460  1.00  0.00     0.004 C 
ATOM     33  C   UNL     1       1.434  -4.514   5.261  1.00  0.00     0.004 C 
ATOM     34  C   UNL     1       2.974  -2.059   4.462  1.00  0.00     0.000 C 
ATOM     35  C   UNL     1       2.576  -3.940   6.091  1.00  0.00     0.000 C 
ATOM     36  C   UNL     1       2.726  -2.444   5.902  1.00  0.00     0.000 C 
ENDBRANCH  30  31
ENDBRANCH  29  30
ENDBRANCH  28  29
ENDBRANCH  17  28
ENDBRANCH  12  13
ENDBRANCH   7  12
ENDBRANCH   5   7
ENDBRANCH   4   5
ENDBRANCH   3   4
ENDBRANCH   2   3
ENDBRANCH   1   2
BRANCH   1  37
ATOM     37  C   UNL     1      -1.810   4.461  -1.049  1.00  0.00     0.188 C 
BRANCH  37  38
ATOM     38  C   UNL     1      -0.284   4.482  -0.964  1.00  0.00     0.188 C 
BRANCH  38  39
ATOM     39  O   UNL     1       0.281   5.551  -0.234  1.00  0.00    -0.376 OA
BRANCH  39  40
ATOM     40  C   UNL     1       1.576   6.010  -0.616  1.00  0.00     0.202 C 
BRANCH  40  41
ATOM     41  C   UNL     1       1.837   6.413  -2.091  1.00  0.00     0.261 C 
BRANCH  41  42
ATOM     42  O   UNL     1       1.510   5.471  -3.134  1.00  0.00    -0.460 OA
BRANCH  42  43
ATOM     43  C   UNL     1       2.054   4.227  -3.064  1.00  0.00     0.338 C 
ATOM     44  O   UNL     1       2.944   3.879  -2.318  1.00  0.00    -0.246 OA
BRANCH  43  45
ATOM     45  C   UNL     1       1.156   3.286  -3.808  1.00  0.00     0.060 A 
ATOM     46  C   UNL     1       0.744   2.120  -3.146  1.00  0.00     0.016 A 
ATOM     47  C   UNL     1       0.648   3.564  -5.075  1.00  0.00     0.016 A 
ATOM     48  C   UNL     1      -0.138   1.213  -3.740  1.00  0.00     0.010 A 
ATOM     49  C   UNL     1      -0.208   2.639  -5.692  1.00  0.00     0.010 A 
ATOM     50  C   UNL     1      -0.579   1.443  -5.043  1.00  0.00    -0.014 A 
BRANCH  50  51
ATOM     51  C   UNL     1      -1.194   0.348  -5.840  1.00  0.00     0.031 A 
ATOM     52  C   UNL     1      -0.299  -0.378  -6.807  1.00  0.00     0.074 A 
ATOM     53  C   UNL     1      -2.497   0.022  -5.758  1.00  0.00     0.049 A 
ATOM     54  N   UNL     1      -0.607  -1.183  -7.787  1.00  0.00    -0.248 NA
ATOM     55  C   UNL     1       1.148  -0.146  -6.648  1.00  0.00     0.031 C 
ATOM     56  C   UNL     1      -3.459   0.581  -4.812  1.00  0.00     0.029 A 
ATOM     57  N   UNL     1      -3.244  -0.838  -6.530  1.00  0.00    -0.354 N 
ATOM     58  C   UNL     1       0.597  -1.494  -8.407  1.00  0.00     0.074 A 
ATOM     59  C   UNL     1       1.643  -0.808  -7.682  1.00  0.00     0.031 C 
ATOM     60  C   UNL     1      -4.681   0.093  -5.094  1.00  0.00     0.029 A 
ATOM     61  C   UNL     1      -4.596  -0.768  -6.274  1.00  0.00     0.049 A 
ATOM     62  H   UNL     1      -2.852  -1.444  -7.200  1.00  0.00     0.167 HD
ATOM     63  C   UNL     1       0.813  -2.275  -9.491  1.00  0.00     0.034 A 
ATOM     64  C   UNL     1      -5.642  -1.289  -6.950  1.00  0.00     0.034 A 
ATOM     65  C   UNL     1      -0.227  -2.973 -10.191  1.00  0.00     0.049 A 
ATOM     66  C   UNL     1      -5.386  -2.111  -8.192  1.00  0.00     0.074 A 
ATOM     67  C   UNL     1      -0.111  -3.811 -11.285  1.00  0.00     0.029 A 
ATOM     68  N   UNL     1      -1.574  -2.907  -9.873  1.00  0.00    -0.354 N 
ATOM     69  N   UNL     1      -4.244  -2.437  -8.748  1.00  0.00    -0.248 NA
ATOM     70  C   UNL     1      -6.563  -2.653  -8.893  1.00  0.00     0.031 C 
ATOM     71  C   UNL     1      -1.395  -4.223 -11.653  1.00  0.00     0.029 A 
ATOM     72  C   UNL     1      -2.303  -3.682 -10.755  1.00  0.00     0.049 A 
ATOM     73  H   UNL     1      -1.955  -2.386  -9.130  1.00  0.00     0.167 HD
ATOM     74  C   UNL     1      -4.560  -3.260  -9.825  1.00  0.00     0.074 A 
ATOM     75  C   UNL     1      -6.002  -3.383  -9.848  1.00  0.00     0.031 C 
ATOM     76  C   UNL     1      -3.732  -3.855 -10.718  1.00  0.00     0.034 A 
BRANCH  63  77
ATOM     77  C   UNL     1       2.225  -2.400  -9.994  1.00  0.00     0.023 A 
ATOM     78  C   UNL     1       3.176  -3.135  -9.259  1.00  0.00     0.012 A 
ATOM     79  C   UNL     1       2.596  -1.820 -11.223  1.00  0.00     0.148 A 
ATOM     80  C   UNL     1       4.485  -3.261  -9.722  1.00  0.00     0.002 A 
ATOM     81  C   UNL     1       3.888  -1.993 -11.703  1.00  0.00     0.091 A 
ATOM     82  F   UNL     1       1.683  -1.104 -11.894  1.00  0.00    -0.205 F 
ATOM     83  C   UNL     1       4.837  -2.701 -10.948  1.00  0.00     0.022 A 
BRANCH  81  84
ATOM     84  S   UNL     1       4.415  -1.381 -13.307  1.00  0.00     0.127 S 
ATOM     85  O   UNL     1       5.354  -0.327 -12.926  1.00  0.00    -0.237 OA
ATOM     86  O   UNL     1       5.036  -2.567 -13.897  1.00  0.00    -0.237 OA
ATOM     87  O   UNL     1       3.208  -0.926 -13.982  1.00  0.00    -0.744 OA
ENDBRANCH  81  84
ENDBRANCH  63  77
BRANCH  64  88
ATOM     88  C   UNL     1      -7.039  -1.043  -6.485  1.00  0.00     0.023 A 
ATOM     89  C   UNL     1      -7.809  -2.118  -5.997  1.00  0.00     0.012 A 
ATOM     90  C   UNL     1      -7.614   0.243  -6.534  1.00  0.00     0.148 A 
ATOM     91  C   UNL     1      -9.132  -1.923  -5.596  1.00  0.00     0.002 A 
ATOM     92  C   UNL     1      -8.914   0.440  -6.082  1.00  0.00     0.091 A 
ATOM     93  F   UNL     1      -6.875   1.249  -7.023  1.00  0.00    -0.205 F 
ATOM     94  C   UNL     1      -9.680  -0.644  -5.629  1.00  0.00     0.022 A 
BRANCH  92  95
ATOM     95  S   UNL     1      -9.670   2.067  -5.986  1.00  0.00     0.127 S 
ATOM     96  O   UNL     1     -10.725   1.966  -6.992  1.00  0.00    -0.237 OA
ATOM     97  O   UNL     1     -10.142   2.095  -4.601  1.00  0.00    -0.237 OA
ATOM     98  O   UNL     1      -8.607   3.015  -6.284  1.00  0.00    -0.744 OA
ENDBRANCH  92  95
ENDBRANCH  64  88
BRANCH  76  99
ATOM     99  C   UNL     1      -4.328  -4.775 -11.752  1.00  0.00     0.023 A 
ATOM    100  C   UNL     1      -5.020  -4.249 -12.859  1.00  0.00     0.012 A 
ATOM    101  C   UNL     1      -4.071  -6.160 -11.688  1.00  0.00     0.148 A 
ATOM    102  C   UNL     1      -5.459  -5.091 -13.882  1.00  0.00     0.002 A 
ATOM    103  C   UNL     1      -4.464  -6.984 -12.734  1.00  0.00     0.091 A 
ATOM    104  F   UNL     1      -3.421  -6.638 -10.617  1.00  0.00    -0.205 F 
ATOM    105  C   UNL     1      -5.167  -6.454 -13.827  1.00  0.00     0.022 A 
BRANCH 103 106
ATOM    106  S   UNL     1      -4.037  -8.728 -12.803  1.00  0.00     0.127 S 
ATOM    107  O   UNL     1      -5.351  -9.361 -12.692  1.00  0.00    -0.237 OA
ATOM    108  O   UNL     1      -3.414  -8.841 -14.121  1.00  0.00    -0.237 OA
ATOM    109  O   UNL     1      -3.139  -8.971 -11.682  1.00  0.00    -0.744 OA
ENDBRANCH 103 106
ENDBRANCH  76  99
ENDBRANCH  50  51
ENDBRANCH  43  45
ENDBRANCH  42  43
ENDBRANCH  41  42
ENDBRANCH  40  41
ENDBRANCH  39  40
ENDBRANCH  38  39
ENDBRANCH  37  38
ENDBRANCH   1  37
TORSDOF 33
