REMARK SMILES O=C1C[C@H](C(=O)OCCOCCOCCOC(=O)c2ccc(-c3c4nc(c(-c5cccc(S(=O)(=O)[O-])c5F)c5ccc([nH]5)c(-c5cccc(S(=O)(=O)[O-])c5F)c5nc(c(-c6cccc(S(=O)(=O)[O-])c6F)c6ccc3[nH]6)C=C5)C=C4)cc2)c2c(nc(Nc3ccc(Oc4ccccc4)cc3)[nH]c2=O)N1
REMARK SMILES IDX 11 1 10 2 9 3 8 4 7 5 5 6 6 7 4 8 1 9 2 10 3 11 103 12 83 13
REMARK SMILES IDX 82 15 84 16 101 17 85 18 100 19 102 20 86 22 87 24 88 25
REMARK SMILES IDX 99 26 89 27 98 28 90 29 91 30 92 31 93 32 97 33 94 34 96 35
REMARK SMILES IDX 95 36 12 37 13 38 14 39 15 40 16 41 17 42 18 43 19 44 20 45
REMARK SMILES IDX 81 46 21 47 80 48 22 49 23 50 24 51 74 52 25 53 79 54 73 55
REMARK SMILES IDX 75 56 26 57 78 58 72 59 71 60 27 62 59 63 39 64 58 65 40 66
REMARK SMILES IDX 43 67 57 68 76 69 41 70 42 71 56 73 77 74 44 75 28 76 29 77
REMARK SMILES IDX 37 78 30 79 32 80 38 81 31 82 33 83 34 84 35 85 36 86 60 87
REMARK SMILES IDX 61 88 69 89 62 90 64 91 70 92 63 93 65 94 66 95 67 96 68 97
REMARK SMILES IDX 45 98 46 99 54 100 47 101 49 102 55 103 48 104 50 105 51 106
REMARK SMILES IDX 52 107 53 108
REMARK H PARENT 103 14 100 21 86 23 75 61 43 72
REMARK Flexibility Score: inf
ROOT
ATOM      1  C   UNL     1       4.517  -5.003   0.016  1.00  0.00     0.188 C 
ENDROOT
BRANCH   1   2
ATOM      2  O   UNL     1       5.880  -5.367  -0.146  1.00  0.00    -0.376 OA
BRANCH   2   3
ATOM      3  C   UNL     1       6.923  -4.517   0.292  1.00  0.00     0.202 C 
BRANCH   3   4
ATOM      4  C   UNL     1       7.091  -3.121  -0.331  1.00  0.00     0.261 C 
BRANCH   4   5
ATOM      5  O   UNL     1       5.950  -2.239  -0.350  1.00  0.00    -0.463 OA
BRANCH   5   6
ATOM      6  C   UNL     1       5.214  -2.276  -1.497  1.00  0.00     0.314 C 
ATOM      7  O   UNL     1       5.444  -3.057  -2.411  1.00  0.00    -0.252 OA
BRANCH   6   8
ATOM      8  C   UNL     1       4.100  -1.219  -1.569  1.00  0.00     0.148 C 
ATOM      9  O   UNL     1       1.929   0.697   0.730  1.00  0.00    -0.275 OA
ATOM     10  C   UNL     1       2.844   0.444  -0.049  1.00  0.00     0.226 C 
ATOM     11  C   UNL     1       3.386  -0.949  -0.233  1.00  0.00     0.121 C 
ATOM     12  N   UNL     1       3.522   1.428  -0.696  1.00  0.00    -0.310 N 
ATOM     13  C   UNL     1       4.437   1.238  -1.680  1.00  0.00     0.146 A 
ATOM     14  H   UNL     1       3.333   2.356  -0.428  1.00  0.00     0.171 HD
ATOM     15  C   UNL     1       4.683   0.020  -2.163  1.00  0.00     0.075 A 
ATOM     16  N   UNL     1       4.994   2.382  -2.131  1.00  0.00    -0.196 NA
ATOM     17  C   UNL     1       5.506  -0.016  -3.385  1.00  0.00     0.258 A 
ATOM     18  C   UNL     1       5.864   2.317  -3.091  1.00  0.00     0.209 A 
ATOM     19  N   UNL     1       6.172   1.130  -3.681  1.00  0.00    -0.292 N 
ATOM     20  O   UNL     1       5.553  -0.976  -4.140  1.00  0.00    -0.269 OA
ATOM     21  H   UNL     1       6.900   1.102  -4.344  1.00  0.00     0.173 HD
BRANCH  18  22
ATOM     22  N   UNL     1       6.481   3.428  -3.600  1.00  0.00    -0.326 N 
ATOM     23  H   UNL     1       7.123   3.336  -4.340  1.00  0.00     0.170 HD
BRANCH  22  24
ATOM     24  C   UNL     1       6.201   4.699  -3.073  1.00  0.00     0.041 A 
ATOM     25  C   UNL     1       5.533   5.645  -3.855  1.00  0.00     0.030 A 
ATOM     26  C   UNL     1       6.371   4.943  -1.705  1.00  0.00     0.030 A 
ATOM     27  C   UNL     1       5.042   6.818  -3.275  1.00  0.00     0.049 A 
ATOM     28  C   UNL     1       5.875   6.103  -1.124  1.00  0.00     0.049 A 
ATOM     29  C   UNL     1       5.222   7.055  -1.911  1.00  0.00     0.127 A 
BRANCH  29  30
ATOM     30  O   UNL     1       4.686   8.232  -1.421  1.00  0.00    -0.457 OA
BRANCH  30  31
ATOM     31  C   UNL     1       5.100   8.615  -0.168  1.00  0.00     0.127 A 
ATOM     32  C   UNL     1       4.178   8.573   0.876  1.00  0.00     0.047 A 
ATOM     33  C   UNL     1       6.427   8.990   0.060  1.00  0.00     0.047 A 
ATOM     34  C   UNL     1       4.607   8.841   2.175  1.00  0.00     0.004 A 
ATOM     35  C   UNL     1       6.853   9.243   1.361  1.00  0.00     0.004 A 
ATOM     36  C   UNL     1       5.945   9.160   2.418  1.00  0.00     0.000 A 
ENDBRANCH  30  31
ENDBRANCH  29  30
ENDBRANCH  22  24
ENDBRANCH  18  22
ENDBRANCH   6   8
ENDBRANCH   5   6
ENDBRANCH   4   5
ENDBRANCH   3   4
ENDBRANCH   2   3
ENDBRANCH   1   2
BRANCH   1  37
ATOM     37  C   UNL     1       4.103  -4.034   1.133  1.00  0.00     0.188 C 
BRANCH  37  38
ATOM     38  O   UNL     1       5.022  -3.854   2.174  1.00  0.00    -0.376 OA
BRANCH  38  39
ATOM     39  C   UNL     1       4.886  -4.596   3.366  1.00  0.00     0.202 C 
BRANCH  39  40
ATOM     40  C   UNL     1       4.158  -5.952   3.472  1.00  0.00     0.261 C 
BRANCH  40  41
ATOM     41  O   UNL     1       3.289  -6.353   2.407  1.00  0.00    -0.460 OA
BRANCH  41  42
ATOM     42  C   UNL     1       1.985  -5.985   2.496  1.00  0.00     0.338 C 
ATOM     43  O   UNL     1       1.474  -5.324   3.372  1.00  0.00    -0.246 OA
BRANCH  42  44
ATOM     44  C   UNL     1       1.329  -6.342   1.213  1.00  0.00     0.060 A 
ATOM     45  C   UNL     1       0.910  -5.320   0.347  1.00  0.00     0.016 A 
ATOM     46  C   UNL     1       1.125  -7.679   0.874  1.00  0.00     0.016 A 
ATOM     47  C   UNL     1       0.271  -5.633  -0.855  1.00  0.00     0.010 A 
ATOM     48  C   UNL     1       0.445  -7.990  -0.308  1.00  0.00     0.010 A 
ATOM     49  C   UNL     1      -0.011  -6.970  -1.161  1.00  0.00    -0.014 A 
BRANCH  49  50
ATOM     50  C   UNL     1      -0.990  -7.295  -2.226  1.00  0.00     0.031 A 
ATOM     51  C   UNL     1      -2.440  -7.401  -1.836  1.00  0.00     0.074 A 
ATOM     52  C   UNL     1      -0.616  -7.526  -3.497  1.00  0.00     0.049 A 
ATOM     53  N   UNL     1      -3.465  -7.777  -2.553  1.00  0.00    -0.248 NA
ATOM     54  C   UNL     1      -2.778  -7.033  -0.449  1.00  0.00     0.031 C 
ATOM     55  C   UNL     1       0.746  -7.421  -4.015  1.00  0.00     0.029 A 
ATOM     56  N   UNL     1      -1.361  -7.928  -4.580  1.00  0.00    -0.354 N 
ATOM     57  C   UNL     1      -4.560  -7.719  -1.702  1.00  0.00     0.074 A 
ATOM     58  C   UNL     1      -4.082  -7.265  -0.416  1.00  0.00     0.031 C 
ATOM     59  C   UNL     1       0.747  -7.785  -5.310  1.00  0.00     0.029 A 
ATOM     60  C   UNL     1      -0.608  -8.175  -5.703  1.00  0.00     0.049 A 
ATOM     61  H   UNL     1      -2.340  -8.029  -4.554  1.00  0.00     0.167 HD
ATOM     62  C   UNL     1      -5.853  -8.012  -1.967  1.00  0.00     0.034 A 
ATOM     63  C   UNL     1      -0.966  -8.683  -6.901  1.00  0.00     0.034 A 
ATOM     64  C   UNL     1      -6.338  -8.453  -3.243  1.00  0.00     0.049 A 
ATOM     65  C   UNL     1      -2.405  -9.051  -7.158  1.00  0.00     0.074 A 
ATOM     66  C   UNL     1      -7.640  -8.746  -3.607  1.00  0.00     0.029 A 
ATOM     67  N   UNL     1      -5.547  -8.675  -4.356  1.00  0.00    -0.354 N 
ATOM     68  N   UNL     1      -3.442  -8.925  -6.366  1.00  0.00    -0.248 NA
ATOM     69  C   UNL     1      -2.728  -9.614  -8.480  1.00  0.00     0.031 C 
ATOM     70  C   UNL     1      -7.634  -9.166  -4.939  1.00  0.00     0.029 A 
ATOM     71  C   UNL     1      -6.331  -9.111  -5.408  1.00  0.00     0.049 A 
ATOM     72  H   UNL     1      -4.572  -8.543  -4.394  1.00  0.00     0.167 HD
ATOM     73  C   UNL     1      -4.540  -9.368  -7.098  1.00  0.00     0.074 A 
ATOM     74  C   UNL     1      -4.045  -9.756  -8.402  1.00  0.00     0.031 C 
ATOM     75  C   UNL     1      -5.838  -9.452  -6.717  1.00  0.00     0.034 A 
BRANCH  62  76
ATOM     76  C   UNL     1      -6.853  -7.840  -0.861  1.00  0.00     0.023 A 
ATOM     77  C   UNL     1      -7.322  -6.550  -0.550  1.00  0.00     0.012 A 
ATOM     78  C   UNL     1      -7.397  -8.960  -0.204  1.00  0.00     0.148 A 
ATOM     79  C   UNL     1      -8.323  -6.374   0.404  1.00  0.00     0.002 A 
ATOM     80  C   UNL     1      -8.415  -8.780   0.723  1.00  0.00     0.091 A 
ATOM     81  F   UNL     1      -6.917 -10.174  -0.509  1.00  0.00    -0.205 F 
ATOM     82  C   UNL     1      -8.877  -7.489   1.030  1.00  0.00     0.022 A 
BRANCH  80  83
ATOM     83  S   UNL     1      -9.232 -10.149   1.549  1.00  0.00     0.127 S 
ATOM     84  O   UNL     1      -8.887  -9.897   2.948  1.00  0.00    -0.237 OA
ATOM     85  O   UNL     1     -10.635  -9.914   1.214  1.00  0.00    -0.237 OA
ATOM     86  O   UNL     1      -8.659 -11.363   0.984  1.00  0.00    -0.744 OA
ENDBRANCH  80  83
ENDBRANCH  62  76
BRANCH  63  87
ATOM     87  C   UNL     1       0.062  -8.847  -7.965  1.00  0.00     0.023 A 
ATOM     88  C   UNL     1       0.078  -7.950  -9.049  1.00  0.00     0.012 A 
ATOM     89  C   UNL     1       1.041  -9.857  -7.888  1.00  0.00     0.148 A 
ATOM     90  C   UNL     1       1.051  -8.056 -10.043  1.00  0.00     0.002 A 
ATOM     91  C   UNL     1       2.028  -9.936  -8.864  1.00  0.00     0.091 A 
ATOM     92  F   UNL     1       0.996 -10.705  -6.851  1.00  0.00    -0.205 F 
ATOM     93  C   UNL     1       2.031  -9.042  -9.946  1.00  0.00     0.022 A 
BRANCH  91  94
ATOM     94  S   UNL     1       3.377 -11.121  -8.791  1.00  0.00     0.127 S 
ATOM     95  O   UNL     1       3.163 -11.893 -10.013  1.00  0.00    -0.237 OA
ATOM     96  O   UNL     1       4.546 -10.243  -8.815  1.00  0.00    -0.237 OA
ATOM     97  O   UNL     1       3.193 -11.859  -7.549  1.00  0.00    -0.744 OA
ENDBRANCH  91  94
ENDBRANCH  63  87
BRANCH  75  98
ATOM     98  C   UNL     1      -6.846  -9.964  -7.709  1.00  0.00     0.023 A 
ATOM     99  C   UNL     1      -6.943 -11.348  -7.947  1.00  0.00     0.012 A 
ATOM    100  C   UNL     1      -7.788  -9.091  -8.291  1.00  0.00     0.148 A 
ATOM    101  C   UNL     1      -7.959 -11.856  -8.757  1.00  0.00     0.002 A 
ATOM    102  C   UNL     1      -8.817  -9.607  -9.069  1.00  0.00     0.091 A 
ATOM    103  F   UNL     1      -7.673  -7.777  -8.048  1.00  0.00    -0.205 F 
ATOM    104  C   UNL     1      -8.901 -10.988  -9.307  1.00  0.00     0.022 A 
BRANCH 102 105
ATOM    105  S   UNL     1     -10.119  -8.581  -9.761  1.00  0.00     0.127 S 
ATOM    106  O   UNL     1      -9.860  -8.700 -11.196  1.00  0.00    -0.237 OA
ATOM    107  O   UNL     1     -11.328  -9.263  -9.301  1.00  0.00    -0.237 OA
ATOM    108  O   UNL     1      -9.924  -7.248  -9.207  1.00  0.00    -0.744 OA
ENDBRANCH 102 105
ENDBRANCH  75  98
ENDBRANCH  49  50
ENDBRANCH  42  44
ENDBRANCH  41  42
ENDBRANCH  40  41
ENDBRANCH  39  40
ENDBRANCH  38  39
ENDBRANCH  37  38
ENDBRANCH   1  37
TORSDOF 24
