REMARK SMILES Cc1cc(C(=O)NC[C@@H]2CC[C@H](C(=O)OCCOCCOCCOC(=O)c3ccc(-c4c5nc(c(-c6cccc(S(=O)(=O)[O-])c6F)c6ccc([nH]6)c(-c6cccc(S(=O)(=O)[O-])c6F)c6nc(c(-c7cccc(S(=O)(=O)[O-])c7F)c7ccc4[nH]7)C=C6)C=C5)cc3)O2)on1
REMARK SMILES IDX 19 1 18 2 17 3 16 4 15 5 13 6 14 7 12 8 9 9 10 10 90 11
REMARK SMILES IDX 11 12 8 13 7 14 5 15 6 16 4 18 1 19 2 20 3 21 92 22 91 23
REMARK SMILES IDX 20 24 21 25 22 26 23 27 24 28 25 29 26 30 27 31 28 32 89 33
REMARK SMILES IDX 29 34 88 35 30 36 31 37 32 38 82 39 33 40 87 41 81 42 83 43
REMARK SMILES IDX 34 44 86 45 80 46 79 47 35 49 67 50 47 51 66 52 48 53 51 54
REMARK SMILES IDX 65 55 84 56 49 57 50 58 64 60 85 61 52 62 36 63 37 64 45 65
REMARK SMILES IDX 38 66 40 67 46 68 39 69 41 70 42 71 43 72 44 73 68 74 69 75
REMARK SMILES IDX 77 76 70 77 72 78 78 79 71 80 73 81 74 82 75 83 76 84 53 85
REMARK SMILES IDX 54 86 62 87 55 88 57 89 63 90 56 91 58 92 59 93 60 94 61 95
REMARK H PARENT 7 17 83 48 51 59
REMARK Flexibility Score: inf
ROOT
ATOM      1  C   UNL     1      -1.693  -9.998   0.077  1.00  0.00     0.188 C 
ENDROOT
BRANCH   1   2
ATOM      2  O   UNL     1      -1.884 -10.329  -1.293  1.00  0.00    -0.376 OA
BRANCH   2   3
ATOM      3  C   UNL     1      -1.453  -9.374  -2.264  1.00  0.00     0.202 C 
BRANCH   3   4
ATOM      4  C   UNL     1      -1.869  -7.909  -2.047  1.00  0.00     0.261 C 
BRANCH   4   5
ATOM      5  O   UNL     1      -1.356  -7.335  -0.821  1.00  0.00    -0.461 OA
BRANCH   5   6
ATOM      6  C   UNL     1      -2.269  -6.726  -0.019  1.00  0.00     0.335 C 
ATOM      7  O   UNL     1      -3.433  -6.516  -0.347  1.00  0.00    -0.249 OA
BRANCH   6   8
ATOM      8  C   UNL     1      -1.705  -6.306   1.352  1.00  0.00     0.228 C 
ATOM      9  C   UNL     1      -1.084  -4.088   1.084  1.00  0.00     0.138 C 
ATOM     10  C   UNL     1       0.195  -4.911   1.023  1.00  0.00     0.037 C 
ATOM     11  O   UNL     1      -2.110  -4.950   1.613  1.00  0.00    -0.361 OA
ATOM     12  C   UNL     1      -0.206  -6.258   1.571  1.00  0.00     0.047 C 
BRANCH   9  13
ATOM     13  C   UNL     1      -1.498  -3.577  -0.307  1.00  0.00     0.148 C 
BRANCH  13  14
ATOM     14  N   UNL     1      -2.545  -2.584  -0.205  1.00  0.00    -0.347 N 
ATOM     15  C   UNL     1      -2.468  -1.220  -0.078  1.00  0.00     0.289 C 
ATOM     16  O   UNL     1      -3.540  -0.613  -0.034  1.00  0.00    -0.266 OA
ATOM     17  H   UNL     1      -3.460  -2.946  -0.232  1.00  0.00     0.164 HD
BRANCH  15  18
ATOM     18  C   UNL     1      -1.185  -0.550  -0.027  1.00  0.00     0.224 A 
ATOM     19  C   UNL     1       2.345   0.430   0.071  1.00  0.00     0.070 C 
ATOM     20  C   UNL     1       0.877   0.266   0.021  1.00  0.00     0.081 A 
ATOM     21  C   UNL     1       0.128  -0.920   0.172  1.00  0.00     0.083 A 
ATOM     22  N   UNL     1       0.080   1.314  -0.197  1.00  0.00    -0.084 NA
ATOM     23  O   UNL     1      -1.207   0.807  -0.213  1.00  0.00    -0.351 OA
ENDBRANCH  15  18
ENDBRANCH  13  14
ENDBRANCH   9  13
ENDBRANCH   6   8
ENDBRANCH   5   6
ENDBRANCH   4   5
ENDBRANCH   3   4
ENDBRANCH   2   3
ENDBRANCH   1   2
BRANCH   1  24
ATOM     24  C   UNL     1      -0.244  -9.761   0.517  1.00  0.00     0.188 C 
BRANCH  24  25
ATOM     25  O   UNL     1       0.591  -9.236  -0.498  1.00  0.00    -0.376 OA
BRANCH  25  26
ATOM     26  C   UNL     1       1.938  -9.682  -0.615  1.00  0.00     0.202 C 
BRANCH  26  27
ATOM     27  C   UNL     1       2.249 -11.197  -0.612  1.00  0.00     0.261 C 
BRANCH  27  28
ATOM     28  O   UNL     1       1.782 -11.963   0.513  1.00  0.00    -0.460 OA
BRANCH  28  29
ATOM     29  C   UNL     1       2.144 -11.532   1.748  1.00  0.00     0.338 C 
ATOM     30  O   UNL     1       2.999 -10.706   1.998  1.00  0.00    -0.246 OA
BRANCH  29  31
ATOM     31  C   UNL     1       1.113 -12.001   2.721  1.00  0.00     0.060 A 
ATOM     32  C   UNL     1       0.621 -11.068   3.647  1.00  0.00     0.016 A 
ATOM     33  C   UNL     1       0.569 -13.288   2.676  1.00  0.00     0.016 A 
ATOM     34  C   UNL     1      -0.352 -11.442   4.578  1.00  0.00     0.010 A 
ATOM     35  C   UNL     1      -0.398 -13.666   3.618  1.00  0.00     0.010 A 
ATOM     36  C   UNL     1      -0.821 -12.761   4.610  1.00  0.00    -0.014 A 
BRANCH  36  37
ATOM     37  C   UNL     1      -1.521 -13.251   5.827  1.00  0.00     0.031 A 
ATOM     38  C   UNL     1      -0.701 -13.991   6.855  1.00  0.00     0.074 A 
ATOM     39  C   UNL     1      -2.829 -13.027   6.054  1.00  0.00     0.049 A 
ATOM     40  N   UNL     1      -1.065 -14.506   8.000  1.00  0.00    -0.248 NA
ATOM     41  C   UNL     1       0.728 -14.174   6.543  1.00  0.00     0.031 C 
ATOM     42  C   UNL     1      -3.739 -12.318   5.158  1.00  0.00     0.029 A 
ATOM     43  N   UNL     1      -3.620 -13.395   7.116  1.00  0.00    -0.354 N 
ATOM     44  C   UNL     1       0.078 -15.096   8.529  1.00  0.00     0.074 A 
ATOM     45  C   UNL     1       1.142 -14.895   7.572  1.00  0.00     0.031 C 
ATOM     46  C   UNL     1      -4.972 -12.322   5.698  1.00  0.00     0.029 A 
ATOM     47  C   UNL     1      -4.943 -13.049   6.968  1.00  0.00     0.049 A 
ATOM     48  H   UNL     1      -3.273 -13.864   7.909  1.00  0.00     0.167 HD
ATOM     49  C   UNL     1       0.240 -15.734   9.712  1.00  0.00     0.034 A 
ATOM     50  C   UNL     1      -6.008 -13.303   7.757  1.00  0.00     0.034 A 
ATOM     51  C   UNL     1      -0.808 -15.927  10.675  1.00  0.00     0.049 A 
ATOM     52  C   UNL     1      -5.809 -14.041   9.059  1.00  0.00     0.074 A 
ATOM     53  C   UNL     1      -0.733 -16.531  11.917  1.00  0.00     0.029 A 
ATOM     54  N   UNL     1      -2.125 -15.534  10.499  1.00  0.00    -0.354 N 
ATOM     55  N   UNL     1      -4.702 -14.499   9.593  1.00  0.00    -0.248 NA
ATOM     56  C   UNL     1      -7.005 -14.262   9.888  1.00  0.00     0.031 C 
ATOM     57  C   UNL     1      -2.014 -16.535  12.479  1.00  0.00     0.029 A 
ATOM     58  C   UNL     1      -2.876 -15.890  11.607  1.00  0.00     0.049 A 
ATOM     59  H   UNL     1      -2.475 -15.071   9.705  1.00  0.00     0.167 HD
ATOM     60  C   UNL     1      -5.059 -15.017  10.835  1.00  0.00     0.074 A 
ATOM     61  C   UNL     1      -6.483 -14.801  10.982  1.00  0.00     0.031 C 
ATOM     62  C   UNL     1      -4.282 -15.622  11.768  1.00  0.00     0.034 A 
BRANCH  49  63
ATOM     63  C   UNL     1       1.614 -16.261  10.032  1.00  0.00     0.023 A 
ATOM     64  C   UNL     1       2.659 -15.363  10.332  1.00  0.00     0.012 A 
ATOM     65  C   UNL     1       1.861 -17.646  10.070  1.00  0.00     0.148 A 
ATOM     66  C   UNL     1       3.938 -15.834  10.627  1.00  0.00     0.002 A 
ATOM     67  C   UNL     1       3.125 -18.110  10.414  1.00  0.00     0.091 A 
ATOM     68  F   UNL     1       0.862 -18.483   9.756  1.00  0.00    -0.205 F 
ATOM     69  C   UNL     1       4.167 -17.207  10.678  1.00  0.00     0.022 A 
BRANCH  67  70
ATOM     70  S   UNL     1       3.500 -19.857  10.587  1.00  0.00     0.127 S 
ATOM     71  O   UNL     1       4.383 -20.083   9.444  1.00  0.00    -0.237 OA
ATOM     72  O   UNL     1       4.165 -19.900  11.889  1.00  0.00    -0.237 OA
ATOM     73  O   UNL     1       2.221 -20.551  10.533  1.00  0.00    -0.744 OA
ENDBRANCH  67  70
ENDBRANCH  49  63
BRANCH  50  74
ATOM     74  C   UNL     1      -7.367 -12.831   7.363  1.00  0.00     0.023 A 
ATOM     75  C   UNL     1      -8.004 -11.824   8.114  1.00  0.00     0.012 A 
ATOM     76  C   UNL     1      -8.037 -13.388   6.256  1.00  0.00     0.148 A 
ATOM     77  C   UNL     1      -9.297 -11.406   7.794  1.00  0.00     0.002 A 
ATOM     78  C   UNL     1      -9.302 -12.927   5.909  1.00  0.00     0.091 A 
ATOM     79  F   UNL     1      -7.423 -14.358   5.566  1.00  0.00    -0.205 F 
ATOM     80  C   UNL     1      -9.942 -11.950   6.687  1.00  0.00     0.022 A 
BRANCH  78  81
ATOM     81  S   UNL     1     -10.161 -13.486   4.433  1.00  0.00     0.127 S 
ATOM     82  O   UNL     1     -11.289 -14.219   5.002  1.00  0.00    -0.237 OA
ATOM     83  O   UNL     1     -10.508 -12.217   3.793  1.00  0.00    -0.237 OA
ATOM     84  O   UNL     1      -9.195 -14.289   3.695  1.00  0.00    -0.744 OA
ENDBRANCH  78  81
ENDBRANCH  50  74
BRANCH  62  85
ATOM     85  C   UNL     1      -4.930 -16.041  13.065  1.00  0.00     0.023 A 
ATOM     86  C   UNL     1      -5.842 -17.114  13.092  1.00  0.00     0.012 A 
ATOM     87  C   UNL     1      -4.584 -15.402  14.273  1.00  0.00     0.148 A 
ATOM     88  C   UNL     1      -6.434 -17.513  14.291  1.00  0.00     0.002 A 
ATOM     89  C   UNL     1      -5.135 -15.840  15.471  1.00  0.00     0.091 A 
ATOM     90  F   UNL     1      -3.726 -14.372  14.229  1.00  0.00    -0.205 F 
ATOM     91  C   UNL     1      -6.073 -16.884  15.480  1.00  0.00     0.022 A 
BRANCH  89  92
ATOM     92  S   UNL     1      -4.649 -15.156  17.059  1.00  0.00     0.127 S 
ATOM     93  O   UNL     1      -5.819 -14.353  17.409  1.00  0.00    -0.237 OA
ATOM     94  O   UNL     1      -4.470 -16.359  17.874  1.00  0.00    -0.237 OA
ATOM     95  O   UNL     1      -3.424 -14.407  16.815  1.00  0.00    -0.744 OA
ENDBRANCH  89  92
ENDBRANCH  62  85
ENDBRANCH  36  37
ENDBRANCH  29  31
ENDBRANCH  28  29
ENDBRANCH  27  28
ENDBRANCH  26  27
ENDBRANCH  25  26
ENDBRANCH  24  25
ENDBRANCH   1  24
TORSDOF 23
