REMARK SMILES COc1ccc2c(c1)c(CC(=O)OCCOCCOCCOC(=O)c1ccc(-c3c4nc(c(-c5cccc(S(=O)(=O)[O-])c5F)c5ccc([nH]5)c(-c5cccc(S(=O)(=O)[O-])c5F)c5nc(c(-c6cccc(S(=O)(=O)[O-])c6F)c6ccc3[nH]6)C=C5)C=C4)cc1)c(C)n2Cc1ccn(C(F)F)c(=O)c1
REMARK SMILES IDX 17 1 16 2 15 3 14 4 13 5 11 6 12 7 10 8 9 9 3 10 4 11 8 12
REMARK SMILES IDX 5 13 7 14 6 15 90 16 88 17 89 18 2 19 1 20 91 21 92 22 93 23
REMARK SMILES IDX 101 24 94 25 99 26 95 27 100 28 96 29 97 30 98 31 18 32
REMARK SMILES IDX 19 33 20 34 21 35 22 36 23 37 24 38 25 39 26 40 87 41 27 42
REMARK SMILES IDX 86 43 28 44 29 45 30 46 80 47 31 48 85 49 79 50 81 51 32 52
REMARK SMILES IDX 84 53 78 54 77 55 33 57 65 58 45 59 64 60 46 61 49 62 63 63
REMARK SMILES IDX 82 64 47 65 48 66 62 68 83 69 50 70 34 71 35 72 43 73 36 74
REMARK SMILES IDX 38 75 44 76 37 77 39 78 40 79 41 80 42 81 66 82 67 83 75 84
REMARK SMILES IDX 68 85 70 86 76 87 69 88 71 89 72 90 73 91 74 92 51 93 52 94
REMARK SMILES IDX 60 95 53 96 55 97 61 98 54 99 56 100 57 101 58 102 59 103
REMARK H PARENT 81 56 49 67
REMARK Flexibility Score: inf
ROOT
ATOM      1  C   UNL     1      -2.249  -2.106  -5.174  1.00  0.00     0.188 C 
ENDROOT
BRANCH   1   2
ATOM      2  O   UNL     1      -2.579  -3.047  -6.181  1.00  0.00    -0.376 OA
BRANCH   2   3
ATOM      3  C   UNL     1      -1.880  -2.971  -7.418  1.00  0.00     0.202 C 
BRANCH   3   4
ATOM      4  C   UNL     1      -1.863  -1.601  -8.106  1.00  0.00     0.261 C 
BRANCH   4   5
ATOM      5  O   UNL     1      -0.949  -0.725  -7.418  1.00  0.00    -0.463 OA
BRANCH   5   6
ATOM      6  C   UNL     1      -1.215   0.606  -7.492  1.00  0.00     0.310 C 
ATOM      7  O   UNL     1      -1.888   1.094  -8.394  1.00  0.00    -0.252 OA
BRANCH   6   8
ATOM      8  C   UNL     1      -0.800   1.345  -6.225  1.00  0.00     0.160 C 
BRANCH   8   9
ATOM      9  C   UNL     1       0.610   1.773  -6.038  1.00  0.00    -0.008 A 
ATOM     10  C   UNL     1       2.453   0.815  -2.808  1.00  0.00     0.119 A 
ATOM     11  C   UNL     1       3.556   1.629  -3.003  1.00  0.00     0.048 A 
ATOM     12  C   UNL     1       1.463   0.726  -3.788  1.00  0.00     0.057 A 
ATOM     13  C   UNL     1       3.671   2.390  -4.174  1.00  0.00     0.031 A 
ATOM     14  C   UNL     1       1.511   1.518  -4.952  1.00  0.00     0.007 A 
ATOM     15  C   UNL     1       2.630   2.338  -5.124  1.00  0.00     0.049 A 
ATOM     16  N   UNL     1       2.450   2.993  -6.330  1.00  0.00    -0.340 N 
ATOM     17  C   UNL     1       1.157   2.815  -6.761  1.00  0.00     0.020 A 
ATOM     18  C   UNL     1       0.474   3.655  -7.789  1.00  0.00     0.065 C 
BRANCH  10  19
ATOM     19  O   UNL     1       2.319   0.032  -1.692  1.00  0.00    -0.497 OA
ATOM     20  C   UNL     1       2.094   0.812  -0.514  1.00  0.00     0.278 C 
ENDBRANCH  10  19
BRANCH  16  21
ATOM     21  C   UNL     1       3.500   3.643  -7.112  1.00  0.00     0.158 C 
BRANCH  21  22
ATOM     22  C   UNL     1       3.792   2.793  -8.334  1.00  0.00    -0.021 A 
ATOM     23  C   UNL     1       3.078   3.094  -9.557  1.00  0.00     0.024 A 
ATOM     24  C   UNL     1       4.551   1.685  -8.275  1.00  0.00     0.077 A 
ATOM     25  C   UNL     1       2.990   2.179 -10.527  1.00  0.00     0.095 A 
ATOM     26  C   UNL     1       4.575   0.721  -9.413  1.00  0.00     0.255 A 
ATOM     27  N   UNL     1       3.687   0.988 -10.444  1.00  0.00    -0.258 N 
ATOM     28  O   UNL     1       5.334  -0.242  -9.354  1.00  0.00    -0.269 OA
BRANCH  27  29
ATOM     29  C   UNL     1       3.576   0.019 -11.498  1.00  0.00     0.451 C 
ATOM     30  F   UNL     1       4.697   0.007 -12.263  1.00  0.00    -0.185 F 
ATOM     31  F   UNL     1       3.392  -1.236 -11.017  1.00  0.00    -0.185 F 
ENDBRANCH  27  29
ENDBRANCH  21  22
ENDBRANCH  16  21
ENDBRANCH   8   9
ENDBRANCH   6   8
ENDBRANCH   5   6
ENDBRANCH   4   5
ENDBRANCH   3   4
ENDBRANCH   2   3
ENDBRANCH   1   2
BRANCH   1  32
ATOM     32  C   UNL     1      -0.770  -1.844  -4.848  1.00  0.00     0.188 C 
BRANCH  32  33
ATOM     33  O   UNL     1       0.194  -2.846  -5.080  1.00  0.00    -0.376 OA
BRANCH  33  34
ATOM     34  C   UNL     1       0.137  -3.988  -4.244  1.00  0.00     0.202 C 
BRANCH  34  35
ATOM     35  C   UNL     1       0.028  -3.718  -2.732  1.00  0.00     0.261 C 
BRANCH  35  36
ATOM     36  O   UNL     1      -1.263  -3.154  -2.400  1.00  0.00    -0.460 OA
BRANCH  36  37
ATOM     37  C   UNL     1      -1.253  -2.318  -1.317  1.00  0.00     0.338 C 
ATOM     38  O   UNL     1      -0.493  -2.380  -0.381  1.00  0.00    -0.246 OA
BRANCH  37  39
ATOM     39  C   UNL     1      -2.042  -1.101  -1.680  1.00  0.00     0.060 A 
ATOM     40  C   UNL     1      -3.375  -1.103  -2.095  1.00  0.00     0.016 A 
ATOM     41  C   UNL     1      -1.300   0.075  -1.786  1.00  0.00     0.016 A 
ATOM     42  C   UNL     1      -3.933   0.059  -2.672  1.00  0.00     0.010 A 
ATOM     43  C   UNL     1      -1.825   1.197  -2.422  1.00  0.00     0.010 A 
ATOM     44  C   UNL     1      -3.146   1.201  -2.882  1.00  0.00    -0.014 A 
BRANCH  44  45
ATOM     45  C   UNL     1      -3.688   2.507  -3.291  1.00  0.00     0.031 A 
ATOM     46  C   UNL     1      -4.196   3.317  -2.171  1.00  0.00     0.074 A 
ATOM     47  C   UNL     1      -3.770   3.094  -4.505  1.00  0.00     0.049 A 
ATOM     48  N   UNL     1      -5.456   3.420  -1.904  1.00  0.00    -0.248 NA
ATOM     49  C   UNL     1      -3.304   3.991  -1.231  1.00  0.00     0.031 C 
ATOM     50  C   UNL     1      -3.562   2.512  -5.820  1.00  0.00     0.029 A 
ATOM     51  N   UNL     1      -4.022   4.413  -4.804  1.00  0.00    -0.354 N 
ATOM     52  C   UNL     1      -5.542   4.346  -0.888  1.00  0.00     0.074 A 
ATOM     53  C   UNL     1      -4.194   4.552  -0.406  1.00  0.00     0.031 C 
ATOM     54  C   UNL     1      -3.463   3.492  -6.754  1.00  0.00     0.029 A 
ATOM     55  C   UNL     1      -3.719   4.773  -6.113  1.00  0.00     0.049 A 
ATOM     56  H   UNL     1      -4.386   5.050  -4.146  1.00  0.00     0.167 HD
ATOM     57  C   UNL     1      -6.692   5.026  -0.652  1.00  0.00     0.034 A 
ATOM     58  C   UNL     1      -4.077   5.897  -6.778  1.00  0.00     0.034 A 
ATOM     59  C   UNL     1      -7.801   4.559  -1.444  1.00  0.00     0.049 A 
ATOM     60  C   UNL     1      -5.433   6.225  -6.296  1.00  0.00     0.074 A 
ATOM     61  C   UNL     1      -8.507   3.378  -1.556  1.00  0.00     0.029 A 
ATOM     62  N   UNL     1      -8.087   5.288  -2.574  1.00  0.00    -0.354 N 
ATOM     63  N   UNL     1      -6.487   5.498  -6.547  1.00  0.00    -0.248 NA
ATOM     64  C   UNL     1      -5.601   7.238  -5.269  1.00  0.00     0.031 C 
ATOM     65  C   UNL     1      -8.907   3.292  -2.924  1.00  0.00     0.029 A 
ATOM     66  C   UNL     1      -8.424   4.422  -3.586  1.00  0.00     0.049 A 
ATOM     67  H   UNL     1      -8.055   6.269  -2.646  1.00  0.00     0.167 HD
ATOM     68  C   UNL     1      -7.285   5.654  -5.425  1.00  0.00     0.074 A 
ATOM     69  C   UNL     1      -6.778   6.853  -4.771  1.00  0.00     0.031 C 
ATOM     70  C   UNL     1      -8.086   4.642  -4.981  1.00  0.00     0.034 A 
BRANCH  57  71
ATOM     71  C   UNL     1      -6.733   6.317   0.094  1.00  0.00     0.023 A 
ATOM     72  C   UNL     1      -7.900   6.649   0.803  1.00  0.00     0.012 A 
ATOM     73  C   UNL     1      -5.716   7.289  -0.007  1.00  0.00     0.148 A 
ATOM     74  C   UNL     1      -8.030   7.892   1.429  1.00  0.00     0.002 A 
ATOM     75  C   UNL     1      -5.814   8.487   0.685  1.00  0.00     0.091 A 
ATOM     76  F   UNL     1      -4.698   7.090  -0.857  1.00  0.00    -0.205 F 
ATOM     77  C   UNL     1      -6.975   8.800   1.396  1.00  0.00     0.022 A 
BRANCH  75  78
ATOM     78  S   UNL     1      -4.436   9.634   0.739  1.00  0.00     0.127 S 
ATOM     79  O   UNL     1      -4.816  10.604  -0.282  1.00  0.00    -0.237 OA
ATOM     80  O   UNL     1      -4.498  10.125   2.117  1.00  0.00    -0.237 OA
ATOM     81  O   UNL     1      -3.262   8.817   0.455  1.00  0.00    -0.744 OA
ENDBRANCH  75  78
ENDBRANCH  57  71
BRANCH  58  82
ATOM     82  C   UNL     1      -3.281   6.796  -7.656  1.00  0.00     0.023 A 
ATOM     83  C   UNL     1      -3.952   7.723  -8.482  1.00  0.00     0.012 A 
ATOM     84  C   UNL     1      -1.875   6.917  -7.546  1.00  0.00     0.148 A 
ATOM     85  C   UNL     1      -3.263   8.741  -9.154  1.00  0.00     0.002 A 
ATOM     86  C   UNL     1      -1.186   7.918  -8.240  1.00  0.00     0.091 A 
ATOM     87  F   UNL     1      -1.226   6.112  -6.694  1.00  0.00    -0.205 F 
ATOM     88  C   UNL     1      -1.882   8.839  -9.034  1.00  0.00     0.022 A 
BRANCH  86  89
ATOM     89  S   UNL     1       0.606   8.109  -8.170  1.00  0.00     0.127 S 
ATOM     90  O   UNL     1       0.946   8.365  -9.571  1.00  0.00    -0.237 OA
ATOM     91  O   UNL     1       0.765   9.256  -7.282  1.00  0.00    -0.237 OA
ATOM     92  O   UNL     1       1.124   6.844  -7.667  1.00  0.00    -0.744 OA
ENDBRANCH  86  89
ENDBRANCH  58  82
BRANCH  70  93
ATOM     93  C   UNL     1      -8.355   3.502  -5.938  1.00  0.00     0.023 A 
ATOM     94  C   UNL     1      -7.329   2.612  -6.310  1.00  0.00     0.012 A 
ATOM     95  C   UNL     1      -9.667   3.232  -6.361  1.00  0.00     0.148 A 
ATOM     96  C   UNL     1      -7.588   1.494  -7.106  1.00  0.00     0.002 A 
ATOM     97  C   UNL     1      -9.932   2.095  -7.122  1.00  0.00     0.091 A 
ATOM     98  F   UNL     1     -10.640   4.080  -5.996  1.00  0.00    -0.205 F 
ATOM     99  C   UNL     1      -8.893   1.228  -7.503  1.00  0.00     0.022 A 
BRANCH  97 100
ATOM    100  S   UNL     1     -11.603   1.616  -7.575  1.00  0.00     0.127 S 
ATOM    101  O   UNL     1     -11.634   1.919  -9.005  1.00  0.00    -0.237 OA
ATOM    102  O   UNL     1     -11.618   0.188  -7.253  1.00  0.00    -0.237 OA
ATOM    103  O   UNL     1     -12.489   2.422  -6.744  1.00  0.00    -0.744 OA
ENDBRANCH  97 100
ENDBRANCH  70  93
ENDBRANCH  44  45
ENDBRANCH  37  39
ENDBRANCH  36  37
ENDBRANCH  35  36
ENDBRANCH  34  35
ENDBRANCH  33  34
ENDBRANCH  32  33
ENDBRANCH   1  32
TORSDOF 25
