REMARK SMILES COc1cccc(-c2cccnc2C(=O)OCCOCCOCCOC(=O)c2ccc(-c3c4nc(c(-c5cccc(S(=O)(=O)[O-])c5F)c5ccc([nH]5)c(-c5cccc(S(=O)(=O)[O-])c5F)c5nc(c(-c6cccc(S(=O)(=O)[O-])c6F)c6ccc3[nH]6)C=C5)C=C4)cc2)c1F
REMARK SMILES IDX 21 1 20 2 19 3 18 4 17 5 16 6 14 7 15 8 13 9 8 10 9 11 10 12
REMARK SMILES IDX 12 13 11 14 7 15 3 16 4 17 91 18 5 19 92 20 6 21 2 22 1 23
REMARK SMILES IDX 22 24 23 25 24 26 25 27 26 28 27 29 28 30 29 31 90 32 30 33
REMARK SMILES IDX 89 34 31 35 32 36 33 37 83 38 34 39 88 40 82 41 84 42 35 43
REMARK SMILES IDX 87 44 81 45 80 46 36 48 68 49 48 50 67 51 49 52 52 53 66 54
REMARK SMILES IDX 85 55 50 56 51 57 65 59 86 60 53 61 37 62 38 63 46 64 39 65
REMARK SMILES IDX 41 66 47 67 40 68 42 69 43 70 44 71 45 72 69 73 70 74 78 75
REMARK SMILES IDX 71 76 73 77 79 78 72 79 74 80 75 81 76 82 77 83 54 84 55 85
REMARK SMILES IDX 63 86 56 87 58 88 64 89 57 90 59 91 60 92 61 93 62 94
REMARK H PARENT 84 47 52 58
REMARK Flexibility Score: inf
ROOT
ATOM      1  C   UNL     1       3.094   2.248  -4.420  1.00  0.00     0.188 C 
ENDROOT
BRANCH   1   2
ATOM      2  C   UNL     1       3.107   2.657  -5.911  1.00  0.00     0.188 C 
BRANCH   2   3
ATOM      3  O   UNL     1       1.900   3.040  -6.551  1.00  0.00    -0.376 OA
BRANCH   3   4
ATOM      4  C   UNL     1       0.849   2.090  -6.694  1.00  0.00     0.202 C 
BRANCH   4   5
ATOM      5  C   UNL     1       1.201   0.672  -7.130  1.00  0.00     0.261 C 
BRANCH   5   6
ATOM      6  O   UNL     1       2.068   0.057  -6.171  1.00  0.00    -0.458 OA
BRANCH   6   7
ATOM      7  C   UNL     1       2.879  -0.904  -6.677  1.00  0.00     0.357 C 
ATOM      8  O   UNL     1       2.785  -1.417  -7.781  1.00  0.00    -0.244 OA
BRANCH   7   9
ATOM      9  C   UNL     1       3.960  -1.205  -5.695  1.00  0.00     0.156 A 
ATOM     10  C   UNL     1       3.694  -1.664  -4.394  1.00  0.00     0.018 A 
ATOM     11  C   UNL     1       4.832  -1.920  -3.605  1.00  0.00     0.013 A 
ATOM     12  C   UNL     1       6.119  -1.685  -4.091  1.00  0.00     0.021 A 
ATOM     13  N   UNL     1       5.211  -0.970  -6.190  1.00  0.00    -0.249 NA
ATOM     14  C   UNL     1       6.256  -1.203  -5.376  1.00  0.00     0.112 A 
BRANCH  10  15
ATOM     15  C   UNL     1       2.337  -1.844  -3.830  1.00  0.00     0.024 A 
ATOM     16  C   UNL     1       0.707  -1.433  -2.035  1.00  0.00     0.155 A 
ATOM     17  C   UNL     1      -0.270  -2.096  -2.779  1.00  0.00     0.049 A 
ATOM     18  C   UNL     1       1.998  -1.314  -2.565  1.00  0.00     0.172 A 
ATOM     19  C   UNL     1       0.035  -2.631  -4.028  1.00  0.00     0.005 A 
ATOM     20  F   UNL     1       2.954  -0.694  -1.853  1.00  0.00    -0.202 F 
ATOM     21  C   UNL     1       1.329  -2.521  -4.540  1.00  0.00     0.012 A 
BRANCH  16  22
ATOM     22  O   UNL     1       0.275  -0.984  -0.815  1.00  0.00    -0.494 OA
ATOM     23  C   UNL     1       1.025   0.078  -0.233  1.00  0.00     0.278 C 
ENDBRANCH  16  22
ENDBRANCH  10  15
ENDBRANCH   7   9
ENDBRANCH   6   7
ENDBRANCH   5   6
ENDBRANCH   4   5
ENDBRANCH   3   4
ENDBRANCH   2   3
ENDBRANCH   1   2
BRANCH   1  24
ATOM     24  O   UNL     1       1.905   2.311  -3.649  1.00  0.00    -0.376 OA
BRANCH  24  25
ATOM     25  C   UNL     1       1.164   3.522  -3.615  1.00  0.00     0.202 C 
BRANCH  25  26
ATOM     26  C   UNL     1       1.847   4.823  -3.192  1.00  0.00     0.261 C 
BRANCH  26  27
ATOM     27  O   UNL     1       3.000   5.148  -3.979  1.00  0.00    -0.460 OA
BRANCH  27  28
ATOM     28  C   UNL     1       4.165   5.198  -3.290  1.00  0.00     0.338 C 
ATOM     29  O   UNL     1       4.324   5.027  -2.093  1.00  0.00    -0.246 OA
BRANCH  28  30
ATOM     30  C   UNL     1       5.290   5.316  -4.234  1.00  0.00     0.060 A 
ATOM     31  C   UNL     1       6.289   4.335  -4.191  1.00  0.00     0.016 A 
ATOM     32  C   UNL     1       5.391   6.400  -5.106  1.00  0.00     0.016 A 
ATOM     33  C   UNL     1       7.418   4.455  -4.999  1.00  0.00     0.010 A 
ATOM     34  C   UNL     1       6.533   6.530  -5.900  1.00  0.00     0.010 A 
ATOM     35  C   UNL     1       7.564   5.576  -5.826  1.00  0.00    -0.014 A 
BRANCH  35  36
ATOM     36  C   UNL     1       8.862   5.839  -6.487  1.00  0.00     0.031 A 
ATOM     37  C   UNL     1       9.849   6.741  -5.798  1.00  0.00     0.074 A 
ATOM     38  C   UNL     1       9.154   5.292  -7.681  1.00  0.00     0.049 A 
ATOM     39  N   UNL     1      11.018   7.152  -6.211  1.00  0.00    -0.248 NA
ATOM     40  C   UNL     1       9.471   7.242  -4.465  1.00  0.00     0.031 C 
ATOM     41  C   UNL     1       8.287   4.386  -8.431  1.00  0.00     0.029 A 
ATOM     42  N   UNL     1      10.260   5.441  -8.480  1.00  0.00    -0.354 N 
ATOM     43  C   UNL     1      11.508   7.972  -5.202  1.00  0.00     0.074 A 
ATOM     44  C   UNL     1      10.509   8.007  -4.157  1.00  0.00     0.031 C 
ATOM     45  C   UNL     1       8.882   4.080  -9.598  1.00  0.00     0.029 A 
ATOM     46  C   UNL     1      10.159   4.787  -9.685  1.00  0.00     0.049 A 
ATOM     47  H   UNL     1      11.049   5.967  -8.216  1.00  0.00     0.167 HD
ATOM     48  C   UNL     1      12.691   8.623  -5.144  1.00  0.00     0.034 A 
ATOM     49  C   UNL     1      10.997   4.777 -10.743  1.00  0.00     0.034 A 
ATOM     50  C   UNL     1      13.690   8.575  -6.175  1.00  0.00     0.049 A 
ATOM     51  C   UNL     1      12.289   5.552 -10.666  1.00  0.00     0.074 A 
ATOM     52  C   UNL     1      14.929   9.191  -6.196  1.00  0.00     0.029 A 
ATOM     53  N   UNL     1      13.567   7.876  -7.364  1.00  0.00    -0.354 N 
ATOM     54  N   UNL     1      12.782   6.241  -9.665  1.00  0.00    -0.248 NA
ATOM     55  C   UNL     1      13.154   5.527 -11.857  1.00  0.00     0.031 C 
ATOM     56  C   UNL     1      15.551   8.875  -7.406  1.00  0.00     0.029 A 
ATOM     57  C   UNL     1      14.706   8.048  -8.129  1.00  0.00     0.049 A 
ATOM     58  H   UNL     1      12.785   7.338  -7.626  1.00  0.00     0.167 HD
ATOM     59  C   UNL     1      14.026   6.697 -10.090  1.00  0.00     0.074 A 
ATOM     60  C   UNL     1      14.221   6.193 -11.433  1.00  0.00     0.031 C 
ATOM     61  C   UNL     1      14.918   7.478  -9.434  1.00  0.00     0.034 A 
BRANCH  48  62
ATOM     62  C   UNL     1      13.007   9.411  -3.904  1.00  0.00     0.023 A 
ATOM     63  C   UNL     1      13.423   8.726  -2.744  1.00  0.00     0.012 A 
ATOM     64  C   UNL     1      13.007  10.819  -3.919  1.00  0.00     0.148 A 
ATOM     65  C   UNL     1      13.831   9.433  -1.614  1.00  0.00     0.002 A 
ATOM     66  C   UNL     1      13.450  11.516  -2.802  1.00  0.00     0.091 A 
ATOM     67  F   UNL     1      12.591  11.444  -5.029  1.00  0.00    -0.205 F 
ATOM     68  C   UNL     1      13.857  10.825  -1.648  1.00  0.00     0.022 A 
BRANCH  66  69
ATOM     69  S   UNL     1      13.591  13.306  -2.763  1.00  0.00     0.127 S 
ATOM     70  O   UNL     1      12.627  13.655  -1.719  1.00  0.00    -0.237 OA
ATOM     71  O   UNL     1      14.992  13.493  -2.386  1.00  0.00    -0.237 OA
ATOM     72  O   UNL     1      13.247  13.769  -4.099  1.00  0.00    -0.744 OA
ENDBRANCH  66  69
ENDBRANCH  48  62
BRANCH  49  73
ATOM     73  C   UNL     1      10.667   3.973 -11.954  1.00  0.00     0.023 A 
ATOM     74  C   UNL     1      11.447   2.841 -12.262  1.00  0.00     0.012 A 
ATOM     75  C   UNL     1       9.596   4.318 -12.800  1.00  0.00     0.148 A 
ATOM     76  C   UNL     1      11.184   2.085 -13.405  1.00  0.00     0.002 A 
ATOM     77  C   UNL     1       9.307   3.530 -13.910  1.00  0.00     0.091 A 
ATOM     78  F   UNL     1       8.881   5.414 -12.509  1.00  0.00    -0.205 F 
ATOM     79  C   UNL     1      10.109   2.422 -14.223  1.00  0.00     0.022 A 
BRANCH  77  80
ATOM     80  S   UNL     1       7.871   3.829 -14.947  1.00  0.00     0.127 S 
ATOM     81  O   UNL     1       8.473   4.457 -16.119  1.00  0.00    -0.237 OA
ATOM     82  O   UNL     1       7.362   2.474 -15.166  1.00  0.00    -0.237 OA
ATOM     83  O   UNL     1       6.991   4.675 -14.152  1.00  0.00    -0.744 OA
ENDBRANCH  77  80
ENDBRANCH  49  73
BRANCH  61  84
ATOM     84  C   UNL     1      16.212   7.821 -10.125  1.00  0.00     0.023 A 
ATOM     85  C   UNL     1      16.215   8.778 -11.158  1.00  0.00     0.012 A 
ATOM     86  C   UNL     1      17.435   7.295  -9.664  1.00  0.00     0.148 A 
ATOM     87  C   UNL     1      17.415   9.196 -11.732  1.00  0.00     0.002 A 
ATOM     88  C   UNL     1      18.630   7.750 -10.209  1.00  0.00     0.091 A 
ATOM     89  F   UNL     1      17.408   6.374  -8.690  1.00  0.00    -0.205 F 
ATOM     90  C   UNL     1      18.621   8.694 -11.249  1.00  0.00     0.022 A 
BRANCH  88  91
ATOM     91  S   UNL     1      20.233   7.237  -9.578  1.00  0.00     0.127 S 
ATOM     92  O   UNL     1      20.700   6.348 -10.640  1.00  0.00    -0.237 OA
ATOM     93  O   UNL     1      20.953   8.508  -9.486  1.00  0.00    -0.237 OA
ATOM     94  O   UNL     1      19.973   6.598  -8.296  1.00  0.00    -0.744 OA
ENDBRANCH  88  91
ENDBRANCH  61  84
ENDBRANCH  35  36
ENDBRANCH  28  30
ENDBRANCH  27  28
ENDBRANCH  26  27
ENDBRANCH  25  26
ENDBRANCH  24  25
ENDBRANCH   1  24
TORSDOF 22
