REMARK SMILES Cc1c(Cl)cc2c(c1C)O[C@H](C(F)(F)F)C(C(=O)OCCOCCOCCOC(=O)c1ccc(-c3c4nc(c(-c5cccc(S(=O)(=O)[O-])c5F)c5ccc([nH]5)c(-c5cccc(S(=O)(=O)[O-])c5F)c5nc(c(-c6cccc(S(=O)(=O)[O-])c6F)c6ccc3[nH]6)C=C5)C=C4)cc1)=C2
REMARK SMILES IDX 24 1 23 2 22 3 21 4 20 5 19 6 17 7 18 8 16 9 1 10 2 11 3 12
REMARK SMILES IDX 8 13 4 14 5 15 7 16 9 17 6 18 10 19 94 20 11 21 12 22 13 23
REMARK SMILES IDX 14 24 15 25 25 26 26 27 27 28 28 29 29 30 30 31 31 32 32 33
REMARK SMILES IDX 93 34 33 35 92 36 34 37 35 38 36 39 86 40 37 41 91 42 85 43
REMARK SMILES IDX 87 44 38 45 90 46 84 47 83 48 39 50 71 51 51 52 70 53 52 54
REMARK SMILES IDX 55 55 69 56 88 57 53 58 54 59 68 61 89 62 56 63 40 64 41 65
REMARK SMILES IDX 49 66 42 67 44 68 50 69 43 70 45 71 46 72 47 73 48 74 72 75
REMARK SMILES IDX 73 76 81 77 74 78 76 79 82 80 75 81 77 82 78 83 79 84 80 85
REMARK SMILES IDX 57 86 58 87 66 88 59 89 61 90 67 91 60 92 62 93 63 94 64 95
REMARK SMILES IDX 65 96
REMARK H PARENT 87 49 55 60
REMARK Flexibility Score: inf
ROOT
ATOM      1  C   UNL     1      -3.839  -1.691  -6.892  1.00  0.00     0.188 C 
ENDROOT
BRANCH   1   2
ATOM      2  C   UNL     1      -3.507  -0.737  -8.059  1.00  0.00     0.188 C 
BRANCH   2   3
ATOM      3  O   UNL     1      -3.717  -1.341  -9.318  1.00  0.00    -0.376 OA
BRANCH   3   4
ATOM      4  C   UNL     1      -2.603  -1.719 -10.099  1.00  0.00     0.202 C 
BRANCH   4   5
ATOM      5  C   UNL     1      -1.455  -2.551  -9.501  1.00  0.00     0.261 C 
BRANCH   5   6
ATOM      6  O   UNL     1      -1.220  -2.408  -8.095  1.00  0.00    -0.460 OA
BRANCH   6   7
ATOM      7  C   UNL     1      -0.275  -1.520  -7.718  1.00  0.00     0.338 C 
ATOM      8  O   UNL     1       0.389  -0.806  -8.451  1.00  0.00    -0.246 OA
BRANCH   7   9
ATOM      9  C   UNL     1      -0.225  -1.479  -6.242  1.00  0.00     0.087 C 
ATOM     10  C   UNL     1       0.675  -0.010   0.047  1.00  0.00     0.046 C 
ATOM     11  C   UNL     1       0.332  -0.089  -1.421  1.00  0.00    -0.026 A 
ATOM     12  C   UNL     1       0.142   1.081  -2.184  1.00  0.00     0.045 A 
ATOM     13  C   UNL     1       0.277  -1.343  -2.081  1.00  0.00    -0.004 A 
ATOM     14  Cl  UNL     1       0.227   2.663  -1.488  1.00  0.00    -0.084 Cl
ATOM     15  C   UNL     1      -0.089   1.016  -3.561  1.00  0.00     0.032 A 
ATOM     16  C   UNL     1       0.014  -1.390  -3.470  1.00  0.00     0.131 A 
ATOM     17  C   UNL     1       0.487  -2.647  -1.349  1.00  0.00     0.049 C 
ATOM     18  C   UNL     1      -0.129  -0.216  -4.212  1.00  0.00     0.019 A 
ATOM     19  O   UNL     1      -0.080  -2.634  -4.032  1.00  0.00    -0.475 OA
ATOM     20  C   UNL     1      -0.244  -0.273  -5.661  1.00  0.00     0.027 C 
ATOM     21  C   UNL     1      -0.173  -2.772  -5.474  1.00  0.00     0.316 C 
BRANCH  21  22
ATOM     22  C   UNL     1       0.969  -3.690  -5.933  1.00  0.00     0.430 C 
ATOM     23  F   UNL     1       0.998  -4.836  -5.207  1.00  0.00    -0.167 F 
ATOM     24  F   UNL     1       0.833  -4.062  -7.228  1.00  0.00    -0.167 F 
ATOM     25  F   UNL     1       2.179  -3.102  -5.804  1.00  0.00    -0.167 F 
ENDBRANCH  21  22
ENDBRANCH   7   9
ENDBRANCH   6   7
ENDBRANCH   5   6
ENDBRANCH   4   5
ENDBRANCH   3   4
ENDBRANCH   2   3
ENDBRANCH   1   2
BRANCH   1  26
ATOM     26  O   UNL     1      -4.424  -2.962  -7.167  1.00  0.00    -0.376 OA
BRANCH  26  27
ATOM     27  C   UNL     1      -5.525  -3.030  -8.069  1.00  0.00     0.202 C 
BRANCH  27  28
ATOM     28  C   UNL     1      -6.772  -2.178  -7.790  1.00  0.00     0.261 C 
BRANCH  28  29
ATOM     29  O   UNL     1      -6.512  -0.776  -7.609  1.00  0.00    -0.460 OA
BRANCH  29  30
ATOM     30  C   UNL     1      -6.787  -0.287  -6.374  1.00  0.00     0.338 C 
ATOM     31  O   UNL     1      -7.267  -0.893  -5.431  1.00  0.00    -0.246 OA
BRANCH  30  32
ATOM     32  C   UNL     1      -6.226   1.073  -6.246  1.00  0.00     0.060 A 
ATOM     33  C   UNL     1      -5.242   1.290  -5.270  1.00  0.00     0.016 A 
ATOM     34  C   UNL     1      -6.685   2.127  -7.037  1.00  0.00     0.016 A 
ATOM     35  C   UNL     1      -4.726   2.569  -5.070  1.00  0.00     0.010 A 
ATOM     36  C   UNL     1      -6.189   3.416  -6.813  1.00  0.00     0.010 A 
ATOM     37  C   UNL     1      -5.230   3.646  -5.810  1.00  0.00    -0.014 A 
BRANCH  37  38
ATOM     38  C   UNL     1      -4.894   5.026  -5.389  1.00  0.00     0.031 A 
ATOM     39  C   UNL     1      -5.806   5.715  -4.412  1.00  0.00     0.074 A 
ATOM     40  C   UNL     1      -3.790   5.647  -5.839  1.00  0.00     0.049 A 
ATOM     41  N   UNL     1      -5.696   6.900  -3.872  1.00  0.00    -0.248 NA
ATOM     42  C   UNL     1      -6.999   4.965  -3.981  1.00  0.00     0.031 C 
ATOM     43  C   UNL     1      -2.823   5.079  -6.776  1.00  0.00     0.029 A 
ATOM     44  N   UNL     1      -3.304   6.903  -5.572  1.00  0.00    -0.354 N 
ATOM     45  C   UNL     1      -6.802   7.039  -3.042  1.00  0.00     0.074 A 
ATOM     46  C   UNL     1      -7.585   5.831  -3.168  1.00  0.00     0.031 C 
ATOM     47  C   UNL     1      -1.865   5.992  -7.018  1.00  0.00     0.029 A 
ATOM     48  C   UNL     1      -2.159   7.213  -6.267  1.00  0.00     0.049 A 
ATOM     49  H   UNL     1      -3.735   7.524  -4.941  1.00  0.00     0.167 HD
ATOM     50  C   UNL     1      -7.123   8.070  -2.227  1.00  0.00     0.034 A 
ATOM     51  C   UNL     1      -1.438   8.353  -6.298  1.00  0.00     0.034 A 
ATOM     52  C   UNL     1      -6.342   9.268  -2.097  1.00  0.00     0.049 A 
ATOM     53  C   UNL     1      -1.858   9.517  -5.432  1.00  0.00     0.074 A 
ATOM     54  C   UNL     1      -6.571  10.353  -1.270  1.00  0.00     0.029 A 
ATOM     55  N   UNL     1      -5.195   9.547  -2.821  1.00  0.00    -0.354 N 
ATOM     56  N   UNL     1      -2.832   9.585  -4.556  1.00  0.00    -0.248 NA
ATOM     57  C   UNL     1      -1.066  10.752  -5.541  1.00  0.00     0.031 C 
ATOM     58  C   UNL     1      -5.575  11.302  -1.515  1.00  0.00     0.029 A 
ATOM     59  C   UNL     1      -4.715  10.799  -2.478  1.00  0.00     0.049 A 
ATOM     60  H   UNL     1      -4.782   8.945  -3.482  1.00  0.00     0.167 HD
ATOM     61  C   UNL     1      -2.755  10.856  -3.994  1.00  0.00     0.074 A 
ATOM     62  C   UNL     1      -1.624  11.518  -4.611  1.00  0.00     0.031 C 
ATOM     63  C   UNL     1      -3.559  11.429  -3.064  1.00  0.00     0.034 A 
BRANCH  50  64
ATOM     64  C   UNL     1      -8.352   7.928  -1.373  1.00  0.00     0.023 A 
ATOM     65  C   UNL     1      -8.316   7.075  -0.251  1.00  0.00     0.012 A 
ATOM     66  C   UNL     1      -9.510   8.687  -1.630  1.00  0.00     0.148 A 
ATOM     67  C   UNL     1      -9.420   6.963   0.591  1.00  0.00     0.002 A 
ATOM     68  C   UNL     1     -10.593   8.600  -0.763  1.00  0.00     0.091 A 
ATOM     69  F   UNL     1      -9.530   9.474  -2.716  1.00  0.00    -0.205 F 
ATOM     70  C   UNL     1     -10.553   7.733   0.341  1.00  0.00     0.022 A 
BRANCH  68  71
ATOM     71  S   UNL     1     -12.070   9.604  -0.953  1.00  0.00     0.127 S 
ATOM     72  O   UNL     1     -13.065   8.597  -1.321  1.00  0.00    -0.237 OA
ATOM     73  O   UNL     1     -12.236  10.162   0.390  1.00  0.00    -0.237 OA
ATOM     74  O   UNL     1     -11.763  10.582  -1.986  1.00  0.00    -0.744 OA
ENDBRANCH  68  71
ENDBRANCH  50  64
BRANCH  51  75
ATOM     75  C   UNL     1      -0.212   8.435  -7.142  1.00  0.00     0.023 A 
ATOM     76  C   UNL     1       1.050   8.508  -6.521  1.00  0.00     0.012 A 
ATOM     77  C   UNL     1      -0.283   8.414  -8.549  1.00  0.00     0.148 A 
ATOM     78  C   UNL     1       2.216   8.576  -7.284  1.00  0.00     0.002 A 
ATOM     79  C   UNL     1       0.885   8.429  -9.303  1.00  0.00     0.091 A 
ATOM     80  F   UNL     1      -1.494   8.365  -9.122  1.00  0.00    -0.205 F 
ATOM     81  C   UNL     1       2.135   8.525  -8.673  1.00  0.00     0.022 A 
BRANCH  79  82
ATOM     82  S   UNL     1       0.886   8.243 -11.091  1.00  0.00     0.127 S 
ATOM     83  O   UNL     1       1.346   9.559 -11.528  1.00  0.00    -0.237 OA
ATOM     84  O   UNL     1       1.851   7.159 -11.278  1.00  0.00    -0.237 OA
ATOM     85  O   UNL     1      -0.482   7.901 -11.453  1.00  0.00    -0.744 OA
ENDBRANCH  79  82
ENDBRANCH  51  75
BRANCH  63  86
ATOM     86  C   UNL     1      -3.271  12.848  -2.641  1.00  0.00     0.023 A 
ATOM     87  C   UNL     1      -3.593  13.905  -3.513  1.00  0.00     0.012 A 
ATOM     88  C   UNL     1      -2.830  13.139  -1.333  1.00  0.00     0.148 A 
ATOM     89  C   UNL     1      -3.472  15.231  -3.096  1.00  0.00     0.002 A 
ATOM     90  C   UNL     1      -2.758  14.461  -0.909  1.00  0.00     0.091 A 
ATOM     91  F   UNL     1      -2.520  12.118  -0.522  1.00  0.00    -0.205 F 
ATOM     92  C   UNL     1      -3.071  15.508  -1.792  1.00  0.00     0.022 A 
BRANCH  90  93
ATOM     93  S   UNL     1      -2.357  14.918   0.782  1.00  0.00     0.127 S 
ATOM     94  O   UNL     1      -1.065  15.583   0.613  1.00  0.00    -0.237 OA
ATOM     95  O   UNL     1      -3.461  15.812   1.131  1.00  0.00    -0.237 OA
ATOM     96  O   UNL     1      -2.319  13.674   1.540  1.00  0.00    -0.744 OA
ENDBRANCH  90  93
ENDBRANCH  63  86
ENDBRANCH  37  38
ENDBRANCH  30  32
ENDBRANCH  29  30
ENDBRANCH  28  29
ENDBRANCH  27  28
ENDBRANCH  26  27
ENDBRANCH   1  26
TORSDOF 21
