REMARK SMILES CCCn1ncc(C(=O)N2CCC[C@@H]2C(=O)OCCOCCOCCOC(=O)c2ccc(-c3c4nc(c(-c5cccc(S(=O)(=O)[O-])c5F)c5ccc([nH]5)c(-c5cccc(S(=O)(=O)[O-])c5F)c5nc(c(-c6cccc(S(=O)(=O)[O-])c6F)c6ccc3[nH]6)C=C5)C=C4)cc2)c1C
REMARK SMILES IDX 21 1 20 2 19 3 18 4 17 5 15 6 16 7 14 8 10 9 11 10 12 11
REMARK SMILES IDX 13 12 8 13 9 14 7 15 4 16 5 17 92 18 6 19 93 20 3 21 2 22
REMARK SMILES IDX 1 23 22 24 23 25 24 26 25 27 26 28 27 29 28 30 29 31 30 32
REMARK SMILES IDX 91 33 31 34 90 35 32 36 33 37 34 38 84 39 35 40 89 41 83 42
REMARK SMILES IDX 85 43 36 44 88 45 82 46 81 47 37 49 69 50 49 51 68 52 50 53
REMARK SMILES IDX 53 54 67 55 86 56 51 57 52 58 66 60 87 61 54 62 38 63 39 64
REMARK SMILES IDX 47 65 40 66 42 67 48 68 41 69 43 70 44 71 45 72 46 73 70 74
REMARK SMILES IDX 71 75 79 76 72 77 74 78 80 79 73 80 75 81 76 82 77 83 78 84
REMARK SMILES IDX 55 85 56 86 64 87 57 88 59 89 65 90 58 91 60 92 61 93 62 94
REMARK SMILES IDX 63 95
REMARK H PARENT 85 48 53 59
REMARK Flexibility Score: inf
ROOT
ATOM      1  C   UNL     1       2.537  -0.125  -9.943  1.00  0.00     0.188 C 
ENDROOT
BRANCH   1   2
ATOM      2  O   UNL     1       3.820   0.293  -9.550  1.00  0.00    -0.376 OA
BRANCH   2   3
ATOM      3  C   UNL     1       4.244   0.126  -8.210  1.00  0.00     0.202 C 
BRANCH   3   4
ATOM      4  C   UNL     1       3.277   0.115  -7.007  1.00  0.00     0.261 C 
BRANCH   4   5
ATOM      5  O   UNL     1       2.063  -0.647  -7.153  1.00  0.00    -0.462 OA
BRANCH   5   6
ATOM      6  C   UNL     1       0.917   0.077  -7.171  1.00  0.00     0.328 C 
ATOM      7  O   UNL     1       0.893   1.298  -7.023  1.00  0.00    -0.250 OA
BRANCH   6   8
ATOM      8  C   UNL     1      -0.386  -0.733  -7.378  1.00  0.00     0.195 C 
ATOM      9  N   UNL     1      -1.210  -0.666  -6.180  1.00  0.00    -0.325 N 
ATOM     10  C   UNL     1      -1.963  -1.874  -5.963  1.00  0.00     0.121 C 
ATOM     11  C   UNL     1      -1.027  -2.933  -6.494  1.00  0.00     0.024 C 
ATOM     12  C   UNL     1      -0.337  -2.241  -7.671  1.00  0.00     0.039 C 
BRANCH   9  13
ATOM     13  C   UNL     1      -1.440   0.507  -5.515  1.00  0.00     0.258 C 
ATOM     14  O   UNL     1      -2.152   1.407  -5.940  1.00  0.00    -0.269 OA
BRANCH  13  15
ATOM     15  C   UNL     1      -0.625   0.581  -4.308  1.00  0.00     0.080 A 
ATOM     16  N   UNL     1       0.493   1.238  -2.531  1.00  0.00    -0.269 N 
ATOM     17  N   UNL     1       0.840  -0.055  -2.673  1.00  0.00    -0.180 NA
ATOM     18  C   UNL     1      -0.304   1.701  -3.553  1.00  0.00     0.048 A 
ATOM     19  C   UNL     1       0.137  -0.456  -3.723  1.00  0.00     0.149 A 
ATOM     20  C   UNL     1      -0.645   3.123  -3.811  1.00  0.00     0.067 C 
BRANCH  16  21
ATOM     21  C   UNL     1       1.008   1.932  -1.368  1.00  0.00     0.144 C 
BRANCH  21  22
ATOM     22  C   UNL     1       0.421   1.417  -0.048  1.00  0.00     0.020 C 
ATOM     23  C   UNL     1       0.911   0.029   0.356  1.00  0.00     0.006 C 
ENDBRANCH  21  22
ENDBRANCH  16  21
ENDBRANCH  13  15
ENDBRANCH   9  13
ENDBRANCH   6   8
ENDBRANCH   5   6
ENDBRANCH   4   5
ENDBRANCH   3   4
ENDBRANCH   2   3
ENDBRANCH   1   2
BRANCH   1  24
ATOM     24  C   UNL     1       2.165  -1.613  -9.923  1.00  0.00     0.188 C 
BRANCH  24  25
ATOM     25  O   UNL     1       2.607  -2.511  -8.926  1.00  0.00    -0.376 OA
BRANCH  25  26
ATOM     26  C   UNL     1       3.892  -3.090  -8.787  1.00  0.00     0.202 C 
BRANCH  26  27
ATOM     27  C   UNL     1       4.902  -3.266  -9.914  1.00  0.00     0.261 C 
BRANCH  27  28
ATOM     28  O   UNL     1       4.528  -2.672 -11.126  1.00  0.00    -0.460 OA
BRANCH  28  29
ATOM     29  C   UNL     1       3.662  -3.417 -11.838  1.00  0.00     0.338 C 
ATOM     30  O   UNL     1       3.103  -4.450 -11.495  1.00  0.00    -0.246 OA
BRANCH  29  31
ATOM     31  C   UNL     1       3.455  -2.730 -13.108  1.00  0.00     0.060 A 
ATOM     32  C   UNL     1       2.352  -3.114 -13.873  1.00  0.00     0.016 A 
ATOM     33  C   UNL     1       4.475  -1.902 -13.597  1.00  0.00     0.016 A 
ATOM     34  C   UNL     1       2.411  -2.890 -15.223  1.00  0.00     0.010 A 
ATOM     35  C   UNL     1       4.545  -1.700 -14.944  1.00  0.00     0.010 A 
ATOM     36  C   UNL     1       3.569  -2.299 -15.733  1.00  0.00    -0.014 A 
BRANCH  36  37
ATOM     37  C   UNL     1       3.784  -2.357 -17.154  1.00  0.00     0.031 A 
ATOM     38  C   UNL     1       3.047  -1.319 -17.889  1.00  0.00     0.074 A 
ATOM     39  C   UNL     1       4.669  -3.233 -17.666  1.00  0.00     0.049 A 
ATOM     40  N   UNL     1       2.057  -1.486 -18.699  1.00  0.00    -0.248 NA
ATOM     41  C   UNL     1       3.315   0.084 -17.533  1.00  0.00     0.031 C 
ATOM     42  C   UNL     1       5.625  -4.075 -16.934  1.00  0.00     0.029 A 
ATOM     43  N   UNL     1       5.010  -3.437 -18.963  1.00  0.00    -0.354 N 
ATOM     44  C   UNL     1       1.770  -0.209 -19.161  1.00  0.00     0.074 A 
ATOM     45  C   UNL     1       2.385   0.715 -18.247  1.00  0.00     0.031 C 
ATOM     46  C   UNL     1       6.593  -4.482 -17.785  1.00  0.00     0.029 A 
ATOM     47  C   UNL     1       6.254  -4.037 -19.125  1.00  0.00     0.049 A 
ATOM     48  H   UNL     1       4.432  -3.183 -19.718  1.00  0.00     0.167 HD
ATOM     49  C   UNL     1       1.343  -0.012 -20.435  1.00  0.00     0.034 A 
ATOM     50  C   UNL     1       6.984  -4.058 -20.266  1.00  0.00     0.034 A 
ATOM     51  C   UNL     1       0.836  -1.221 -21.028  1.00  0.00     0.049 A 
ATOM     52  C   UNL     1       6.058  -3.758 -21.385  1.00  0.00     0.074 A 
ATOM     53  C   UNL     1      -0.153  -2.124 -20.694  1.00  0.00     0.029 A 
ATOM     54  N   UNL     1       1.652  -1.862 -21.927  1.00  0.00    -0.354 N 
ATOM     55  N   UNL     1       5.096  -4.553 -21.759  1.00  0.00    -0.248 NA
ATOM     56  C   UNL     1       5.923  -2.372 -21.805  1.00  0.00     0.031 C 
ATOM     57  C   UNL     1       0.372  -3.398 -21.056  1.00  0.00     0.029 A 
ATOM     58  C   UNL     1       1.624  -3.202 -21.643  1.00  0.00     0.049 A 
ATOM     59  H   UNL     1       2.167  -1.434 -22.650  1.00  0.00     0.167 HD
ATOM     60  C   UNL     1       4.035  -3.701 -22.045  1.00  0.00     0.074 A 
ATOM     61  C   UNL     1       4.639  -2.376 -22.174  1.00  0.00     0.031 C 
ATOM     62  C   UNL     1       2.743  -4.098 -21.851  1.00  0.00     0.034 A 
BRANCH  49  63
ATOM     63  C   UNL     1       1.751   1.182 -21.255  1.00  0.00     0.023 A 
ATOM     64  C   UNL     1       1.039   1.438 -22.441  1.00  0.00     0.012 A 
ATOM     65  C   UNL     1       2.944   1.915 -21.046  1.00  0.00     0.148 A 
ATOM     66  C   UNL     1       1.496   2.373 -23.374  1.00  0.00     0.002 A 
ATOM     67  C   UNL     1       3.336   2.916 -21.921  1.00  0.00     0.091 A 
ATOM     68  F   UNL     1       3.794   1.555 -20.077  1.00  0.00    -0.205 F 
ATOM     69  C   UNL     1       2.632   3.130 -23.105  1.00  0.00     0.022 A 
BRANCH  67  70
ATOM     70  S   UNL     1       4.748   3.967 -21.560  1.00  0.00     0.127 S 
ATOM     71  O   UNL     1       5.760   3.418 -22.457  1.00  0.00    -0.237 OA
ATOM     72  O   UNL     1       4.240   5.288 -21.930  1.00  0.00    -0.237 OA
ATOM     73  O   UNL     1       4.992   3.804 -20.132  1.00  0.00    -0.744 OA
ENDBRANCH  67  70
ENDBRANCH  49  63
BRANCH  50  74
ATOM     74  C   UNL     1       8.455  -4.026 -20.440  1.00  0.00     0.023 A 
ATOM     75  C   UNL     1       9.014  -4.426 -21.670  1.00  0.00     0.012 A 
ATOM     76  C   UNL     1       9.286  -3.348 -19.520  1.00  0.00     0.148 A 
ATOM     77  C   UNL     1      10.345  -4.131 -21.988  1.00  0.00     0.002 A 
ATOM     78  C   UNL     1      10.612  -3.066 -19.836  1.00  0.00     0.091 A 
ATOM     79  F   UNL     1       8.754  -2.896 -18.377  1.00  0.00    -0.205 F 
ATOM     80  C   UNL     1      11.141  -3.444 -21.076  1.00  0.00     0.022 A 
BRANCH  78  81
ATOM     81  S   UNL     1      11.693  -2.164 -18.717  1.00  0.00     0.127 S 
ATOM     82  O   UNL     1      12.892  -3.004 -18.712  1.00  0.00    -0.237 OA
ATOM     83  O   UNL     1      11.845  -0.886 -19.407  1.00  0.00    -0.237 OA
ATOM     84  O   UNL     1      10.993  -2.114 -17.439  1.00  0.00    -0.744 OA
ENDBRANCH  78  81
ENDBRANCH  50  74
BRANCH  62  85
ATOM     85  C   UNL     1       2.487  -5.561 -21.572  1.00  0.00     0.023 A 
ATOM     86  C   UNL     1       2.987  -6.211 -20.424  1.00  0.00     0.012 A 
ATOM     87  C   UNL     1       1.583  -6.250 -22.398  1.00  0.00     0.148 A 
ATOM     88  C   UNL     1       2.615  -7.525 -20.122  1.00  0.00     0.002 A 
ATOM     89  C   UNL     1       1.178  -7.538 -22.070  1.00  0.00     0.091 A 
ATOM     90  F   UNL     1       1.110  -5.619 -23.484  1.00  0.00    -0.205 F 
ATOM     91  C   UNL     1       1.700  -8.184 -20.938  1.00  0.00     0.022 A 
BRANCH  89  92
ATOM     92  S   UNL     1      -0.093  -8.389 -23.008  1.00  0.00     0.127 S 
ATOM     93  O   UNL     1       0.689  -9.355 -23.776  1.00  0.00    -0.237 OA
ATOM     94  O   UNL     1      -0.925  -8.973 -21.954  1.00  0.00    -0.237 OA
ATOM     95  O   UNL     1      -0.767  -7.361 -23.792  1.00  0.00    -0.744 OA
ENDBRANCH  89  92
ENDBRANCH  62  85
ENDBRANCH  36  37
ENDBRANCH  29  31
ENDBRANCH  28  29
ENDBRANCH  27  28
ENDBRANCH  26  27
ENDBRANCH  25  26
ENDBRANCH  24  25
ENDBRANCH   1  24
TORSDOF 24
