REMARK SMILES CCN(CC)C(=O)[C@@H]1CC=CC[C@H]1C(=O)Nc1ccc(C(=O)OCCOCCOCCOC(=O)c2ccc(-c3c4nc(c(-c5cccc(S(=O)(=O)[O-])c5F)c5ccc([nH]5)c(-c5cccc(S(=O)(=O)[O-])c5F)c5nc(c(-c6cccc(S(=O)(=O)[O-])c6F)c6ccc3[nH]6)C=C5)C=C4)cc2)cc1
REMARK SMILES IDX 27 1 26 2 25 3 24 4 23 5 21 6 22 7 20 8 17 9 18 10 99 11
REMARK SMILES IDX 19 12 98 13 16 14 14 15 15 16 13 18 8 19 9 20 10 21 12 22
REMARK SMILES IDX 11 23 6 24 3 25 7 26 2 27 1 28 4 29 5 30 28 31 29 32 30 33
REMARK SMILES IDX 31 34 32 35 33 36 34 37 35 38 36 39 97 40 37 41 96 42 38 43
REMARK SMILES IDX 39 44 40 45 90 46 41 47 95 48 89 49 91 50 42 51 94 52 88 53
REMARK SMILES IDX 87 54 43 56 75 57 55 58 74 59 56 60 59 61 73 62 92 63 57 64
REMARK SMILES IDX 58 65 72 67 93 68 60 69 44 70 45 71 53 72 46 73 48 74 54 75
REMARK SMILES IDX 47 76 49 77 50 78 51 79 52 80 76 81 77 82 85 83 78 84 80 85
REMARK SMILES IDX 86 86 79 87 81 88 82 89 83 90 84 91 61 92 62 93 70 94 63 95
REMARK SMILES IDX 65 96 71 97 64 98 66 99 67 100 68 101 69 102
REMARK H PARENT 16 17 91 55 59 66
REMARK Flexibility Score: inf
ROOT
ATOM      1  C   UNL     1       1.385   0.687  -3.932  1.00  0.00     0.188 C 
ENDROOT
BRANCH   1   2
ATOM      2  O   UNL     1       1.962   0.635  -5.221  1.00  0.00    -0.376 OA
BRANCH   2   3
ATOM      3  C   UNL     1       2.981  -0.300  -5.534  1.00  0.00     0.202 C 
BRANCH   3   4
ATOM      4  C   UNL     1       3.951  -0.913  -4.509  1.00  0.00     0.261 C 
BRANCH   4   5
ATOM      5  O   UNL     1       3.410  -1.145  -3.209  1.00  0.00    -0.460 OA
BRANCH   5   6
ATOM      6  C   UNL     1       3.959  -0.407  -2.214  1.00  0.00     0.338 C 
ATOM      7  O   UNL     1       4.933   0.326  -2.296  1.00  0.00    -0.246 OA
BRANCH   6   8
ATOM      8  C   UNL     1       3.118  -0.496  -1.002  1.00  0.00     0.060 A 
ATOM      9  C   UNL     1       1.831  -0.692   1.435  1.00  0.00     0.041 A 
ATOM     10  C   UNL     1       2.356   0.540   1.048  1.00  0.00     0.027 A 
ATOM     11  C   UNL     1       1.710  -1.724   0.517  1.00  0.00     0.027 A 
ATOM     12  C   UNL     1       3.023   0.629  -0.173  1.00  0.00     0.018 A 
ATOM     13  C   UNL     1       2.405  -1.657  -0.686  1.00  0.00     0.018 A 
BRANCH   9  14
ATOM     14  N   UNL     1       1.597  -0.921   2.790  1.00  0.00    -0.326 N 
ATOM     15  C   UNL     1       2.345  -1.716   3.628  1.00  0.00     0.228 C 
ATOM     16  O   UNL     1       2.143  -1.579   4.843  1.00  0.00    -0.274 OA
ATOM     17  H   UNL     1       0.818  -0.469   3.188  1.00  0.00     0.169 HD
BRANCH  15  18
ATOM     18  C   UNL     1       3.535  -2.603   3.162  1.00  0.00     0.095 C 
ATOM     19  C   UNL     1       3.288  -3.836   2.231  1.00  0.00     0.095 C 
ATOM     20  C   UNL     1       4.618  -4.551   1.948  1.00  0.00     0.041 C 
ATOM     21  C   UNL     1       5.739  -3.630   1.571  1.00  0.00    -0.030 C 
ATOM     22  C   UNL     1       4.692  -1.683   2.715  1.00  0.00     0.041 C 
ATOM     23  C   UNL     1       5.754  -2.334   1.891  1.00  0.00    -0.030 C 
BRANCH  19  24
ATOM     24  C   UNL     1       2.110  -4.685   2.768  1.00  0.00     0.226 C 
ATOM     25  N   UNL     1       1.778  -5.949   2.290  1.00  0.00    -0.343 N 
ATOM     26  O   UNL     1       1.343  -4.160   3.584  1.00  0.00    -0.275 OA
BRANCH  25  27
ATOM     27  C   UNL     1       0.545  -6.550   2.829  1.00  0.00     0.116 C 
ATOM     28  C   UNL     1       0.638  -6.896   4.312  1.00  0.00     0.027 C 
ENDBRANCH  25  27
BRANCH  25  29
ATOM     29  C   UNL     1       2.441  -6.707   1.231  1.00  0.00     0.116 C 
ATOM     30  C   UNL     1       2.150  -6.159  -0.157  1.00  0.00     0.027 C 
ENDBRANCH  25  29
ENDBRANCH  19  24
ENDBRANCH  15  18
ENDBRANCH   9  14
ENDBRANCH   6   8
ENDBRANCH   5   6
ENDBRANCH   4   5
ENDBRANCH   3   4
ENDBRANCH   2   3
ENDBRANCH   1   2
BRANCH   1  31
ATOM     31  C   UNL     1       0.555  -0.511  -3.438  1.00  0.00     0.188 C 
BRANCH  31  32
ATOM     32  O   UNL     1       0.619  -1.718  -4.158  1.00  0.00    -0.376 OA
BRANCH  32  33
ATOM     33  C   UNL     1      -0.079  -1.833  -5.388  1.00  0.00     0.202 C 
BRANCH  33  34
ATOM     34  C   UNL     1      -1.129  -0.841  -5.939  1.00  0.00     0.261 C 
BRANCH  34  35
ATOM     35  O   UNL     1      -1.226   0.460  -5.352  1.00  0.00    -0.460 OA
BRANCH  35  36
ATOM     36  C   UNL     1      -2.269   0.641  -4.502  1.00  0.00     0.338 C 
ATOM     37  O   UNL     1      -3.104  -0.187  -4.180  1.00  0.00    -0.246 OA
BRANCH  36  38
ATOM     38  C   UNL     1      -2.130   1.954  -3.838  1.00  0.00     0.060 A 
ATOM     39  C   UNL     1      -1.892   1.984  -2.457  1.00  0.00     0.016 A 
ATOM     40  C   UNL     1      -2.278   3.141  -4.557  1.00  0.00     0.016 A 
ATOM     41  C   UNL     1      -1.835   3.203  -1.784  1.00  0.00     0.010 A 
ATOM     42  C   UNL     1      -2.239   4.363  -3.875  1.00  0.00     0.010 A 
ATOM     43  C   UNL     1      -2.053   4.398  -2.481  1.00  0.00    -0.014 A 
BRANCH  43  44
ATOM     44  C   UNL     1      -2.234   5.660  -1.720  1.00  0.00     0.031 A 
ATOM     45  C   UNL     1      -3.628   6.181  -1.492  1.00  0.00     0.074 A 
ATOM     46  C   UNL     1      -1.178   6.322  -1.216  1.00  0.00     0.049 A 
ATOM     47  N   UNL     1      -4.019   7.244  -0.839  1.00  0.00    -0.248 NA
ATOM     48  C   UNL     1      -4.729   5.399  -2.079  1.00  0.00     0.031 C 
ATOM     49  C   UNL     1       0.221   5.924  -1.369  1.00  0.00     0.029 A 
ATOM     50  N   UNL     1      -1.120   7.483  -0.485  1.00  0.00    -0.354 N 
ATOM     51  C   UNL     1      -5.403   7.276  -0.957  1.00  0.00     0.074 A 
ATOM     52  C   UNL     1      -5.784   6.133  -1.758  1.00  0.00     0.031 C 
ATOM     53  C   UNL     1       1.002   6.839  -0.769  1.00  0.00     0.029 A 
ATOM     54  C   UNL     1       0.161   7.896  -0.208  1.00  0.00     0.049 A 
ATOM     55  H   UNL     1      -1.921   7.973  -0.188  1.00  0.00     0.167 HD
ATOM     56  C   UNL     1      -6.281   8.166  -0.435  1.00  0.00     0.034 A 
ATOM     57  C   UNL     1       0.605   9.007   0.413  1.00  0.00     0.034 A 
ATOM     58  C   UNL     1      -5.904   9.297   0.370  1.00  0.00     0.049 A 
ATOM     59  C   UNL     1      -0.392   9.990   0.972  1.00  0.00     0.074 A 
ATOM     60  C   UNL     1      -6.723  10.230   0.981  1.00  0.00     0.029 A 
ATOM     61  N   UNL     1      -4.599   9.662   0.662  1.00  0.00    -0.354 N 
ATOM     62  N   UNL     1      -1.702   9.943   0.951  1.00  0.00    -0.248 NA
ATOM     63  C   UNL     1       0.154  11.158   1.678  1.00  0.00     0.031 C 
ATOM     64  C   UNL     1      -5.912  11.180   1.611  1.00  0.00     0.029 A 
ATOM     65  C   UNL     1      -4.589  10.812   1.435  1.00  0.00     0.049 A 
ATOM     66  H   UNL     1      -3.796   9.175   0.365  1.00  0.00     0.167 HD
ATOM     67  C   UNL     1      -2.136  11.047   1.677  1.00  0.00     0.074 A 
ATOM     68  C   UNL     1      -0.948  11.733   2.141  1.00  0.00     0.031 C 
ATOM     69  C   UNL     1      -3.403  11.461   1.932  1.00  0.00     0.034 A 
BRANCH  56  70
ATOM     70  C   UNL     1      -7.747   7.944  -0.707  1.00  0.00     0.023 A 
ATOM     71  C   UNL     1      -8.422   6.871  -0.090  1.00  0.00     0.012 A 
ATOM     72  C   UNL     1      -8.469   8.831  -1.530  1.00  0.00     0.148 A 
ATOM     73  C   UNL     1      -9.783   6.663  -0.314  1.00  0.00     0.002 A 
ATOM     74  C   UNL     1      -9.835   8.646  -1.710  1.00  0.00     0.091 A 
ATOM     75  F   UNL     1      -7.807   9.832  -2.126  1.00  0.00    -0.205 F 
ATOM     76  C   UNL     1     -10.491   7.556  -1.114  1.00  0.00     0.022 A 
BRANCH  74  77
ATOM     77  S   UNL     1     -10.851   9.788  -2.653  1.00  0.00     0.127 S 
ATOM     78  O   UNL     1     -11.200   8.978  -3.820  1.00  0.00    -0.237 OA
ATOM     79  O   UNL     1     -11.961  10.042  -1.734  1.00  0.00    -0.237 OA
ATOM     80  O   UNL     1     -10.011  10.945  -2.926  1.00  0.00    -0.744 OA
ENDBRANCH  74  77
ENDBRANCH  56  70
BRANCH  57  81
ATOM     81  C   UNL     1       2.069   9.238   0.573  1.00  0.00     0.023 A 
ATOM     82  C   UNL     1       2.649   9.188   1.856  1.00  0.00     0.012 A 
ATOM     83  C   UNL     1       2.888   9.506  -0.540  1.00  0.00     0.148 A 
ATOM     84  C   UNL     1       4.011   9.435   2.031  1.00  0.00     0.002 A 
ATOM     85  C   UNL     1       4.253   9.694  -0.366  1.00  0.00     0.091 A 
ATOM     86  F   UNL     1       2.314   9.565  -1.750  1.00  0.00    -0.205 F 
ATOM     87  C   UNL     1       4.814   9.678   0.920  1.00  0.00     0.022 A 
BRANCH  85  88
ATOM     88  S   UNL     1       5.384   9.887  -1.748  1.00  0.00     0.127 S 
ATOM     89  O   UNL     1       5.812  11.275  -1.593  1.00  0.00    -0.237 OA
ATOM     90  O   UNL     1       6.407   8.887  -1.439  1.00  0.00    -0.237 OA
ATOM     91  O   UNL     1       4.601   9.598  -2.942  1.00  0.00    -0.744 OA
ENDBRANCH  85  88
ENDBRANCH  57  81
BRANCH  69  92
ATOM     92  C   UNL     1      -3.579  12.683   2.800  1.00  0.00     0.023 A 
ATOM     93  C   UNL     1      -3.214  13.957   2.320  1.00  0.00     0.012 A 
ATOM     94  C   UNL     1      -4.149  12.570   4.085  1.00  0.00     0.148 A 
ATOM     95  C   UNL     1      -3.364  15.089   3.122  1.00  0.00     0.002 A 
ATOM     96  C   UNL     1      -4.348  13.709   4.856  1.00  0.00     0.091 A 
ATOM     97  F   UNL     1      -4.476  11.350   4.535  1.00  0.00    -0.205 F 
ATOM     98  C   UNL     1      -3.939  14.966   4.384  1.00  0.00     0.022 A 
BRANCH  96  99
ATOM     99  S   UNL     1      -5.173  13.657   6.451  1.00  0.00     0.127 S 
ATOM    100  O   UNL     1      -4.054  13.842   7.372  1.00  0.00    -0.237 OA
ATOM    101  O   UNL     1      -6.087  14.797   6.365  1.00  0.00    -0.237 OA
ATOM    102  O   UNL     1      -5.833  12.360   6.517  1.00  0.00    -0.744 OA
ENDBRANCH  96  99
ENDBRANCH  69  92
ENDBRANCH  43  44
ENDBRANCH  36  38
ENDBRANCH  35  36
ENDBRANCH  34  35
ENDBRANCH  33  34
ENDBRANCH  32  33
ENDBRANCH  31  32
ENDBRANCH   1  31
TORSDOF 25
