REMARK SMILES O=C(OCCOCCOCCOC(=O)[C@@H]1[C@H](C(=O)NCc2ccccc2Cl)[C@@H]2C=C[C@H]1C2)c1ccc(-c2c3nc(c(-c4cccc(S(=O)(=O)[O-])c4F)c4ccc([nH]4)c(-c4cccc(S(=O)(=O)[O-])c4F)c4nc(c(-c5cccc(S(=O)(=O)[O-])c5F)c5ccc2[nH]5)C=C4)C=C3)cc1
REMARK SMILES IDX 7 1 6 2 5 3 4 4 3 5 2 6 1 7 33 8 34 9 95 10 35 11 94 12
REMARK SMILES IDX 36 13 37 14 38 15 88 16 39 17 93 18 87 19 89 20 40 21 92 22
REMARK SMILES IDX 86 23 85 24 41 26 73 27 53 28 72 29 54 30 57 31 71 32 90 33
REMARK SMILES IDX 55 34 56 35 70 37 91 38 58 39 42 40 43 41 51 42 44 43 46 44
REMARK SMILES IDX 52 45 45 46 47 47 48 48 49 49 50 50 74 51 75 52 83 53 76 54
REMARK SMILES IDX 78 55 84 56 77 57 79 58 80 59 81 60 82 61 59 62 60 63 68 64
REMARK SMILES IDX 61 65 63 66 69 67 62 68 64 69 65 70 66 71 67 72 8 73 9 74
REMARK SMILES IDX 10 75 11 76 12 77 13 78 14 79 15 80 16 81 31 82 28 83 30 84
REMARK SMILES IDX 32 85 29 86 17 87 18 88 19 89 20 91 21 92 22 93 26 94 23 95
REMARK SMILES IDX 25 96 27 97 24 98
REMARK H PARENT 89 25 57 36 19 90
REMARK Flexibility Score: inf
ROOT
ATOM      1  C   UNL     1       2.147   0.178  -1.175  1.00  0.00     0.188 C 
ENDROOT
BRANCH   1   2
ATOM      2  O   UNL     1       3.504   0.313  -0.759  1.00  0.00    -0.376 OA
BRANCH   2   3
ATOM      3  C   UNL     1       4.349  -0.792  -1.072  1.00  0.00     0.202 C 
BRANCH   3   4
ATOM      4  C   UNL     1       4.141  -2.030  -0.195  1.00  0.00     0.261 C 
BRANCH   4   5
ATOM      5  O   UNL     1       2.799  -2.165   0.300  1.00  0.00    -0.460 OA
BRANCH   5   6
ATOM      6  C   UNL     1       2.241  -1.626   1.414  1.00  0.00     0.338 C 
ATOM      7  O   UNL     1       1.063  -1.896   1.651  1.00  0.00    -0.246 OA
BRANCH   6   8
ATOM      8  C   UNL     1       2.950  -0.713   2.366  1.00  0.00     0.060 A 
ATOM      9  C   UNL     1       4.085   0.044   2.076  1.00  0.00     0.016 A 
ATOM     10  C   UNL     1       2.390  -0.580   3.650  1.00  0.00     0.016 A 
ATOM     11  C   UNL     1       4.700   0.837   3.028  1.00  0.00     0.010 A 
ATOM     12  C   UNL     1       3.004   0.211   4.627  1.00  0.00     0.010 A 
ATOM     13  C   UNL     1       4.195   0.874   4.321  1.00  0.00    -0.014 A 
BRANCH  13  14
ATOM     14  C   UNL     1       5.114   1.366   5.358  1.00  0.00     0.031 A 
ATOM     15  C   UNL     1       5.878   0.337   6.126  1.00  0.00     0.074 A 
ATOM     16  C   UNL     1       5.402   2.674   5.437  1.00  0.00     0.049 A 
ATOM     17  N   UNL     1       6.742   0.501   7.084  1.00  0.00    -0.248 NA
ATOM     18  C   UNL     1       5.644  -1.073   5.757  1.00  0.00     0.031 C 
ATOM     19  C   UNL     1       4.788   3.701   4.601  1.00  0.00     0.029 A 
ATOM     20  N   UNL     1       6.301   3.360   6.201  1.00  0.00    -0.354 N 
ATOM     21  C   UNL     1       7.079  -0.779   7.498  1.00  0.00     0.074 A 
ATOM     22  C   UNL     1       6.373  -1.712   6.654  1.00  0.00     0.031 C 
ATOM     23  C   UNL     1       5.375   4.881   4.849  1.00  0.00     0.029 A 
ATOM     24  C   UNL     1       6.307   4.713   5.952  1.00  0.00     0.049 A 
ATOM     25  H   UNL     1       6.887   2.930   6.865  1.00  0.00     0.167 HD
ATOM     26  C   UNL     1       7.883  -1.126   8.525  1.00  0.00     0.034 A 
ATOM     27  C   UNL     1       6.952   5.704   6.596  1.00  0.00     0.034 A 
ATOM     28  C   UNL     1       8.558  -0.151   9.333  1.00  0.00     0.049 A 
ATOM     29  C   UNL     1       7.793   5.297   7.773  1.00  0.00     0.074 A 
ATOM     30  C   UNL     1       9.347  -0.344  10.447  1.00  0.00     0.029 A 
ATOM     31  N   UNL     1       8.503   1.220   9.105  1.00  0.00    -0.354 N 
ATOM     32  N   UNL     1       8.069   4.088   8.205  1.00  0.00    -0.248 NA
ATOM     33  C   UNL     1       8.398   6.374   8.562  1.00  0.00     0.031 C 
ATOM     34  C   UNL     1       9.735   0.915  10.918  1.00  0.00     0.029 A 
ATOM     35  C   UNL     1       9.234   1.890  10.064  1.00  0.00     0.049 A 
ATOM     36  H   UNL     1       8.013   1.650   8.367  1.00  0.00     0.167 HD
ATOM     37  C   UNL     1       8.894   4.253   9.305  1.00  0.00     0.074 A 
ATOM     38  C   UNL     1       9.095   5.684   9.454  1.00  0.00     0.031 C 
ATOM     39  C   UNL     1       9.427   3.319  10.132  1.00  0.00     0.034 A 
BRANCH  26  40
ATOM     40  C   UNL     1       7.949  -2.588   8.867  1.00  0.00     0.023 A 
ATOM     41  C   UNL     1       8.605  -3.503   8.018  1.00  0.00     0.012 A 
ATOM     42  C   UNL     1       7.275  -3.067  10.008  1.00  0.00     0.148 A 
ATOM     43  C   UNL     1       8.542  -4.875   8.271  1.00  0.00     0.002 A 
ATOM     44  C   UNL     1       7.260  -4.428  10.280  1.00  0.00     0.091 A 
ATOM     45  F   UNL     1       6.624  -2.185  10.780  1.00  0.00    -0.205 F 
ATOM     46  C   UNL     1       7.875  -5.335   9.404  1.00  0.00     0.022 A 
BRANCH  44  47
ATOM     47  S   UNL     1       6.477  -5.111  11.744  1.00  0.00     0.127 S 
ATOM     48  O   UNL     1       5.374  -5.873  11.162  1.00  0.00    -0.237 OA
ATOM     49  O   UNL     1       7.553  -5.928  12.307  1.00  0.00    -0.237 OA
ATOM     50  O   UNL     1       6.083  -3.972  12.562  1.00  0.00    -0.744 OA
ENDBRANCH  44  47
ENDBRANCH  26  40
BRANCH  27  51
ATOM     51  C   UNL     1       6.785   7.131   6.189  1.00  0.00     0.023 A 
ATOM     52  C   UNL     1       7.899   7.872   5.750  1.00  0.00     0.012 A 
ATOM     53  C   UNL     1       5.523   7.760   6.219  1.00  0.00     0.148 A 
ATOM     54  C   UNL     1       7.764   9.213   5.376  1.00  0.00     0.002 A 
ATOM     55  C   UNL     1       5.383   9.073   5.784  1.00  0.00     0.091 A 
ATOM     56  F   UNL     1       4.473   7.057   6.667  1.00  0.00    -0.205 F 
ATOM     57  C   UNL     1       6.506   9.809   5.382  1.00  0.00     0.022 A 
BRANCH  55  58
ATOM     58  S   UNL     1       3.779   9.868   5.632  1.00  0.00     0.127 S 
ATOM     59  O   UNL     1       3.822  10.838   6.723  1.00  0.00    -0.237 OA
ATOM     60  O   UNL     1       3.854  10.446   4.289  1.00  0.00    -0.237 OA
ATOM     61  O   UNL     1       2.797   8.801   5.769  1.00  0.00    -0.744 OA
ENDBRANCH  55  58
ENDBRANCH  27  51
BRANCH  39  62
ATOM     62  C   UNL     1      10.325   3.824  11.221  1.00  0.00     0.023 A 
ATOM     63  C   UNL     1       9.785   4.486  12.339  1.00  0.00     0.012 A 
ATOM     64  C   UNL     1      11.707   3.566  11.156  1.00  0.00     0.148 A 
ATOM     65  C   UNL     1      10.620   4.918  13.367  1.00  0.00     0.002 A 
ATOM     66  C   UNL     1      12.521   3.943  12.210  1.00  0.00     0.091 A 
ATOM     67  F   UNL     1      12.193   2.955  10.065  1.00  0.00    -0.205 F 
ATOM     68  C   UNL     1      11.984   4.634  13.309  1.00  0.00     0.022 A 
BRANCH  66  69
ATOM     69  S   UNL     1      14.261   3.510  12.268  1.00  0.00     0.127 S 
ATOM     70  O   UNL     1      14.897   4.803  12.028  1.00  0.00    -0.237 OA
ATOM     71  O   UNL     1      14.406   3.000  13.632  1.00  0.00    -0.237 OA
ATOM     72  O   UNL     1      14.461   2.511  11.226  1.00  0.00    -0.744 OA
ENDBRANCH  66  69
ENDBRANCH  39  62
ENDBRANCH  13  14
ENDBRANCH   6   8
ENDBRANCH   5   6
ENDBRANCH   4   5
ENDBRANCH   3   4
ENDBRANCH   2   3
ENDBRANCH   1   2
BRANCH   1  73
ATOM     73  C   UNL     1       1.635   1.469  -1.787  1.00  0.00     0.188 C 
BRANCH  73  74
ATOM     74  O   UNL     1       2.320   1.911  -2.947  1.00  0.00    -0.376 OA
BRANCH  74  75
ATOM     75  C   UNL     1       3.737   1.981  -2.924  1.00  0.00     0.202 C 
BRANCH  75  76
ATOM     76  C   UNL     1       4.552   2.732  -1.835  1.00  0.00     0.261 C 
BRANCH  76  77
ATOM     77  O   UNL     1       3.926   3.278  -0.671  1.00  0.00    -0.463 OA
BRANCH  77  78
ATOM     78  C   UNL     1       3.013   4.246  -0.920  1.00  0.00     0.310 C 
ATOM     79  O   UNL     1       2.502   4.430  -2.007  1.00  0.00    -0.252 OA
BRANCH  78  80
ATOM     80  C   UNL     1       2.583   4.970   0.321  1.00  0.00     0.119 C 
ATOM     81  C   UNL     1       2.008   6.399   0.089  1.00  0.00     0.100 C 
ATOM     82  C   UNL     1       3.604   5.200   1.462  1.00  0.00     0.027 C 
ATOM     83  C   UNL     1       2.684   7.231   1.210  1.00  0.00     0.025 C 
ATOM     84  C   UNL     1       4.710   6.158   1.094  1.00  0.00    -0.027 C 
ATOM     85  C   UNL     1       2.787   6.174   2.330  1.00  0.00     0.017 C 
ATOM     86  C   UNL     1       4.160   7.374   0.958  1.00  0.00    -0.027 C 
BRANCH  81  87
ATOM     87  C   UNL     1       1.906   6.995  -1.331  1.00  0.00     0.224 C 
ATOM     88  O   UNL     1       0.798   7.408  -1.708  1.00  0.00    -0.275 OA
ATOM     89  N   UNL     1       2.905   7.100  -2.251  1.00  0.00    -0.352 N 
ATOM     90  H   UNL     1       2.593   7.345  -3.152  1.00  0.00     0.163 HD
BRANCH  89  91
ATOM     91  C   UNL     1       4.338   6.920  -2.156  1.00  0.00     0.153 C 
BRANCH  91  92
ATOM     92  C   UNL     1       5.065   6.266  -3.321  1.00  0.00    -0.010 A 
ATOM     93  C   UNL     1       4.439   5.345  -4.179  1.00  0.00     0.007 A 
ATOM     94  C   UNL     1       6.468   6.378  -3.412  1.00  0.00     0.046 A 
ATOM     95  C   UNL     1       5.191   4.520  -5.032  1.00  0.00     0.000 A 
ATOM     96  C   UNL     1       7.215   5.545  -4.256  1.00  0.00     0.021 A 
ATOM     97  Cl  UNL     1       7.360   7.511  -2.457  1.00  0.00    -0.084 Cl
ATOM     98  C   UNL     1       6.579   4.593  -5.044  1.00  0.00     0.002 A 
ENDBRANCH  91  92
ENDBRANCH  89  91
ENDBRANCH  81  87
ENDBRANCH  78  80
ENDBRANCH  77  78
ENDBRANCH  76  77
ENDBRANCH  75  76
ENDBRANCH  74  75
ENDBRANCH  73  74
ENDBRANCH   1  73
TORSDOF 23
