REMARK SMILES O=C(OCCOCCOCCOC(=O)c1cc(F)ccc1NS(=O)(=O)c1ccc(Cl)s1)c1ccc(-c2c3nc(c(-c4cccc(S(=O)(=O)[O-])c4F)c4ccc([nH]4)c(-c4cccc(S(=O)(=O)[O-])c4F)c4nc(c(-c5cccc(S(=O)(=O)[O-])c5F)c5ccc2[nH]5)C=C4)C=C3)cc1
REMARK SMILES IDX 7 1 6 2 5 3 4 4 3 5 2 6 1 7 32 8 33 9 94 10 34 11 93 12
REMARK SMILES IDX 35 13 36 14 37 15 87 16 38 17 92 18 86 19 88 20 39 21 91 22
REMARK SMILES IDX 85 23 84 24 40 26 72 27 52 28 71 29 53 30 56 31 70 32 89 33
REMARK SMILES IDX 54 34 55 35 69 37 90 38 57 39 41 40 42 41 50 42 43 43 45 44
REMARK SMILES IDX 51 45 44 46 46 47 47 48 48 49 49 50 73 51 74 52 82 53 75 54
REMARK SMILES IDX 77 55 83 56 76 57 78 58 79 59 80 60 81 61 58 62 59 63 67 64
REMARK SMILES IDX 60 65 62 66 68 67 61 68 63 69 64 70 65 71 66 72 8 73 9 74
REMARK SMILES IDX 10 75 11 76 12 77 13 78 14 79 15 80 16 81 21 82 17 83 20 84
REMARK SMILES IDX 18 85 19 86 22 87 23 89 24 90 25 91 26 92 27 93 31 94 28 95
REMARK SMILES IDX 29 96 30 97
REMARK H PARENT 88 25 56 36 22 88
REMARK Flexibility Score: inf
ROOT
ATOM      1  C   UNL     1       3.132  -1.976  -0.208  1.00  0.00     0.188 C 
ENDROOT
BRANCH   1   2
ATOM      2  O   UNL     1       4.262  -2.356   0.574  1.00  0.00    -0.376 OA
BRANCH   2   3
ATOM      3  C   UNL     1       5.290  -1.370   0.673  1.00  0.00     0.202 C 
BRANCH   3   4
ATOM      4  C   UNL     1       4.936  -0.157   1.549  1.00  0.00     0.261 C 
BRANCH   4   5
ATOM      5  O   UNL     1       3.566   0.308   1.477  1.00  0.00    -0.460 OA
BRANCH   5   6
ATOM      6  C   UNL     1       2.908   1.262   0.783  1.00  0.00     0.338 C 
ATOM      7  O   UNL     1       1.839   1.666   1.233  1.00  0.00    -0.246 OA
BRANCH   6   8
ATOM      8  C   UNL     1       3.372   1.801  -0.528  1.00  0.00     0.060 A 
ATOM      9  C   UNL     1       4.361   1.222  -1.314  1.00  0.00     0.016 A 
ATOM     10  C   UNL     1       2.723   2.933  -1.042  1.00  0.00     0.016 A 
ATOM     11  C   UNL     1       4.803   1.797  -2.502  1.00  0.00     0.010 A 
ATOM     12  C   UNL     1       3.127   3.502  -2.256  1.00  0.00     0.010 A 
ATOM     13  C   UNL     1       4.211   2.963  -2.965  1.00  0.00    -0.014 A 
BRANCH  13  14
ATOM     14  C   UNL     1       4.850   3.732  -4.053  1.00  0.00     0.031 A 
ATOM     15  C   UNL     1       5.502   5.030  -3.686  1.00  0.00     0.074 A 
ATOM     16  C   UNL     1       4.936   3.265  -5.313  1.00  0.00     0.049 A 
ATOM     17  N   UNL     1       5.973   5.964  -4.462  1.00  0.00    -0.248 NA
ATOM     18  C   UNL     1       5.679   5.294  -2.245  1.00  0.00     0.031 C 
ATOM     19  C   UNL     1       4.552   1.926  -5.746  1.00  0.00     0.029 A 
ATOM     20  N   UNL     1       5.359   3.873  -6.468  1.00  0.00    -0.354 N 
ATOM     21  C   UNL     1       6.474   6.936  -3.608  1.00  0.00     0.074 A 
ATOM     22  C   UNL     1       6.241   6.492  -2.254  1.00  0.00     0.031 C 
ATOM     23  C   UNL     1       4.679   1.839  -7.080  1.00  0.00     0.029 A 
ATOM     24  C   UNL     1       5.096   3.129  -7.596  1.00  0.00     0.049 A 
ATOM     25  H   UNL     1       5.806   4.750  -6.488  1.00  0.00     0.167 HD
ATOM     26  C   UNL     1       7.097   8.087  -3.936  1.00  0.00     0.034 A 
ATOM     27  C   UNL     1       5.137   3.466  -8.899  1.00  0.00     0.034 A 
ATOM     28  C   UNL     1       7.337   8.495  -5.290  1.00  0.00     0.049 A 
ATOM     29  C   UNL     1       5.673   4.825  -9.243  1.00  0.00     0.074 A 
ATOM     30  C   UNL     1       7.921   9.660  -5.745  1.00  0.00     0.029 A 
ATOM     31  N   UNL     1       7.003   7.744  -6.407  1.00  0.00    -0.354 N 
ATOM     32  N   UNL     1       6.126   5.751  -8.433  1.00  0.00    -0.248 NA
ATOM     33  C   UNL     1       5.764   5.167 -10.667  1.00  0.00     0.031 C 
ATOM     34  C   UNL     1       7.915   9.626  -7.142  1.00  0.00     0.029 A 
ATOM     35  C   UNL     1       7.365   8.422  -7.555  1.00  0.00     0.049 A 
ATOM     36  H   UNL     1       6.573   6.859  -6.385  1.00  0.00     0.167 HD
ATOM     37  C   UNL     1       6.615   6.760  -9.248  1.00  0.00     0.074 A 
ATOM     38  C   UNL     1       6.407   6.325 -10.616  1.00  0.00     0.031 C 
ATOM     39  C   UNL     1       7.184   7.940  -8.900  1.00  0.00     0.034 A 
BRANCH  26  40
ATOM     40  C   UNL     1       7.552   8.978  -2.817  1.00  0.00     0.023 A 
ATOM     41  C   UNL     1       8.688   8.633  -2.059  1.00  0.00     0.012 A 
ATOM     42  C   UNL     1       6.884  10.190  -2.560  1.00  0.00     0.148 A 
ATOM     43  C   UNL     1       9.148   9.480  -1.051  1.00  0.00     0.002 A 
ATOM     44  C   UNL     1       7.375  11.050  -1.588  1.00  0.00     0.091 A 
ATOM     45  F   UNL     1       5.788  10.477  -3.277  1.00  0.00    -0.205 F 
ATOM     46  C   UNL     1       8.500  10.693  -0.826  1.00  0.00     0.022 A 
BRANCH  44  47
ATOM     47  S   UNL     1       6.660  12.665  -1.274  1.00  0.00     0.127 S 
ATOM     48  O   UNL     1       6.307  12.563   0.143  1.00  0.00    -0.237 OA
ATOM     49  O   UNL     1       7.785  13.553  -1.561  1.00  0.00    -0.237 OA
ATOM     50  O   UNL     1       5.526  12.790  -2.179  1.00  0.00    -0.744 OA
ENDBRANCH  44  47
ENDBRANCH  26  40
BRANCH  27  51
ATOM     51  C   UNL     1       4.669   2.521  -9.955  1.00  0.00     0.023 A 
ATOM     52  C   UNL     1       5.587   1.979 -10.873  1.00  0.00     0.012 A 
ATOM     53  C   UNL     1       3.308   2.166 -10.063  1.00  0.00     0.148 A 
ATOM     54  C   UNL     1       5.156   1.137 -11.901  1.00  0.00     0.002 A 
ATOM     55  C   UNL     1       2.891   1.288 -11.060  1.00  0.00     0.091 A 
ATOM     56  F   UNL     1       2.440   2.700  -9.191  1.00  0.00    -0.205 F 
ATOM     57  C   UNL     1       3.811   0.786 -11.991  1.00  0.00     0.022 A 
BRANCH  55  58
ATOM     58  S   UNL     1       1.192   0.712 -11.180  1.00  0.00     0.127 S 
ATOM     59  O   UNL     1       0.704   1.460 -12.335  1.00  0.00    -0.237 OA
ATOM     60  O   UNL     1       1.366  -0.722 -11.405  1.00  0.00    -0.237 OA
ATOM     61  O   UNL     1       0.578   1.049  -9.900  1.00  0.00    -0.744 OA
ENDBRANCH  55  58
ENDBRANCH  27  51
BRANCH  39  62
ATOM     62  C   UNL     1       7.668   8.821 -10.015  1.00  0.00     0.023 A 
ATOM     63  C   UNL     1       6.740   9.481 -10.843  1.00  0.00     0.012 A 
ATOM     64  C   UNL     1       9.046   9.050 -10.188  1.00  0.00     0.148 A 
ATOM     65  C   UNL     1       7.181  10.326 -11.858  1.00  0.00     0.002 A 
ATOM     66  C   UNL     1       9.474   9.944 -11.159  1.00  0.00     0.091 A 
ATOM     67  F   UNL     1       9.910   8.393  -9.400  1.00  0.00    -0.205 F 
ATOM     68  C   UNL     1       8.545  10.569 -12.006  1.00  0.00     0.022 A 
BRANCH  66  69
ATOM     69  S   UNL     1      11.198  10.408 -11.336  1.00  0.00     0.127 S 
ATOM     70  O   UNL     1      11.565   9.720 -12.572  1.00  0.00    -0.237 OA
ATOM     71  O   UNL     1      11.116  11.864 -11.448  1.00  0.00    -0.237 OA
ATOM     72  O   UNL     1      11.867   9.932 -10.132  1.00  0.00    -0.744 OA
ENDBRANCH  66  69
ENDBRANCH  39  62
ENDBRANCH  13  14
ENDBRANCH   6   8
ENDBRANCH   5   6
ENDBRANCH   4   5
ENDBRANCH   3   4
ENDBRANCH   2   3
ENDBRANCH   1   2
BRANCH   1  73
ATOM     73  C   UNL     1       2.191  -3.137  -0.548  1.00  0.00     0.188 C 
BRANCH  73  74
ATOM     74  O   UNL     1       2.710  -4.426  -0.831  1.00  0.00    -0.376 OA
BRANCH  74  75
ATOM     75  C   UNL     1       4.016  -4.542  -1.356  1.00  0.00     0.202 C 
BRANCH  75  76
ATOM     76  C   UNL     1       4.310  -3.963  -2.745  1.00  0.00     0.261 C 
BRANCH  76  77
ATOM     77  O   UNL     1       3.633  -2.752  -3.132  1.00  0.00    -0.460 OA
BRANCH  77  78
ATOM     78  C   UNL     1       2.493  -2.953  -3.845  1.00  0.00     0.340 C 
ATOM     79  O   UNL     1       1.874  -3.999  -3.942  1.00  0.00    -0.246 OA
BRANCH  78  80
ATOM     80  C   UNL     1       2.240  -1.804  -4.729  1.00  0.00     0.087 A 
ATOM     81  C   UNL     1       2.691  -2.019  -6.045  1.00  0.00     0.057 A 
ATOM     82  C   UNL     1       1.591  -0.604  -4.374  1.00  0.00     0.064 A 
ATOM     83  C   UNL     1       2.492  -1.051  -7.012  1.00  0.00     0.124 A 
ATOM     84  C   UNL     1       1.550   0.393  -5.353  1.00  0.00     0.030 A 
ATOM     85  F   UNL     1       2.970  -1.246  -8.245  1.00  0.00    -0.207 F 
ATOM     86  C   UNL     1       1.904   0.151  -6.680  1.00  0.00     0.041 A 
BRANCH  82  87
ATOM     87  N   UNL     1       1.182  -0.275  -3.026  1.00  0.00    -0.278 N 
ATOM     88  H   UNL     1       1.784  -0.470  -2.273  1.00  0.00     0.180 HD
BRANCH  87  89
ATOM     89  S   UNL     1      -0.349   0.455  -2.726  1.00  0.00     0.271 S 
ATOM     90  O   UNL     1      -1.333  -0.594  -2.938  1.00  0.00    -0.200 OA
ATOM     91  O   UNL     1      -0.245   1.092  -1.437  1.00  0.00    -0.200 OA
BRANCH  89  92
ATOM     92  C   UNL     1      -0.789   1.716  -3.902  1.00  0.00     0.141 A 
ATOM     93  C   UNL     1      -1.414   1.636  -5.138  1.00  0.00     0.036 A 
ATOM     94  S   UNL     1      -0.326   3.332  -3.553  1.00  0.00    -0.110 S 
ATOM     95  C   UNL     1      -1.348   2.864  -5.862  1.00  0.00     0.034 A 
ATOM     96  C   UNL     1      -0.772   3.848  -5.103  1.00  0.00     0.094 A 
ATOM     97  Cl  UNL     1      -0.469   5.468  -5.585  1.00  0.00    -0.072 Cl
ENDBRANCH  89  92
ENDBRANCH  87  89
ENDBRANCH  82  87
ENDBRANCH  78  80
ENDBRANCH  77  78
ENDBRANCH  76  77
ENDBRANCH  75  76
ENDBRANCH  74  75
ENDBRANCH  73  74
ENDBRANCH   1  73
TORSDOF 23
