REMARK SMILES Cc1cc(C(=O)N[C@](C)(C(=O)OCCOCCOCCOC(=O)c2ccc(-c3c4nc(c(-c5cccc(S(=O)(=O)[O-])c5F)c5ccc([nH]5)c(-c5cccc(S(=O)(=O)[O-])c5F)c5nc(c(-c6cccc(S(=O)(=O)[O-])c6F)c6ccc3[nH]6)C=C5)C=C4)cc2)C(F)(F)F)no1
REMARK SMILES IDX 17 1 16 2 15 3 14 4 13 5 12 6 10 7 11 8 8 9 9 10 7 11 5 12
REMARK SMILES IDX 6 13 4 15 1 16 2 17 3 18 92 19 91 20 87 21 88 22 89 23 90 24
REMARK SMILES IDX 18 25 19 26 20 27 21 28 22 29 23 30 24 31 25 32 86 33 26 34
REMARK SMILES IDX 85 35 27 36 28 37 29 38 79 39 30 40 84 41 78 42 80 43 31 44
REMARK SMILES IDX 83 45 77 46 76 47 32 49 64 50 44 51 63 52 45 53 48 54 62 55
REMARK SMILES IDX 81 56 46 57 47 58 61 60 82 61 49 62 33 63 34 64 42 65 35 66
REMARK SMILES IDX 37 67 43 68 36 69 38 70 39 71 40 72 41 73 65 74 66 75 74 76
REMARK SMILES IDX 67 77 69 78 75 79 68 80 70 81 71 82 72 83 73 84 50 85 51 86
REMARK SMILES IDX 59 87 52 88 54 89 60 90 53 91 55 92 56 93 57 94 58 95
REMARK H PARENT 7 14 80 48 48 59
REMARK Flexibility Score: inf
ROOT
ATOM      1  C   UNL     1      -2.724  -2.775  -2.899  1.00  0.00     0.188 C 
ENDROOT
BRANCH   1   2
ATOM      2  C   UNL     1      -1.320  -2.982  -3.509  1.00  0.00     0.188 C 
BRANCH   2   3
ATOM      3  O   UNL     1      -1.139  -3.990  -4.489  1.00  0.00    -0.376 OA
BRANCH   3   4
ATOM      4  C   UNL     1      -1.649  -5.278  -4.208  1.00  0.00     0.202 C 
BRANCH   4   5
ATOM      5  C   UNL     1      -1.303  -5.901  -2.860  1.00  0.00     0.261 C 
BRANCH   5   6
ATOM      6  O   UNL     1      -1.598  -5.139  -1.672  1.00  0.00    -0.461 OA
BRANCH   6   7
ATOM      7  C   UNL     1      -0.549  -4.887  -0.835  1.00  0.00     0.341 C 
ATOM      8  O   UNL     1       0.618  -5.135  -1.115  1.00  0.00    -0.249 OA
BRANCH   7   9
ATOM      9  C   UNL     1      -0.991  -4.419   0.552  1.00  0.00     0.231 C 
ATOM     10  C   UNL     1      -2.477  -4.055   0.703  1.00  0.00     0.058 C 
BRANCH   9  11
ATOM     11  N   UNL     1      -0.634  -5.431   1.605  1.00  0.00    -0.328 N 
ATOM     12  C   UNL     1      -0.985  -6.758   1.716  1.00  0.00     0.274 C 
ATOM     13  O   UNL     1      -1.061  -7.235   2.848  1.00  0.00    -0.267 OA
ATOM     14  H   UNL     1      -0.059  -5.092   2.329  1.00  0.00     0.165 HD
BRANCH  12  15
ATOM     15  C   UNL     1      -1.175  -7.570   0.519  1.00  0.00     0.171 A 
ATOM     16  C   UNL     1      -0.545  -9.237  -2.700  1.00  0.00     0.091 C 
ATOM     17  C   UNL     1      -0.885  -8.690  -1.369  1.00  0.00     0.134 A 
ATOM     18  C   UNL     1      -0.192  -7.968  -0.429  1.00  0.00     0.082 A 
ATOM     19  O   UNL     1      -2.184  -8.792  -0.977  1.00  0.00    -0.361 OA
ATOM     20  N   UNL     1      -2.370  -8.098   0.207  1.00  0.00    -0.074 NA
ENDBRANCH  12  15
ENDBRANCH   9  11
BRANCH   9  21
ATOM     21  C   UNL     1      -0.177  -3.115   0.735  1.00  0.00     0.422 C 
ATOM     22  F   UNL     1      -0.431  -2.215  -0.242  1.00  0.00    -0.168 F 
ATOM     23  F   UNL     1      -0.516  -2.523   1.912  1.00  0.00    -0.168 F 
ATOM     24  F   UNL     1       1.154  -3.321   0.788  1.00  0.00    -0.168 F 
ENDBRANCH   9  21
ENDBRANCH   7   9
ENDBRANCH   6   7
ENDBRANCH   5   6
ENDBRANCH   4   5
ENDBRANCH   3   4
ENDBRANCH   2   3
ENDBRANCH   1   2
BRANCH   1  25
ATOM     25  O   UNL     1      -3.732  -3.679  -3.328  1.00  0.00    -0.376 OA
BRANCH  25  26
ATOM     26  C   UNL     1      -4.707  -3.128  -4.212  1.00  0.00     0.202 C 
BRANCH  26  27
ATOM     27  C   UNL     1      -4.196  -2.763  -5.614  1.00  0.00     0.261 C 
BRANCH  27  28
ATOM     28  O   UNL     1      -3.144  -1.784  -5.648  1.00  0.00    -0.460 OA
BRANCH  28  29
ATOM     29  C   UNL     1      -3.409  -0.554  -5.141  1.00  0.00     0.338 C 
ATOM     30  O   UNL     1      -4.472  -0.148  -4.732  1.00  0.00    -0.246 OA
BRANCH  29  31
ATOM     31  C   UNL     1      -2.097   0.104  -4.913  1.00  0.00     0.060 A 
ATOM     32  C   UNL     1      -1.798   0.574  -3.624  1.00  0.00     0.016 A 
ATOM     33  C   UNL     1      -1.133   0.153  -5.923  1.00  0.00     0.016 A 
ATOM     34  C   UNL     1      -0.537   1.104  -3.347  1.00  0.00     0.010 A 
ATOM     35  C   UNL     1       0.114   0.722  -5.656  1.00  0.00     0.010 A 
ATOM     36  C   UNL     1       0.405   1.228  -4.377  1.00  0.00    -0.014 A 
BRANCH  36  37
ATOM     37  C   UNL     1       1.545   2.160  -4.211  1.00  0.00     0.031 A 
ATOM     38  C   UNL     1       1.303   3.599  -4.583  1.00  0.00     0.074 A 
ATOM     39  C   UNL     1       2.754   1.763  -3.775  1.00  0.00     0.049 A 
ATOM     40  N   UNL     1       2.130   4.609  -4.586  1.00  0.00    -0.248 NA
ATOM     41  C   UNL     1      -0.066   3.940  -5.016  1.00  0.00     0.031 C 
ATOM     42  C   UNL     1       3.112   0.406  -3.370  1.00  0.00     0.029 A 
ATOM     43  N   UNL     1       3.918   2.477  -3.629  1.00  0.00    -0.354 N 
ATOM     44  C   UNL     1       1.390   5.696  -5.034  1.00  0.00     0.074 A 
ATOM     45  C   UNL     1       0.052   5.224  -5.307  1.00  0.00     0.031 C 
ATOM     46  C   UNL     1       4.420   0.378  -3.051  1.00  0.00     0.029 A 
ATOM     47  C   UNL     1       4.995   1.708  -3.252  1.00  0.00     0.049 A 
ATOM     48  H   UNL     1       3.977   3.448  -3.780  1.00  0.00     0.167 HD
ATOM     49  C   UNL     1       1.780   6.980  -5.195  1.00  0.00     0.034 A 
ATOM     50  C   UNL     1       6.295   2.043  -3.111  1.00  0.00     0.034 A 
ATOM     51  C   UNL     1       3.109   7.452  -4.938  1.00  0.00     0.049 A 
ATOM     52  C   UNL     1       6.718   3.474  -3.351  1.00  0.00     0.074 A 
ATOM     53  C   UNL     1       3.603   8.737  -5.057  1.00  0.00     0.029 A 
ATOM     54  N   UNL     1       4.162   6.651  -4.526  1.00  0.00    -0.354 N 
ATOM     55  N   UNL     1       5.984   4.516  -3.662  1.00  0.00    -0.248 NA
ATOM     56  C   UNL     1       8.149   3.781  -3.191  1.00  0.00     0.031 C 
ATOM     57  C   UNL     1       4.965   8.709  -4.739  1.00  0.00     0.029 A 
ATOM     58  C   UNL     1       5.309   7.412  -4.394  1.00  0.00     0.049 A 
ATOM     59  H   UNL     1       4.103   5.683  -4.354  1.00  0.00     0.167 HD
ATOM     60  C   UNL     1       6.853   5.603  -3.694  1.00  0.00     0.074 A 
ATOM     61  C   UNL     1       8.166   5.097  -3.353  1.00  0.00     0.031 C 
ATOM     62  C   UNL     1       6.594   6.901  -3.990  1.00  0.00     0.034 A 
BRANCH  49  63
ATOM     63  C   UNL     1       0.740   7.962  -5.658  1.00  0.00     0.023 A 
ATOM     64  C   UNL     1      -0.273   8.372  -4.767  1.00  0.00     0.012 A 
ATOM     65  C   UNL     1       0.775   8.493  -6.961  1.00  0.00     0.148 A 
ATOM     66  C   UNL     1      -1.253   9.274  -5.175  1.00  0.00     0.002 A 
ATOM     67  C   UNL     1      -0.180   9.425  -7.346  1.00  0.00     0.091 A 
ATOM     68  F   UNL     1       1.727   8.063  -7.801  1.00  0.00    -0.205 F 
ATOM     69  C   UNL     1      -1.200   9.808  -6.460  1.00  0.00     0.022 A 
BRANCH  67  70
ATOM     70  S   UNL     1      -0.158  10.223  -8.954  1.00  0.00     0.127 S 
ATOM     71  O   UNL     1      -1.329   9.627  -9.595  1.00  0.00    -0.237 OA
ATOM     72  O   UNL     1      -0.309  11.634  -8.598  1.00  0.00    -0.237 OA
ATOM     73  O   UNL     1       1.124   9.882  -9.555  1.00  0.00    -0.744 OA
ENDBRANCH  67  70
ENDBRANCH  49  63
BRANCH  50  74
ATOM     74  C   UNL     1       7.301   1.022  -2.694  1.00  0.00     0.023 A 
ATOM     75  C   UNL     1       7.920   1.134  -1.434  1.00  0.00     0.012 A 
ATOM     76  C   UNL     1       7.666  -0.041  -3.544  1.00  0.00     0.148 A 
ATOM     77  C   UNL     1       8.909   0.230  -1.042  1.00  0.00     0.002 A 
ATOM     78  C   UNL     1       8.614  -0.969  -3.126  1.00  0.00     0.091 A 
ATOM     79  F   UNL     1       7.085  -0.118  -4.749  1.00  0.00    -0.205 F 
ATOM     80  C   UNL     1       9.250  -0.826  -1.883  1.00  0.00     0.022 A 
BRANCH  78  81
ATOM     81  S   UNL     1       9.037  -2.420  -4.096  1.00  0.00     0.127 S 
ATOM     82  O   UNL     1      10.391  -2.099  -4.541  1.00  0.00    -0.237 OA
ATOM     83  O   UNL     1       8.954  -3.486  -3.097  1.00  0.00    -0.237 OA
ATOM     84  O   UNL     1       8.029  -2.500  -5.145  1.00  0.00    -0.744 OA
ENDBRANCH  78  81
ENDBRANCH  50  74
BRANCH  62  85
ATOM     85  C   UNL     1       7.732   7.886  -3.917  1.00  0.00     0.023 A 
ATOM     86  C   UNL     1       8.733   7.879  -4.908  1.00  0.00     0.012 A 
ATOM     87  C   UNL     1       7.756   8.879  -2.917  1.00  0.00     0.148 A 
ATOM     88  C   UNL     1       9.757   8.827  -4.887  1.00  0.00     0.002 A 
ATOM     89  C   UNL     1       8.750   9.850  -2.932  1.00  0.00     0.091 A 
ATOM     90  F   UNL     1       6.802   8.861  -1.974  1.00  0.00    -0.205 F 
ATOM     91  C   UNL     1       9.758   9.818  -3.909  1.00  0.00     0.022 A 
BRANCH  89  92
ATOM     92  S   UNL     1       8.772  11.223  -1.773  1.00  0.00     0.127 S 
ATOM     93  O   UNL     1       9.886  10.857  -0.899  1.00  0.00    -0.237 OA
ATOM     94  O   UNL     1       9.034  12.366  -2.649  1.00  0.00    -0.237 OA
ATOM     95  O   UNL     1       7.460  11.236  -1.141  1.00  0.00    -0.744 OA
ENDBRANCH  89  92
ENDBRANCH  62  85
ENDBRANCH  36  37
ENDBRANCH  29  31
ENDBRANCH  28  29
ENDBRANCH  27  28
ENDBRANCH  26  27
ENDBRANCH  25  26
ENDBRANCH   1  25
TORSDOF 23
