REMARK SMILES O=C(/C=C/[C@@]12C=C(O)C(=O)C=C1C(=O)C1=Cc3cc(O)c(O)cc3O[C@@H](c3ccc(O)c(O)c3)[C@@H]12)OCCOCCOCCOC(=O)c1ccc(-c2c3nc(c(-c4cccc(S(=O)(=O)[O-])c4F)c4ccc([nH]4)c(-c4cccc(S(=O)(=O)[O-])c4F)c4nc(c(-c5cccc(S(=O)(=O)[O-])c5F)c5ccc2[nH]5)C=C4)C=C3)cc1
REMARK SMILES IDX 39 1 38 2 37 3 36 4 2 5 1 6 3 7 4 8 5 9 6 10 12 11 35 12
REMARK SMILES IDX 7 13 11 14 13 15 15 16 9 18 14 19 16 20 10 21 8 22 17 24
REMARK SMILES IDX 18 25 24 26 19 27 23 28 21 29 25 30 26 31 27 33 28 34 34 35
REMARK SMILES IDX 29 36 32 37 30 38 33 39 31 41 20 43 22 45 40 47 41 48 42 49
REMARK SMILES IDX 43 50 44 51 45 52 46 53 47 54 48 55 49 56 110 57 50 58
REMARK SMILES IDX 109 59 51 60 52 61 53 62 103 63 54 64 108 65 102 66 104 67
REMARK SMILES IDX 55 68 107 69 101 70 100 71 56 73 88 74 68 75 87 76 69 77
REMARK SMILES IDX 72 78 86 79 105 80 70 81 71 82 85 84 106 85 73 86 57 87
REMARK SMILES IDX 58 88 66 89 59 90 61 91 67 92 60 93 62 94 63 95 64 96 65 97
REMARK SMILES IDX 89 98 90 99 98 100 91 101 93 102 99 103 92 104 94 105 95 106
REMARK SMILES IDX 96 107 97 108 74 109 75 110 83 111 76 112 78 113 84 114
REMARK SMILES IDX 77 115 79 116 80 117 81 118 82 119
REMARK H PARENT 8 23 33 40 31 42 20 44 22 46 104 72 72 83
REMARK Flexibility Score: 90.00
ROOT
ATOM      1  O   UNL     1       4.313   1.628   0.468  1.00  0.00    -0.376 OA
ENDROOT
BRANCH   1   2
ATOM      2  C   UNL     1       5.031   1.157  -0.657  1.00  0.00     0.202 C 
BRANCH   2   3
ATOM      3  C   UNL     1       4.465   0.260  -1.765  1.00  0.00     0.261 C 
BRANCH   3   4
ATOM      4  O   UNL     1       3.237  -0.468  -1.633  1.00  0.00    -0.460 OA
BRANCH   4   5
ATOM      5  C   UNL     1       2.886  -1.449  -0.783  1.00  0.00     0.330 C 
ATOM      6  O   UNL     1       1.925  -2.170  -1.029  1.00  0.00    -0.247 OA
BRANCH   5   7
ATOM      7  C   UNL     1       3.473  -1.490   0.566  1.00  0.00     0.090 C 
ATOM      8  C   UNL     1       4.763  -1.361   0.927  1.00  0.00    -0.003 C 
BRANCH   8   9
ATOM      9  C   UNL     1       5.332  -1.550   2.359  1.00  0.00     0.051 C 
ATOM     10  C   UNL     1       4.245  -1.281   3.339  1.00  0.00     0.040 C 
ATOM     11  C   UNL     1       5.791  -2.981   2.316  1.00  0.00     0.018 C 
ATOM     12  C   UNL     1       6.679  -0.849   2.759  1.00  0.00     0.087 CG0
ATOM     13  C   UNL     1       3.559  -2.277   3.899  1.00  0.00     0.160 C 
ATOM     14  C   UNL     1       5.136  -4.011   2.859  1.00  0.00     0.065 C 
ATOM     15  C   UNL     1       7.093  -2.931   1.584  1.00  0.00     0.186 C 
ATOM     16  C   UNL     1       7.629  -1.548   1.809  1.00  0.00     0.009 C 
ATOM     17  G   UNL     1       7.289  -1.146   4.192  1.00  0.00     0.000 G0
ATOM     18  C   UNL     1       3.916  -3.710   3.653  1.00  0.00     0.220 C 
ATOM     19  O   UNL     1       7.601  -3.816   0.921  1.00  0.00    -0.289 OA
ATOM     20  C   UNL     1       8.807  -1.048   1.419  1.00  0.00     0.020 C 
ATOM     21  O   UNL     1       3.243  -4.593   4.168  1.00  0.00    -0.286 OA
BRANCH  13  22
ATOM     22  O   UNL     1       2.523  -1.993   4.742  1.00  0.00    -0.504 OA
ATOM     23  H   UNL     1       2.284  -1.102   4.909  1.00  0.00     0.293 HD
ENDBRANCH  13  22
BRANCH  20  24
ATOM     24  C   UNL     1       9.364   0.086   2.188  1.00  0.00     0.021 A 
ATOM     25  C   UNL     1      10.053   1.134   1.557  1.00  0.00     0.062 A 
ATOM     26  C   UNL     1       9.341   0.040   3.601  1.00  0.00     0.131 A 
ATOM     27  C   UNL     1      10.736   2.075   2.335  1.00  0.00     0.158 A 
ATOM     28  C   UNL     1      10.092   0.940   4.359  1.00  0.00     0.097 A 
ATOM     29  C   UNL     1      10.770   1.961   3.722  1.00  0.00     0.161 A 
BRANCH  26  30
ATOM     30  O   UNL     1       8.730  -0.952   4.322  1.00  0.00    -0.484 OA
BRANCH  30  31
ATOM     31  C   UNL     1       7.289  -1.146   4.192  1.00  0.00     0.213 CG0
ATOM     32  G   UNL     1       6.679  -0.849   2.759  1.00  0.00     0.000 G0
BRANCH  31  33
ATOM     33  C   UNL     1       6.613  -0.564   5.429  1.00  0.00    -0.003 A 
ATOM     34  C   UNL     1       5.685  -1.342   6.152  1.00  0.00     0.011 A 
ATOM     35  C   UNL     1       6.946   0.690   5.952  1.00  0.00     0.057 A 
ATOM     36  C   UNL     1       5.039  -0.857   7.293  1.00  0.00     0.050 A 
ATOM     37  C   UNL     1       6.369   1.134   7.144  1.00  0.00     0.157 A 
ATOM     38  C   UNL     1       5.395   0.383   7.796  1.00  0.00     0.157 A 
BRANCH  37  39
ATOM     39  O   UNL     1       6.778   2.333   7.655  1.00  0.00    -0.504 OA
ATOM     40  H   UNL     1       6.407   2.654   8.453  1.00  0.00     0.293 HD
ENDBRANCH  37  39
BRANCH  38  41
ATOM     41  O   UNL     1       4.800   0.876   8.920  1.00  0.00    -0.504 OA
ATOM     42  H   UNL     1       4.144   0.373   9.362  1.00  0.00     0.293 HD
ENDBRANCH  38  41
ENDBRANCH  31  33
ENDBRANCH  30  31
ENDBRANCH  26  30
BRANCH  27  43
ATOM     43  O   UNL     1      11.427   3.120   1.782  1.00  0.00    -0.504 OA
ATOM     44  H   UNL     1      11.434   3.238   0.853  1.00  0.00     0.293 HD
ENDBRANCH  27  43
BRANCH  29  45
ATOM     45  O   UNL     1      11.482   2.849   4.476  1.00  0.00    -0.504 OA
ATOM     46  H   UNL     1      11.948   3.548   4.061  1.00  0.00     0.293 HD
ENDBRANCH  29  45
ENDBRANCH  20  24
ENDBRANCH   8   9
ENDBRANCH   5   7
ENDBRANCH   4   5
ENDBRANCH   3   4
ENDBRANCH   2   3
ENDBRANCH   1   2
BRANCH   1  47
ATOM     47  C   UNL     1       2.903   1.620   0.538  1.00  0.00     0.188 C 
BRANCH  47  48
ATOM     48  C   UNL     1       2.107   2.869   0.150  1.00  0.00     0.188 C 
BRANCH  48  49
ATOM     49  O   UNL     1       2.709   3.906  -0.593  1.00  0.00    -0.376 OA
BRANCH  49  50
ATOM     50  C   UNL     1       3.982   4.387  -0.206  1.00  0.00     0.202 C 
BRANCH  50  51
ATOM     51  C   UNL     1       4.312   4.767   1.248  1.00  0.00     0.261 C 
BRANCH  51  52
ATOM     52  O   UNL     1       3.921   3.846   2.278  1.00  0.00    -0.460 OA
BRANCH  52  53
ATOM     53  C   UNL     1       2.829   4.219   2.992  1.00  0.00     0.338 C 
ATOM     54  O   UNL     1       2.115   5.183   2.773  1.00  0.00    -0.246 OA
BRANCH  53  55
ATOM     55  C   UNL     1       2.534   3.227   4.046  1.00  0.00     0.060 A 
ATOM     56  C   UNL     1       3.393   3.088   5.129  1.00  0.00     0.016 A 
ATOM     57  C   UNL     1       1.306   2.552   4.038  1.00  0.00     0.016 A 
ATOM     58  C   UNL     1       2.996   2.299   6.214  1.00  0.00     0.010 A 
ATOM     59  C   UNL     1       0.920   1.757   5.132  1.00  0.00     0.010 A 
ATOM     60  C   UNL     1       1.751   1.631   6.250  1.00  0.00    -0.014 A 
BRANCH  60  61
ATOM     61  C   UNL     1       1.316   0.987   7.528  1.00  0.00     0.031 A 
ATOM     62  C   UNL     1       1.082  -0.484   7.697  1.00  0.00     0.074 A 
ATOM     63  C   UNL     1       1.156   1.749   8.629  1.00  0.00     0.049 A 
ATOM     64  N   UNL     1       1.312  -1.220   8.758  1.00  0.00    -0.248 NA
ATOM     65  C   UNL     1       0.533  -1.233   6.565  1.00  0.00     0.031 C 
ATOM     66  C   UNL     1       1.209   3.209   8.652  1.00  0.00     0.029 A 
ATOM     67  N   UNL     1       0.924   1.398   9.936  1.00  0.00    -0.354 N 
ATOM     68  C   UNL     1       1.056  -2.530   8.375  1.00  0.00     0.074 A 
ATOM     69  C   UNL     1       0.579  -2.484   7.014  1.00  0.00     0.031 C 
ATOM     70  C   UNL     1       1.045   3.631   9.914  1.00  0.00     0.029 A 
ATOM     71  C   UNL     1       0.867   2.474  10.789  1.00  0.00     0.049 A 
ATOM     72  H   UNL     1       0.810   0.466  10.233  1.00  0.00     0.167 HD
ATOM     73  C   UNL     1       1.215  -3.669   9.086  1.00  0.00     0.034 A 
ATOM     74  C   UNL     1       0.705   2.529  12.126  1.00  0.00     0.034 A 
ATOM     75  C   UNL     1       1.335  -3.706  10.516  1.00  0.00     0.049 A 
ATOM     76  C   UNL     1       0.654   1.255  12.924  1.00  0.00     0.074 A 
ATOM     77  C   UNL     1       1.452  -4.810  11.342  1.00  0.00     0.029 A 
ATOM     78  N   UNL     1       1.186  -2.603  11.340  1.00  0.00    -0.354 N 
ATOM     79  N   UNL     1       0.847   0.022  12.523  1.00  0.00    -0.248 NA
ATOM     80  C   UNL     1       0.395   1.382  14.366  1.00  0.00     0.031 C 
ATOM     81  C   UNL     1       1.261  -4.383  12.661  1.00  0.00     0.029 A 
ATOM     82  C   UNL     1       1.103  -3.006  12.660  1.00  0.00     0.049 A 
ATOM     83  H   UNL     1       1.145  -1.669  11.031  1.00  0.00     0.167 HD
ATOM     84  C   UNL     1       0.752  -0.772  13.663  1.00  0.00     0.074 A 
ATOM     85  C   UNL     1       0.505   0.123  14.774  1.00  0.00     0.031 C 
ATOM     86  C   UNL     1       0.857  -2.121  13.771  1.00  0.00     0.034 A 
BRANCH  73  87
ATOM     87  C   UNL     1       1.274  -4.970   8.331  1.00  0.00     0.023 A 
ATOM     88  C   UNL     1       2.475  -5.296   7.664  1.00  0.00     0.012 A 
ATOM     89  C   UNL     1       0.229  -5.909   8.368  1.00  0.00     0.148 A 
ATOM     90  C   UNL     1       2.630  -6.533   7.040  1.00  0.00     0.002 A 
ATOM     91  C   UNL     1       0.399  -7.151   7.763  1.00  0.00     0.091 A 
ATOM     92  F   UNL     1      -0.907  -5.572   8.994  1.00  0.00    -0.205 F 
ATOM     93  C   UNL     1       1.597  -7.463   7.097  1.00  0.00     0.022 A 
BRANCH  91  94
ATOM     94  S   UNL     1      -0.852  -8.439   7.814  1.00  0.00     0.127 S 
ATOM     95  O   UNL     1      -1.241  -8.526   6.407  1.00  0.00    -0.237 OA
ATOM     96  O   UNL     1      -0.092  -9.586   8.309  1.00  0.00    -0.237 OA
ATOM     97  O   UNL     1      -1.889  -7.954   8.713  1.00  0.00    -0.744 OA
ENDBRANCH  91  94
ENDBRANCH  73  87
BRANCH  74  98
ATOM     98  C   UNL     1       0.639   3.863  12.786  1.00  0.00     0.023 A 
ATOM     99  C   UNL     1       1.696   4.290  13.611  1.00  0.00     0.012 A 
ATOM    100  C   UNL     1      -0.433   4.741  12.527  1.00  0.00     0.148 A 
ATOM    101  C   UNL     1       1.683   5.568  14.172  1.00  0.00     0.002 A 
ATOM    102  C   UNL     1      -0.409   6.032  13.037  1.00  0.00     0.091 A 
ATOM    103  F   UNL     1      -1.435   4.304  11.751  1.00  0.00    -0.205 F 
ATOM    104  C   UNL     1       0.640   6.443  13.873  1.00  0.00     0.022 A 
BRANCH 102 105
ATOM    105  S   UNL     1      -1.632   7.269  12.588  1.00  0.00     0.127 S 
ATOM    106  O   UNL     1      -2.288   7.519  13.869  1.00  0.00    -0.237 OA
ATOM    107  O   UNL     1      -0.787   8.361  12.104  1.00  0.00    -0.237 OA
ATOM    108  O   UNL     1      -2.466   6.651  11.566  1.00  0.00    -0.744 OA
ENDBRANCH 102 105
ENDBRANCH  74  98
BRANCH  86 109
ATOM    109  C   UNL     1       0.670  -2.752  15.129  1.00  0.00     0.023 A 
ATOM    110  C   UNL     1      -0.611  -2.785  15.713  1.00  0.00     0.012 A 
ATOM    111  C   UNL     1       1.731  -3.438  15.756  1.00  0.00     0.148 A 
ATOM    112  C   UNL     1      -0.832  -3.479  16.903  1.00  0.00     0.002 A 
ATOM    113  C   UNL     1       1.491  -4.174  16.910  1.00  0.00     0.091 A 
ATOM    114  F   UNL     1       2.947  -3.382  15.194  1.00  0.00    -0.205 F 
ATOM    115  C   UNL     1       0.213  -4.187  17.491  1.00  0.00     0.022 A 
BRANCH 113 116
ATOM    116  S   UNL     1       2.743  -5.213  17.674  1.00  0.00     0.127 S 
ATOM    117  O   UNL     1       2.950  -4.537  18.954  1.00  0.00    -0.237 OA
ATOM    118  O   UNL     1       2.057  -6.502  17.768  1.00  0.00    -0.237 OA
ATOM    119  O   UNL     1       3.887  -5.197  16.773  1.00  0.00    -0.744 OA
ENDBRANCH 113 116
ENDBRANCH  86 109
ENDBRANCH  60  61
ENDBRANCH  53  55
ENDBRANCH  52  53
ENDBRANCH  51  52
ENDBRANCH  50  51
ENDBRANCH  49  50
ENDBRANCH  48  49
ENDBRANCH  47  48
ENDBRANCH   1  47
TORSDOF 27
