REMARK SMILES CNC(=O)CNC(=O)NC[C@H](CC(C)C)C(=O)OCCOCCOCCOC(=O)c1ccc(-c2c3nc(c(-c4cccc(S(=O)(=O)[O-])c4F)c4ccc([nH]4)c(-c4cccc(S(=O)(=O)[O-])c4F)c4nc(c(-c5cccc(S(=O)(=O)[O-])c5F)c5ccc2[nH]5)C=C4)C=C3)cc1
REMARK SMILES IDX 22 1 21 2 20 3 19 4 18 5 16 6 17 7 11 8 10 9 9 10 6 11 7 12
REMARK SMILES IDX 8 14 5 16 3 17 1 18 2 19 4 21 12 22 13 23 14 24 15 25 23 26
REMARK SMILES IDX 24 27 25 28 26 29 27 30 28 31 29 32 30 33 31 34 92 35 32 36
REMARK SMILES IDX 91 37 33 38 34 39 35 40 85 41 36 42 90 43 84 44 86 45 37 46
REMARK SMILES IDX 89 47 83 48 82 49 38 51 70 52 50 53 69 54 51 55 54 56 68 57
REMARK SMILES IDX 87 58 52 59 53 60 67 62 88 63 55 64 39 65 40 66 48 67 41 68
REMARK SMILES IDX 43 69 49 70 42 71 44 72 45 73 46 74 47 75 71 76 72 77 80 78
REMARK SMILES IDX 73 79 75 80 81 81 74 82 76 83 77 84 78 85 79 86 56 87 57 88
REMARK SMILES IDX 65 89 58 90 60 91 66 92 59 93 61 94 62 95 63 96 64 97
REMARK H PARENT 6 13 9 15 2 20 86 50 54 61
REMARK Flexibility Score: inf
ROOT
ATOM      1  C   UNL     1      -5.386   0.980  -1.701  1.00  0.00     0.188 C 
ENDROOT
BRANCH   1   2
ATOM      2  O   UNL     1      -6.576   0.432  -1.166  1.00  0.00    -0.376 OA
BRANCH   2   3
ATOM      3  C   UNL     1      -6.453  -0.636  -0.234  1.00  0.00     0.202 C 
BRANCH   3   4
ATOM      4  C   UNL     1      -5.706  -1.899  -0.682  1.00  0.00     0.261 C 
BRANCH   4   5
ATOM      5  O   UNL     1      -4.299  -1.717  -0.960  1.00  0.00    -0.463 OA
BRANCH   5   6
ATOM      6  C   UNL     1      -3.934  -1.908  -2.248  1.00  0.00     0.310 C 
ATOM      7  O   UNL     1      -4.733  -2.078  -3.167  1.00  0.00    -0.252 OA
BRANCH   6   8
ATOM      8  C   UNL     1      -2.444  -1.927  -2.521  1.00  0.00     0.119 C 
BRANCH   8   9
ATOM      9  C   UNL     1      -2.038  -3.321  -3.017  1.00  0.00     0.133 C 
BRANCH   9  10
ATOM     10  N   UNL     1      -2.128  -4.360  -2.011  1.00  0.00    -0.337 N 
ATOM     11  N   UNL     1      -4.130  -5.578  -2.353  1.00  0.00    -0.329 N 
ATOM     12  C   UNL     1      -3.026  -5.287  -1.669  1.00  0.00     0.315 C 
ATOM     13  H   UNL     1      -4.671  -6.262  -1.895  1.00  0.00     0.165 HD
ATOM     14  O   UNL     1      -2.797  -5.941  -0.648  1.00  0.00    -0.249 OA
ATOM     15  H   UNL     1      -1.328  -4.390  -1.438  1.00  0.00     0.165 HD
BRANCH  11  16
ATOM     16  C   UNL     1      -4.750  -5.150  -3.600  1.00  0.00     0.217 C 
BRANCH  16  17
ATOM     17  C   UNL     1      -4.731  -6.168  -4.747  1.00  0.00     0.239 C 
ATOM     18  C   UNL     1      -2.234  -6.680  -4.690  1.00  0.00     0.142 C 
ATOM     19  N   UNL     1      -3.584  -6.760  -5.181  1.00  0.00    -0.358 N 
ATOM     20  H   UNL     1      -3.698  -7.343  -5.966  1.00  0.00     0.163 HD
ATOM     21  O   UNL     1      -5.752  -6.390  -5.406  1.00  0.00    -0.273 OA
ENDBRANCH  16  17
ENDBRANCH  11  16
ENDBRANCH   9  10
ENDBRANCH   8   9
BRANCH   8  22
ATOM     22  C   UNL     1      -1.397  -1.273  -1.597  1.00  0.00     0.020 C 
BRANCH  22  23
ATOM     23  C   UNL     1      -1.501  -1.265  -0.064  1.00  0.00    -0.017 C 
ATOM     24  C   UNL     1      -1.618  -2.629   0.602  1.00  0.00     0.007 C 
ATOM     25  C   UNL     1      -0.262  -0.549   0.501  1.00  0.00     0.007 C 
ENDBRANCH  22  23
ENDBRANCH   8  22
ENDBRANCH   6   8
ENDBRANCH   5   6
ENDBRANCH   4   5
ENDBRANCH   3   4
ENDBRANCH   2   3
ENDBRANCH   1   2
BRANCH   1  26
ATOM     26  C   UNL     1      -4.383   1.612  -0.729  1.00  0.00     0.188 C 
BRANCH  26  27
ATOM     27  O   UNL     1      -4.399   1.120   0.605  1.00  0.00    -0.376 OA
BRANCH  27  28
ATOM     28  C   UNL     1      -3.392   1.663   1.465  1.00  0.00     0.202 C 
BRANCH  28  29
ATOM     29  C   UNL     1      -3.548   3.160   1.779  1.00  0.00     0.261 C 
BRANCH  29  30
ATOM     30  O   UNL     1      -3.394   4.021   0.634  1.00  0.00    -0.460 OA
BRANCH  30  31
ATOM     31  C   UNL     1      -2.247   3.910  -0.077  1.00  0.00     0.338 C 
ATOM     32  O   UNL     1      -1.219   3.361   0.287  1.00  0.00    -0.246 OA
BRANCH  31  33
ATOM     33  C   UNL     1      -2.523   4.329  -1.477  1.00  0.00     0.060 A 
ATOM     34  C   UNL     1      -1.881   3.639  -2.517  1.00  0.00     0.016 A 
ATOM     35  C   UNL     1      -3.460   5.324  -1.776  1.00  0.00     0.016 A 
ATOM     36  C   UNL     1      -2.132   3.982  -3.849  1.00  0.00     0.010 A 
ATOM     37  C   UNL     1      -3.712   5.663  -3.107  1.00  0.00     0.010 A 
ATOM     38  C   UNL     1      -3.018   5.024  -4.150  1.00  0.00    -0.014 A 
BRANCH  38  39
ATOM     39  C   UNL     1      -3.068   5.603  -5.516  1.00  0.00     0.031 A 
ATOM     40  C   UNL     1      -2.288   6.865  -5.776  1.00  0.00     0.074 A 
ATOM     41  C   UNL     1      -3.811   5.062  -6.498  1.00  0.00     0.049 A 
ATOM     42  N   UNL     1      -2.227   7.595  -6.858  1.00  0.00    -0.248 NA
ATOM     43  C   UNL     1      -1.478   7.376  -4.657  1.00  0.00     0.031 C 
ATOM     44  C   UNL     1      -4.624   3.854  -6.383  1.00  0.00     0.029 A 
ATOM     45  N   UNL     1      -4.027   5.494  -7.785  1.00  0.00    -0.354 N 
ATOM     46  C   UNL     1      -1.405   8.669  -6.541  1.00  0.00     0.074 A 
ATOM     47  C   UNL     1      -0.998   8.501  -5.163  1.00  0.00     0.031 C 
ATOM     48  C   UNL     1      -5.282   3.661  -7.541  1.00  0.00     0.029 A 
ATOM     49  C   UNL     1      -4.954   4.744  -8.470  1.00  0.00     0.049 A 
ATOM     50  H   UNL     1      -3.563   6.268  -8.180  1.00  0.00     0.167 HD
ATOM     51  C   UNL     1      -1.008   9.698  -7.325  1.00  0.00     0.034 A 
ATOM     52  C   UNL     1      -5.496   4.925  -9.693  1.00  0.00     0.034 A 
ATOM     53  C   UNL     1      -1.386   9.862  -8.700  1.00  0.00     0.049 A 
ATOM     54  C   UNL     1      -5.051   6.089 -10.544  1.00  0.00     0.074 A 
ATOM     55  C   UNL     1      -0.973  10.834  -9.593  1.00  0.00     0.029 A 
ATOM     56  N   UNL     1      -2.282   9.050  -9.376  1.00  0.00    -0.354 N 
ATOM     57  N   UNL     1      -4.156   7.012 -10.283  1.00  0.00    -0.248 NA
ATOM     58  C   UNL     1      -5.671   6.220 -11.873  1.00  0.00     0.031 C 
ATOM     59  C   UNL     1      -1.643  10.628 -10.803  1.00  0.00     0.029 A 
ATOM     60  C   UNL     1      -2.451   9.510 -10.671  1.00  0.00     0.049 A 
ATOM     61  H   UNL     1      -2.731   8.263  -8.993  1.00  0.00     0.167 HD
ATOM     62  C   UNL     1      -4.085   7.811 -11.421  1.00  0.00     0.074 A 
ATOM     63  C   UNL     1      -5.010   7.251 -12.383  1.00  0.00     0.031 C 
ATOM     64  C   UNL     1      -3.334   8.918 -11.643  1.00  0.00     0.034 A 
BRANCH  51  65
ATOM     65  C   UNL     1      -0.092  10.721  -6.711  1.00  0.00     0.023 A 
ATOM     66  C   UNL     1       1.256  10.392  -6.461  1.00  0.00     0.012 A 
ATOM     67  C   UNL     1      -0.555  12.018  -6.418  1.00  0.00     0.148 A 
ATOM     68  C   UNL     1       2.121  11.328  -5.899  1.00  0.00     0.002 A 
ATOM     69  C   UNL     1       0.324  12.959  -5.900  1.00  0.00     0.091 A 
ATOM     70  F   UNL     1      -1.848  12.300  -6.636  1.00  0.00    -0.205 F 
ATOM     71  C   UNL     1       1.659  12.614  -5.629  1.00  0.00     0.022 A 
BRANCH  69  72
ATOM     72  S   UNL     1      -0.158  14.661  -5.589  1.00  0.00     0.127 S 
ATOM     73  O   UNL     1      -0.218  14.687  -4.128  1.00  0.00    -0.237 OA
ATOM     74  O   UNL     1       0.959  15.408  -6.167  1.00  0.00    -0.237 OA
ATOM     75  O   UNL     1      -1.430  14.847  -6.272  1.00  0.00    -0.744 OA
ENDBRANCH  69  72
ENDBRANCH  51  65
BRANCH  52  76
ATOM     76  C   UNL     1      -6.517   3.966 -10.204  1.00  0.00     0.023 A 
ATOM     77  C   UNL     1      -6.192   3.107 -11.272  1.00  0.00     0.012 A 
ATOM     78  C   UNL     1      -7.805   3.903  -9.638  1.00  0.00     0.148 A 
ATOM     79  C   UNL     1      -7.140   2.220 -11.784  1.00  0.00     0.002 A 
ATOM     80  C   UNL     1      -8.727   2.981 -10.119  1.00  0.00     0.091 A 
ATOM     81  F   UNL     1      -8.100   4.745  -8.638  1.00  0.00    -0.205 F 
ATOM     82  C   UNL     1      -8.402   2.149 -11.202  1.00  0.00     0.022 A 
BRANCH  80  83
ATOM     83  S   UNL     1     -10.337   2.741  -9.360  1.00  0.00     0.127 S 
ATOM     84  O   UNL     1     -11.234   3.252 -10.393  1.00  0.00    -0.237 OA
ATOM     85  O   UNL     1     -10.369   1.289  -9.178  1.00  0.00    -0.237 OA
ATOM     86  O   UNL     1     -10.305   3.503  -8.119  1.00  0.00    -0.744 OA
ENDBRANCH  80  83
ENDBRANCH  52  76
BRANCH  64  87
ATOM     87  C   UNL     1      -3.446   9.597 -12.985  1.00  0.00     0.023 A 
ATOM     88  C   UNL     1      -4.602  10.337 -13.301  1.00  0.00     0.012 A 
ATOM     89  C   UNL     1      -2.369   9.580 -13.895  1.00  0.00     0.148 A 
ATOM     90  C   UNL     1      -4.697  11.025 -14.511  1.00  0.00     0.002 A 
ATOM     91  C   UNL     1      -2.450  10.307 -15.077  1.00  0.00     0.091 A 
ATOM     92  F   UNL     1      -1.281   8.859 -13.585  1.00  0.00    -0.205 F 
ATOM     93  C   UNL     1      -3.618  11.021 -15.392  1.00  0.00     0.022 A 
BRANCH  91  94
ATOM     94  S   UNL     1      -1.074  10.439 -16.226  1.00  0.00     0.127 S 
ATOM     95  O   UNL     1      -1.532   9.605 -17.336  1.00  0.00    -0.237 OA
ATOM     96  O   UNL     1      -1.043  11.873 -16.513  1.00  0.00    -0.237 OA
ATOM     97  O   UNL     1       0.093   9.941 -15.511  1.00  0.00    -0.744 OA
ENDBRANCH  91  94
ENDBRANCH  64  87
ENDBRANCH  38  39
ENDBRANCH  31  33
ENDBRANCH  30  31
ENDBRANCH  29  30
ENDBRANCH  28  29
ENDBRANCH  27  28
ENDBRANCH  26  27
ENDBRANCH   1  26
TORSDOF 26
