REMARK SMILES O=C(N[C@@H](Cc1ccc(O)cc1)C(=O)N[C@@H](CO)C(=O)OCCOCCOCCOC(=O)c1ccc(-c2c3nc(c(-c4cccc(S(=O)(=O)[O-])c4F)c4ccc([nH]4)c(-c4cccc(S(=O)(=O)[O-])c4F)c4nc(c(-c5cccc(S(=O)(=O)[O-])c5F)c5ccc2[nH]5)C=C4)C=C3)cc1)c1ccc(F)cc1
REMARK SMILES IDX 25 1 24 2 23 3 22 4 21 5 19 6 20 7 16 8 15 9 13 10 14 11
REMARK SMILES IDX 4 13 3 14 1 15 2 16 96 18 97 19 102 20 98 21 101 22 99 23
REMARK SMILES IDX 100 24 5 25 6 26 7 27 12 28 8 29 11 30 9 31 10 32 17 34
REMARK SMILES IDX 18 35 26 37 27 38 28 39 29 40 30 41 31 42 32 43 33 44 34 45
REMARK SMILES IDX 95 46 35 47 94 48 36 49 37 50 38 51 88 52 39 53 93 54 87 55
REMARK SMILES IDX 89 56 40 57 92 58 86 59 85 60 41 62 73 63 53 64 72 65 54 66
REMARK SMILES IDX 57 67 71 68 90 69 55 70 56 71 70 73 91 74 58 75 42 76 43 77
REMARK SMILES IDX 51 78 44 79 46 80 52 81 45 82 47 83 48 84 49 85 50 86 74 87
REMARK SMILES IDX 75 88 83 89 76 90 78 91 84 92 77 93 79 94 80 95 81 96 82 97
REMARK SMILES IDX 59 98 60 99 68 100 61 101 63 102 69 103 62 104 64 105 65 106
REMARK SMILES IDX 66 107 67 108
REMARK H PARENT 15 12 3 17 10 33 18 36 89 61 57 72
REMARK Flexibility Score: inf
ROOT
ATOM      1  C   UNL     1       7.018   5.087   2.172  1.00  0.00     0.188 C 
ENDROOT
BRANCH   1   2
ATOM      2  O   UNL     1       7.285   6.156   3.071  1.00  0.00    -0.376 OA
BRANCH   2   3
ATOM      3  C   UNL     1       6.137   6.697   3.721  1.00  0.00     0.202 C 
BRANCH   3   4
ATOM      4  C   UNL     1       5.617   5.807   4.850  1.00  0.00     0.261 C 
BRANCH   4   5
ATOM      5  O   UNL     1       5.043   4.579   4.352  1.00  0.00    -0.462 OA
BRANCH   5   6
ATOM      6  C   UNL     1       3.691   4.527   4.215  1.00  0.00     0.331 C 
ATOM      7  O   UNL     1       2.937   5.453   4.489  1.00  0.00    -0.250 OA
BRANCH   6   8
ATOM      8  C   UNL     1       3.217   3.163   3.661  1.00  0.00     0.218 C 
BRANCH   8   9
ATOM      9  N   UNL     1       4.265   2.166   3.417  1.00  0.00    -0.339 N 
ATOM     10  C   UNL     1       4.566   1.365   2.365  1.00  0.00     0.243 C 
ATOM     11  O   UNL     1       5.485   0.557   2.569  1.00  0.00    -0.273 OA
ATOM     12  H   UNL     1       4.879   2.054   4.178  1.00  0.00     0.164 HD
BRANCH  10  13
ATOM     13  C   UNL     1       3.844   1.339   0.991  1.00  0.00     0.176 C 
BRANCH  13  14
ATOM     14  N   UNL     1       2.499   0.774   1.040  1.00  0.00    -0.340 N 
ATOM     15  O   UNL     1       0.801  -0.542   0.364  1.00  0.00    -0.269 OA
ATOM     16  C   UNL     1       2.006  -0.307   0.342  1.00  0.00     0.251 C 
ATOM     17  H   UNL     1       1.866   1.220   1.647  1.00  0.00     0.164 HD
BRANCH  16  18
ATOM     18  C   UNL     1       2.904  -1.195  -0.441  1.00  0.00     0.040 A 
ATOM     19  C   UNL     1       3.963  -1.875   0.179  1.00  0.00     0.017 A 
ATOM     20  C   UNL     1       2.634  -1.412  -1.799  1.00  0.00     0.017 A 
ATOM     21  C   UNL     1       4.773  -2.733  -0.570  1.00  0.00     0.040 A 
ATOM     22  C   UNL     1       3.445  -2.277  -2.542  1.00  0.00     0.040 A 
ATOM     23  C   UNL     1       4.507  -2.927  -1.921  1.00  0.00     0.123 A 
ATOM     24  F   UNL     1       5.277  -3.764  -2.629  1.00  0.00    -0.207 F 
ENDBRANCH  16  18
ENDBRANCH  13  14
BRANCH  13  25
ATOM     25  C   UNL     1       4.034   2.509  -0.002  1.00  0.00     0.070 C 
BRANCH  25  26
ATOM     26  C   UNL     1       3.451   3.881   0.221  1.00  0.00    -0.045 A 
ATOM     27  C   UNL     1       4.260   5.000  -0.041  1.00  0.00     0.007 A 
ATOM     28  C   UNL     1       2.127   4.109   0.609  1.00  0.00     0.007 A 
ATOM     29  C   UNL     1       3.831   6.293   0.260  1.00  0.00     0.046 A 
ATOM     30  C   UNL     1       1.707   5.398   0.955  1.00  0.00     0.046 A 
ATOM     31  C   UNL     1       2.571   6.474   0.808  1.00  0.00     0.115 A 
BRANCH  31  32
ATOM     32  O   UNL     1       2.145   7.701   1.216  1.00  0.00    -0.508 OA
ATOM     33  H   UNL     1       2.708   8.446   1.128  1.00  0.00     0.293 HD
ENDBRANCH  31  32
ENDBRANCH  25  26
ENDBRANCH  13  25
ENDBRANCH  10  13
ENDBRANCH   8   9
BRANCH   8  34
ATOM     34  C   UNL     1       2.138   2.594   4.585  1.00  0.00     0.193 C 
BRANCH  34  35
ATOM     35  O   UNL     1       2.694   2.131   5.816  1.00  0.00    -0.394 OA
ATOM     36  H   UNL     1       3.332   1.423   5.636  1.00  0.00     0.210 HD
ENDBRANCH  34  35
ENDBRANCH   8  34
ENDBRANCH   6   8
ENDBRANCH   5   6
ENDBRANCH   4   5
ENDBRANCH   3   4
ENDBRANCH   2   3
ENDBRANCH   1   2
BRANCH   1  37
ATOM     37  C   UNL     1       7.393   3.691   2.691  1.00  0.00     0.188 C 
BRANCH  37  38
ATOM     38  O   UNL     1       8.282   3.576   3.791  1.00  0.00    -0.376 OA
BRANCH  38  39
ATOM     39  C   UNL     1       9.499   4.307   3.725  1.00  0.00     0.202 C 
BRANCH  39  40
ATOM     40  C   UNL     1      10.456   3.938   2.589  1.00  0.00     0.261 C 
BRANCH  40  41
ATOM     41  O   UNL     1       9.874   4.122   1.284  1.00  0.00    -0.460 OA
BRANCH  41  42
ATOM     42  C   UNL     1       9.987   3.052   0.458  1.00  0.00     0.338 C 
ATOM     43  O   UNL     1      10.583   2.012   0.673  1.00  0.00    -0.246 OA
BRANCH  42  44
ATOM     44  C   UNL     1       9.144   3.239  -0.738  1.00  0.00     0.060 A 
ATOM     45  C   UNL     1       8.017   2.421  -0.888  1.00  0.00     0.016 A 
ATOM     46  C   UNL     1       9.541   4.095  -1.767  1.00  0.00     0.016 A 
ATOM     47  C   UNL     1       7.298   2.433  -2.084  1.00  0.00     0.010 A 
ATOM     48  C   UNL     1       8.830   4.089  -2.973  1.00  0.00     0.010 A 
ATOM     49  C   UNL     1       7.726   3.235  -3.149  1.00  0.00    -0.014 A 
BRANCH  49  50
ATOM     50  C   UNL     1       7.147   3.034  -4.500  1.00  0.00     0.031 A 
ATOM     51  C   UNL     1       7.820   2.066  -5.435  1.00  0.00     0.074 A 
ATOM     52  C   UNL     1       6.043   3.692  -4.898  1.00  0.00     0.049 A 
ATOM     53  N   UNL     1       7.544   1.792  -6.683  1.00  0.00    -0.248 NA
ATOM     54  C   UNL     1       8.952   1.301  -4.885  1.00  0.00     0.031 C 
ATOM     55  C   UNL     1       5.271   4.620  -4.077  1.00  0.00     0.029 A 
ATOM     56  N   UNL     1       5.395   3.691  -6.109  1.00  0.00    -0.354 N 
ATOM     57  C   UNL     1       8.484   0.848  -7.078  1.00  0.00     0.074 A 
ATOM     58  C   UNL     1       9.332   0.587  -5.934  1.00  0.00     0.031 C 
ATOM     59  C   UNL     1       4.267   5.124  -4.817  1.00  0.00     0.029 A 
ATOM     60  C   UNL     1       4.350   4.582  -6.173  1.00  0.00     0.049 A 
ATOM     61  H   UNL     1       5.654   3.109  -6.859  1.00  0.00     0.167 HD
ATOM     62  C   UNL     1       8.629   0.246  -8.281  1.00  0.00     0.034 A 
ATOM     63  C   UNL     1       3.574   4.944  -7.216  1.00  0.00     0.034 A 
ATOM     64  C   UNL     1       7.788   0.493  -9.419  1.00  0.00     0.049 A 
ATOM     65  C   UNL     1       3.794   4.303  -8.563  1.00  0.00     0.074 A 
ATOM     66  C   UNL     1       7.859  -0.073 -10.680  1.00  0.00     0.029 A 
ATOM     67  N   UNL     1       6.729   1.385  -9.440  1.00  0.00    -0.354 N 
ATOM     68  N   UNL     1       4.633   3.354  -8.900  1.00  0.00    -0.248 NA
ATOM     69  C   UNL     1       2.947   4.772  -9.672  1.00  0.00     0.031 C 
ATOM     70  C   UNL     1       6.849   0.488 -11.468  1.00  0.00     0.029 A 
ATOM     71  C   UNL     1       6.142   1.394 -10.693  1.00  0.00     0.049 A 
ATOM     72  H   UNL     1       6.437   1.933  -8.676  1.00  0.00     0.167 HD
ATOM     73  C   UNL     1       4.397   3.094 -10.248  1.00  0.00     0.074 A 
ATOM     74  C   UNL     1       3.321   3.969 -10.660  1.00  0.00     0.031 C 
ATOM     75  C   UNL     1       5.029   2.224 -11.074  1.00  0.00     0.034 A 
BRANCH  62  76
ATOM     76  C   UNL     1       9.743  -0.752  -8.423  1.00  0.00     0.023 A 
ATOM     77  C   UNL     1       9.589  -2.044  -7.882  1.00  0.00     0.012 A 
ATOM     78  C   UNL     1      10.923  -0.425  -9.117  1.00  0.00     0.148 A 
ATOM     79  C   UNL     1      10.605  -2.990  -8.011  1.00  0.00     0.002 A 
ATOM     80  C   UNL     1      11.917  -1.384  -9.271  1.00  0.00     0.091 A 
ATOM     81  F   UNL     1      11.060   0.820  -9.595  1.00  0.00    -0.205 F 
ATOM     82  C   UNL     1      11.764  -2.663  -8.712  1.00  0.00     0.022 A 
BRANCH  80  83
ATOM     83  S   UNL     1      13.416  -1.069 -10.208  1.00  0.00     0.127 S 
ATOM     84  O   UNL     1      14.400  -0.891  -9.142  1.00  0.00    -0.237 OA
ATOM     85  O   UNL     1      13.568  -2.305 -10.978  1.00  0.00    -0.237 OA
ATOM     86  O   UNL     1      13.140   0.113 -11.014  1.00  0.00    -0.744 OA
ENDBRANCH  80  83
ENDBRANCH  62  76
BRANCH  63  87
ATOM     87  C   UNL     1       2.502   5.963  -7.032  1.00  0.00     0.023 A 
ATOM     88  C   UNL     1       1.151   5.577  -7.127  1.00  0.00     0.012 A 
ATOM     89  C   UNL     1       2.812   7.311  -6.763  1.00  0.00     0.148 A 
ATOM     90  C   UNL     1       0.130   6.518  -6.982  1.00  0.00     0.002 A 
ATOM     91  C   UNL     1       1.790   8.232  -6.566  1.00  0.00     0.091 A 
ATOM     92  F   UNL     1       4.103   7.668  -6.708  1.00  0.00    -0.205 F 
ATOM     93  C   UNL     1       0.448   7.842  -6.690  1.00  0.00     0.022 A 
BRANCH  91  94
ATOM     94  S   UNL     1       2.120   9.923  -6.058  1.00  0.00     0.127 S 
ATOM     95  O   UNL     1       1.922  10.656  -7.305  1.00  0.00    -0.237 OA
ATOM     96  O   UNL     1       1.091  10.146  -5.041  1.00  0.00    -0.237 OA
ATOM     97  O   UNL     1       3.479   9.909  -5.532  1.00  0.00    -0.744 OA
ENDBRANCH  91  94
ENDBRANCH  63  87
BRANCH  75  98
ATOM     98  C   UNL     1       4.565   2.145 -12.505  1.00  0.00     0.023 A 
ATOM     99  C   UNL     1       4.912   3.170 -13.406  1.00  0.00     0.012 A 
ATOM    100  C   UNL     1       3.872   1.014 -12.979  1.00  0.00     0.148 A 
ATOM    101  C   UNL     1       4.559   3.081 -14.752  1.00  0.00     0.002 A 
ATOM    102  C   UNL     1       3.559   0.912 -14.330  1.00  0.00     0.091 A 
ATOM    103  F   UNL     1       3.532   0.057 -12.102  1.00  0.00    -0.205 F 
ATOM    104  C   UNL     1       3.894   1.948 -15.216  1.00  0.00     0.022 A 
BRANCH 102 105
ATOM    105  S   UNL     1       2.787  -0.554 -15.027  1.00  0.00     0.127 S 
ATOM    106  O   UNL     1       1.409  -0.105 -15.214  1.00  0.00    -0.237 OA
ATOM    107  O   UNL     1       3.540  -0.746 -16.267  1.00  0.00    -0.237 OA
ATOM    108  O   UNL     1       2.977  -1.609 -14.041  1.00  0.00    -0.744 OA
ENDBRANCH 102 105
ENDBRANCH  75  98
ENDBRANCH  49  50
ENDBRANCH  42  44
ENDBRANCH  41  42
ENDBRANCH  40  41
ENDBRANCH  39  40
ENDBRANCH  38  39
ENDBRANCH  37  38
ENDBRANCH   1  37
TORSDOF 29
