REMARK SMILES CC(C)[C@H](NC(=O)OCc1ccccc1)C(=O)NCC(=O)OCCOCCOCCOC(=O)c1ccc(-c2c3nc(c(-c4cccc(S(=O)(=O)[O-])c4F)c4ccc([nH]4)c(-c4cccc(S(=O)(=O)[O-])c4F)c4nc(c(-c5cccc(S(=O)(=O)[O-])c5F)c5ccc2[nH]5)C=C4)C=C3)cc1
REMARK SMILES IDX 25 1 24 2 23 3 22 4 20 5 21 6 19 7 18 8 16 9 17 10 4 12 2 13
REMARK SMILES IDX 1 14 3 15 5 16 6 17 7 19 8 20 9 21 10 22 11 23 15 24 12 25
REMARK SMILES IDX 14 26 13 27 26 28 27 29 28 30 29 31 30 32 31 33 32 34 33 35
REMARK SMILES IDX 34 36 35 37 96 38 36 39 95 40 37 41 38 42 39 43 89 44 40 45
REMARK SMILES IDX 94 46 88 47 90 48 41 49 93 50 87 51 86 52 42 54 74 55 54 56
REMARK SMILES IDX 73 57 55 58 58 59 72 60 91 61 56 62 57 63 71 65 92 66 59 67
REMARK SMILES IDX 43 68 44 69 52 70 45 71 47 72 53 73 46 74 48 75 49 76 50 77
REMARK SMILES IDX 51 78 75 79 76 80 84 81 77 82 79 83 85 84 78 85 80 86 81 87
REMARK SMILES IDX 82 88 83 89 60 90 61 91 69 92 62 93 64 94 70 95 63 96 65 97
REMARK SMILES IDX 66 98 67 99 68 100
REMARK H PARENT 18 11 5 18 90 53 58 64
REMARK Flexibility Score: inf
ROOT
ATOM      1  O   UNL     1       2.591  -3.716  -6.433  1.00  0.00    -0.376 OA
ENDROOT
BRANCH   1   2
ATOM      2  C   UNL     1       3.351  -3.313  -5.309  1.00  0.00     0.202 C 
BRANCH   2   3
ATOM      3  C   UNL     1       2.982  -2.150  -4.371  1.00  0.00     0.261 C 
BRANCH   3   4
ATOM      4  O   UNL     1       1.618  -2.057  -3.928  1.00  0.00    -0.462 OA
BRANCH   4   5
ATOM      5  C   UNL     1       0.888  -1.042  -4.470  1.00  0.00     0.325 C 
ATOM      6  O   UNL     1       1.304  -0.276  -5.333  1.00  0.00    -0.250 OA
BRANCH   5   7
ATOM      7  C   UNL     1      -0.563  -0.966  -3.973  1.00  0.00     0.238 C 
BRANCH   7   8
ATOM      8  N   UNL     1      -1.044  -1.913  -2.975  1.00  0.00    -0.343 N 
ATOM      9  C   UNL     1      -1.235  -1.807  -1.639  1.00  0.00     0.243 C 
ATOM     10  O   UNL     1      -1.763  -2.769  -1.069  1.00  0.00    -0.273 OA
ATOM     11  H   UNL     1      -1.274  -2.797  -3.342  1.00  0.00     0.164 HD
BRANCH   9  12
ATOM     12  C   UNL     1      -0.814  -0.573  -0.823  1.00  0.00     0.177 C 
BRANCH  12  13
ATOM     13  C   UNL     1      -1.595   0.726  -1.117  1.00  0.00     0.015 C 
ATOM     14  C   UNL     1      -3.109   0.479  -1.178  1.00  0.00     0.010 C 
ATOM     15  C   UNL     1      -1.299   1.789  -0.055  1.00  0.00     0.010 C 
ENDBRANCH  12  13
BRANCH  12  16
ATOM     16  N   UNL     1       0.654  -0.533  -0.793  1.00  0.00    -0.309 N 
ATOM     17  C   UNL     1       1.539   0.129  -1.570  1.00  0.00     0.408 C 
ATOM     18  H   UNL     1       1.062  -1.082  -0.086  1.00  0.00     0.167 HD
ATOM     19  O   UNL     1       2.734  -0.200  -1.574  1.00  0.00    -0.225 OA
BRANCH  17  20
ATOM     20  O   UNL     1       0.996   1.096  -2.327  1.00  0.00    -0.445 OA
BRANCH  20  21
ATOM     21  C   UNL     1       1.848   1.729  -3.294  1.00  0.00     0.270 C 
BRANCH  21  22
ATOM     22  C   UNL     1       2.592   2.871  -2.680  1.00  0.00    -0.011 A 
ATOM     23  C   UNL     1       3.922   2.686  -2.283  1.00  0.00     0.007 A 
ATOM     24  C   UNL     1       1.970   4.105  -2.474  1.00  0.00     0.007 A 
ATOM     25  C   UNL     1       4.623   3.720  -1.677  1.00  0.00     0.000 A 
ATOM     26  C   UNL     1       2.676   5.143  -1.871  1.00  0.00     0.000 A 
ATOM     27  C   UNL     1       3.998   4.948  -1.469  1.00  0.00     0.000 A 
ENDBRANCH  21  22
ENDBRANCH  20  21
ENDBRANCH  17  20
ENDBRANCH  12  16
ENDBRANCH   9  12
ENDBRANCH   7   8
ENDBRANCH   5   7
ENDBRANCH   4   5
ENDBRANCH   3   4
ENDBRANCH   2   3
ENDBRANCH   1   2
BRANCH   1  28
ATOM     28  C   UNL     1       1.219  -3.425  -6.537  1.00  0.00     0.188 C 
BRANCH  28  29
ATOM     29  C   UNL     1       0.264  -4.009  -5.485  1.00  0.00     0.188 C 
BRANCH  29  30
ATOM     30  O   UNL     1       0.665  -5.027  -4.598  1.00  0.00    -0.376 OA
BRANCH  30  31
ATOM     31  C   UNL     1       1.244  -6.184  -5.170  1.00  0.00     0.202 C 
BRANCH  31  32
ATOM     32  C   UNL     1       0.541  -6.904  -6.339  1.00  0.00     0.261 C 
BRANCH  32  33
ATOM     33  O   UNL     1      -0.025  -6.067  -7.368  1.00  0.00    -0.460 OA
BRANCH  33  34
ATOM     34  C   UNL     1      -1.383  -5.947  -7.374  1.00  0.00     0.338 C 
ATOM     35  O   UNL     1      -2.167  -6.515  -6.632  1.00  0.00    -0.246 OA
BRANCH  34  36
ATOM     36  C   UNL     1      -1.775  -4.806  -8.245  1.00  0.00     0.060 A 
ATOM     37  C   UNL     1      -2.443  -3.705  -7.675  1.00  0.00     0.016 A 
ATOM     38  C   UNL     1      -1.484  -4.809  -9.607  1.00  0.00     0.016 A 
ATOM     39  C   UNL     1      -2.806  -2.605  -8.458  1.00  0.00     0.010 A 
ATOM     40  C   UNL     1      -1.889  -3.727 -10.398  1.00  0.00     0.010 A 
ATOM     41  C   UNL     1      -2.562  -2.625  -9.835  1.00  0.00    -0.014 A 
BRANCH  41  42
ATOM     42  C   UNL     1      -3.139  -1.589 -10.731  1.00  0.00     0.031 A 
ATOM     43  C   UNL     1      -4.417  -1.903 -11.459  1.00  0.00     0.074 A 
ATOM     44  C   UNL     1      -2.511  -0.421 -10.955  1.00  0.00     0.049 A 
ATOM     45  N   UNL     1      -5.010  -1.244 -12.418  1.00  0.00    -0.248 NA
ATOM     46  C   UNL     1      -5.115  -3.134 -11.051  1.00  0.00     0.031 C 
ATOM     47  C   UNL     1      -1.288   0.025 -10.294  1.00  0.00     0.029 A 
ATOM     48  N   UNL     1      -2.799   0.585 -11.849  1.00  0.00    -0.354 N 
ATOM     49  C   UNL     1      -6.123  -1.999 -12.764  1.00  0.00     0.074 A 
ATOM     50  C   UNL     1      -6.130  -3.162 -11.903  1.00  0.00     0.031 C 
ATOM     51  C   UNL     1      -0.898   1.190 -10.842  1.00  0.00     0.029 A 
ATOM     52  C   UNL     1      -1.819   1.549 -11.920  1.00  0.00     0.049 A 
ATOM     53  H   UNL     1      -3.625   0.613 -12.384  1.00  0.00     0.167 HD
ATOM     54  C   UNL     1      -7.057  -1.750 -13.713  1.00  0.00     0.034 A 
ATOM     55  C   UNL     1      -1.655   2.570 -12.788  1.00  0.00     0.034 A 
ATOM     56  C   UNL     1      -7.057  -0.591 -14.563  1.00  0.00     0.049 A 
ATOM     57  C   UNL     1      -2.672   2.791 -13.882  1.00  0.00     0.074 A 
ATOM     58  C   UNL     1      -7.992  -0.226 -15.516  1.00  0.00     0.029 A 
ATOM     59  N   UNL     1      -6.066   0.378 -14.584  1.00  0.00    -0.354 N 
ATOM     60  N   UNL     1      -3.780   2.134 -14.126  1.00  0.00    -0.248 NA
ATOM     61  C   UNL     1      -2.423   3.905 -14.811  1.00  0.00     0.031 C 
ATOM     62  C   UNL     1      -7.545   0.941 -16.143  1.00  0.00     0.029 A 
ATOM     63  C   UNL     1      -6.351   1.324 -15.554  1.00  0.00     0.049 A 
ATOM     64  H   UNL     1      -5.277   0.391 -13.996  1.00  0.00     0.167 HD
ATOM     65  C   UNL     1      -4.371   2.770 -15.214  1.00  0.00     0.074 A 
ATOM     66  C   UNL     1      -3.511   3.879 -15.569  1.00  0.00     0.031 C 
ATOM     67  C   UNL     1      -5.515   2.453 -15.871  1.00  0.00     0.034 A 
BRANCH  54  68
ATOM     68  C   UNL     1      -8.165  -2.754 -13.884  1.00  0.00     0.023 A 
ATOM     69  C   UNL     1      -9.181  -2.851 -12.912  1.00  0.00     0.012 A 
ATOM     70  C   UNL     1      -8.232  -3.558 -15.039  1.00  0.00     0.148 A 
ATOM     71  C   UNL     1     -10.230  -3.755 -13.071  1.00  0.00     0.002 A 
ATOM     72  C   UNL     1      -9.304  -4.425 -15.212  1.00  0.00     0.091 A 
ATOM     73  F   UNL     1      -7.244  -3.466 -15.940  1.00  0.00    -0.205 F 
ATOM     74  C   UNL     1     -10.297  -4.533 -14.224  1.00  0.00     0.022 A 
BRANCH  72  75
ATOM     75  S   UNL     1      -9.523  -5.411 -16.696  1.00  0.00     0.127 S 
ATOM     76  O   UNL     1      -9.288  -6.763 -16.189  1.00  0.00    -0.237 OA
ATOM     77  O   UNL     1     -10.914  -5.127 -17.051  1.00  0.00    -0.237 OA
ATOM     78  O   UNL     1      -8.539  -4.925 -17.653  1.00  0.00    -0.744 OA
ENDBRANCH  72  75
ENDBRANCH  54  68
BRANCH  55  79
ATOM     79  C   UNL     1      -0.467   3.466 -12.674  1.00  0.00     0.023 A 
ATOM     80  C   UNL     1      -0.646   4.812 -12.302  1.00  0.00     0.012 A 
ATOM     81  C   UNL     1       0.835   2.993 -12.934  1.00  0.00     0.148 A 
ATOM     82  C   UNL     1       0.446   5.678 -12.217  1.00  0.00     0.002 A 
ATOM     83  C   UNL     1       1.923   3.846 -12.793  1.00  0.00     0.091 A 
ATOM     84  F   UNL     1       0.983   1.715 -13.310  1.00  0.00    -0.205 F 
ATOM     85  C   UNL     1       1.730   5.193 -12.451  1.00  0.00     0.022 A 
BRANCH  83  86
ATOM     86  S   UNL     1       3.621   3.283 -12.957  1.00  0.00     0.127 S 
ATOM     87  O   UNL     1       4.051   3.978 -14.168  1.00  0.00    -0.237 OA
ATOM     88  O   UNL     1       4.221   3.777 -11.717  1.00  0.00    -0.237 OA
ATOM     89  O   UNL     1       3.548   1.832 -13.055  1.00  0.00    -0.744 OA
ENDBRANCH  83  86
ENDBRANCH  55  79
BRANCH  67  90
ATOM     90  C   UNL     1      -5.935   3.324 -17.030  1.00  0.00     0.023 A 
ATOM     91  C   UNL     1      -5.236   3.248 -18.251  1.00  0.00     0.012 A 
ATOM     92  C   UNL     1      -7.082   4.138 -16.940  1.00  0.00     0.148 A 
ATOM     93  C   UNL     1      -5.659   3.987 -19.357  1.00  0.00     0.002 A 
ATOM     94  C   UNL     1      -7.526   4.833 -18.060  1.00  0.00     0.091 A 
ATOM     95  F   UNL     1      -7.727   4.204 -15.767  1.00  0.00    -0.205 F 
ATOM     96  C   UNL     1      -6.809   4.768 -19.265  1.00  0.00     0.022 A 
BRANCH  94  97
ATOM     97  S   UNL     1      -9.046   5.790 -18.069  1.00  0.00     0.127 S 
ATOM     98  O   UNL     1      -8.541   7.151 -18.245  1.00  0.00    -0.237 OA
ATOM     99  O   UNL     1      -9.747   5.245 -19.232  1.00  0.00    -0.237 OA
ATOM    100  O   UNL     1      -9.695   5.533 -16.791  1.00  0.00    -0.744 OA
ENDBRANCH  94  97
ENDBRANCH  67  90
ENDBRANCH  41  42
ENDBRANCH  34  36
ENDBRANCH  33  34
ENDBRANCH  32  33
ENDBRANCH  31  32
ENDBRANCH  30  31
ENDBRANCH  29  30
ENDBRANCH  28  29
ENDBRANCH   1  28
TORSDOF 27
