REMARK SMILES C[NH+]1CCC2(CC1)OC[C@H](C(=O)OCCOCCOCCOC(=O)c1ccc(-c3c4nc(c(-c5cccc(S(=O)(=O)[O-])c5F)c5ccc([nH]5)c(-c5cccc(S(=O)(=O)[O-])c5F)c5nc(c(-c6cccc(S(=O)(=O)[O-])c6F)c6ccc3[nH]6)C=C5)C=C4)cc1)N2C(=O)c1cc(C(F)(F)F)cc(C(F)(F)F)c1
REMARK SMILES IDX 17 1 16 2 15 3 14 4 13 5 11 6 12 7 10 8 1 9 2 10 3 11 7 12
REMARK SMILES IDX 4 14 6 15 5 16 8 17 88 18 9 19 89 20 90 21 91 22 92 23
REMARK SMILES IDX 104 24 93 25 99 26 98 27 94 28 95 29 96 30 97 31 100 32
REMARK SMILES IDX 101 33 102 34 103 35 18 36 19 37 20 38 21 39 22 40 23 41
REMARK SMILES IDX 24 42 25 43 26 44 87 45 27 46 86 47 28 48 29 49 30 50 80 51
REMARK SMILES IDX 31 52 85 53 79 54 81 55 32 56 84 57 78 58 77 59 33 61 65 62
REMARK SMILES IDX 45 63 64 64 46 65 49 66 63 67 82 68 47 69 48 70 62 72 83 73
REMARK SMILES IDX 50 74 34 75 35 76 43 77 36 78 38 79 44 80 37 81 39 82 40 83
REMARK SMILES IDX 41 84 42 85 66 86 67 87 75 88 68 89 70 90 76 91 69 92 71 93
REMARK SMILES IDX 72 94 73 95 74 96 51 97 52 98 60 99 53 100 55 101 61 102
REMARK SMILES IDX 54 103 56 104 57 105 58 106 59 107
REMARK H PARENT 2 13 81 60 49 71
REMARK Flexibility Score: inf
ROOT
ATOM      1  C   UNL     1      -0.429   5.215   2.576  1.00  0.00     0.188 C 
ENDROOT
BRANCH   1   2
ATOM      2  O   UNL     1      -1.045   6.367   3.127  1.00  0.00    -0.376 OA
BRANCH   2   3
ATOM      3  C   UNL     1      -1.379   7.423   2.239  1.00  0.00     0.202 C 
BRANCH   3   4
ATOM      4  C   UNL     1      -0.234   7.934   1.364  1.00  0.00     0.261 C 
BRANCH   4   5
ATOM      5  O   UNL     1       0.209   6.946   0.403  1.00  0.00    -0.462 OA
BRANCH   5   6
ATOM      6  C   UNL     1       1.444   7.171  -0.104  1.00  0.00     0.331 C 
ATOM      7  O   UNL     1       2.083   8.194   0.149  1.00  0.00    -0.250 OA
BRANCH   6   8
ATOM      8  C   UNL     1       2.018   6.086  -1.054  1.00  0.00     0.224 C 
ATOM      9  C   UNL     1       1.864  -0.442  -0.468  1.00  0.00     0.332 C 
ATOM     10  N   UNL     1       1.421   0.820  -1.061  1.00  0.00    -0.337 N 
ATOM     11  C   UNL     1       0.929   1.745  -0.060  1.00  0.00     0.267 C 
ATOM     12  C   UNL     1       2.349   1.333  -2.063  1.00  0.00     0.267 C 
ATOM     13  H   UNL     1       0.591   0.644  -1.627  1.00  0.00     0.347 HD
ATOM     14  C   UNL     1       1.862   2.870   0.301  1.00  0.00     0.120 C 
ATOM     15  C   UNL     1       2.995   2.717  -1.896  1.00  0.00     0.120 C 
ATOM     16  C   UNL     1       2.353   3.676  -0.888  1.00  0.00     0.155 C 
ATOM     17  O   UNL     1       3.481   4.383  -0.299  1.00  0.00    -0.352 OA
ATOM     18  N   UNL     1       1.466   4.759  -1.390  1.00  0.00    -0.293 N 
ATOM     19  C   UNL     1       3.413   5.777  -0.557  1.00  0.00     0.200 C 
BRANCH  18  20
ATOM     20  C   UNL     1       0.410   4.758  -2.307  1.00  0.00     0.256 C 
ATOM     21  O   UNL     1      -0.128   5.801  -2.682  1.00  0.00    -0.269 OA
BRANCH  20  22
ATOM     22  C   UNL     1      -0.093   3.524  -2.946  1.00  0.00     0.041 A 
ATOM     23  C   UNL     1       0.371   3.138  -4.211  1.00  0.00     0.027 A 
ATOM     24  C   UNL     1      -1.111   2.791  -2.335  1.00  0.00     0.027 A 
ATOM     25  C   UNL     1      -0.065   1.928  -4.791  1.00  0.00     0.057 A 
ATOM     26  C   UNL     1      -1.474   1.529  -2.834  1.00  0.00     0.057 A 
ATOM     27  C   UNL     1      -0.959   1.115  -4.073  1.00  0.00     0.026 A 
BRANCH  25  28
ATOM     28  C   UNL     1       0.471   1.479  -6.130  1.00  0.00     0.416 C 
ATOM     29  F   UNL     1       0.027   2.257  -7.154  1.00  0.00    -0.166 F 
ATOM     30  F   UNL     1       1.831   1.521  -6.189  1.00  0.00    -0.166 F 
ATOM     31  F   UNL     1       0.124   0.202  -6.457  1.00  0.00    -0.166 F 
ENDBRANCH  25  28
BRANCH  26  32
ATOM     32  C   UNL     1      -2.316   0.579  -2.009  1.00  0.00     0.416 C 
ATOM     33  F   UNL     1      -3.496   0.274  -2.615  1.00  0.00    -0.166 F 
ATOM     34  F   UNL     1      -1.692  -0.611  -1.790  1.00  0.00    -0.166 F 
ATOM     35  F   UNL     1      -2.635   1.069  -0.780  1.00  0.00    -0.166 F 
ENDBRANCH  26  32
ENDBRANCH  20  22
ENDBRANCH  18  20
ENDBRANCH   6   8
ENDBRANCH   5   6
ENDBRANCH   4   5
ENDBRANCH   3   4
ENDBRANCH   2   3
ENDBRANCH   1   2
BRANCH   1  36
ATOM     36  C   UNL     1      -1.058   4.543   1.334  1.00  0.00     0.188 C 
BRANCH  36  37
ATOM     37  O   UNL     1      -2.430   4.747   1.046  1.00  0.00    -0.376 OA
BRANCH  37  38
ATOM     38  C   UNL     1      -3.339   4.460   2.100  1.00  0.00     0.202 C 
BRANCH  38  39
ATOM     39  C   UNL     1      -3.304   3.024   2.629  1.00  0.00     0.261 C 
BRANCH  39  40
ATOM     40  O   UNL     1      -2.026   2.654   3.192  1.00  0.00    -0.460 OA
BRANCH  40  41
ATOM     41  C   UNL     1      -1.791   1.320   3.188  1.00  0.00     0.338 C 
ATOM     42  O   UNL     1      -2.604   0.464   2.833  1.00  0.00    -0.246 OA
BRANCH  41  43
ATOM     43  C   UNL     1      -0.412   0.948   3.597  1.00  0.00     0.060 A 
ATOM     44  C   UNL     1       0.699   1.727   3.293  1.00  0.00     0.016 A 
ATOM     45  C   UNL     1      -0.198  -0.325   4.126  1.00  0.00     0.016 A 
ATOM     46  C   UNL     1       1.988   1.179   3.340  1.00  0.00     0.010 A 
ATOM     47  C   UNL     1       1.104  -0.819   4.298  1.00  0.00     0.010 A 
ATOM     48  C   UNL     1       2.224  -0.104   3.843  1.00  0.00    -0.014 A 
BRANCH  48  49
ATOM     49  C   UNL     1       3.595  -0.721   3.848  1.00  0.00     0.031 A 
ATOM     50  C   UNL     1       3.784  -2.148   3.374  1.00  0.00     0.074 A 
ATOM     51  C   UNL     1       4.684  -0.046   4.279  1.00  0.00     0.049 A 
ATOM     52  N   UNL     1       4.769  -2.978   3.608  1.00  0.00    -0.248 NA
ATOM     53  C   UNL     1       2.715  -2.723   2.539  1.00  0.00     0.031 C 
ATOM     54  C   UNL     1       4.716   1.357   4.697  1.00  0.00     0.029 A 
ATOM     55  N   UNL     1       5.986  -0.465   4.463  1.00  0.00    -0.354 N 
ATOM     56  C   UNL     1       4.382  -4.199   3.063  1.00  0.00     0.074 A 
ATOM     57  C   UNL     1       3.096  -3.989   2.434  1.00  0.00     0.031 C 
ATOM     58  C   UNL     1       5.961   1.690   5.059  1.00  0.00     0.029 A 
ATOM     59  C   UNL     1       6.784   0.490   5.057  1.00  0.00     0.049 A 
ATOM     60  H   UNL     1       6.311  -1.355   4.198  1.00  0.00     0.167 HD
ATOM     61  C   UNL     1       5.028  -5.390   3.104  1.00  0.00     0.034 A 
ATOM     62  C   UNL     1       7.997   0.406   5.640  1.00  0.00     0.034 A 
ATOM     63  C   UNL     1       6.346  -5.571   3.655  1.00  0.00     0.049 A 
ATOM     64  C   UNL     1       8.688  -0.924   5.700  1.00  0.00     0.074 A 
ATOM     65  C   UNL     1       7.101  -6.730   3.720  1.00  0.00     0.029 A 
ATOM     66  N   UNL     1       7.111  -4.565   4.224  1.00  0.00    -0.354 N 
ATOM     67  N   UNL     1       8.297  -2.078   5.217  1.00  0.00    -0.248 NA
ATOM     68  C   UNL     1       9.985  -0.967   6.390  1.00  0.00     0.031 C 
ATOM     69  C   UNL     1       8.311  -6.430   4.354  1.00  0.00     0.029 A 
ATOM     70  C   UNL     1       8.325  -5.077   4.649  1.00  0.00     0.049 A 
ATOM     71  H   UNL     1       6.832  -3.625   4.312  1.00  0.00     0.167 HD
ATOM     72  C   UNL     1       9.307  -2.979   5.527  1.00  0.00     0.074 A 
ATOM     73  C   UNL     1      10.341  -2.232   6.213  1.00  0.00     0.031 C 
ATOM     74  C   UNL     1       9.365  -4.311   5.284  1.00  0.00     0.034 A 
BRANCH  61  75
ATOM     75  C   UNL     1       4.317  -6.609   2.572  1.00  0.00     0.023 A 
ATOM     76  C   UNL     1       4.168  -6.809   1.187  1.00  0.00     0.012 A 
ATOM     77  C   UNL     1       3.862  -7.603   3.466  1.00  0.00     0.148 A 
ATOM     78  C   UNL     1       3.552  -7.964   0.700  1.00  0.00     0.002 A 
ATOM     79  C   UNL     1       3.292  -8.771   2.971  1.00  0.00     0.091 A 
ATOM     80  F   UNL     1       3.997  -7.388   4.782  1.00  0.00    -0.205 F 
ATOM     81  C   UNL     1       3.126  -8.947   1.590  1.00  0.00     0.022 A 
BRANCH  79  82
ATOM     82  S   UNL     1       2.793 -10.127   4.040  1.00  0.00     0.127 S 
ATOM     83  O   UNL     1       1.333 -10.085   3.901  1.00  0.00    -0.237 OA
ATOM     84  O   UNL     1       3.427 -11.279   3.385  1.00  0.00    -0.237 OA
ATOM     85  O   UNL     1       3.303  -9.819   5.356  1.00  0.00    -0.744 OA
ENDBRANCH  79  82
ENDBRANCH  61  75
BRANCH  62  86
ATOM     86  C   UNL     1       8.598   1.613   6.284  1.00  0.00     0.023 A 
ATOM     87  C   UNL     1       9.769   2.183   5.752  1.00  0.00     0.012 A 
ATOM     88  C   UNL     1       7.988   2.221   7.402  1.00  0.00     0.148 A 
ATOM     89  C   UNL     1      10.329   3.325   6.329  1.00  0.00     0.002 A 
ATOM     90  C   UNL     1       8.507   3.400   7.922  1.00  0.00     0.091 A 
ATOM     91  F   UNL     1       6.892   1.647   7.920  1.00  0.00    -0.205 F 
ATOM     92  C   UNL     1       9.689   3.943   7.400  1.00  0.00     0.022 A 
BRANCH  90  93
ATOM     93  S   UNL     1       7.644   4.346   9.182  1.00  0.00     0.127 S 
ATOM     94  O   UNL     1       8.458   4.081  10.365  1.00  0.00    -0.237 OA
ATOM     95  O   UNL     1       7.741   5.709   8.659  1.00  0.00    -0.237 OA
ATOM     96  O   UNL     1       6.288   3.813   9.208  1.00  0.00    -0.744 OA
ENDBRANCH  90  93
ENDBRANCH  62  86
BRANCH  74  97
ATOM     97  C   UNL     1      10.611  -5.039   5.712  1.00  0.00     0.023 A 
ATOM     98  C   UNL     1      10.848  -5.291   7.077  1.00  0.00     0.012 A 
ATOM     99  C   UNL     1      11.519  -5.519   4.749  1.00  0.00     0.148 A 
ATOM    100  C   UNL     1      11.990  -5.981   7.480  1.00  0.00     0.002 A 
ATOM    101  C   UNL     1      12.628  -6.250   5.154  1.00  0.00     0.091 A 
ATOM    102  F   UNL     1      11.284  -5.247   3.457  1.00  0.00    -0.205 F 
ATOM    103  C   UNL     1      12.873  -6.470   6.519  1.00  0.00     0.022 A 
BRANCH 101 104
ATOM    104  S   UNL     1      13.765  -6.997   3.982  1.00  0.00     0.127 S 
ATOM    105  O   UNL     1      14.949  -6.154   4.137  1.00  0.00    -0.237 OA
ATOM    106  O   UNL     1      13.907  -8.354   4.511  1.00  0.00    -0.237 OA
ATOM    107  O   UNL     1      13.110  -6.921   2.683  1.00  0.00    -0.744 OA
ENDBRANCH 101 104
ENDBRANCH  74  97
ENDBRANCH  48  49
ENDBRANCH  41  43
ENDBRANCH  40  41
ENDBRANCH  39  40
ENDBRANCH  38  39
ENDBRANCH  37  38
ENDBRANCH  36  37
ENDBRANCH   1  36
TORSDOF 24
