REMARK SMILES Cc1cc(=O)c(Oc2ccc(C(=O)OCCOCCOCCOC(=O)c3ccc(-c4c5nc(c(-c6cccc(S(=O)(=O)[O-])c6F)c6ccc([nH]6)c(-c6cccc(S(=O)(=O)[O-])c6F)c6nc(c(-c7cccc(S(=O)(=O)[O-])c7F)c7ccc4[nH]7)C=C6)C=C5)cc3)cc2)c(-c2ccc(S(C)(=O)=O)cc2)o1
REMARK SMILES IDX 18 1 17 2 16 3 15 4 14 5 12 6 13 7 11 8 8 9 9 10 90 11 10 12
REMARK SMILES IDX 89 13 7 14 6 15 1 16 2 17 3 18 102 19 4 20 91 21 5 22 92 23
REMARK SMILES IDX 93 24 101 25 94 26 100 27 95 28 96 29 97 30 98 31 99 32
REMARK SMILES IDX 19 33 20 34 21 35 22 36 23 37 24 38 25 39 26 40 27 41 88 42
REMARK SMILES IDX 28 43 87 44 29 45 30 46 31 47 81 48 32 49 86 50 80 51 82 52
REMARK SMILES IDX 33 53 85 54 79 55 78 56 34 58 66 59 46 60 65 61 47 62 50 63
REMARK SMILES IDX 64 64 83 65 48 66 49 67 63 69 84 70 51 71 35 72 36 73 44 74
REMARK SMILES IDX 37 75 39 76 45 77 38 78 40 79 41 80 42 81 43 82 67 83 68 84
REMARK SMILES IDX 76 85 69 86 71 87 77 88 70 89 72 90 73 91 74 92 75 93 52 94
REMARK SMILES IDX 53 95 61 96 54 97 56 98 62 99 55 100 57 101 58 102 59 103
REMARK SMILES IDX 60 104
REMARK H PARENT 82 57 50 68
REMARK Flexibility Score: inf
ROOT
ATOM      1  C   UNL     1      -0.941  10.223  -1.714  1.00  0.00     0.188 C 
ENDROOT
BRANCH   1   2
ATOM      2  O   UNL     1       0.114  11.165  -1.844  1.00  0.00    -0.376 OA
BRANCH   2   3
ATOM      3  C   UNL     1      -0.044  12.162  -2.833  1.00  0.00     0.202 C 
BRANCH   3   4
ATOM      4  C   UNL     1       0.060  11.736  -4.305  1.00  0.00     0.261 C 
BRANCH   4   5
ATOM      5  O   UNL     1      -0.190  10.342  -4.511  1.00  0.00    -0.460 OA
BRANCH   5   6
ATOM      6  C   UNL     1       0.882   9.609  -4.911  1.00  0.00     0.338 C 
ATOM      7  O   UNL     1       1.955  10.048  -5.290  1.00  0.00    -0.246 OA
BRANCH   6   8
ATOM      8  C   UNL     1       0.586   8.154  -4.793  1.00  0.00     0.060 A 
ATOM      9  C   UNL     1       0.154   5.412  -4.424  1.00  0.00     0.127 A 
ATOM     10  C   UNL     1       1.416   5.872  -4.790  1.00  0.00     0.048 A 
ATOM     11  C   UNL     1      -0.916   6.303  -4.338  1.00  0.00     0.048 A 
ATOM     12  C   UNL     1       1.643   7.245  -4.935  1.00  0.00     0.019 A 
ATOM     13  C   UNL     1      -0.704   7.670  -4.532  1.00  0.00     0.019 A 
BRANCH   9  14
ATOM     14  O   UNL     1      -0.120   4.080  -4.324  1.00  0.00    -0.449 OA
BRANCH  14  15
ATOM     15  C   UNL     1       0.277   3.270  -3.271  1.00  0.00     0.217 A 
ATOM     16  C   UNL     1       1.177   0.352  -0.203  1.00  0.00     0.088 C 
ATOM     17  C   UNL     1       0.811   1.278  -1.321  1.00  0.00     0.105 A 
ATOM     18  C   UNL     1       0.052   0.899  -2.351  1.00  0.00     0.098 A 
ATOM     19  O   UNL     1       1.315   2.558  -1.200  1.00  0.00    -0.457 OA
ATOM     20  C   UNL     1      -0.273   1.881  -3.394  1.00  0.00     0.228 A 
ATOM     21  C   UNL     1       1.033   3.517  -2.169  1.00  0.00     0.180 A 
ATOM     22  O   UNL     1      -1.008   1.545  -4.320  1.00  0.00    -0.285 OA
BRANCH  21  23
ATOM     23  C   UNL     1       1.642   4.805  -1.802  1.00  0.00     0.021 A 
ATOM     24  C   UNL     1       2.971   5.101  -2.131  1.00  0.00     0.013 A 
ATOM     25  C   UNL     1       0.887   5.767  -1.131  1.00  0.00     0.013 A 
ATOM     26  C   UNL     1       3.496   6.383  -1.898  1.00  0.00     0.021 A 
ATOM     27  C   UNL     1       1.443   7.018  -0.839  1.00  0.00     0.021 A 
ATOM     28  C   UNL     1       2.751   7.343  -1.211  1.00  0.00     0.067 A 
BRANCH  28  29
ATOM     29  S   UNL     1       3.311   9.045  -1.130  1.00  0.00     0.175 S 
ATOM     30  C   UNL     1       4.230   9.404   0.322  1.00  0.00     0.163 C 
ATOM     31  O   UNL     1       4.194   9.239  -2.260  1.00  0.00    -0.224 OA
ATOM     32  O   UNL     1       2.113   9.840  -0.985  1.00  0.00    -0.224 OA
ENDBRANCH  28  29
ENDBRANCH  21  23
ENDBRANCH  14  15
ENDBRANCH   9  14
ENDBRANCH   6   8
ENDBRANCH   5   6
ENDBRANCH   4   5
ENDBRANCH   3   4
ENDBRANCH   2   3
ENDBRANCH   1   2
BRANCH   1  33
ATOM     33  C   UNL     1      -1.027   9.711  -0.275  1.00  0.00     0.188 C 
BRANCH  33  34
ATOM     34  O   UNL     1      -1.451  10.704   0.657  1.00  0.00    -0.376 OA
BRANCH  34  35
ATOM     35  C   UNL     1      -1.509  10.165   1.987  1.00  0.00     0.202 C 
BRANCH  35  36
ATOM     36  C   UNL     1      -0.188  10.228   2.778  1.00  0.00     0.261 C 
BRANCH  36  37
ATOM     37  O   UNL     1       0.878   9.310   2.432  1.00  0.00    -0.460 OA
BRANCH  37  38
ATOM     38  C   UNL     1       0.756   7.998   2.767  1.00  0.00     0.338 C 
ATOM     39  O   UNL     1      -0.282   7.423   3.042  1.00  0.00    -0.246 OA
BRANCH  38  40
ATOM     40  C   UNL     1       2.106   7.352   2.682  1.00  0.00     0.060 A 
ATOM     41  C   UNL     1       3.240   7.985   3.203  1.00  0.00     0.016 A 
ATOM     42  C   UNL     1       2.271   6.120   2.042  1.00  0.00     0.016 A 
ATOM     43  C   UNL     1       4.527   7.466   2.959  1.00  0.00     0.010 A 
ATOM     44  C   UNL     1       3.562   5.622   1.763  1.00  0.00     0.010 A 
ATOM     45  C   UNL     1       4.713   6.312   2.176  1.00  0.00    -0.014 A 
BRANCH  45  46
ATOM     46  C   UNL     1       6.083   5.732   2.002  1.00  0.00     0.031 A 
ATOM     47  C   UNL     1       7.009   5.993   0.835  1.00  0.00     0.074 A 
ATOM     48  C   UNL     1       6.520   4.913   2.971  1.00  0.00     0.049 A 
ATOM     49  N   UNL     1       8.269   5.673   0.658  1.00  0.00    -0.248 NA
ATOM     50  C   UNL     1       6.447   6.715  -0.296  1.00  0.00     0.031 C 
ATOM     51  C   UNL     1       5.741   4.521   4.142  1.00  0.00     0.029 A 
ATOM     52  N   UNL     1       7.714   4.262   3.111  1.00  0.00    -0.354 N 
ATOM     53  C   UNL     1       8.638   6.187  -0.589  1.00  0.00     0.074 A 
ATOM     54  C   UNL     1       7.471   6.839  -1.130  1.00  0.00     0.031 C 
ATOM     55  C   UNL     1       6.474   3.680   4.880  1.00  0.00     0.029 A 
ATOM     56  C   UNL     1       7.771   3.480   4.233  1.00  0.00     0.049 A 
ATOM     57  H   UNL     1       8.457   4.346   2.470  1.00  0.00     0.167 HD
ATOM     58  C   UNL     1       9.832   6.126  -1.231  1.00  0.00     0.034 A 
ATOM     59  C   UNL     1       8.754   2.693   4.705  1.00  0.00     0.034 A 
ATOM     60  C   UNL     1      10.985   5.434  -0.722  1.00  0.00     0.049 A 
ATOM     61  C   UNL     1      10.072   2.631   4.002  1.00  0.00     0.074 A 
ATOM     62  C   UNL     1      12.256   5.359  -1.268  1.00  0.00     0.029 A 
ATOM     63  N   UNL     1      11.000   4.673   0.433  1.00  0.00    -0.354 N 
ATOM     64  N   UNL     1      10.451   3.253   2.912  1.00  0.00    -0.248 NA
ATOM     65  C   UNL     1      11.111   1.793   4.614  1.00  0.00     0.031 C 
ATOM     66  C   UNL     1      13.037   4.539  -0.446  1.00  0.00     0.029 A 
ATOM     67  C   UNL     1      12.253   4.116   0.615  1.00  0.00     0.049 A 
ATOM     68  H   UNL     1      10.233   4.547   1.036  1.00  0.00     0.167 HD
ATOM     69  C   UNL     1      11.778   2.892   2.713  1.00  0.00     0.074 A 
ATOM     70  C   UNL     1      12.141   2.010   3.803  1.00  0.00     0.031 C 
ATOM     71  C   UNL     1      12.613   3.256   1.710  1.00  0.00     0.034 A 
BRANCH  58  72
ATOM     72  C   UNL     1      10.001   6.873  -2.534  1.00  0.00     0.023 A 
ATOM     73  C   UNL     1      10.213   8.266  -2.490  1.00  0.00     0.012 A 
ATOM     74  C   UNL     1      10.111   6.199  -3.768  1.00  0.00     0.148 A 
ATOM     75  C   UNL     1      10.528   8.977  -3.650  1.00  0.00     0.002 A 
ATOM     76  C   UNL     1      10.454   6.910  -4.916  1.00  0.00     0.091 A 
ATOM     77  F   UNL     1       9.891   4.877  -3.793  1.00  0.00    -0.205 F 
ATOM     78  C   UNL     1      10.661   8.298  -4.858  1.00  0.00     0.022 A 
BRANCH  76  79
ATOM     79  S   UNL     1      10.728   6.117  -6.507  1.00  0.00     0.127 S 
ATOM     80  O   UNL     1       9.559   6.561  -7.265  1.00  0.00    -0.237 OA
ATOM     81  O   UNL     1      11.994   6.711  -6.937  1.00  0.00    -0.237 OA
ATOM     82  O   UNL     1      10.789   4.688  -6.236  1.00  0.00    -0.744 OA
ENDBRANCH  76  79
ENDBRANCH  58  72
BRANCH  59  83
ATOM     83  C   UNL     1       8.491   1.987   5.980  1.00  0.00     0.023 A 
ATOM     84  C   UNL     1       8.937   2.566   7.181  1.00  0.00     0.012 A 
ATOM     85  C   UNL     1       7.605   0.892   6.011  1.00  0.00     0.148 A 
ATOM     86  C   UNL     1       8.483   2.077   8.403  1.00  0.00     0.002 A 
ATOM     87  C   UNL     1       7.119   0.444   7.230  1.00  0.00     0.091 A 
ATOM     88  F   UNL     1       7.192   0.380   4.843  1.00  0.00    -0.205 F 
ATOM     89  C   UNL     1       7.561   1.031   8.428  1.00  0.00     0.022 A 
BRANCH  87  90
ATOM     90  S   UNL     1       5.806  -0.774   7.353  1.00  0.00     0.127 S 
ATOM     91  O   UNL     1       6.477  -1.863   8.059  1.00  0.00    -0.237 OA
ATOM     92  O   UNL     1       4.805  -0.052   8.139  1.00  0.00    -0.237 OA
ATOM     93  O   UNL     1       5.405  -1.069   5.985  1.00  0.00    -0.744 OA
ENDBRANCH  87  90
ENDBRANCH  59  83
BRANCH  71  94
ATOM     94  C   UNL     1      14.005   2.692   1.715  1.00  0.00     0.023 A 
ATOM     95  C   UNL     1      14.214   1.378   1.254  1.00  0.00     0.012 A 
ATOM     96  C   UNL     1      15.109   3.488   2.078  1.00  0.00     0.148 A 
ATOM     97  C   UNL     1      15.504   0.857   1.168  1.00  0.00     0.002 A 
ATOM     98  C   UNL     1      16.394   2.971   1.964  1.00  0.00     0.091 A 
ATOM     99  F   UNL     1      14.880   4.734   2.518  1.00  0.00    -0.205 F 
ATOM    100  C   UNL     1      16.592   1.655   1.515  1.00  0.00     0.022 A 
BRANCH  98 101
ATOM    101  S   UNL     1      17.863   3.936   2.331  1.00  0.00     0.127 S 
ATOM    102  O   UNL     1      18.370   3.261   3.526  1.00  0.00    -0.237 OA
ATOM    103  O   UNL     1      18.672   3.738   1.128  1.00  0.00    -0.237 OA
ATOM    104  O   UNL     1      17.407   5.304   2.539  1.00  0.00    -0.744 OA
ENDBRANCH  98 101
ENDBRANCH  71  94
ENDBRANCH  45  46
ENDBRANCH  38  40
ENDBRANCH  37  38
ENDBRANCH  36  37
ENDBRANCH  35  36
ENDBRANCH  34  35
ENDBRANCH  33  34
ENDBRANCH   1  33
TORSDOF 24
