REMARK SMILES CC(C)(C)N(CC(=O)OCCOCCOCCOC(=O)c1ccc(-c2c3nc(c(-c4cccc(S(=O)(=O)[O-])c4F)c4ccc([nH]4)c(-c4cccc(S(=O)(=O)[O-])c4F)c4nc(c(-c5cccc(S(=O)(=O)[O-])c5F)c5ccc2[nH]5)C=C4)C=C3)cc1)C(=O)C1C[NH2+]C1
REMARK SMILES IDX 13 1 12 2 11 3 10 4 9 5 7 6 8 7 6 8 5 9 2 10 1 11 3 12 4 13
REMARK SMILES IDX 84 14 85 15 86 16 87 17 89 18 88 19 14 22 15 23 16 24 17 25
REMARK SMILES IDX 18 26 19 27 20 28 21 29 22 30 83 31 23 32 82 33 24 34 25 35
REMARK SMILES IDX 26 36 76 37 27 38 81 39 75 40 77 41 28 42 80 43 74 44 73 45
REMARK SMILES IDX 29 47 61 48 41 49 60 50 42 51 45 52 59 53 78 54 43 55 44 56
REMARK SMILES IDX 58 58 79 59 46 60 30 61 31 62 39 63 32 64 34 65 40 66 33 67
REMARK SMILES IDX 35 68 36 69 37 70 38 71 62 72 63 73 71 74 64 75 66 76 72 77
REMARK SMILES IDX 65 78 67 79 68 80 69 81 70 82 47 83 48 84 56 85 49 86 51 87
REMARK SMILES IDX 57 88 50 89 52 90 53 91 54 92 55 93
REMARK H PARENT 88 20 88 21 77 46 45 57
REMARK Flexibility Score: inf
ROOT
ATOM      1  C   UNL     1       4.349   2.285  -4.609  1.00  0.00     0.188 C 
ENDROOT
BRANCH   1   2
ATOM      2  O   UNL     1       5.673   1.792  -4.491  1.00  0.00    -0.376 OA
BRANCH   2   3
ATOM      3  C   UNL     1       5.937   0.810  -3.496  1.00  0.00     0.202 C 
BRANCH   3   4
ATOM      4  C   UNL     1       5.490   1.120  -2.061  1.00  0.00     0.261 C 
BRANCH   4   5
ATOM      5  O   UNL     1       4.052   1.046  -1.876  1.00  0.00    -0.462 OA
BRANCH   5   6
ATOM      6  C   UNL     1       3.563   1.824  -0.874  1.00  0.00     0.325 C 
ATOM      7  O   UNL     1       4.284   2.488  -0.131  1.00  0.00    -0.250 OA
BRANCH   6   8
ATOM      8  C   UNL     1       2.022   1.889  -0.745  1.00  0.00     0.242 C 
BRANCH   8   9
ATOM      9  N   UNL     1       1.078   1.014  -1.481  1.00  0.00    -0.326 N 
BRANCH   9  10
ATOM     10  C   UNL     1       0.677  -0.322  -0.888  1.00  0.00     0.035 C 
ATOM     11  C   UNL     1       1.166  -0.522   0.567  1.00  0.00     0.034 C 
ATOM     12  C   UNL     1       1.235  -1.501  -1.710  1.00  0.00     0.034 C 
ATOM     13  C   UNL     1      -0.874  -0.431  -0.810  1.00  0.00     0.034 C 
ENDBRANCH   9  10
BRANCH   9  14
ATOM     14  C   UNL     1       0.459   1.398  -2.696  1.00  0.00     0.238 C 
ATOM     15  O   UNL     1      -0.107   0.533  -3.392  1.00  0.00    -0.274 OA
BRANCH  14  16
ATOM     16  C   UNL     1       0.360   2.829  -3.202  1.00  0.00     0.188 C 
ATOM     17  C   UNL     1      -0.412   3.885  -2.414  1.00  0.00     0.280 C 
ATOM     18  C   UNL     1       1.483   3.853  -3.323  1.00  0.00     0.280 C 
ATOM     19  N   UNL     1       0.605   4.885  -2.763  1.00  0.00    -0.345 N 
ATOM     20  H   UNL     1       1.001   5.368  -1.956  1.00  0.00     0.346 HD
ATOM     21  H   UNL     1       0.345   5.690  -3.333  1.00  0.00     0.346 HD
ENDBRANCH  14  16
ENDBRANCH   9  14
ENDBRANCH   8   9
ENDBRANCH   6   8
ENDBRANCH   5   6
ENDBRANCH   4   5
ENDBRANCH   3   4
ENDBRANCH   2   3
ENDBRANCH   1   2
BRANCH   1  22
ATOM     22  C   UNL     1       3.185   1.283  -4.698  1.00  0.00     0.188 C 
BRANCH  22  23
ATOM     23  O   UNL     1       3.389  -0.033  -5.175  1.00  0.00    -0.376 OA
BRANCH  23  24
ATOM     24  C   UNL     1       4.141  -0.210  -6.357  1.00  0.00     0.202 C 
BRANCH  24  25
ATOM     25  C   UNL     1       3.628   0.407  -7.663  1.00  0.00     0.261 C 
BRANCH  25  26
ATOM     26  O   UNL     1       3.089   1.734  -7.559  1.00  0.00    -0.460 OA
BRANCH  26  27
ATOM     27  C   UNL     1       1.743   1.816  -7.756  1.00  0.00     0.338 C 
ATOM     28  O   UNL     1       0.982   0.894  -7.970  1.00  0.00    -0.246 OA
BRANCH  27  29
ATOM     29  C   UNL     1       1.272   3.205  -7.542  1.00  0.00     0.060 A 
ATOM     30  C   UNL     1       0.133   3.381  -6.752  1.00  0.00     0.016 A 
ATOM     31  C   UNL     1       1.883   4.312  -8.135  1.00  0.00     0.016 A 
ATOM     32  C   UNL     1      -0.369   4.662  -6.505  1.00  0.00     0.010 A 
ATOM     33  C   UNL     1       1.344   5.595  -7.935  1.00  0.00     0.010 A 
ATOM     34  C   UNL     1       0.216   5.778  -7.115  1.00  0.00    -0.014 A 
BRANCH  34  35
ATOM     35  C   UNL     1      -0.470   7.095  -7.016  1.00  0.00     0.031 A 
ATOM     36  C   UNL     1      -1.646   7.365  -7.916  1.00  0.00     0.074 A 
ATOM     37  C   UNL     1      -0.100   8.023  -6.113  1.00  0.00     0.049 A 
ATOM     38  N   UNL     1      -2.392   8.435  -8.006  1.00  0.00    -0.248 NA
ATOM     39  C   UNL     1      -2.045   6.273  -8.819  1.00  0.00     0.031 C 
ATOM     40  C   UNL     1       0.974   7.872  -5.134  1.00  0.00     0.029 A 
ATOM     41  N   UNL     1      -0.591   9.287  -5.879  1.00  0.00    -0.354 N 
ATOM     42  C   UNL     1      -3.332   8.157  -8.990  1.00  0.00     0.074 A 
ATOM     43  C   UNL     1      -3.082   6.808  -9.447  1.00  0.00     0.031 C 
ATOM     44  C   UNL     1       1.073   9.006  -4.417  1.00  0.00     0.029 A 
ATOM     45  C   UNL     1       0.105   9.983  -4.917  1.00  0.00     0.049 A 
ATOM     46  H   UNL     1      -1.369   9.658  -6.355  1.00  0.00     0.167 HD
ATOM     47  C   UNL     1      -4.308   8.955  -9.484  1.00  0.00     0.034 A 
ATOM     48  C   UNL     1       0.004  11.270  -4.519  1.00  0.00     0.034 A 
ATOM     49  C   UNL     1      -4.546  10.308  -9.063  1.00  0.00     0.049 A 
ATOM     50  C   UNL     1      -1.037  12.165  -5.153  1.00  0.00     0.074 A 
ATOM     51  C   UNL     1      -5.501  11.195  -9.529  1.00  0.00     0.029 A 
ATOM     52  N   UNL     1      -3.808  10.981  -8.105  1.00  0.00    -0.354 N 
ATOM     53  N   UNL     1      -1.962  11.867  -6.033  1.00  0.00    -0.248 NA
ATOM     54  C   UNL     1      -1.056  13.575  -4.726  1.00  0.00     0.031 C 
ATOM     55  C   UNL     1      -5.311  12.420  -8.883  1.00  0.00     0.029 A 
ATOM     56  C   UNL     1      -4.272  12.279  -7.978  1.00  0.00     0.049 A 
ATOM     57  H   UNL     1      -3.063  10.595  -7.590  1.00  0.00     0.167 HD
ATOM     58  C   UNL     1      -2.690  13.037  -6.235  1.00  0.00     0.074 A 
ATOM     59  C   UNL     1      -2.115  14.044  -5.371  1.00  0.00     0.031 C 
ATOM     60  C   UNL     1      -3.733  13.261  -7.073  1.00  0.00     0.034 A 
BRANCH  47  61
ATOM     61  C   UNL     1      -5.171   8.393 -10.579  1.00  0.00     0.023 A 
ATOM     62  C   UNL     1      -6.165   7.441 -10.280  1.00  0.00     0.012 A 
ATOM     63  C   UNL     1      -5.020   8.848 -11.903  1.00  0.00     0.148 A 
ATOM     64  C   UNL     1      -6.979   6.929 -11.290  1.00  0.00     0.002 A 
ATOM     65  C   UNL     1      -5.864   8.368 -12.895  1.00  0.00     0.091 A 
ATOM     66  F   UNL     1      -4.051   9.737 -12.165  1.00  0.00    -0.205 F 
ATOM     67  C   UNL     1      -6.835   7.400 -12.593  1.00  0.00     0.022 A 
BRANCH  65  68
ATOM     68  S   UNL     1      -5.805   8.965 -14.587  1.00  0.00     0.127 S 
ATOM     69  O   UNL     1      -5.344   7.776 -15.303  1.00  0.00    -0.237 OA
ATOM     70  O   UNL     1      -7.202   9.323 -14.832  1.00  0.00    -0.237 OA
ATOM     71  O   UNL     1      -4.878  10.088 -14.588  1.00  0.00    -0.744 OA
ENDBRANCH  65  68
ENDBRANCH  47  61
BRANCH  48  72
ATOM     72  C   UNL     1       0.934  11.825  -3.490  1.00  0.00     0.023 A 
ATOM     73  C   UNL     1       0.431  12.292  -2.259  1.00  0.00     0.012 A 
ATOM     74  C   UNL     1       2.314  11.943  -3.751  1.00  0.00     0.148 A 
ATOM     75  C   UNL     1       1.276  12.903  -1.329  1.00  0.00     0.002 A 
ATOM     76  C   UNL     1       3.159  12.494  -2.796  1.00  0.00     0.091 A 
ATOM     77  F   UNL     1       2.773  11.523  -4.938  1.00  0.00    -0.205 F 
ATOM     78  C   UNL     1       2.640  12.996  -1.593  1.00  0.00     0.022 A 
BRANCH  76  79
ATOM     79  S   UNL     1       4.942  12.544  -3.005  1.00  0.00     0.127 S 
ATOM     80  O   UNL     1       5.182  13.974  -3.180  1.00  0.00    -0.237 OA
ATOM     81  O   UNL     1       5.409  11.991  -1.734  1.00  0.00    -0.237 OA
ATOM     82  O   UNL     1       5.224  11.709  -4.164  1.00  0.00    -0.744 OA
ENDBRANCH  76  79
ENDBRANCH  48  72
BRANCH  60  83
ATOM     83  C   UNL     1      -4.373  14.627  -7.069  1.00  0.00     0.023 A 
ATOM     84  C   UNL     1      -3.696  15.731  -7.625  1.00  0.00     0.012 A 
ATOM     85  C   UNL     1      -5.690  14.795  -6.594  1.00  0.00     0.148 A 
ATOM     86  C   UNL     1      -4.307  16.984  -7.680  1.00  0.00     0.002 A 
ATOM     87  C   UNL     1      -6.312  16.033  -6.701  1.00  0.00     0.091 A 
ATOM     88  F   UNL     1      -6.313  13.737  -6.054  1.00  0.00    -0.205 F 
ATOM     89  C   UNL     1      -5.618  17.132  -7.231  1.00  0.00     0.022 A 
BRANCH  87  90
ATOM     90  S   UNL     1      -8.031  16.292  -6.245  1.00  0.00     0.127 S 
ATOM     91  O   UNL     1      -7.899  17.114  -5.043  1.00  0.00    -0.237 OA
ATOM     92  O   UNL     1      -8.558  16.998  -7.413  1.00  0.00    -0.237 OA
ATOM     93  O   UNL     1      -8.596  14.966  -6.034  1.00  0.00    -0.744 OA
ENDBRANCH  87  90
ENDBRANCH  60  83
ENDBRANCH  34  35
ENDBRANCH  27  29
ENDBRANCH  26  27
ENDBRANCH  25  26
ENDBRANCH  24  25
ENDBRANCH  23  24
ENDBRANCH  22  23
ENDBRANCH   1  22
TORSDOF 24
