REMARK SMILES COc1ccc2c(c1OC)C(=O)O[C@@H]2Nc1nonc1C(=O)OCCOCCOCCOC(=O)c1ccc(-c2c3nc(c(-c4cccc(S(=O)(=O)[O-])c4F)c4ccc([nH]4)c(-c4cccc(S(=O)(=O)[O-])c4F)c4nc(c(-c5cccc(S(=O)(=O)[O-])c5F)c5ccc2[nH]5)C=C4)C=C3)cc1
REMARK SMILES IDX 27 1 26 2 25 3 24 4 23 5 21 6 22 7 20 8 16 9 17 10 18 11
REMARK SMILES IDX 19 12 15 13 14 15 3 16 4 17 8 18 5 19 7 20 6 21 11 22 12 23
REMARK SMILES IDX 13 24 2 25 1 26 9 27 10 28 28 29 29 30 30 31 31 32 32 33
REMARK SMILES IDX 33 34 34 35 35 36 36 37 97 38 37 39 96 40 38 41 39 42 40 43
REMARK SMILES IDX 90 44 41 45 95 46 89 47 91 48 42 49 94 50 88 51 87 52 43 54
REMARK SMILES IDX 75 55 55 56 74 57 56 58 59 59 73 60 92 61 57 62 58 63 72 65
REMARK SMILES IDX 93 66 60 67 44 68 45 69 53 70 46 71 48 72 54 73 47 74 49 75
REMARK SMILES IDX 50 76 51 77 52 78 76 79 77 80 85 81 78 82 80 83 86 84 79 85
REMARK SMILES IDX 81 86 82 87 83 88 84 89 61 90 62 91 70 92 63 93 65 94 71 95
REMARK SMILES IDX 64 96 66 97 67 98 68 99 69 100
REMARK H PARENT 15 14 91 53 59 64
REMARK Flexibility Score: inf
ROOT
ATOM      1  C   UNL     1      -2.527   5.703   5.287  1.00  0.00     0.188 C 
ENDROOT
BRANCH   1   2
ATOM      2  O   UNL     1      -2.794   5.976   3.925  1.00  0.00    -0.376 OA
BRANCH   2   3
ATOM      3  C   UNL     1      -1.744   6.030   2.971  1.00  0.00     0.202 C 
BRANCH   3   4
ATOM      4  C   UNL     1      -0.400   6.664   3.336  1.00  0.00     0.261 C 
BRANCH   4   5
ATOM      5  O   UNL     1       0.218   5.986   4.443  1.00  0.00    -0.458 OA
BRANCH   5   6
ATOM      6  C   UNL     1       0.812   6.787   5.379  1.00  0.00     0.364 C 
ATOM      7  O   UNL     1       1.021   7.981   5.208  1.00  0.00    -0.244 OA
BRANCH   6   8
ATOM      8  C   UNL     1       1.082   6.081   6.620  1.00  0.00     0.236 A 
ATOM      9  C   UNL     1       1.484   4.740   6.885  1.00  0.00     0.209 A 
ATOM     10  N   UNL     1       1.406   4.528   8.200  1.00  0.00    -0.031 NA
ATOM     11  O   UNL     1       1.028   5.734   8.760  1.00  0.00    -0.241 OA
ATOM     12  N   UNL     1       0.839   6.696   7.787  1.00  0.00    -0.040 NA
BRANCH   9  13
ATOM     13  N   UNL     1       1.856   3.745   6.040  1.00  0.00    -0.326 N 
ATOM     14  H   UNL     1       1.617   2.823   6.290  1.00  0.00     0.166 HD
BRANCH  13  15
ATOM     15  C   UNL     1       2.570   3.936   4.813  1.00  0.00     0.307 C 
ATOM     16  C   UNL     1       1.466   1.780   1.365  1.00  0.00     0.161 A 
ATOM     17  C   UNL     1       0.444   2.450   2.042  1.00  0.00     0.051 A 
ATOM     18  C   UNL     1       2.793   1.746   1.858  1.00  0.00     0.175 A 
ATOM     19  C   UNL     1       0.727   3.120   3.220  1.00  0.00     0.014 A 
ATOM     20  C   UNL     1       3.042   2.434   3.050  1.00  0.00     0.114 A 
ATOM     21  C   UNL     1       2.026   3.130   3.695  1.00  0.00     0.032 A 
ATOM     22  C   UNL     1       4.246   2.666   3.865  1.00  0.00     0.344 C 
ATOM     23  O   UNL     1       5.377   2.252   3.691  1.00  0.00    -0.246 OA
ATOM     24  O   UNL     1       3.895   3.431   4.941  1.00  0.00    -0.434 OA
BRANCH  16  25
ATOM     25  O   UNL     1       1.102   1.275   0.138  1.00  0.00    -0.493 OA
ATOM     26  C   UNL     1       1.157  -0.148   0.095  1.00  0.00     0.278 C 
ENDBRANCH  16  25
BRANCH  18  27
ATOM     27  O   UNL     1       3.659   1.090   1.035  1.00  0.00    -0.492 OA
ATOM     28  C   UNL     1       4.937   0.705   1.500  1.00  0.00     0.278 C 
ENDBRANCH  18  27
ENDBRANCH  13  15
ENDBRANCH   9  13
ENDBRANCH   6   8
ENDBRANCH   5   6
ENDBRANCH   4   5
ENDBRANCH   3   4
ENDBRANCH   2   3
ENDBRANCH   1   2
BRANCH   1  29
ATOM     29  C   UNL     1      -2.099   4.287   5.727  1.00  0.00     0.188 C 
BRANCH  29  30
ATOM     30  O   UNL     1      -2.028   3.179   4.853  1.00  0.00    -0.376 OA
BRANCH  30  31
ATOM     31  C   UNL     1      -3.025   2.934   3.882  1.00  0.00     0.202 C 
BRANCH  31  32
ATOM     32  C   UNL     1      -4.499   2.814   4.266  1.00  0.00     0.261 C 
BRANCH  32  33
ATOM     33  O   UNL     1      -4.948   3.760   5.233  1.00  0.00    -0.460 OA
BRANCH  33  34
ATOM     34  C   UNL     1      -5.082   3.254   6.482  1.00  0.00     0.338 C 
ATOM     35  O   UNL     1      -4.860   2.111   6.845  1.00  0.00    -0.246 OA
BRANCH  34  36
ATOM     36  C   UNL     1      -5.373   4.354   7.412  1.00  0.00     0.060 A 
ATOM     37  C   UNL     1      -4.498   4.546   8.488  1.00  0.00     0.016 A 
ATOM     38  C   UNL     1      -6.505   5.156   7.252  1.00  0.00     0.016 A 
ATOM     39  C   UNL     1      -4.772   5.523   9.433  1.00  0.00     0.010 A 
ATOM     40  C   UNL     1      -6.793   6.121   8.218  1.00  0.00     0.010 A 
ATOM     41  C   UNL     1      -5.947   6.278   9.330  1.00  0.00    -0.014 A 
BRANCH  41  42
ATOM     42  C   UNL     1      -6.353   7.097  10.490  1.00  0.00     0.031 A 
ATOM     43  C   UNL     1      -7.377   6.545  11.440  1.00  0.00     0.074 A 
ATOM     44  C   UNL     1      -5.763   8.281  10.725  1.00  0.00     0.049 A 
ATOM     45  N   UNL     1      -7.830   7.054  12.554  1.00  0.00    -0.248 NA
ATOM     46  C   UNL     1      -7.969   5.242  11.089  1.00  0.00     0.031 C 
ATOM     47  C   UNL     1      -4.751   8.903   9.873  1.00  0.00     0.029 A 
ATOM     48  N   UNL     1      -5.941   9.172  11.749  1.00  0.00    -0.354 N 
ATOM     49  C   UNL     1      -8.778   6.154  13.023  1.00  0.00     0.074 A 
ATOM     50  C   UNL     1      -8.846   5.072  12.067  1.00  0.00     0.031 C 
ATOM     51  C   UNL     1      -4.410  10.090  10.401  1.00  0.00     0.029 A 
ATOM     52  C   UNL     1      -5.194  10.317  11.613  1.00  0.00     0.049 A 
ATOM     53  H   UNL     1      -6.545   9.009  12.509  1.00  0.00     0.167 HD
ATOM     54  C   UNL     1      -9.518   6.220  14.155  1.00  0.00     0.034 A 
ATOM     55  C   UNL     1      -5.163  11.427  12.374  1.00  0.00     0.034 A 
ATOM     56  C   UNL     1      -9.436   7.297  15.104  1.00  0.00     0.049 A 
ATOM     57  C   UNL     1      -6.003  11.478  13.623  1.00  0.00     0.074 A 
ATOM     58  C   UNL     1     -10.107   7.439  16.305  1.00  0.00     0.029 A 
ATOM     59  N   UNL     1      -8.650   8.430  14.949  1.00  0.00    -0.354 N 
ATOM     60  N   UNL     1      -6.813  10.571  14.113  1.00  0.00    -0.248 NA
ATOM     61  C   UNL     1      -5.891  12.690  14.445  1.00  0.00     0.031 C 
ATOM     62  C   UNL     1      -9.762   8.679  16.854  1.00  0.00     0.029 A 
ATOM     63  C   UNL     1      -8.833   9.285  16.023  1.00  0.00     0.049 A 
ATOM     64  H   UNL     1      -8.050   8.601  14.188  1.00  0.00     0.167 HD
ATOM     65  C   UNL     1      -7.279  11.085  15.318  1.00  0.00     0.074 A 
ATOM     66  C   UNL     1      -6.637  12.373  15.493  1.00  0.00     0.031 C 
ATOM     67  C   UNL     1      -8.163  10.549  16.197  1.00  0.00     0.034 A 
BRANCH  54  68
ATOM     68  C   UNL     1     -10.484   5.096  14.423  1.00  0.00     0.023 A 
ATOM     69  C   UNL     1     -10.005   3.816  14.771  1.00  0.00     0.012 A 
ATOM     70  C   UNL     1     -11.873   5.322  14.371  1.00  0.00     0.148 A 
ATOM     71  C   UNL     1     -10.893   2.771  15.027  1.00  0.00     0.002 A 
ATOM     72  C   UNL     1     -12.751   4.290  14.678  1.00  0.00     0.091 A 
ATOM     73  F   UNL     1     -12.310   6.538  14.013  1.00  0.00    -0.205 F 
ATOM     74  C   UNL     1     -12.264   3.010  14.992  1.00  0.00     0.022 A 
BRANCH  72  75
ATOM     75  S   UNL     1     -14.531   4.520  14.740  1.00  0.00     0.127 S 
ATOM     76  O   UNL     1     -14.972   3.733  13.589  1.00  0.00    -0.237 OA
ATOM     77  O   UNL     1     -14.868   3.941  16.041  1.00  0.00    -0.237 OA
ATOM     78  O   UNL     1     -14.757   5.955  14.636  1.00  0.00    -0.744 OA
ENDBRANCH  72  75
ENDBRANCH  54  68
BRANCH  55  79
ATOM     79  C   UNL     1      -4.290  12.569  11.986  1.00  0.00     0.023 A 
ATOM     80  C   UNL     1      -3.170  12.899  12.773  1.00  0.00     0.012 A 
ATOM     81  C   UNL     1      -4.560  13.318  10.825  1.00  0.00     0.148 A 
ATOM     82  C   UNL     1      -2.355  13.978  12.428  1.00  0.00     0.002 A 
ATOM     83  C   UNL     1      -3.712  14.353  10.455  1.00  0.00     0.091 A 
ATOM     84  F   UNL     1      -5.639  12.994  10.098  1.00  0.00    -0.205 F 
ATOM     85  C   UNL     1      -2.619  14.698  11.265  1.00  0.00     0.022 A 
BRANCH  83  86
ATOM     86  S   UNL     1      -3.902  15.249   8.911  1.00  0.00     0.127 S 
ATOM     87  O   UNL     1      -4.284  16.578   9.382  1.00  0.00    -0.237 OA
ATOM     88  O   UNL     1      -2.557  15.159   8.344  1.00  0.00    -0.237 OA
ATOM     89  O   UNL     1      -4.922  14.531   8.159  1.00  0.00    -0.744 OA
ENDBRANCH  83  86
ENDBRANCH  55  79
BRANCH  67  90
ATOM     90  C   UNL     1      -8.455  11.335  17.451  1.00  0.00     0.023 A 
ATOM     91  C   UNL     1      -9.165  12.551  17.379  1.00  0.00     0.012 A 
ATOM     92  C   UNL     1      -8.047  10.850  18.710  1.00  0.00     0.148 A 
ATOM     93  C   UNL     1      -9.411  13.299  18.530  1.00  0.00     0.002 A 
ATOM     94  C   UNL     1      -8.348  11.571  19.859  1.00  0.00     0.091 A 
ATOM     95  F   UNL     1      -7.360   9.699  18.762  1.00  0.00    -0.205 F 
ATOM     96  C   UNL     1      -9.011  12.805  19.769  1.00  0.00     0.022 A 
BRANCH  94  97
ATOM     97  S   UNL     1      -7.963  10.960  21.503  1.00  0.00     0.127 S 
ATOM     98  O   UNL     1      -6.829  11.804  21.876  1.00  0.00    -0.237 OA
ATOM     99  O   UNL     1      -9.198  11.240  22.236  1.00  0.00    -0.237 OA
ATOM    100  O   UNL     1      -7.665   9.543  21.344  1.00  0.00    -0.744 OA
ENDBRANCH  94  97
ENDBRANCH  67  90
ENDBRANCH  41  42
ENDBRANCH  34  36
ENDBRANCH  33  34
ENDBRANCH  32  33
ENDBRANCH  31  32
ENDBRANCH  30  31
ENDBRANCH  29  30
ENDBRANCH   1  29
TORSDOF 24
