REMARK SMILES CCN(CC)C(=O)N1CCC[C@H](C(=O)N[C@H](C(=O)OCCOCCOCCOC(=O)c2ccc(-c3c4nc(c(-c5cccc(S(=O)(=O)[O-])c5F)c5ccc([nH]5)c(-c5cccc(S(=O)(=O)[O-])c5F)c5nc(c(-c6cccc(S(=O)(=O)[O-])c6F)c6ccc3[nH]6)C=C5)C=C4)cc2)C(C)(C)C)C1
REMARK SMILES IDX 23 1 22 2 21 3 20 4 19 5 17 6 18 7 16 8 15 9 13 10 14 11
REMARK SMILES IDX 12 13 8 14 9 15 98 16 10 17 11 18 6 19 3 20 7 21 2 22 1 23
REMARK SMILES IDX 4 24 5 25 94 26 95 27 96 28 97 29 24 30 25 31 26 32 27 33
REMARK SMILES IDX 28 34 29 35 30 36 31 37 32 38 93 39 33 40 92 41 34 42 35 43
REMARK SMILES IDX 36 44 86 45 37 46 91 47 85 48 87 49 38 50 90 51 84 52 83 53
REMARK SMILES IDX 39 55 71 56 51 57 70 58 52 59 55 60 69 61 88 62 53 63 54 64
REMARK SMILES IDX 68 66 89 67 56 68 40 69 41 70 49 71 42 72 44 73 50 74 43 75
REMARK SMILES IDX 45 76 46 77 47 78 48 79 72 80 73 81 81 82 74 83 76 84 82 85
REMARK SMILES IDX 75 86 77 87 78 88 79 89 80 90 57 91 58 92 66 93 59 94 61 95
REMARK SMILES IDX 67 96 60 97 62 98 63 99 64 100 65 101
REMARK H PARENT 15 12 87 54 55 65
REMARK Flexibility Score: inf
ROOT
ATOM      1  C   UNL     1       6.435   6.076   0.851  1.00  0.00     0.188 C 
ENDROOT
BRANCH   1   2
ATOM      2  O   UNL     1       6.341   6.723   2.109  1.00  0.00    -0.376 OA
BRANCH   2   3
ATOM      3  C   UNL     1       5.166   6.455   2.863  1.00  0.00     0.202 C 
BRANCH   3   4
ATOM      4  C   UNL     1       4.831   4.991   3.184  1.00  0.00     0.261 C 
BRANCH   4   5
ATOM      5  O   UNL     1       4.934   4.095   2.059  1.00  0.00    -0.462 OA
BRANCH   5   6
ATOM      6  C   UNL     1       3.773   3.623   1.532  1.00  0.00     0.329 C 
ATOM      7  O   UNL     1       2.670   3.873   2.007  1.00  0.00    -0.250 OA
BRANCH   6   8
ATOM      8  C   UNL     1       4.011   2.614   0.355  1.00  0.00     0.197 C 
BRANCH   8   9
ATOM      9  N   UNL     1       5.400   2.452  -0.099  1.00  0.00    -0.342 N 
ATOM     10  C   UNL     1       5.989   2.427  -1.319  1.00  0.00     0.225 C 
ATOM     11  O   UNL     1       7.160   2.019  -1.338  1.00  0.00    -0.275 OA
ATOM     12  H   UNL     1       6.039   2.338   0.641  1.00  0.00     0.164 HD
BRANCH  10  13
ATOM     13  C   UNL     1       5.371   2.903  -2.631  1.00  0.00     0.098 C 
ATOM     14  N   UNL     1       3.682   4.711  -2.312  1.00  0.00    -0.324 N 
ATOM     15  C   UNL     1       2.623   3.986  -2.986  1.00  0.00     0.121 C 
ATOM     16  C   UNL     1       5.047   4.383  -2.673  1.00  0.00     0.134 C 
ATOM     17  C   UNL     1       2.857   2.479  -3.014  1.00  0.00     0.022 C 
ATOM     18  C   UNL     1       4.296   2.063  -3.314  1.00  0.00     0.017 C 
BRANCH  14  19
ATOM     19  C   UNL     1       3.381   5.737  -1.433  1.00  0.00     0.320 C 
ATOM     20  N   UNL     1       3.737   7.010  -1.831  1.00  0.00    -0.325 N 
ATOM     21  O   UNL     1       2.843   5.484  -0.361  1.00  0.00    -0.248 OA
BRANCH  20  22
ATOM     22  C   UNL     1       4.060   8.092  -0.888  1.00  0.00     0.118 C 
ATOM     23  C   UNL     1       3.086   8.333   0.250  1.00  0.00     0.027 C 
ENDBRANCH  20  22
BRANCH  20  24
ATOM     24  C   UNL     1       3.720   7.363  -3.243  1.00  0.00     0.118 C 
ATOM     25  C   UNL     1       5.102   7.343  -3.833  1.00  0.00     0.027 C 
ENDBRANCH  20  24
ENDBRANCH  14  19
ENDBRANCH  10  13
ENDBRANCH   8   9
BRANCH   8  26
ATOM     26  C   UNL     1       3.431   1.208   0.746  1.00  0.00    -0.007 C 
ATOM     27  C   UNL     1       1.891   1.274   0.763  1.00  0.00     0.013 C 
ATOM     28  C   UNL     1       3.837   0.095  -0.249  1.00  0.00     0.013 C 
ATOM     29  C   UNL     1       3.953   0.772   2.131  1.00  0.00     0.013 C 
ENDBRANCH   8  26
ENDBRANCH   6   8
ENDBRANCH   5   6
ENDBRANCH   4   5
ENDBRANCH   3   4
ENDBRANCH   2   3
ENDBRANCH   1   2
BRANCH   1  30
ATOM     30  C   UNL     1       7.483   4.955   0.791  1.00  0.00     0.188 C 
BRANCH  30  31
ATOM     31  O   UNL     1       8.125   4.522   1.978  1.00  0.00    -0.376 OA
BRANCH  31  32
ATOM     32  C   UNL     1       8.693   5.519   2.813  1.00  0.00     0.202 C 
BRANCH  32  33
ATOM     33  C   UNL     1       9.601   6.608   2.203  1.00  0.00     0.261 C 
BRANCH  33  34
ATOM     34  O   UNL     1       9.129   7.274   1.009  1.00  0.00    -0.460 OA
BRANCH  34  35
ATOM     35  C   UNL     1       9.800   6.989  -0.135  1.00  0.00     0.338 C 
ATOM     36  O   UNL     1      10.759   6.222  -0.238  1.00  0.00    -0.246 OA
BRANCH  35  37
ATOM     37  C   UNL     1       9.148   7.583  -1.331  1.00  0.00     0.060 A 
ATOM     38  C   UNL     1       8.854   6.747  -2.415  1.00  0.00     0.016 A 
ATOM     39  C   UNL     1       8.924   8.959  -1.449  1.00  0.00     0.016 A 
ATOM     40  C   UNL     1       8.381   7.291  -3.618  1.00  0.00     0.010 A 
ATOM     41  C   UNL     1       8.465   9.505  -2.668  1.00  0.00     0.010 A 
ATOM     42  C   UNL     1       8.208   8.685  -3.776  1.00  0.00    -0.014 A 
BRANCH  42  43
ATOM     43  C   UNL     1       7.936   9.237  -5.148  1.00  0.00     0.031 A 
ATOM     44  C   UNL     1       9.056   9.176  -6.149  1.00  0.00     0.074 A 
ATOM     45  C   UNL     1       6.761   9.777  -5.548  1.00  0.00     0.049 A 
ATOM     46  N   UNL     1       9.052   9.500  -7.414  1.00  0.00    -0.248 NA
ATOM     47  C   UNL     1      10.371   8.771  -5.628  1.00  0.00     0.031 C 
ATOM     48  C   UNL     1       5.633  10.088  -4.682  1.00  0.00     0.029 A 
ATOM     49  N   UNL     1       6.279  10.079  -6.807  1.00  0.00    -0.354 N 
ATOM     50  C   UNL     1      10.379   9.443  -7.814  1.00  0.00     0.074 A 
ATOM     51  C   UNL     1      11.146   8.973  -6.680  1.00  0.00     0.031 C 
ATOM     52  C   UNL     1       4.537  10.293  -5.432  1.00  0.00     0.029 A 
ATOM     53  C   UNL     1       4.916  10.322  -6.840  1.00  0.00     0.049 A 
ATOM     54  H   UNL     1       6.852  10.119  -7.607  1.00  0.00     0.167 HD
ATOM     55  C   UNL     1      10.925   9.819  -8.993  1.00  0.00     0.034 A 
ATOM     56  C   UNL     1       4.075  10.565  -7.873  1.00  0.00     0.034 A 
ATOM     57  C   UNL     1      10.179  10.341 -10.103  1.00  0.00     0.049 A 
ATOM     58  C   UNL     1       4.684  10.828  -9.227  1.00  0.00     0.074 A 
ATOM     59  C   UNL     1      10.654  10.776 -11.327  1.00  0.00     0.029 A 
ATOM     60  N   UNL     1       8.805  10.524 -10.120  1.00  0.00    -0.354 N 
ATOM     61  N   UNL     1       5.933  10.710  -9.604  1.00  0.00    -0.248 NA
ATOM     62  C   UNL     1       3.785  11.329 -10.280  1.00  0.00     0.031 C 
ATOM     63  C   UNL     1       9.570  11.245 -12.075  1.00  0.00     0.029 A 
ATOM     64  C   UNL     1       8.414  11.052 -11.338  1.00  0.00     0.049 A 
ATOM     65  H   UNL     1       8.198  10.311  -9.375  1.00  0.00     0.167 HD
ATOM     66  C   UNL     1       5.976  11.149 -10.921  1.00  0.00     0.074 A 
ATOM     67  C   UNL     1       4.617  11.469 -11.303  1.00  0.00     0.031 C 
ATOM     68  C   UNL     1       7.053  11.321 -11.724  1.00  0.00     0.034 A 
BRANCH  55  69
ATOM     69  C   UNL     1      12.423   9.743  -9.093  1.00  0.00     0.023 A 
ATOM     70  C   UNL     1      13.064   8.490  -9.161  1.00  0.00     0.012 A 
ATOM     71  C   UNL     1      13.195  10.921  -9.091  1.00  0.00     0.148 A 
ATOM     72  C   UNL     1      14.455   8.409  -9.174  1.00  0.00     0.002 A 
ATOM     73  C   UNL     1      14.578  10.834  -9.158  1.00  0.00     0.091 A 
ATOM     74  F   UNL     1      12.564  12.100  -8.994  1.00  0.00    -0.205 F 
ATOM     75  C   UNL     1      15.210   9.580  -9.181  1.00  0.00     0.022 A 
BRANCH  73  76
ATOM     76  S   UNL     1      15.635  12.281  -9.249  1.00  0.00     0.127 S 
ATOM     77  O   UNL     1      16.332  12.219  -7.964  1.00  0.00    -0.237 OA
ATOM     78  O   UNL     1      16.469  11.975 -10.411  1.00  0.00    -0.237 OA
ATOM     79  O   UNL     1      14.746  13.422  -9.419  1.00  0.00    -0.744 OA
ENDBRANCH  73  76
ENDBRANCH  55  69
BRANCH  56  80
ATOM     80  C   UNL     1       2.584  10.644  -7.701  1.00  0.00     0.023 A 
ATOM     81  C   UNL     1       1.744   9.791  -8.454  1.00  0.00     0.012 A 
ATOM     82  C   UNL     1       1.980  11.568  -6.831  1.00  0.00     0.148 A 
ATOM     83  C   UNL     1       0.350   9.877  -8.359  1.00  0.00     0.002 A 
ATOM     84  C   UNL     1       0.599  11.579  -6.664  1.00  0.00     0.091 A 
ATOM     85  F   UNL     1       2.764  12.441  -6.183  1.00  0.00    -0.205 F 
ATOM     86  C   UNL     1      -0.222  10.756  -7.446  1.00  0.00     0.022 A 
BRANCH  84  87
ATOM     87  S   UNL     1      -0.181  12.540  -5.363  1.00  0.00     0.127 S 
ATOM     88  O   UNL     1      -0.755  13.653  -6.113  1.00  0.00    -0.237 OA
ATOM     89  O   UNL     1      -1.153  11.589  -4.823  1.00  0.00    -0.237 OA
ATOM     90  O   UNL     1       0.897  12.874  -4.441  1.00  0.00    -0.744 OA
ENDBRANCH  84  87
ENDBRANCH  56  80
BRANCH  68  91
ATOM     91  C   UNL     1       6.812  11.828 -13.119  1.00  0.00     0.023 A 
ATOM     92  C   UNL     1       6.453  13.173 -13.340  1.00  0.00     0.012 A 
ATOM     93  C   UNL     1       7.019  10.976 -14.220  1.00  0.00     0.148 A 
ATOM     94  C   UNL     1       6.276  13.652 -14.639  1.00  0.00     0.002 A 
ATOM     95  C   UNL     1       6.893  11.473 -15.509  1.00  0.00     0.091 A 
ATOM     96  F   UNL     1       7.335   9.694 -13.983  1.00  0.00    -0.205 F 
ATOM     97  C   UNL     1       6.508  12.807 -15.722  1.00  0.00     0.022 A 
BRANCH  95  98
ATOM     98  S   UNL     1       7.270  10.480 -16.957  1.00  0.00     0.127 S 
ATOM     99  O   UNL     1       5.938  10.246 -17.512  1.00  0.00    -0.237 OA
ATOM    100  O   UNL     1       8.109  11.386 -17.742  1.00  0.00    -0.237 OA
ATOM    101  O   UNL     1       7.957   9.295 -16.463  1.00  0.00    -0.744 OA
ENDBRANCH  95  98
ENDBRANCH  68  91
ENDBRANCH  42  43
ENDBRANCH  35  37
ENDBRANCH  34  35
ENDBRANCH  33  34
ENDBRANCH  32  33
ENDBRANCH  31  32
ENDBRANCH  30  31
ENDBRANCH   1  30
TORSDOF 26
