REMARK SMILES C[C@]1(CNC(=O)N2CCOC[C@H]2C(=O)OCCOCCOCCOC(=O)c2ccc(-c3c4nc(c(-c5cccc(S(=O)(=O)[O-])c5F)c5ccc([nH]5)c(-c5cccc(S(=O)(=O)[O-])c5F)c5nc(c(-c6cccc(S(=O)(=O)[O-])c6F)c6ccc3[nH]6)C=C5)C=C4)cc2)CCCO1
REMARK SMILES IDX 19 1 18 2 17 3 16 4 15 5 13 6 14 7 12 8 7 9 8 10 9 11 11 12
REMARK SMILES IDX 10 13 5 14 4 15 6 17 3 18 2 19 1 20 90 21 93 22 91 23 92 24
REMARK SMILES IDX 20 25 21 26 22 27 23 28 24 29 25 30 26 31 27 32 28 33 89 34
REMARK SMILES IDX 29 35 88 36 30 37 31 38 32 39 82 40 33 41 87 42 81 43 83 44
REMARK SMILES IDX 34 45 86 46 80 47 79 48 35 50 67 51 47 52 66 53 48 54 51 55
REMARK SMILES IDX 65 56 84 57 49 58 50 59 64 61 85 62 52 63 36 64 37 65 45 66
REMARK SMILES IDX 38 67 40 68 46 69 39 70 41 71 42 72 43 73 44 74 68 75 69 76
REMARK SMILES IDX 77 77 70 78 72 79 78 80 71 81 73 82 74 83 75 84 76 85 53 86
REMARK SMILES IDX 54 87 62 88 55 89 57 90 63 91 56 92 58 93 59 94 60 95 61 96
REMARK H PARENT 4 16 83 49 51 60
REMARK Flexibility Score: inf
ROOT
ATOM      1  C   UNL     1      -1.318   0.263   6.267  1.00  0.00     0.188 C 
ENDROOT
BRANCH   1   2
ATOM      2  O   UNL     1      -1.208  -0.512   7.458  1.00  0.00    -0.376 OA
BRANCH   2   3
ATOM      3  C   UNL     1      -0.590  -1.792   7.393  1.00  0.00     0.202 C 
BRANCH   3   4
ATOM      4  C   UNL     1      -1.062  -2.779   6.314  1.00  0.00     0.261 C 
BRANCH   4   5
ATOM      5  O   UNL     1      -0.920  -2.298   4.961  1.00  0.00    -0.462 OA
BRANCH   5   6
ATOM      6  C   UNL     1      -2.027  -2.336   4.172  1.00  0.00     0.331 C 
ATOM      7  O   UNL     1      -3.101  -2.807   4.537  1.00  0.00    -0.250 OA
BRANCH   6   8
ATOM      8  C   UNL     1      -1.829  -1.780   2.737  1.00  0.00     0.222 C 
ATOM      9  N   UNL     1      -0.580  -1.114   2.271  1.00  0.00    -0.306 N 
ATOM     10  C   UNL     1       0.579  -1.993   2.278  1.00  0.00     0.151 C 
ATOM     11  C   UNL     1       0.288  -3.206   1.393  1.00  0.00     0.182 C 
ATOM     12  C   UNL     1      -2.063  -2.965   1.786  1.00  0.00     0.197 C 
ATOM     13  O   UNL     1      -0.932  -3.866   1.778  1.00  0.00    -0.377 OA
BRANCH   9  14
ATOM     14  C   UNL     1      -0.662   0.162   1.798  1.00  0.00     0.318 C 
ATOM     15  N   UNL     1       0.193   0.658   0.884  1.00  0.00    -0.335 N 
ATOM     16  H   UNL     1       0.177   1.642   0.866  1.00  0.00     0.165 HD
ATOM     17  O   UNL     1      -1.562   0.921   2.167  1.00  0.00    -0.249 OA
BRANCH  15  18
ATOM     18  C   UNL     1       1.139   0.113  -0.087  1.00  0.00     0.152 C 
BRANCH  18  19
ATOM     19  C   UNL     1       0.583   0.068  -1.530  1.00  0.00     0.083 C 
ATOM     20  C   UNL     1       1.740  -0.208  -2.503  1.00  0.00     0.044 C 
ATOM     21  C   UNL     1      -0.544  -0.950  -1.706  1.00  0.00     0.039 C 
ATOM     22  O   UNL     1       0.025   1.347  -1.897  1.00  0.00    -0.373 OA
ATOM     23  C   UNL     1      -1.360  -0.349  -2.824  1.00  0.00     0.031 C 
ATOM     24  C   UNL     1      -1.246   1.133  -2.535  1.00  0.00     0.161 C 
ENDBRANCH  18  19
ENDBRANCH  15  18
ENDBRANCH   9  14
ENDBRANCH   6   8
ENDBRANCH   5   6
ENDBRANCH   4   5
ENDBRANCH   3   4
ENDBRANCH   2   3
ENDBRANCH   1   2
BRANCH   1  25
ATOM     25  C   UNL     1      -0.087   0.374   5.350  1.00  0.00     0.188 C 
BRANCH  25  26
ATOM     26  O   UNL     1       1.072  -0.270   5.840  1.00  0.00    -0.376 OA
BRANCH  26  27
ATOM     27  C   UNL     1       2.157   0.557   6.219  1.00  0.00     0.202 C 
BRANCH  27  28
ATOM     28  C   UNL     1       1.911   1.671   7.251  1.00  0.00     0.261 C 
BRANCH  28  29
ATOM     29  O   UNL     1       0.740   2.483   7.059  1.00  0.00    -0.460 OA
BRANCH  29  30
ATOM     30  C   UNL     1       0.779   3.398   6.067  1.00  0.00     0.338 C 
ATOM     31  O   UNL     1       1.729   3.622   5.324  1.00  0.00    -0.246 OA
BRANCH  30  32
ATOM     32  C   UNL     1      -0.583   3.944   5.877  1.00  0.00     0.060 A 
ATOM     33  C   UNL     1      -1.217   3.771   4.638  1.00  0.00     0.016 A 
ATOM     34  C   UNL     1      -1.230   4.633   6.906  1.00  0.00     0.016 A 
ATOM     35  C   UNL     1      -2.469   4.344   4.404  1.00  0.00     0.010 A 
ATOM     36  C   UNL     1      -2.478   5.221   6.664  1.00  0.00     0.010 A 
ATOM     37  C   UNL     1      -3.080   5.123   5.395  1.00  0.00    -0.014 A 
BRANCH  37  38
ATOM     38  C   UNL     1      -4.214   6.011   5.026  1.00  0.00     0.031 A 
ATOM     39  C   UNL     1      -3.927   7.473   4.789  1.00  0.00     0.074 A 
ATOM     40  C   UNL     1      -5.464   5.540   4.862  1.00  0.00     0.049 A 
ATOM     41  N   UNL     1      -4.746   8.443   4.474  1.00  0.00    -0.248 NA
ATOM     42  C   UNL     1      -2.522   7.898   4.927  1.00  0.00     0.031 C 
ATOM     43  C   UNL     1      -5.878   4.151   5.047  1.00  0.00     0.029 A 
ATOM     44  N   UNL     1      -6.623   6.193   4.518  1.00  0.00    -0.354 N 
ATOM     45  C   UNL     1      -3.964   9.590   4.395  1.00  0.00     0.074 A 
ATOM     46  C   UNL     1      -2.610   9.204   4.724  1.00  0.00     0.031 C 
ATOM     47  C   UNL     1      -7.205   4.061   4.849  1.00  0.00     0.029 A 
ATOM     48  C   UNL     1      -7.738   5.388   4.541  1.00  0.00     0.049 A 
ATOM     49  H   UNL     1      -6.653   7.148   4.279  1.00  0.00     0.167 HD
ATOM     50  C   UNL     1      -4.329  10.848   4.052  1.00  0.00     0.034 A 
ATOM     51  C   UNL     1      -9.039   5.693   4.359  1.00  0.00     0.034 A 
ATOM     52  C   UNL     1      -5.669  11.234   3.705  1.00  0.00     0.049 A 
ATOM     53  C   UNL     1      -9.426   7.111   4.013  1.00  0.00     0.074 A 
ATOM     54  C   UNL     1      -6.133  12.480   3.325  1.00  0.00     0.029 A 
ATOM     55  N   UNL     1      -6.761  10.381   3.700  1.00  0.00    -0.354 N 
ATOM     56  N   UNL     1      -8.660   8.162   3.843  1.00  0.00    -0.248 NA
ATOM     57  C   UNL     1     -10.857   7.377   3.795  1.00  0.00     0.031 C 
ATOM     58  C   UNL     1      -7.512  12.387   3.114  1.00  0.00     0.029 A 
ATOM     59  C   UNL     1      -7.900  11.075   3.328  1.00  0.00     0.049 A 
ATOM     60  H   UNL     1      -6.732   9.424   3.928  1.00  0.00     0.167 HD
ATOM     61  C   UNL     1      -9.508   9.198   3.466  1.00  0.00     0.074 A 
ATOM     62  C   UNL     1     -10.843   8.643   3.402  1.00  0.00     0.031 C 
ATOM     63  C   UNL     1      -9.214  10.498   3.212  1.00  0.00     0.034 A 
BRANCH  50  64
ATOM     64  C   UNL     1      -3.249  11.897   3.998  1.00  0.00     0.023 A 
ATOM     65  C   UNL     1      -2.301  11.866   2.954  1.00  0.00     0.012 A 
ATOM     66  C   UNL     1      -3.208  12.946   4.938  1.00  0.00     0.148 A 
ATOM     67  C   UNL     1      -1.312  12.843   2.863  1.00  0.00     0.002 A 
ATOM     68  C   UNL     1      -2.247  13.942   4.813  1.00  0.00     0.091 A 
ATOM     69  F   UNL     1      -4.107  12.948   5.932  1.00  0.00    -0.205 F 
ATOM     70  C   UNL     1      -1.292  13.886   3.785  1.00  0.00     0.022 A 
BRANCH  68  71
ATOM     71  S   UNL     1      -2.181  15.371   5.900  1.00  0.00     0.127 S 
ATOM     72  O   UNL     1      -0.913  15.155   6.595  1.00  0.00    -0.237 OA
ATOM     73  O   UNL     1      -2.171  16.480   4.945  1.00  0.00    -0.237 OA
ATOM     74  O   UNL     1      -3.368  15.297   6.739  1.00  0.00    -0.744 OA
ENDBRANCH  68  71
ENDBRANCH  50  64
BRANCH  51  75
ATOM     75  C   UNL     1     -10.088   4.639   4.494  1.00  0.00     0.023 A 
ATOM     76  C   UNL     1     -10.837   4.242   3.369  1.00  0.00     0.012 A 
ATOM     77  C   UNL     1     -10.365   4.051   5.744  1.00  0.00     0.148 A 
ATOM     78  C   UNL     1     -11.873   3.315   3.495  1.00  0.00     0.002 A 
ATOM     79  C   UNL     1     -11.358   3.084   5.851  1.00  0.00     0.091 A 
ATOM     80  F   UNL     1      -9.658   4.455   6.808  1.00  0.00    -0.205 F 
ATOM     81  C   UNL     1     -12.128   2.730   4.733  1.00  0.00     0.022 A 
BRANCH  79  82
ATOM     82  S   UNL     1     -11.672   2.194   7.379  1.00  0.00     0.127 S 
ATOM     83  O   UNL     1     -12.957   2.753   7.792  1.00  0.00    -0.237 OA
ATOM     84  O   UNL     1     -11.726   0.807   6.914  1.00  0.00    -0.237 OA
ATOM     85  O   UNL     1     -10.542   2.493   8.247  1.00  0.00    -0.744 OA
ENDBRANCH  79  82
ENDBRANCH  51  75
BRANCH  63  86
ATOM     86  C   UNL     1     -10.344  11.408   2.798  1.00  0.00     0.023 A 
ATOM     87  C   UNL     1     -11.322  11.789   3.737  1.00  0.00     0.012 A 
ATOM     88  C   UNL     1     -10.397  11.938   1.492  1.00  0.00     0.148 A 
ATOM     89  C   UNL     1     -12.359  12.648   3.373  1.00  0.00     0.002 A 
ATOM     90  C   UNL     1     -11.402  12.835   1.152  1.00  0.00     0.091 A 
ATOM     91  F   UNL     1      -9.465  11.555   0.608  1.00  0.00    -0.205 F 
ATOM     92  C   UNL     1     -12.393  13.179   2.086  1.00  0.00     0.022 A 
BRANCH  90  93
ATOM     93  S   UNL     1     -11.473  13.646  -0.450  1.00  0.00     0.127 S 
ATOM     94  O   UNL     1     -12.632  12.998  -1.061  1.00  0.00    -0.237 OA
ATOM     95  O   UNL     1     -11.682  15.046  -0.079  1.00  0.00    -0.237 OA
ATOM     96  O   UNL     1     -10.195  13.375  -1.095  1.00  0.00    -0.744 OA
ENDBRANCH  90  93
ENDBRANCH  63  86
ENDBRANCH  37  38
ENDBRANCH  30  32
ENDBRANCH  29  30
ENDBRANCH  28  29
ENDBRANCH  27  28
ENDBRANCH  26  27
ENDBRANCH  25  26
ENDBRANCH   1  25
TORSDOF 23
