REMARK SMILES C[C@@H](Sc1nncn1C)[C@@H](C)C(=O)OCCOCCOCCOC(=O)c1ccc(-c2c3nc(c(-c4cccc(S(=O)(=O)[O-])c4F)c4ccc([nH]4)c(-c4cccc(S(=O)(=O)[O-])c4F)c4nc(c(-c5cccc(S(=O)(=O)[O-])c5F)c5ccc2[nH]5)C=C4)C=C3)cc1
REMARK SMILES IDX 18 1 17 2 16 3 15 4 14 5 12 6 13 7 10 8 11 9 2 10 1 11 3 12
REMARK SMILES IDX 4 13 5 14 8 15 6 16 7 17 9 18 19 19 20 20 21 21 22 22 23 23
REMARK SMILES IDX 24 24 25 25 26 26 27 27 88 28 28 29 87 30 29 31 30 32 31 33
REMARK SMILES IDX 81 34 32 35 86 36 80 37 82 38 33 39 85 40 79 41 78 42 34 44
REMARK SMILES IDX 66 45 46 46 65 47 47 48 50 49 64 50 83 51 48 52 49 53 63 55
REMARK SMILES IDX 84 56 51 57 35 58 36 59 44 60 37 61 39 62 45 63 38 64 40 65
REMARK SMILES IDX 41 66 42 67 43 68 67 69 68 70 76 71 69 72 71 73 77 74 70 75
REMARK SMILES IDX 72 76 73 77 74 78 75 79 52 80 53 81 61 82 54 83 56 84 62 85
REMARK SMILES IDX 55 86 57 87 58 88 59 89 60 90
REMARK H PARENT 82 43 50 54
REMARK Flexibility Score: inf
ROOT
ATOM      1  C   UNL     1      -1.387  -4.822   1.147  1.00  0.00     0.188 C 
ENDROOT
BRANCH   1   2
ATOM      2  O   UNL     1      -2.473  -5.299   0.353  1.00  0.00    -0.376 OA
BRANCH   2   3
ATOM      3  C   UNL     1      -2.307  -5.439  -1.045  1.00  0.00     0.202 C 
BRANCH   3   4
ATOM      4  C   UNL     1      -2.519  -4.167  -1.868  1.00  0.00     0.261 C 
BRANCH   4   5
ATOM      5  O   UNL     1      -1.633  -3.071  -1.559  1.00  0.00    -0.463 OA
BRANCH   5   6
ATOM      6  C   UNL     1      -2.132  -2.146  -0.695  1.00  0.00     0.309 C 
ATOM      7  O   UNL     1      -3.211  -2.245  -0.122  1.00  0.00    -0.252 OA
BRANCH   6   8
ATOM      8  C   UNL     1      -1.321  -0.857  -0.654  1.00  0.00     0.109 C 
ATOM      9  C   UNL     1      -1.888   0.016  -1.780  1.00  0.00     0.021 C 
BRANCH   8  10
ATOM     10  C   UNL     1       0.225  -1.015  -0.679  1.00  0.00     0.065 C 
ATOM     11  C   UNL     1       0.948   0.182  -1.312  1.00  0.00     0.021 C 
BRANCH  10  12
ATOM     12  S   UNL     1       0.853  -1.139   1.054  1.00  0.00    -0.082 SA
BRANCH  12  13
ATOM     13  C   UNL     1       2.476  -1.675   0.795  1.00  0.00     0.191 A 
ATOM     14  N   UNL     1       2.837  -2.782   0.190  1.00  0.00    -0.124 NA
ATOM     15  N   UNL     1       3.586  -0.999   1.215  1.00  0.00    -0.312 N 
ATOM     16  N   UNL     1       4.213  -2.858   0.246  1.00  0.00    -0.138 NA
ATOM     17  C   UNL     1       4.644  -1.790   0.880  1.00  0.00     0.226 A 
ATOM     18  C   UNL     1       3.670   0.308   1.810  1.00  0.00     0.153 C 
ENDBRANCH  12  13
ENDBRANCH  10  12
ENDBRANCH   8  10
ENDBRANCH   6   8
ENDBRANCH   5   6
ENDBRANCH   4   5
ENDBRANCH   3   4
ENDBRANCH   2   3
ENDBRANCH   1   2
BRANCH   1  19
ATOM     19  C   UNL     1       0.024  -4.750   0.552  1.00  0.00     0.188 C 
BRANCH  19  20
ATOM     20  O   UNL     1       0.440  -6.000   0.004  1.00  0.00    -0.376 OA
BRANCH  20  21
ATOM     21  C   UNL     1       1.710  -6.438   0.477  1.00  0.00     0.202 C 
BRANCH  21  22
ATOM     22  C   UNL     1       1.518  -7.333   1.703  1.00  0.00     0.261 C 
BRANCH  22  23
ATOM     23  O   UNL     1       0.935  -6.637   2.817  1.00  0.00    -0.460 OA
BRANCH  23  24
ATOM     24  C   UNL     1       1.751  -5.758   3.438  1.00  0.00     0.338 C 
ATOM     25  O   UNL     1       2.935  -5.554   3.191  1.00  0.00    -0.246 OA
BRANCH  24  26
ATOM     26  C   UNL     1       0.967  -4.961   4.393  1.00  0.00     0.060 A 
ATOM     27  C   UNL     1       0.946  -3.572   4.239  1.00  0.00     0.016 A 
ATOM     28  C   UNL     1       0.325  -5.565   5.473  1.00  0.00     0.016 A 
ATOM     29  C   UNL     1       0.323  -2.772   5.198  1.00  0.00     0.010 A 
ATOM     30  C   UNL     1      -0.289  -4.764   6.442  1.00  0.00     0.010 A 
ATOM     31  C   UNL     1      -0.255  -3.362   6.331  1.00  0.00    -0.014 A 
BRANCH  31  32
ATOM     32  C   UNL     1      -0.659  -2.512   7.480  1.00  0.00     0.031 A 
ATOM     33  C   UNL     1       0.266  -2.406   8.665  1.00  0.00     0.074 A 
ATOM     34  C   UNL     1      -1.822  -1.835   7.475  1.00  0.00     0.049 A 
ATOM     35  N   UNL     1       0.114  -1.737   9.779  1.00  0.00    -0.248 NA
ATOM     36  C   UNL     1       1.530  -3.156   8.582  1.00  0.00     0.031 C 
ATOM     37  C   UNL     1      -2.805  -1.849   6.394  1.00  0.00     0.029 A 
ATOM     38  N   UNL     1      -2.377  -1.015   8.427  1.00  0.00    -0.354 N 
ATOM     39  C   UNL     1       1.244  -2.010  10.541  1.00  0.00     0.074 A 
ATOM     40  C   UNL     1       2.068  -2.913   9.768  1.00  0.00     0.031 C 
ATOM     41  C   UNL     1      -3.855  -1.089   6.752  1.00  0.00     0.029 A 
ATOM     42  C   UNL     1      -3.626  -0.549   8.092  1.00  0.00     0.049 A 
ATOM     43  H   UNL     1      -1.923  -0.783   9.269  1.00  0.00     0.167 HD
ATOM     44  C   UNL     1       1.579  -1.539  11.766  1.00  0.00     0.034 A 
ATOM     45  C   UNL     1      -4.489   0.215   8.791  1.00  0.00     0.034 A 
ATOM     46  C   UNL     1       0.778  -0.621  12.529  1.00  0.00     0.049 A 
ATOM     47  C   UNL     1      -4.092   0.727  10.153  1.00  0.00     0.074 A 
ATOM     48  C   UNL     1       1.051  -0.062  13.766  1.00  0.00     0.029 A 
ATOM     49  N   UNL     1      -0.455  -0.128  12.132  1.00  0.00    -0.354 N 
ATOM     50  N   UNL     1      -2.970   0.553  10.809  1.00  0.00    -0.248 NA
ATOM     51  C   UNL     1      -5.069   1.574  10.855  1.00  0.00     0.031 C 
ATOM     52  C   UNL     1      -0.023   0.763  14.121  1.00  0.00     0.029 A 
ATOM     53  C   UNL     1      -0.956   0.730  13.097  1.00  0.00     0.049 A 
ATOM     54  H   UNL     1      -0.908  -0.354  11.288  1.00  0.00     0.167 HD
ATOM     55  C   UNL     1      -3.093   1.294  11.981  1.00  0.00     0.074 A 
ATOM     56  C   UNL     1      -4.388   1.939  11.933  1.00  0.00     0.031 C 
ATOM     57  C   UNL     1      -2.219   1.417  13.011  1.00  0.00     0.034 A 
BRANCH  44  58
ATOM     58  C   UNL     1       2.895  -1.986  12.344  1.00  0.00     0.023 A 
ATOM     59  C   UNL     1       4.095  -1.454  11.827  1.00  0.00     0.012 A 
ATOM     60  C   UNL     1       2.947  -2.893  13.419  1.00  0.00     0.148 A 
ATOM     61  C   UNL     1       5.327  -1.843  12.351  1.00  0.00     0.002 A 
ATOM     62  C   UNL     1       4.178  -3.244  13.963  1.00  0.00     0.091 A 
ATOM     63  F   UNL     1       1.798  -3.408  13.879  1.00  0.00    -0.205 F 
ATOM     64  C   UNL     1       5.368  -2.729  13.424  1.00  0.00     0.022 A 
BRANCH  62  65
ATOM     65  S   UNL     1       4.327  -4.321  15.393  1.00  0.00     0.127 S 
ATOM     66  O   UNL     1       4.802  -5.561  14.781  1.00  0.00    -0.237 OA
ATOM     67  O   UNL     1       5.325  -3.622  16.204  1.00  0.00    -0.237 OA
ATOM     68  O   UNL     1       3.000  -4.381  15.988  1.00  0.00    -0.744 OA
ENDBRANCH  62  65
ENDBRANCH  44  58
BRANCH  45  69
ATOM     69  C   UNL     1      -5.801   0.595   8.194  1.00  0.00     0.023 A 
ATOM     70  C   UNL     1      -6.028   1.932   7.816  1.00  0.00     0.012 A 
ATOM     71  C   UNL     1      -6.819  -0.358   7.994  1.00  0.00     0.148 A 
ATOM     72  C   UNL     1      -7.255   2.321   7.275  1.00  0.00     0.002 A 
ATOM     73  C   UNL     1      -8.019   0.025   7.407  1.00  0.00     0.091 A 
ATOM     74  F   UNL     1      -6.593  -1.621   8.384  1.00  0.00    -0.205 F 
ATOM     75  C   UNL     1      -8.245   1.366   7.061  1.00  0.00     0.022 A 
BRANCH  73  76
ATOM     76  S   UNL     1      -9.305  -1.157   6.989  1.00  0.00     0.127 S 
ATOM     77  O   UNL     1     -10.319  -0.865   7.999  1.00  0.00    -0.237 OA
ATOM     78  O   UNL     1      -9.658  -0.753   5.627  1.00  0.00    -0.237 OA
ATOM     79  O   UNL     1      -8.676  -2.467   7.082  1.00  0.00    -0.744 OA
ENDBRANCH  73  76
ENDBRANCH  45  69
BRANCH  57  80
ATOM     80  C   UNL     1      -2.612   2.310  14.160  1.00  0.00     0.023 A 
ATOM     81  C   UNL     1      -3.609   1.892  15.064  1.00  0.00     0.012 A 
ATOM     82  C   UNL     1      -1.953   3.536  14.380  1.00  0.00     0.148 A 
ATOM     83  C   UNL     1      -3.970   2.696  16.146  1.00  0.00     0.002 A 
ATOM     84  C   UNL     1      -2.287   4.312  15.486  1.00  0.00     0.091 A 
ATOM     85  F   UNL     1      -1.021   3.932  13.500  1.00  0.00    -0.205 F 
ATOM     86  C   UNL     1      -3.302   3.899  16.363  1.00  0.00     0.022 A 
BRANCH  84  87
ATOM     87  S   UNL     1      -1.407   5.828  15.881  1.00  0.00     0.127 S 
ATOM     88  O   UNL     1      -2.301   6.846  15.332  1.00  0.00    -0.237 OA
ATOM     89  O   UNL     1      -1.350   5.792  17.343  1.00  0.00    -0.237 OA
ATOM     90  O   UNL     1      -0.109   5.708  15.230  1.00  0.00    -0.744 OA
ENDBRANCH  84  87
ENDBRANCH  57  80
ENDBRANCH  31  32
ENDBRANCH  24  26
ENDBRANCH  23  24
ENDBRANCH  22  23
ENDBRANCH  21  22
ENDBRANCH  20  21
ENDBRANCH  19  20
ENDBRANCH   1  19
TORSDOF 23
