REMARK SMILES O=C(OCCOCCOCCOC(=O)[C@H](Sc1nnc(-c2ccncc2)n1-c1ccccc1)c1ccccc1)c1ccc(-c2c3nc(c(-c4cccc(S(=O)(=O)[O-])c4F)c4ccc([nH]4)c(-c4cccc(S(=O)(=O)[O-])c4F)c4nc(c(-c5cccc(S(=O)(=O)[O-])c5F)c5ccc2[nH]5)C=C4)C=C3)cc1
REMARK SMILES IDX 7 1 6 2 5 3 4 4 3 5 2 6 1 7 40 8 41 9 102 10 42 11 101 12
REMARK SMILES IDX 43 13 44 14 45 15 95 16 46 17 100 18 94 19 96 20 47 21 99 22
REMARK SMILES IDX 93 23 92 24 48 26 80 27 60 28 79 29 61 30 64 31 78 32 97 33
REMARK SMILES IDX 62 34 63 35 77 37 98 38 65 39 49 40 50 41 58 42 51 43 53 44
REMARK SMILES IDX 59 45 52 46 54 47 55 48 56 49 57 50 81 51 82 52 90 53 83 54
REMARK SMILES IDX 85 55 91 56 84 57 86 58 87 59 88 60 89 61 66 62 67 63 75 64
REMARK SMILES IDX 68 65 70 66 76 67 69 68 71 69 72 70 73 71 74 72 8 73 9 74
REMARK SMILES IDX 10 75 11 76 12 77 13 78 14 79 15 80 34 81 35 82 39 83 36 84
REMARK SMILES IDX 38 85 37 86 16 87 17 88 18 89 27 90 19 91 20 92 28 93 29 94
REMARK SMILES IDX 33 95 30 96 32 97 31 98 21 99 22 100 26 101 23 102 25 103
REMARK SMILES IDX 24 104
REMARK H PARENT 96 25 64 36
REMARK Flexibility Score: inf
ROOT
ATOM      1  C   UNL     1       2.841  -1.139   1.327  1.00  0.00     0.188 C 
ENDROOT
BRANCH   1   2
ATOM      2  O   UNL     1       2.319  -2.462   1.264  1.00  0.00    -0.376 OA
BRANCH   2   3
ATOM      3  C   UNL     1       1.766  -2.910   0.042  1.00  0.00     0.202 C 
BRANCH   3   4
ATOM      4  C   UNL     1       2.726  -3.149  -1.122  1.00  0.00     0.261 C 
BRANCH   4   5
ATOM      5  O   UNL     1       3.791  -2.216  -1.286  1.00  0.00    -0.460 OA
BRANCH   5   6
ATOM      6  C   UNL     1       3.801  -0.996  -1.838  1.00  0.00     0.338 C 
ATOM      7  O   UNL     1       4.884  -0.431  -1.988  1.00  0.00    -0.246 OA
BRANCH   6   8
ATOM      8  C   UNL     1       2.578  -0.211  -2.122  1.00  0.00     0.060 A 
ATOM      9  C   UNL     1       1.409  -0.629  -2.774  1.00  0.00     0.016 A 
ATOM     10  C   UNL     1       2.743   1.137  -1.828  1.00  0.00     0.016 A 
ATOM     11  C   UNL     1       0.490   0.326  -3.259  1.00  0.00     0.010 A 
ATOM     12  C   UNL     1       1.863   2.047  -2.351  1.00  0.00     0.010 A 
ATOM     13  C   UNL     1       0.782   1.679  -3.127  1.00  0.00    -0.014 A 
BRANCH  13  14
ATOM     14  C   UNL     1      -0.001   2.818  -3.627  1.00  0.00     0.031 A 
ATOM     15  C   UNL     1      -1.250   3.081  -2.862  1.00  0.00     0.074 A 
ATOM     16  C   UNL     1       0.548   3.780  -4.426  1.00  0.00     0.049 A 
ATOM     17  N   UNL     1      -2.458   3.015  -3.304  1.00  0.00    -0.248 NA
ATOM     18  C   UNL     1      -1.192   3.357  -1.422  1.00  0.00     0.031 C 
ATOM     19  C   UNL     1       1.930   3.811  -4.950  1.00  0.00     0.029 A 
ATOM     20  N   UNL     1       0.070   5.005  -4.828  1.00  0.00    -0.354 N 
ATOM     21  C   UNL     1      -3.263   3.570  -2.307  1.00  0.00     0.074 A 
ATOM     22  C   UNL     1      -2.468   3.599  -1.115  1.00  0.00     0.031 C 
ATOM     23  C   UNL     1       2.235   5.052  -5.401  1.00  0.00     0.029 A 
ATOM     24  C   UNL     1       1.043   5.877  -5.359  1.00  0.00     0.049 A 
ATOM     25  H   UNL     1      -0.879   5.254  -4.750  1.00  0.00     0.167 HD
ATOM     26  C   UNL     1      -4.408   4.216  -2.654  1.00  0.00     0.034 A 
ATOM     27  C   UNL     1       0.876   7.167  -5.767  1.00  0.00     0.034 A 
ATOM     28  C   UNL     1      -4.687   3.988  -4.052  1.00  0.00     0.049 A 
ATOM     29  C   UNL     1      -0.551   7.261  -6.148  1.00  0.00     0.074 A 
ATOM     30  C   UNL     1      -5.002   2.899  -4.832  1.00  0.00     0.029 A 
ATOM     31  N   UNL     1      -4.172   4.958  -4.874  1.00  0.00    -0.354 N 
ATOM     32  N   UNL     1      -1.060   6.605  -7.153  1.00  0.00    -0.248 NA
ATOM     33  C   UNL     1      -1.517   7.891  -5.257  1.00  0.00     0.031 C 
ATOM     34  C   UNL     1      -4.420   3.161  -6.106  1.00  0.00     0.029 A 
ATOM     35  C   UNL     1      -3.843   4.432  -6.093  1.00  0.00     0.049 A 
ATOM     36  H   UNL     1      -4.054   5.902  -4.621  1.00  0.00     0.167 HD
ATOM     37  C   UNL     1      -2.335   6.304  -6.721  1.00  0.00     0.074 A 
ATOM     38  C   UNL     1      -2.633   7.303  -5.702  1.00  0.00     0.031 C 
ATOM     39  C   UNL     1      -2.876   5.075  -6.963  1.00  0.00     0.034 A 
BRANCH  26  40
ATOM     40  C   UNL     1      -5.038   5.412  -1.967  1.00  0.00     0.023 A 
ATOM     41  C   UNL     1      -6.273   5.849  -2.508  1.00  0.00     0.012 A 
ATOM     42  C   UNL     1      -4.370   6.303  -1.099  1.00  0.00     0.148 A 
ATOM     43  C   UNL     1      -6.770   7.135  -2.283  1.00  0.00     0.002 A 
ATOM     44  C   UNL     1      -4.900   7.565  -0.830  1.00  0.00     0.091 A 
ATOM     45  F   UNL     1      -3.161   5.993  -0.622  1.00  0.00    -0.205 F 
ATOM     46  C   UNL     1      -6.080   7.997  -1.446  1.00  0.00     0.022 A 
BRANCH  44  47
ATOM     47  S   UNL     1      -4.081   8.741   0.257  1.00  0.00     0.127 S 
ATOM     48  O   UNL     1      -3.624   9.746  -0.694  1.00  0.00    -0.237 OA
ATOM     49  O   UNL     1      -5.178   9.157   1.128  1.00  0.00    -0.237 OA
ATOM     50  O   UNL     1      -3.030   7.980   0.933  1.00  0.00    -0.744 OA
ENDBRANCH  44  47
ENDBRANCH  26  40
BRANCH  27  51
ATOM     51  C   UNL     1       1.744   8.374  -5.949  1.00  0.00     0.023 A 
ATOM     52  C   UNL     1       1.361   9.362  -6.887  1.00  0.00     0.012 A 
ATOM     53  C   UNL     1       2.720   8.740  -4.996  1.00  0.00     0.148 A 
ATOM     54  C   UNL     1       1.848  10.675  -6.817  1.00  0.00     0.002 A 
ATOM     55  C   UNL     1       3.162  10.062  -4.891  1.00  0.00     0.091 A 
ATOM     56  F   UNL     1       3.206   7.801  -4.186  1.00  0.00    -0.205 F 
ATOM     57  C   UNL     1       2.718  11.035  -5.795  1.00  0.00     0.022 A 
BRANCH  55  58
ATOM     58  S   UNL     1       4.221  10.644  -3.550  1.00  0.00     0.127 S 
ATOM     59  O   UNL     1       5.323  11.268  -4.283  1.00  0.00    -0.237 OA
ATOM     60  O   UNL     1       3.344  11.587  -2.858  1.00  0.00    -0.237 OA
ATOM     61  O   UNL     1       4.600   9.468  -2.778  1.00  0.00    -0.744 OA
ENDBRANCH  55  58
ENDBRANCH  27  51
BRANCH  39  62
ATOM     62  C   UNL     1      -2.276   4.234  -8.064  1.00  0.00     0.023 A 
ATOM     63  C   UNL     1      -0.940   3.783  -8.052  1.00  0.00     0.012 A 
ATOM     64  C   UNL     1      -3.131   3.761  -9.071  1.00  0.00     0.148 A 
ATOM     65  C   UNL     1      -0.467   2.890  -9.017  1.00  0.00     0.002 A 
ATOM     66  C   UNL     1      -2.677   2.827  -9.993  1.00  0.00     0.091 A 
ATOM     67  F   UNL     1      -4.395   4.211  -9.093  1.00  0.00    -0.205 F 
ATOM     68  C   UNL     1      -1.343   2.395  -9.977  1.00  0.00     0.022 A 
BRANCH  66  69
ATOM     69  S   UNL     1      -3.801   2.054 -11.156  1.00  0.00     0.127 S 
ATOM     70  O   UNL     1      -3.499   2.767 -12.395  1.00  0.00    -0.237 OA
ATOM     71  O   UNL     1      -3.368   0.655 -11.132  1.00  0.00    -0.237 OA
ATOM     72  O   UNL     1      -5.139   2.265 -10.615  1.00  0.00    -0.744 OA
ENDBRANCH  66  69
ENDBRANCH  39  62
ENDBRANCH  13  14
ENDBRANCH   6   8
ENDBRANCH   5   6
ENDBRANCH   4   5
ENDBRANCH   3   4
ENDBRANCH   2   3
ENDBRANCH   1   2
BRANCH   1  73
ATOM     73  C   UNL     1       4.370  -1.119   1.553  1.00  0.00     0.188 C 
BRANCH  73  74
ATOM     74  O   UNL     1       4.967  -1.945   2.557  1.00  0.00    -0.376 OA
BRANCH  74  75
ATOM     75  C   UNL     1       4.315  -3.146   2.925  1.00  0.00     0.202 C 
BRANCH  75  76
ATOM     76  C   UNL     1       3.304  -2.966   4.074  1.00  0.00     0.261 C 
BRANCH  76  77
ATOM     77  O   UNL     1       2.696  -1.662   4.184  1.00  0.00    -0.462 OA
BRANCH  77  78
ATOM     78  C   UNL     1       3.512  -0.672   4.662  1.00  0.00     0.324 C 
ATOM     79  O   UNL     1       4.667  -0.866   5.036  1.00  0.00    -0.251 OA
BRANCH  78  80
ATOM     80  C   UNL     1       2.753   0.673   4.835  1.00  0.00     0.194 C 
BRANCH  80  81
ATOM     81  C   UNL     1       2.756   1.020   6.339  1.00  0.00    -0.023 A 
ATOM     82  C   UNL     1       2.836  -0.006   7.305  1.00  0.00     0.005 A 
ATOM     83  C   UNL     1       2.788   2.345   6.797  1.00  0.00     0.005 A 
ATOM     84  C   UNL     1       3.153   0.277   8.632  1.00  0.00     0.000 A 
ATOM     85  C   UNL     1       3.102   2.629   8.127  1.00  0.00     0.000 A 
ATOM     86  C   UNL     1       3.324   1.596   9.034  1.00  0.00     0.000 A 
ENDBRANCH  80  81
BRANCH  80  87
ATOM     87  S   UNL     1       3.737   1.931   3.860  1.00  0.00    -0.066 SA
BRANCH  87  88
ATOM     88  C   UNL     1       2.640   2.623   2.711  1.00  0.00     0.197 A 
ATOM     89  N   UNL     1       1.506   2.096   2.306  1.00  0.00    -0.122 NA
ATOM     90  N   UNL     1       2.870   3.815   2.042  1.00  0.00    -0.270 N 
ATOM     91  N   UNL     1       1.030   2.870   1.264  1.00  0.00    -0.129 NA
ATOM     92  C   UNL     1       1.890   3.850   1.044  1.00  0.00     0.169 A 
BRANCH  90  93
ATOM     93  C   UNL     1       3.982   4.707   2.024  1.00  0.00     0.050 A 
ATOM     94  C   UNL     1       3.699   6.071   1.803  1.00  0.00     0.027 A 
ATOM     95  C   UNL     1       5.233   4.181   1.677  1.00  0.00     0.027 A 
ATOM     96  C   UNL     1       4.592   6.854   1.074  1.00  0.00     0.002 A 
ATOM     97  C   UNL     1       6.128   4.986   0.964  1.00  0.00     0.002 A 
ATOM     98  C   UNL     1       5.790   6.301   0.629  1.00  0.00     0.000 A 
ENDBRANCH  90  93
BRANCH  92  99
ATOM     99  C   UNL     1       2.007   4.691  -0.165  1.00  0.00     0.023 A 
ATOM    100  C   UNL     1       3.168   4.583  -0.959  1.00  0.00     0.032 A 
ATOM    101  C   UNL     1       1.037   5.620  -0.533  1.00  0.00     0.032 A 
ATOM    102  C   UNL     1       3.300   5.369  -2.079  1.00  0.00     0.111 A 
ATOM    103  C   UNL     1       1.250   6.354  -1.685  1.00  0.00     0.111 A 
ATOM    104  N   UNL     1       2.346   6.224  -2.454  1.00  0.00    -0.265 NA
ENDBRANCH  92  99
ENDBRANCH  87  88
ENDBRANCH  80  87
ENDBRANCH  78  80
ENDBRANCH  77  78
ENDBRANCH  76  77
ENDBRANCH  75  76
ENDBRANCH  74  75
ENDBRANCH  73  74
ENDBRANCH   1  73
TORSDOF 25
