REMARK SMILES O=C(OCCOCCOCCOC(=O)c1ccc(-c2c3nc(c(-c4cccc(S(=O)(=O)[O-])c4F)c4ccc([nH]4)c(-c4cccc(S(=O)(=O)[O-])c4F)c4nc(c(-c5cccc(S(=O)(=O)[O-])c5F)c5ccc2[nH]5)C=C4)C=C3)cc1)C1=Cc2cc(C(F)(F)F)ccc2O[C@@H]1C(F)(F)F
REMARK SMILES IDX 8 1 7 2 6 3 5 4 4 5 3 6 2 7 1 8 78 9 79 10 91 11 80 12 90 13
REMARK SMILES IDX 81 14 89 15 82 16 88 17 87 18 92 19 93 20 94 21 95 22 83 23
REMARK SMILES IDX 84 24 85 25 86 26 9 27 10 28 11 29 12 30 13 31 14 32 15 33
REMARK SMILES IDX 16 34 77 35 17 36 76 37 18 38 19 39 20 40 70 41 21 42 75 43
REMARK SMILES IDX 69 44 71 45 22 46 74 47 68 48 67 49 23 51 55 52 35 53 54 54
REMARK SMILES IDX 36 55 39 56 53 57 72 58 37 59 38 60 52 62 73 63 40 64 24 65
REMARK SMILES IDX 25 66 33 67 26 68 28 69 34 70 27 71 29 72 30 73 31 74 32 75
REMARK SMILES IDX 56 76 57 77 65 78 58 79 60 80 66 81 59 82 61 83 62 84 63 85
REMARK SMILES IDX 64 86 41 87 42 88 50 89 43 90 45 91 51 92 44 93 46 94 47 95
REMARK SMILES IDX 48 96 49 97
REMARK H PARENT 71 50 39 61
REMARK Flexibility Score: inf
ROOT
ATOM      1  C   UNL     1       2.193   2.313   2.438  1.00  0.00     0.188 C 
ENDROOT
BRANCH   1   2
ATOM      2  C   UNL     1       2.429   0.818   2.156  1.00  0.00     0.188 C 
BRANCH   2   3
ATOM      3  O   UNL     1       3.739   0.175   1.957  1.00  0.00    -0.376 OA
BRANCH   3   4
ATOM      4  C   UNL     1       4.403  -0.497   0.554  1.00  0.00     0.202 C 
BRANCH   4   5
ATOM      5  C   UNL     1       3.642  -0.293  -1.467  1.00  0.00     0.261 C 
BRANCH   5   6
ATOM      6  O   UNL     1       2.683  -1.239  -2.177  1.00  0.00    -0.460 OA
BRANCH   6   7
ATOM      7  C   UNL     1       2.882  -2.515  -1.820  1.00  0.00     0.338 C 
ATOM      8  O   UNL     1       2.226  -3.482  -2.114  1.00  0.00    -0.246 OA
BRANCH   7   9
ATOM      9  C   UNL     1       3.767  -2.246  -0.700  1.00  0.00     0.087 C 
ATOM     10  C   UNL     1       5.146  -1.933  -1.087  1.00  0.00     0.027 C 
ATOM     11  C   UNL     1       2.555  -1.005   0.127  1.00  0.00     0.316 C 
ATOM     12  C   UNL     1       5.838  -0.271  -1.101  1.00  0.00     0.018 A 
ATOM     13  O   UNL     1       3.218   0.821  -0.006  1.00  0.00    -0.475 OA
ATOM     14  C   UNL     1       7.107  -0.080  -1.565  1.00  0.00     0.025 A 
ATOM     15  C   UNL     1       4.910   1.118  -0.641  1.00  0.00     0.128 A 
ATOM     16  C   UNL     1       7.558   1.262  -1.590  1.00  0.00     0.056 A 
ATOM     17  C   UNL     1       5.407   2.389  -0.663  1.00  0.00     0.048 A 
ATOM     18  C   UNL     1       6.748   2.419  -1.145  1.00  0.00     0.017 A 
BRANCH  11  19
ATOM     19  C   UNL     1       2.265  -1.993   1.424  1.00  0.00     0.430 C 
ATOM     20  F   UNL     1       1.788  -1.479   2.557  1.00  0.00    -0.167 F 
ATOM     21  F   UNL     1       1.310  -2.885   1.028  1.00  0.00    -0.167 F 
ATOM     22  F   UNL     1       3.332  -2.766   1.765  1.00  0.00    -0.167 F 
ENDBRANCH  11  19
BRANCH  16  23
ATOM     23  C   UNL     1       8.971   1.463  -2.130  1.00  0.00     0.416 C 
ATOM     24  F   UNL     1       9.910   0.830  -1.373  1.00  0.00    -0.166 F 
ATOM     25  F   UNL     1       9.113   0.956  -3.389  1.00  0.00    -0.166 F 
ATOM     26  F   UNL     1       9.360   2.763  -2.206  1.00  0.00    -0.166 F 
ENDBRANCH  16  23
ENDBRANCH   7   9
ENDBRANCH   6   7
ENDBRANCH   5   6
ENDBRANCH   4   5
ENDBRANCH   3   4
ENDBRANCH   2   3
ENDBRANCH   1   2
BRANCH   1  27
ATOM     27  O   UNL     1       3.201   3.249   2.151  1.00  0.00    -0.376 OA
BRANCH  27  28
ATOM     28  C   UNL     1       4.471   2.978   2.724  1.00  0.00     0.202 C 
BRANCH  28  29
ATOM     29  C   UNL     1       4.549   2.707   4.235  1.00  0.00     0.261 C 
BRANCH  29  30
ATOM     30  O   UNL     1       4.070   1.399   4.615  1.00  0.00    -0.460 OA
BRANCH  30  31
ATOM     31  C   UNL     1       3.012   1.352   5.463  1.00  0.00     0.338 C 
ATOM     32  O   UNL     1       2.412   2.302   5.937  1.00  0.00    -0.246 OA
BRANCH  31  33
ATOM     33  C   UNL     1       2.546  -0.045   5.611  1.00  0.00     0.060 A 
ATOM     34  C   UNL     1       1.210  -0.344   5.299  1.00  0.00     0.016 A 
ATOM     35  C   UNL     1       3.398  -1.039   6.092  1.00  0.00     0.016 A 
ATOM     36  C   UNL     1       0.719  -1.637   5.476  1.00  0.00     0.010 A 
ATOM     37  C   UNL     1       2.892  -2.323   6.322  1.00  0.00     0.010 A 
ATOM     38  C   UNL     1       1.541  -2.611   6.054  1.00  0.00    -0.014 A 
BRANCH  38  39
ATOM     39  C   UNL     1       0.889  -3.781   6.689  1.00  0.00     0.031 A 
ATOM     40  C   UNL     1       0.458  -3.620   8.123  1.00  0.00     0.074 A 
ATOM     41  C   UNL     1       0.647  -4.925   6.027  1.00  0.00     0.049 A 
ATOM     42  N   UNL     1      -0.181  -4.453   8.901  1.00  0.00    -0.248 NA
ATOM     43  C   UNL     1       0.794  -2.336   8.766  1.00  0.00     0.031 C 
ATOM     44  C   UNL     1       0.993  -5.191   4.634  1.00  0.00     0.029 A 
ATOM     45  N   UNL     1       0.056  -6.087   6.458  1.00  0.00    -0.354 N 
ATOM     46  C   UNL     1      -0.297  -3.806  10.125  1.00  0.00     0.074 A 
ATOM     47  C   UNL     1       0.345  -2.520   9.995  1.00  0.00     0.031 C 
ATOM     48  C   UNL     1       0.622  -6.449   4.327  1.00  0.00     0.029 A 
ATOM     49  C   UNL     1       0.031  -7.079   5.508  1.00  0.00     0.049 A 
ATOM     50  H   UNL     1      -0.315  -6.199   7.364  1.00  0.00     0.167 HD
ATOM     51  C   UNL     1      -0.889  -4.241  11.261  1.00  0.00     0.034 A 
ATOM     52  C   UNL     1      -0.410  -8.351   5.593  1.00  0.00     0.034 A 
ATOM     53  C   UNL     1      -1.507  -5.529  11.393  1.00  0.00     0.049 A 
ATOM     54  C   UNL     1      -1.026  -8.830   6.886  1.00  0.00     0.074 A 
ATOM     55  C   UNL     1      -2.166  -6.058  12.488  1.00  0.00     0.029 A 
ATOM     56  N   UNL     1      -1.510  -6.506  10.410  1.00  0.00    -0.354 N 
ATOM     57  N   UNL     1      -1.223  -8.174   8.005  1.00  0.00    -0.248 NA
ATOM     58  C   UNL     1      -1.518 -10.215   6.913  1.00  0.00     0.031 C 
ATOM     59  C   UNL     1      -2.508  -7.380  12.188  1.00  0.00     0.029 A 
ATOM     60  C   UNL     1      -2.139  -7.644  10.879  1.00  0.00     0.049 A 
ATOM     61  H   UNL     1      -1.122  -6.404   9.511  1.00  0.00     0.167 HD
ATOM     62  C   UNL     1      -1.912  -9.044   8.844  1.00  0.00     0.074 A 
ATOM     63  C   UNL     1      -2.102 -10.273   8.102  1.00  0.00     0.031 C 
ATOM     64  C   UNL     1      -2.355  -8.844  10.111  1.00  0.00     0.034 A 
BRANCH  51  65
ATOM     65  C   UNL     1      -0.854  -3.325  12.455  1.00  0.00     0.023 A 
ATOM     66  C   UNL     1      -1.589  -2.121  12.456  1.00  0.00     0.012 A 
ATOM     67  C   UNL     1      -0.092  -3.670  13.588  1.00  0.00     0.148 A 
ATOM     68  C   UNL     1      -1.528  -1.254  13.547  1.00  0.00     0.002 A 
ATOM     69  C   UNL     1      -0.083  -2.829  14.693  1.00  0.00     0.091 A 
ATOM     70  F   UNL     1       0.622  -4.803  13.557  1.00  0.00    -0.205 F 
ATOM     71  C   UNL     1      -0.785  -1.613  14.668  1.00  0.00     0.022 A 
BRANCH  69  72
ATOM     72  S   UNL     1       0.775  -3.245  16.213  1.00  0.00     0.127 S 
ATOM     73  O   UNL     1       1.837  -2.239  16.237  1.00  0.00    -0.237 OA
ATOM     74  O   UNL     1      -0.272  -3.051  17.216  1.00  0.00    -0.237 OA
ATOM     75  O   UNL     1       1.226  -4.621  16.061  1.00  0.00    -0.744 OA
ENDBRANCH  69  72
ENDBRANCH  51  65
BRANCH  52  76
ATOM     76  C   UNL     1      -0.328  -9.260   4.413  1.00  0.00     0.023 A 
ATOM     77  C   UNL     1      -1.510  -9.701   3.784  1.00  0.00     0.012 A 
ATOM     78  C   UNL     1       0.915  -9.705   3.923  1.00  0.00     0.148 A 
ATOM     79  C   UNL     1      -1.457 -10.597   2.716  1.00  0.00     0.002 A 
ATOM     80  C   UNL     1       0.963 -10.555   2.824  1.00  0.00     0.091 A 
ATOM     81  F   UNL     1       2.027  -9.286   4.543  1.00  0.00    -0.205 F 
ATOM     82  C   UNL     1      -0.222 -11.018   2.231  1.00  0.00     0.022 A 
BRANCH  80  83
ATOM     83  S   UNL     1       2.507 -11.071   2.066  1.00  0.00     0.127 S 
ATOM     84  O   UNL     1       2.488 -12.513   2.297  1.00  0.00    -0.237 OA
ATOM     85  O   UNL     1       2.306 -10.667   0.674  1.00  0.00    -0.237 OA
ATOM     86  O   UNL     1       3.557 -10.340   2.763  1.00  0.00    -0.744 OA
ENDBRANCH  80  83
ENDBRANCH  52  76
BRANCH  64  87
ATOM     87  C   UNL     1      -3.169  -9.940  10.755  1.00  0.00     0.023 A 
ATOM     88  C   UNL     1      -2.577 -11.167  11.112  1.00  0.00     0.012 A 
ATOM     89  C   UNL     1      -4.528  -9.715  11.057  1.00  0.00     0.148 A 
ATOM     90  C   UNL     1      -3.338 -12.171  11.710  1.00  0.00     0.002 A 
ATOM     91  C   UNL     1      -5.263 -10.695  11.710  1.00  0.00     0.091 A 
ATOM     92  F   UNL     1      -5.079  -8.546  10.699  1.00  0.00    -0.205 F 
ATOM     93  C   UNL     1      -4.676 -11.932  12.019  1.00  0.00     0.022 A 
BRANCH  91  94
ATOM     94  S   UNL     1      -6.957 -10.431  12.242  1.00  0.00     0.127 S 
ATOM     95  O   UNL     1      -7.696 -11.294  11.322  1.00  0.00    -0.237 OA
ATOM     96  O   UNL     1      -6.923 -10.902  13.627  1.00  0.00    -0.237 OA
ATOM     97  O   UNL     1      -7.209  -9.003  12.096  1.00  0.00    -0.744 OA
ENDBRANCH  91  94
ENDBRANCH  64  87
ENDBRANCH  38  39
ENDBRANCH  31  33
ENDBRANCH  30  31
ENDBRANCH  29  30
ENDBRANCH  28  29
ENDBRANCH  27  28
ENDBRANCH   1  27
TORSDOF 22
