REMARK SMILES CC[C@H]1SC[C@H](C(=O)OCCOCCOCCOC(=O)c2ccc(-c3c4nc(c(-c5cccc(S(=O)(=O)[O-])c5F)c5ccc([nH]5)c(-c5cccc(S(=O)(=O)[O-])c5F)c5nc(c(-c6cccc(S(=O)(=O)[O-])c6F)c6ccc3[nH]6)C=C5)C=C4)cc2)N1C(=O)c1ccc(F)c(F)c1F
REMARK SMILES IDX 14 1 13 2 12 3 11 4 10 5 9 6 7 7 8 8 6 9 3 10 4 11 84 12
REMARK SMILES IDX 5 13 2 14 1 15 85 16 86 17 87 18 88 19 94 20 89 21 92 22
REMARK SMILES IDX 95 23 90 24 93 25 91 26 15 27 16 28 17 29 18 30 19 31 20 32
REMARK SMILES IDX 21 33 22 34 83 35 23 36 82 37 24 38 25 39 26 40 76 41 27 42
REMARK SMILES IDX 81 43 75 44 77 45 28 46 80 47 74 48 73 49 29 51 61 52 41 53
REMARK SMILES IDX 60 54 42 55 45 56 59 57 78 58 43 59 44 60 58 62 79 63 46 64
REMARK SMILES IDX 30 65 31 66 39 67 32 68 34 69 40 70 33 71 35 72 36 73 37 74
REMARK SMILES IDX 38 75 62 76 63 77 71 78 64 79 66 80 72 81 65 82 67 83 68 84
REMARK SMILES IDX 69 85 70 86 47 87 48 88 56 89 49 90 51 91 57 92 50 93 52 94
REMARK SMILES IDX 53 95 54 96 55 97
REMARK H PARENT 77 50 45 61
REMARK Flexibility Score: inf
ROOT
ATOM      1  C   UNL     1      -2.494   2.606  -6.660  1.00  0.00     0.188 C 
ENDROOT
BRANCH   1   2
ATOM      2  C   UNL     1      -1.809   3.964  -6.517  1.00  0.00     0.188 C 
BRANCH   2   3
ATOM      3  O   UNL     1      -1.086   4.437  -7.644  1.00  0.00    -0.376 OA
BRANCH   3   4
ATOM      4  C   UNL     1      -0.092   3.590  -8.211  1.00  0.00     0.202 C 
BRANCH   4   5
ATOM      5  C   UNL     1       1.077   3.147  -7.317  1.00  0.00     0.261 C 
BRANCH   5   6
ATOM      6  O   UNL     1       0.712   2.411  -6.128  1.00  0.00    -0.462 OA
BRANCH   6   7
ATOM      7  C   UNL     1       0.814   3.116  -4.969  1.00  0.00     0.329 C 
ATOM      8  O   UNL     1       1.183   4.286  -4.936  1.00  0.00    -0.250 OA
BRANCH   7   9
ATOM      9  C   UNL     1       0.454   2.324  -3.694  1.00  0.00     0.206 C 
ATOM     10  C   UNL     1       1.467   0.715  -2.146  1.00  0.00     0.144 C 
ATOM     11  S   UNL     1       0.297  -0.308  -3.073  1.00  0.00    -0.134 SA
ATOM     12  N   UNL     1       1.661   1.898  -2.970  1.00  0.00    -0.312 N 
ATOM     13  C   UNL     1      -0.463   1.113  -3.914  1.00  0.00     0.109 C 
BRANCH  10  14
ATOM     14  C   UNL     1       0.898   1.082  -0.759  1.00  0.00     0.033 C 
ATOM     15  C   UNL     1       1.072  -0.035   0.263  1.00  0.00     0.007 C 
ENDBRANCH  10  14
BRANCH  12  16
ATOM     16  C   UNL     1       2.639   2.828  -2.659  1.00  0.00     0.258 C 
ATOM     17  O   UNL     1       2.416   4.029  -2.559  1.00  0.00    -0.269 OA
BRANCH  16  18
ATOM     18  C   UNL     1       4.028   2.365  -2.444  1.00  0.00     0.079 A 
ATOM     19  C   UNL     1       4.860   3.154  -1.634  1.00  0.00     0.020 A 
ATOM     20  C   UNL     1       4.551   1.229  -3.065  1.00  0.00     0.174 A 
ATOM     21  C   UNL     1       6.177   2.766  -1.393  1.00  0.00     0.043 A 
ATOM     22  C   UNL     1       5.856   0.832  -2.804  1.00  0.00     0.195 A 
ATOM     23  F   UNL     1       3.818   0.500  -3.920  1.00  0.00    -0.203 F 
ATOM     24  C   UNL     1       6.660   1.594  -1.967  1.00  0.00     0.161 A 
ATOM     25  F   UNL     1       6.336  -0.291  -3.358  1.00  0.00    -0.200 F 
ATOM     26  F   UNL     1       7.915   1.207  -1.707  1.00  0.00    -0.204 F 
ENDBRANCH  16  18
ENDBRANCH  12  16
ENDBRANCH   7   9
ENDBRANCH   6   7
ENDBRANCH   5   6
ENDBRANCH   4   5
ENDBRANCH   3   4
ENDBRANCH   2   3
ENDBRANCH   1   2
BRANCH   1  27
ATOM     27  O   UNL     1      -1.755   1.613  -7.349  1.00  0.00    -0.376 OA
BRANCH  27  28
ATOM     28  C   UNL     1      -2.465   0.458  -7.800  1.00  0.00     0.202 C 
BRANCH  28  29
ATOM     29  C   UNL     1      -3.788   0.680  -8.566  1.00  0.00     0.261 C 
BRANCH  29  30
ATOM     30  O   UNL     1      -4.845   1.374  -7.864  1.00  0.00    -0.460 OA
BRANCH  30  31
ATOM     31  C   UNL     1      -5.127   1.012  -6.590  1.00  0.00     0.338 C 
ATOM     32  O   UNL     1      -4.783  -0.026  -6.046  1.00  0.00    -0.246 OA
BRANCH  31  33
ATOM     33  C   UNL     1      -5.662   2.200  -5.860  1.00  0.00     0.060 A 
ATOM     34  C   UNL     1      -5.252   2.399  -4.531  1.00  0.00     0.016 A 
ATOM     35  C   UNL     1      -6.466   3.162  -6.479  1.00  0.00     0.016 A 
ATOM     36  C   UNL     1      -5.674   3.525  -3.813  1.00  0.00     0.010 A 
ATOM     37  C   UNL     1      -6.902   4.280  -5.754  1.00  0.00     0.010 A 
ATOM     38  C   UNL     1      -6.539   4.452  -4.405  1.00  0.00    -0.014 A 
BRANCH  38  39
ATOM     39  C   UNL     1      -7.240   5.469  -3.572  1.00  0.00     0.031 A 
ATOM     40  C   UNL     1      -8.656   5.175  -3.144  1.00  0.00     0.074 A 
ATOM     41  C   UNL     1      -6.667   6.631  -3.204  1.00  0.00     0.049 A 
ATOM     42  N   UNL     1      -9.506   5.929  -2.498  1.00  0.00    -0.248 NA
ATOM     43  C   UNL     1      -9.182   3.846  -3.502  1.00  0.00     0.031 C 
ATOM     44  C   UNL     1      -5.301   7.043  -3.518  1.00  0.00     0.029 A 
ATOM     45  N   UNL     1      -7.187   7.697  -2.506  1.00  0.00    -0.354 N 
ATOM     46  C   UNL     1     -10.678   5.186  -2.408  1.00  0.00     0.074 A 
ATOM     47  C   UNL     1     -10.431   3.923  -3.069  1.00  0.00     0.031 C 
ATOM     48  C   UNL     1      -5.102   8.287  -3.046  1.00  0.00     0.029 A 
ATOM     49  C   UNL     1      -6.335   8.775  -2.428  1.00  0.00     0.049 A 
ATOM     50  H   UNL     1      -8.085   7.689  -2.101  1.00  0.00     0.167 HD
ATOM     51  C   UNL     1     -11.854   5.516  -1.824  1.00  0.00     0.034 A 
ATOM     52  C   UNL     1      -6.537  10.021  -1.946  1.00  0.00     0.034 A 
ATOM     53  C   UNL     1     -12.105   6.762  -1.155  1.00  0.00     0.049 A 
ATOM     54  C   UNL     1      -7.872  10.383  -1.340  1.00  0.00     0.074 A 
ATOM     55  C   UNL     1     -13.255   7.166  -0.498  1.00  0.00     0.029 A 
ATOM     56  N   UNL     1     -11.206   7.812  -1.070  1.00  0.00    -0.354 N 
ATOM     57  N   UNL     1      -8.938   9.636  -1.176  1.00  0.00    -0.248 NA
ATOM     58  C   UNL     1      -8.025  11.755  -0.827  1.00  0.00     0.031 C 
ATOM     59  C   UNL     1     -13.066   8.478  -0.053  1.00  0.00     0.029 A 
ATOM     60  C   UNL     1     -11.780   8.871  -0.387  1.00  0.00     0.049 A 
ATOM     61  H   UNL     1     -10.295   7.807  -1.441  1.00  0.00     0.167 HD
ATOM     62  C   UNL     1      -9.864  10.430  -0.503  1.00  0.00     0.074 A 
ATOM     63  C   UNL     1      -9.232  11.712  -0.280  1.00  0.00     0.031 C 
ATOM     64  C   UNL     1     -11.126  10.125  -0.113  1.00  0.00     0.034 A 
BRANCH  51  65
ATOM     65  C   UNL     1     -12.969   4.504  -1.881  1.00  0.00     0.023 A 
ATOM     66  C   UNL     1     -12.891   3.326  -1.110  1.00  0.00     0.012 A 
ATOM     67  C   UNL     1     -14.116   4.746  -2.662  1.00  0.00     0.148 A 
ATOM     68  C   UNL     1     -13.923   2.389  -1.143  1.00  0.00     0.002 A 
ATOM     69  C   UNL     1     -15.161   3.831  -2.650  1.00  0.00     0.091 A 
ATOM     70  F   UNL     1     -14.160   5.861  -3.404  1.00  0.00    -0.205 F 
ATOM     71  C   UNL     1     -15.061   2.646  -1.903  1.00  0.00     0.022 A 
BRANCH  69  72
ATOM     72  S   UNL     1     -16.702   4.110  -3.529  1.00  0.00     0.127 S 
ATOM     73  O   UNL     1     -16.629   3.095  -4.580  1.00  0.00    -0.237 OA
ATOM     74  O   UNL     1     -17.698   3.843  -2.492  1.00  0.00    -0.237 OA
ATOM     75  O   UNL     1     -16.659   5.490  -3.991  1.00  0.00    -0.744 OA
ENDBRANCH  69  72
ENDBRANCH  51  65
BRANCH  52  76
ATOM     76  C   UNL     1      -5.443  11.036  -2.003  1.00  0.00     0.023 A 
ATOM     77  C   UNL     1      -4.852  11.496  -0.809  1.00  0.00     0.012 A 
ATOM     78  C   UNL     1      -5.000  11.562  -3.233  1.00  0.00     0.148 A 
ATOM     79  C   UNL     1      -3.865  12.483  -0.837  1.00  0.00     0.002 A 
ATOM     80  C   UNL     1      -3.977  12.504  -3.256  1.00  0.00     0.091 A 
ATOM     81  F   UNL     1      -5.590  11.130  -4.356  1.00  0.00    -0.205 F 
ATOM     82  C   UNL     1      -3.421  12.979  -2.059  1.00  0.00     0.022 A 
BRANCH  80  83
ATOM     83  S   UNL     1      -3.265  13.119  -4.786  1.00  0.00     0.127 S 
ATOM     84  O   UNL     1      -3.675  14.521  -4.764  1.00  0.00    -0.237 OA
ATOM     85  O   UNL     1      -1.837  12.891  -4.563  1.00  0.00    -0.237 OA
ATOM     86  O   UNL     1      -3.848  12.310  -5.847  1.00  0.00    -0.744 OA
ENDBRANCH  80  83
ENDBRANCH  52  76
BRANCH  64  87
ATOM     87  C   UNL     1     -11.906  11.159   0.661  1.00  0.00     0.023 A 
ATOM     88  C   UNL     1     -12.397  12.311   0.017  1.00  0.00     0.012 A 
ATOM     89  C   UNL     1     -12.230  10.936   2.016  1.00  0.00     0.148 A 
ATOM     90  C   UNL     1     -13.171  13.239   0.715  1.00  0.00     0.002 A 
ATOM     91  C   UNL     1     -13.046  11.838   2.690  1.00  0.00     0.091 A 
ATOM     92  F   UNL     1     -11.743   9.841   2.617  1.00  0.00    -0.205 F 
ATOM     93  C   UNL     1     -13.506  12.996   2.045  1.00  0.00     0.022 A 
BRANCH  91  94
ATOM     94  S   UNL     1     -13.611  11.557   4.372  1.00  0.00     0.127 S 
ATOM     95  O   UNL     1     -12.888  12.594   5.107  1.00  0.00    -0.237 OA
ATOM     96  O   UNL     1     -15.052  11.786   4.256  1.00  0.00    -0.237 OA
ATOM     97  O   UNL     1     -13.239  10.188   4.702  1.00  0.00    -0.744 OA
ENDBRANCH  91  94
ENDBRANCH  64  87
ENDBRANCH  38  39
ENDBRANCH  31  33
ENDBRANCH  30  31
ENDBRANCH  29  30
ENDBRANCH  28  29
ENDBRANCH  27  28
ENDBRANCH   1  27
TORSDOF 23
