REMARK SMILES N#C/C(=C/c1cccc(OCC(=O)OCCOCCOCCOC(=O)c2ccc(-c3c4nc(c(-c5cccc(S(=O)(=O)[O-])c5F)c5ccc([nH]5)c(-c5cccc(S(=O)(=O)[O-])c5F)c5nc(c(-c6cccc(S(=O)(=O)[O-])c6F)c6ccc3[nH]6)C=C5)C=C4)cc2)c1)c1nc2ccccc2[nH]1
REMARK SMILES IDX 18 1 17 2 16 3 15 4 14 5 12 6 13 7 11 8 10 9 9 10 5 11 6 12
REMARK SMILES IDX 89 13 7 14 8 15 4 16 3 17 2 18 1 19 90 20 91 21 98 22 92 23
REMARK SMILES IDX 97 24 93 26 96 27 94 28 95 29 19 30 20 31 21 32 22 33 23 34
REMARK SMILES IDX 24 35 25 36 26 37 27 38 88 39 28 40 87 41 29 42 30 43 31 44
REMARK SMILES IDX 81 45 32 46 86 47 80 48 82 49 33 50 85 51 79 52 78 53 34 55
REMARK SMILES IDX 66 56 46 57 65 58 47 59 50 60 64 61 83 62 48 63 49 64 63 66
REMARK SMILES IDX 84 67 51 68 35 69 36 70 44 71 37 72 39 73 45 74 38 75 40 76
REMARK SMILES IDX 41 77 42 78 43 79 67 80 68 81 76 82 69 83 71 84 77 85 70 86
REMARK SMILES IDX 72 87 73 88 74 89 75 90 52 91 53 92 61 93 54 94 56 95 62 96
REMARK SMILES IDX 55 97 57 98 58 99 59 100 60 101
REMARK H PARENT 98 25 82 54 50 65
REMARK Flexibility Score: inf
ROOT
ATOM      1  C   UNL     1       6.218   1.701  -1.233  1.00  0.00     0.188 C 
ENDROOT
BRANCH   1   2
ATOM      2  O   UNL     1       5.034   2.072  -2.910  1.00  0.00    -0.376 OA
BRANCH   2   3
ATOM      3  C   UNL     1       5.495   2.823  -4.260  1.00  0.00     0.202 C 
BRANCH   3   4
ATOM      4  C   UNL     1       6.914   3.799  -3.931  1.00  0.00     0.261 C 
BRANCH   4   5
ATOM      5  O   UNL     1       7.809   3.512  -2.120  1.00  0.00    -0.461 OA
BRANCH   5   6
ATOM      6  C   UNL     1       8.451   3.857  -0.763  1.00  0.00     0.344 C 
ATOM      7  O   UNL     1       8.781   5.022  -0.482  1.00  0.00    -0.248 OA
BRANCH   6   8
ATOM      8  C   UNL     1       8.422   2.719   0.678  1.00  0.00     0.351 C 
BRANCH   8   9
ATOM      9  O   UNL     1       8.962   1.425   1.138  1.00  0.00    -0.482 OA
BRANCH   9  10
ATOM     10  C   UNL     1       8.400   0.320   1.829  1.00  0.00     0.120 A 
ATOM     11  C   UNL     1       6.286  -1.062   2.105  1.00  0.00    -0.021 A 
ATOM     12  C   UNL     1       7.001  -2.235   1.896  1.00  0.00     0.008 A 
ATOM     13  C   UNL     1       7.127   0.155   2.434  1.00  0.00     0.054 A 
ATOM     14  C   UNL     1       8.399  -2.139   1.716  1.00  0.00     0.004 A 
ATOM     15  C   UNL     1       9.065  -0.886   1.600  1.00  0.00     0.046 A 
BRANCH  11  16
ATOM     16  C   UNL     1       4.594  -0.956   1.278  1.00  0.00     0.031 C 
ATOM     17  C   UNL     1       3.753   0.056  -0.078  1.00  0.00     0.095 C 
BRANCH  17  18
ATOM     18  C   UNL     1       2.233   0.056  -0.078  1.00  0.00     0.103 C 
ATOM     19  N   UNL     1       0.972   0.056  -0.078  1.00  0.00    -0.192 NA
ENDBRANCH  17  18
BRANCH  17  20
ATOM     20  C   UNL     1       4.363   0.929  -1.480  1.00  0.00     0.149 A 
ATOM     21  N   UNL     1       5.683   0.507  -2.498  1.00  0.00    -0.228 NA
ATOM     22  N   UNL     1       4.365   2.768  -1.338  1.00  0.00    -0.337 N 
ATOM     23  C   UNL     1       6.844   2.007  -2.910  1.00  0.00     0.089 A 
ATOM     24  C   UNL     1       5.870   3.495  -2.105  1.00  0.00     0.066 A 
ATOM     25  H   UNL     1       3.652   3.292  -0.906  1.00  0.00     0.168 HD
ATOM     26  C   UNL     1       8.487   2.295  -3.531  1.00  0.00     0.030 A 
ATOM     27  C   UNL     1       6.585   5.113  -2.213  1.00  0.00     0.028 A 
ATOM     28  C   UNL     1       9.133   3.939  -3.559  1.00  0.00     0.002 A 
ATOM     29  C   UNL     1       8.196   5.303  -2.973  1.00  0.00     0.002 A 
ENDBRANCH  17  20
ENDBRANCH  11  16
ENDBRANCH   9  10
ENDBRANCH   8   9
ENDBRANCH   6   8
ENDBRANCH   5   6
ENDBRANCH   4   5
ENDBRANCH   3   4
ENDBRANCH   2   3
ENDBRANCH   1   2
BRANCH   1  30
ATOM     30  C   UNL     1       7.638   0.455  -1.349  1.00  0.00     0.188 C 
BRANCH  30  31
ATOM     31  O   UNL     1       8.217  -0.338  -2.418  1.00  0.00    -0.376 OA
BRANCH  31  32
ATOM     32  C   UNL     1       7.594  -0.865  -3.586  1.00  0.00     0.202 C 
BRANCH  32  33
ATOM     33  C   UNL     1       6.622  -2.058  -3.543  1.00  0.00     0.261 C 
BRANCH  33  34
ATOM     34  O   UNL     1       5.685  -2.014  -2.490  1.00  0.00    -0.460 OA
BRANCH  34  35
ATOM     35  C   UNL     1       6.301  -2.001  -1.292  1.00  0.00     0.338 C 
ATOM     36  O   UNL     1       7.293  -2.627  -0.980  1.00  0.00    -0.246 OA
BRANCH  35  37
ATOM     37  C   UNL     1       5.410  -1.185  -0.450  1.00  0.00     0.060 A 
ATOM     38  C   UNL     1       5.587   0.434   0.576  1.00  0.00     0.016 A 
ATOM     39  C   UNL     1       3.918  -2.221  -0.174  1.00  0.00     0.016 A 
ATOM     40  C   UNL     1       4.253   0.868   1.869  1.00  0.00     0.010 A 
ATOM     41  C   UNL     1       2.707  -1.826   1.117  1.00  0.00     0.010 A 
ATOM     42  C   UNL     1       2.863  -0.334   2.190  1.00  0.00    -0.014 A 
BRANCH  42  43
ATOM     43  C   UNL     1       1.966  -0.377   3.464  1.00  0.00     0.031 A 
ATOM     44  C   UNL     1       1.570  -1.665   4.277  1.00  0.00     0.074 A 
ATOM     45  C   UNL     1       1.406   0.765   3.907  1.00  0.00     0.049 A 
ATOM     46  N   UNL     1       0.721  -1.794   5.290  1.00  0.00    -0.248 NA
ATOM     47  C   UNL     1       2.197  -2.951   3.933  1.00  0.00     0.031 C 
ATOM     48  C   UNL     1       1.589   2.067   3.286  1.00  0.00     0.029 A 
ATOM     49  N   UNL     1       0.543   1.011   4.957  1.00  0.00    -0.354 N 
ATOM     50  C   UNL     1       0.673  -3.156   5.645  1.00  0.00     0.074 A 
ATOM     51  C   UNL     1       1.583  -3.817   4.734  1.00  0.00     0.031 C 
ATOM     52  C   UNL     1       0.892   2.982   3.971  1.00  0.00     0.029 A 
ATOM     53  C   UNL     1       0.127   2.321   5.025  1.00  0.00     0.049 A 
ATOM     54  H   UNL     1       0.255   0.318   5.594  1.00  0.00     0.167 HD
ATOM     55  C   UNL     1      -0.024  -3.814   6.623  1.00  0.00     0.034 A 
ATOM     56  C   UNL     1      -0.797   2.944   5.786  1.00  0.00     0.034 A 
ATOM     57  C   UNL     1      -0.898  -3.188   7.596  1.00  0.00     0.049 A 
ATOM     58  C   UNL     1      -1.585   2.206   6.831  1.00  0.00     0.074 A 
ATOM     59  C   UNL     1      -1.561  -3.775   8.668  1.00  0.00     0.029 A 
ATOM     60  N   UNL     1      -1.257  -1.852   7.609  1.00  0.00    -0.354 N 
ATOM     61  N   UNL     1      -1.522   0.948   7.182  1.00  0.00    -0.248 NA
ATOM     62  C   UNL     1      -2.559   2.993   7.606  1.00  0.00     0.031 C 
ATOM     63  C   UNL     1      -2.376  -2.813   9.277  1.00  0.00     0.029 A 
ATOM     64  C   UNL     1      -2.155  -1.606   8.641  1.00  0.00     0.049 A 
ATOM     65  H   UNL     1      -0.924  -1.173   6.979  1.00  0.00     0.167 HD
ATOM     66  C   UNL     1      -2.415   0.803   8.241  1.00  0.00     0.074 A 
ATOM     67  C   UNL     1      -2.991   2.105   8.490  1.00  0.00     0.031 C 
ATOM     68  C   UNL     1      -2.724  -0.317   8.938  1.00  0.00     0.034 A 
BRANCH  55  69
ATOM     69  C   UNL     1       0.108  -5.336   6.751  1.00  0.00     0.023 A 
ATOM     70  C   UNL     1       1.311  -5.913   7.208  1.00  0.00     0.012 A 
ATOM     71  C   UNL     1      -1.011  -6.185   6.556  1.00  0.00     0.148 A 
ATOM     72  C   UNL     1       1.419  -7.295   7.408  1.00  0.00     0.002 A 
ATOM     73  C   UNL     1      -0.909  -7.556   6.800  1.00  0.00     0.091 A 
ATOM     74  F   UNL     1      -2.167  -5.636   6.157  1.00  0.00    -0.205 F 
ATOM     75  C   UNL     1       0.311  -8.113   7.208  1.00  0.00     0.022 A 
BRANCH  73  76
ATOM     76  S   UNL     1      -2.301  -8.690   6.658  1.00  0.00     0.127 S 
ATOM     77  O   UNL     1      -1.917  -9.482   5.491  1.00  0.00    -0.237 OA
ATOM     78  O   UNL     1      -2.242  -9.415   7.928  1.00  0.00    -0.237 OA
ATOM     79  O   UNL     1      -3.484  -7.859   6.485  1.00  0.00    -0.744 OA
ENDBRANCH  73  76
ENDBRANCH  55  69
BRANCH  56  80
ATOM     80  C   UNL     1      -1.041   4.400   5.571  1.00  0.00     0.023 A 
ATOM     81  C   UNL     1      -0.679   5.325   6.568  1.00  0.00     0.012 A 
ATOM     82  C   UNL     1      -1.605   4.865   4.368  1.00  0.00     0.148 A 
ATOM     83  C   UNL     1      -0.903   6.689   6.381  1.00  0.00     0.002 A 
ATOM     84  C   UNL     1      -1.756   6.227   4.158  1.00  0.00     0.091 A 
ATOM     85  F   UNL     1      -1.949   3.963   3.438  1.00  0.00    -0.205 F 
ATOM     86  C   UNL     1      -1.427   7.140   5.172  1.00  0.00     0.022 A 
BRANCH  84  87
ATOM     87  S   UNL     1      -2.278   6.905   2.581  1.00  0.00     0.127 S 
ATOM     88  O   UNL     1      -3.559   7.515   2.927  1.00  0.00    -0.237 OA
ATOM     89  O   UNL     1      -1.199   7.850   2.293  1.00  0.00    -0.237 OA
ATOM     90  O   UNL     1      -2.346   5.775   1.664  1.00  0.00    -0.744 OA
ENDBRANCH  84  87
ENDBRANCH  56  80
BRANCH  68  91
ATOM     91  C   UNL     1      -3.685  -0.192  10.098  1.00  0.00     0.023 A 
ATOM     92  C   UNL     1      -5.044   0.112   9.879  1.00  0.00     0.012 A 
ATOM     93  C   UNL     1      -3.238  -0.406  11.419  1.00  0.00     0.148 A 
ATOM     94  C   UNL     1      -5.927   0.249  10.953  1.00  0.00     0.002 A 
ATOM     95  C   UNL     1      -4.134  -0.323  12.480  1.00  0.00     0.091 A 
ATOM     96  F   UNL     1      -1.940  -0.679  11.617  1.00  0.00    -0.205 F 
ATOM     97  C   UNL     1      -5.475   0.022  12.251  1.00  0.00     0.022 A 
BRANCH  95  98
ATOM     98  S   UNL     1      -3.664  -0.679  14.177  1.00  0.00     0.127 S 
ATOM     99  O   UNL     1      -3.814   0.631  14.810  1.00  0.00    -0.237 OA
ATOM    100  O   UNL     1      -4.669  -1.666  14.573  1.00  0.00    -0.237 OA
ATOM    101  O   UNL     1      -2.300  -1.187  14.123  1.00  0.00    -0.744 OA
ENDBRANCH  95  98
ENDBRANCH  68  91
ENDBRANCH  42  43
ENDBRANCH  35  37
ENDBRANCH  34  35
ENDBRANCH  33  34
ENDBRANCH  32  33
ENDBRANCH  31  32
ENDBRANCH  30  31
ENDBRANCH   1  30
TORSDOF 25
