REMARK SMILES CCN(CCC(=O)OCCOCCOCCOC(=O)c1ccc(-c2c3nc(c(-c4cccc(S(=O)(=O)[O-])c4F)c4ccc([nH]4)c(-c4cccc(S(=O)(=O)[O-])c4F)c4nc(c(-c5cccc(S(=O)(=O)[O-])c5F)c5ccc2[nH]5)C=C4)C=C3)cc1)C(=O)c1cc(Cl)ccc1F
REMARK SMILES IDX 12 1 11 2 10 3 9 4 8 5 6 6 7 7 5 8 4 9 3 10 2 11 1 12 83 13
REMARK SMILES IDX 84 14 85 15 86 16 91 17 87 18 90 19 92 20 88 21 89 22 13 23
REMARK SMILES IDX 14 24 15 25 16 26 17 27 18 28 19 29 20 30 21 31 82 32 22 33
REMARK SMILES IDX 81 34 23 35 24 36 25 37 75 38 26 39 80 40 74 41 76 42 27 43
REMARK SMILES IDX 79 44 73 45 72 46 28 48 60 49 40 50 59 51 41 52 44 53 58 54
REMARK SMILES IDX 77 55 42 56 43 57 57 59 78 60 45 61 29 62 30 63 38 64 31 65
REMARK SMILES IDX 33 66 39 67 32 68 34 69 35 70 36 71 37 72 61 73 62 74 70 75
REMARK SMILES IDX 63 76 65 77 71 78 64 79 66 80 67 81 68 82 69 83 46 84 47 85
REMARK SMILES IDX 55 86 48 87 50 88 56 89 49 90 51 91 52 92 53 93 54 94
REMARK H PARENT 76 47 44 58
REMARK Flexibility Score: inf
ROOT
ATOM      1  C   UNL     1       2.859  -2.515   5.248  1.00  0.00     0.188 C 
ENDROOT
BRANCH   1   2
ATOM      2  O   UNL     1       3.854  -3.243   4.333  1.00  0.00    -0.376 OA
BRANCH   2   3
ATOM      3  C   UNL     1       4.377  -4.780   3.185  1.00  0.00     0.202 C 
BRANCH   3   4
ATOM      4  C   UNL     1       3.561  -5.686   2.005  1.00  0.00     0.261 C 
BRANCH   4   5
ATOM      5  O   UNL     1       2.457  -5.123   1.269  1.00  0.00    -0.463 OA
BRANCH   5   6
ATOM      6  C   UNL     1       1.235  -5.697   1.437  1.00  0.00     0.307 C 
ATOM      7  O   UNL     1       1.065  -6.845   1.828  1.00  0.00    -0.252 OA
BRANCH   6   8
ATOM      8  C   UNL     1       0.090  -4.754   1.106  1.00  0.00     0.144 C 
BRANCH   8   9
ATOM      9  C   UNL     1       0.139  -3.313   1.638  1.00  0.00     0.131 C 
BRANCH   9  10
ATOM     10  N   UNL     1       1.162  -2.471   1.031  1.00  0.00    -0.338 N 
BRANCH  10  11
ATOM     11  C   UNL     1       0.755  -1.674  -0.131  1.00  0.00     0.116 C 
ATOM     12  C   UNL     1       0.922  -0.171   0.081  1.00  0.00     0.027 C 
ENDBRANCH  10  11
BRANCH  10  13
ATOM     13  C   UNL     1       2.512  -2.432   1.383  1.00  0.00     0.256 C 
ATOM     14  O   UNL     1       3.326  -1.845   0.662  1.00  0.00    -0.269 OA
BRANCH  13  15
ATOM     15  C   UNL     1       3.107  -3.086   2.582  1.00  0.00     0.077 A 
ATOM     16  C   UNL     1       4.823  -2.560   2.840  1.00  0.00     0.037 A 
ATOM     17  C   UNL     1       2.376  -4.303   3.750  1.00  0.00     0.136 A 
ATOM     18  C   UNL     1       5.764  -3.220   4.224  1.00  0.00     0.042 A 
ATOM     19  C   UNL     1       3.358  -4.977   5.117  1.00  0.00     0.041 A 
ATOM     20  F   UNL     1       1.088  -4.661   3.755  1.00  0.00    -0.206 F 
ATOM     21  Cl  UNL     1       7.350  -2.628   4.522  1.00  0.00    -0.084 Cl
ATOM     22  C   UNL     1       5.045  -4.400   5.360  1.00  0.00     0.023 A 
ENDBRANCH  13  15
ENDBRANCH  10  13
ENDBRANCH   9  10
ENDBRANCH   8   9
ENDBRANCH   6   8
ENDBRANCH   5   6
ENDBRANCH   4   5
ENDBRANCH   3   4
ENDBRANCH   2   3
ENDBRANCH   1   2
BRANCH   1  23
ATOM     23  C   UNL     1       2.174  -1.284   4.598  1.00  0.00     0.188 C 
BRANCH  23  24
ATOM     24  O   UNL     1       2.997  -0.218   4.135  1.00  0.00    -0.376 OA
BRANCH  24  25
ATOM     25  C   UNL     1       4.132   0.126   4.920  1.00  0.00     0.202 C 
BRANCH  25  26
ATOM     26  C   UNL     1       3.866   0.837   6.251  1.00  0.00     0.261 C 
BRANCH  26  27
ATOM     27  O   UNL     1       3.040   0.069   7.141  1.00  0.00    -0.460 OA
BRANCH  27  28
ATOM     28  C   UNL     1       1.749   0.467   7.211  1.00  0.00     0.338 C 
ATOM     29  O   UNL     1       1.238   1.428   6.648  1.00  0.00    -0.246 OA
BRANCH  28  30
ATOM     30  C   UNL     1       0.959  -0.563   7.909  1.00  0.00     0.060 A 
ATOM     31  C   UNL     1      -0.229  -1.010   7.307  1.00  0.00     0.016 A 
ATOM     32  C   UNL     1       1.344  -1.030   9.166  1.00  0.00     0.016 A 
ATOM     33  C   UNL     1      -1.077  -1.870   7.992  1.00  0.00     0.010 A 
ATOM     34  C   UNL     1       0.478  -1.866   9.868  1.00  0.00     0.010 A 
ATOM     35  C   UNL     1      -0.759  -2.231   9.305  1.00  0.00    -0.014 A 
BRANCH  35  36
ATOM     36  C   UNL     1      -1.843  -2.703  10.189  1.00  0.00     0.031 A 
ATOM     37  C   UNL     1      -2.546  -1.671  11.028  1.00  0.00     0.074 A 
ATOM     38  C   UNL     1      -2.189  -3.998  10.237  1.00  0.00     0.049 A 
ATOM     39  N   UNL     1      -3.476  -1.826  11.930  1.00  0.00    -0.248 NA
ATOM     40  C   UNL     1      -2.136  -0.269  10.824  1.00  0.00     0.031 C 
ATOM     41  C   UNL     1      -1.595  -5.064   9.432  1.00  0.00     0.029 A 
ATOM     42  N   UNL     1      -3.114  -4.637  11.020  1.00  0.00    -0.354 N 
ATOM     43  C   UNL     1      -3.727  -0.554  12.433  1.00  0.00     0.074 A 
ATOM     44  C   UNL     1      -2.853   0.362  11.739  1.00  0.00     0.031 C 
ATOM     45  C   UNL     1      -2.150  -6.235   9.787  1.00  0.00     0.029 A 
ATOM     46  C   UNL     1      -3.110  -6.001  10.864  1.00  0.00     0.049 A 
ATOM     47  H   UNL     1      -3.721  -4.164  11.633  1.00  0.00     0.167 HD
ATOM     48  C   UNL     1      -4.612  -0.184  13.386  1.00  0.00     0.034 A 
ATOM     49  C   UNL     1      -3.789  -6.946  11.541  1.00  0.00     0.034 A 
ATOM     50  C   UNL     1      -5.480  -1.110  14.057  1.00  0.00     0.049 A 
ATOM     51  C   UNL     1      -4.742  -6.513  12.626  1.00  0.00     0.074 A 
ATOM     52  C   UNL     1      -6.446  -0.851  15.011  1.00  0.00     0.029 A 
ATOM     53  N   UNL     1      -5.470  -2.483  13.856  1.00  0.00    -0.354 N 
ATOM     54  N   UNL     1      -5.040  -5.300  13.030  1.00  0.00    -0.248 NA
ATOM     55  C   UNL     1      -5.476  -7.576  13.326  1.00  0.00     0.031 C 
ATOM     56  C   UNL     1      -6.990  -2.073  15.418  1.00  0.00     0.029 A 
ATOM     57  C   UNL     1      -6.399  -3.089  14.681  1.00  0.00     0.049 A 
ATOM     58  H   UNL     1      -4.886  -2.956  13.220  1.00  0.00     0.167 HD
ATOM     59  C   UNL     1      -6.027  -5.451  13.998  1.00  0.00     0.074 A 
ATOM     60  C   UNL     1      -6.284  -6.873  14.108  1.00  0.00     0.031 C 
ATOM     61  C   UNL     1      -6.663  -4.505  14.734  1.00  0.00     0.034 A 
BRANCH  48  62
ATOM     62  C   UNL     1      -4.665   1.274  13.762  1.00  0.00     0.023 A 
ATOM     63  C   UNL     1      -5.175   2.225  12.854  1.00  0.00     0.012 A 
ATOM     64  C   UNL     1      -4.221   1.701  15.029  1.00  0.00     0.148 A 
ATOM     65  C   UNL     1      -5.202   3.580  13.184  1.00  0.00     0.002 A 
ATOM     66  C   UNL     1      -4.299   3.045  15.370  1.00  0.00     0.091 A 
ATOM     67  F   UNL     1      -3.711   0.788  15.868  1.00  0.00    -0.205 F 
ATOM     68  C   UNL     1      -4.774   3.988  14.444  1.00  0.00     0.022 A 
BRANCH  66  69
ATOM     69  S   UNL     1      -3.847   3.658  16.996  1.00  0.00     0.127 S 
ATOM     70  O   UNL     1      -2.632   4.416  16.700  1.00  0.00    -0.237 OA
ATOM     71  O   UNL     1      -5.007   4.478  17.347  1.00  0.00    -0.237 OA
ATOM     72  O   UNL     1      -3.660   2.481  17.832  1.00  0.00    -0.744 OA
ENDBRANCH  66  69
ENDBRANCH  48  62
BRANCH  49  73
ATOM     73  C   UNL     1      -3.620  -8.385  11.193  1.00  0.00     0.023 A 
ATOM     74  C   UNL     1      -4.689  -9.086  10.604  1.00  0.00     0.012 A 
ATOM     75  C   UNL     1      -2.402  -9.056  11.423  1.00  0.00     0.148 A 
ATOM     76  C   UNL     1      -4.561 -10.437  10.278  1.00  0.00     0.002 A 
ATOM     77  C   UNL     1      -2.263 -10.386  11.046  1.00  0.00     0.091 A 
ATOM     78  F   UNL     1      -1.400  -8.373  11.995  1.00  0.00    -0.205 F 
ATOM     79  C   UNL     1      -3.347 -11.084  10.490  1.00  0.00     0.022 A 
BRANCH  77  80
ATOM     80  S   UNL     1      -0.702 -11.266  11.167  1.00  0.00     0.127 S 
ATOM     81  O   UNL     1      -0.996 -12.257  12.199  1.00  0.00    -0.237 OA
ATOM     82  O   UNL     1      -0.557 -11.807   9.815  1.00  0.00    -0.237 OA
ATOM     83  O   UNL     1       0.291 -10.262  11.523  1.00  0.00    -0.744 OA
ENDBRANCH  77  80
ENDBRANCH  49  73
BRANCH  61  84
ATOM     84  C   UNL     1      -7.738  -4.968  15.682  1.00  0.00     0.023 A 
ATOM     85  C   UNL     1      -7.397  -5.669  16.855  1.00  0.00     0.012 A 
ATOM     86  C   UNL     1      -9.087  -4.640  15.437  1.00  0.00     0.148 A 
ATOM     87  C   UNL     1      -8.388  -6.074  17.749  1.00  0.00     0.002 A 
ATOM     88  C   UNL     1     -10.061  -4.995  16.361  1.00  0.00     0.091 A 
ATOM     89  F   UNL     1      -9.391  -3.985  14.307  1.00  0.00    -0.205 F 
ATOM     90  C   UNL     1      -9.716  -5.726  17.509  1.00  0.00     0.022 A 
BRANCH  88  91
ATOM     91  S   UNL     1     -11.777  -4.497  16.187  1.00  0.00     0.127 S 
ATOM     92  O   UNL     1     -12.424  -5.768  15.864  1.00  0.00    -0.237 OA
ATOM     93  O   UNL     1     -12.084  -3.978  17.520  1.00  0.00    -0.237 OA
ATOM     94  O   UNL     1     -11.802  -3.497  15.129  1.00  0.00    -0.744 OA
ENDBRANCH  88  91
ENDBRANCH  61  84
ENDBRANCH  35  36
ENDBRANCH  28  30
ENDBRANCH  27  28
ENDBRANCH  26  27
ENDBRANCH  25  26
ENDBRANCH  24  25
ENDBRANCH  23  24
ENDBRANCH   1  23
TORSDOF 25
