REMARK SMILES CC[N@@H+](C)CCNC(=O)N1CCC(CC(=O)OCCOCCOCCOC(=O)c2ccc(-c3c4nc(c(-c5cccc(S(=O)(=O)[O-])c5F)c5ccc([nH]5)c(-c5cccc(S(=O)(=O)[O-])c5F)c5nc(c(-c6cccc(S(=O)(=O)[O-])c6F)c6ccc3[nH]6)C=C5)C=C4)cc2)CC1
REMARK SMILES IDX 21 1 20 2 19 3 18 4 17 5 15 6 16 7 14 8 13 9 7 10 8 11 9 13
REMARK SMILES IDX 10 14 11 15 93 16 12 17 92 18 6 19 5 20 3 21 4 22 2 24 1 25
REMARK SMILES IDX 22 26 23 27 24 28 25 29 26 30 27 31 28 32 29 33 30 34 91 35
REMARK SMILES IDX 31 36 90 37 32 38 33 39 34 40 84 41 35 42 89 43 83 44 85 45
REMARK SMILES IDX 36 46 88 47 82 48 81 49 37 51 69 52 49 53 68 54 50 55 53 56
REMARK SMILES IDX 67 57 86 58 51 59 52 60 66 62 87 63 54 64 38 65 39 66 47 67
REMARK SMILES IDX 40 68 42 69 48 70 41 71 43 72 44 73 45 74 46 75 70 76 71 77
REMARK SMILES IDX 79 78 72 79 74 80 80 81 73 82 75 83 76 84 77 85 78 86 55 87
REMARK SMILES IDX 56 88 64 89 57 90 59 91 65 92 58 93 60 94 61 95 62 96 63 97
REMARK H PARENT 7 12 3 23 85 50 53 61
REMARK Flexibility Score: inf
ROOT
ATOM      1  C   UNL     1      11.413  -3.119  -2.323  1.00  0.00     0.188 C 
ENDROOT
BRANCH   1   2
ATOM      2  O   UNL     1      12.107  -2.896  -3.548  1.00  0.00    -0.376 OA
BRANCH   2   3
ATOM      3  C   UNL     1      11.401  -2.188  -4.567  1.00  0.00     0.202 C 
BRANCH   3   4
ATOM      4  C   UNL     1      10.153  -2.886  -5.123  1.00  0.00     0.261 C 
BRANCH   4   5
ATOM      5  O   UNL     1       9.182  -3.203  -4.106  1.00  0.00    -0.463 OA
BRANCH   5   6
ATOM      6  C   UNL     1       8.675  -4.460  -4.154  1.00  0.00     0.306 C 
ATOM      7  O   UNL     1       8.882  -5.260  -5.061  1.00  0.00    -0.252 OA
BRANCH   6   8
ATOM      8  C   UNL     1       7.885  -4.857  -2.922  1.00  0.00     0.126 C 
BRANCH   8   9
ATOM      9  C   UNL     1       7.334  -3.782  -1.970  1.00  0.00     0.003 C 
ATOM     10  N   UNL     1       2.889  -2.941   0.214  1.00  0.00    -0.332 N 
ATOM     11  C   UNL     1       3.658  -2.584  -0.843  1.00  0.00     0.317 C 
ATOM     12  H   UNL     1       2.079  -3.457  -0.001  1.00  0.00     0.165 HD
ATOM     13  O   UNL     1       3.088  -2.308  -1.899  1.00  0.00    -0.249 OA
ATOM     14  N   UNL     1       5.021  -2.537  -0.694  1.00  0.00    -0.325 N 
ATOM     15  C   UNL     1       5.806  -1.794  -1.670  1.00  0.00     0.121 C 
ATOM     16  C   UNL     1       5.785  -3.517   0.074  1.00  0.00     0.121 C 
ATOM     17  C   UNL     1       6.455  -2.739  -2.680  1.00  0.00     0.026 C 
ATOM     18  C   UNL     1       6.511  -4.487  -0.863  1.00  0.00     0.026 C 
BRANCH  10  19
ATOM     19  C   UNL     1       3.105  -2.663   1.624  1.00  0.00     0.179 C 
BRANCH  19  20
ATOM     20  C   UNL     1       2.396  -1.380   2.124  1.00  0.00     0.283 C 
BRANCH  20  21
ATOM     21  N   UNL     1       0.923  -1.306   2.130  1.00  0.00    -0.336 N 
ATOM     22  C   UNL     1       0.311  -2.406   2.871  1.00  0.00     0.332 C 
ATOM     23  H   UNL     1       0.754  -0.431   2.627  1.00  0.00     0.347 HD
BRANCH  21  24
ATOM     24  C   UNL     1       0.264  -1.111   0.836  1.00  0.00     0.258 C 
ATOM     25  C   UNL     1       0.792   0.062   0.017  1.00  0.00     0.071 C 
ENDBRANCH  21  24
ENDBRANCH  20  21
ENDBRANCH  19  20
ENDBRANCH  10  19
ENDBRANCH   8   9
ENDBRANCH   6   8
ENDBRANCH   5   6
ENDBRANCH   4   5
ENDBRANCH   3   4
ENDBRANCH   2   3
ENDBRANCH   1   2
BRANCH   1  26
ATOM     26  C   UNL     1      10.992  -1.859  -1.564  1.00  0.00     0.188 C 
BRANCH  26  27
ATOM     27  O   UNL     1      10.239  -0.919  -2.325  1.00  0.00    -0.376 OA
BRANCH  27  28
ATOM     28  C   UNL     1       9.845   0.273  -1.635  1.00  0.00     0.202 C 
BRANCH  28  29
ATOM     29  C   UNL     1      10.965   1.051  -0.912  1.00  0.00     0.261 C 
BRANCH  29  30
ATOM     30  O   UNL     1      11.595   0.336   0.172  1.00  0.00    -0.460 OA
BRANCH  30  31
ATOM     31  C   UNL     1      10.787  -0.166   1.133  1.00  0.00     0.338 C 
ATOM     32  O   UNL     1       9.619   0.138   1.324  1.00  0.00    -0.246 OA
BRANCH  31  33
ATOM     33  C   UNL     1      11.452  -1.341   1.756  1.00  0.00     0.060 A 
ATOM     34  C   UNL     1      10.650  -2.441   2.090  1.00  0.00     0.016 A 
ATOM     35  C   UNL     1      12.836  -1.406   1.955  1.00  0.00     0.016 A 
ATOM     36  C   UNL     1      11.216  -3.575   2.675  1.00  0.00     0.010 A 
ATOM     37  C   UNL     1      13.402  -2.544   2.546  1.00  0.00     0.010 A 
ATOM     38  C   UNL     1      12.590  -3.617   2.949  1.00  0.00    -0.014 A 
BRANCH  38  39
ATOM     39  C   UNL     1      13.118  -4.705   3.814  1.00  0.00     0.031 A 
ATOM     40  C   UNL     1      13.319  -4.428   5.281  1.00  0.00     0.074 A 
ATOM     41  C   UNL     1      13.364  -5.938   3.332  1.00  0.00     0.049 A 
ATOM     42  N   UNL     1      13.638  -5.254   6.244  1.00  0.00    -0.248 NA
ATOM     43  C   UNL     1      13.132  -3.036   5.721  1.00  0.00     0.031 C 
ATOM     44  C   UNL     1      13.231  -6.346   1.935  1.00  0.00     0.029 A 
ATOM     45  N   UNL     1      13.782  -7.077   3.977  1.00  0.00    -0.354 N 
ATOM     46  C   UNL     1      13.705  -4.483   7.398  1.00  0.00     0.074 A 
ATOM     47  C   UNL     1      13.415  -3.119   7.012  1.00  0.00     0.031 C 
ATOM     48  C   UNL     1      13.565  -7.645   1.828  1.00  0.00     0.029 A 
ATOM     49  C   UNL     1      13.939  -8.160   3.145  1.00  0.00     0.049 A 
ATOM     50  H   UNL     1      13.953  -7.114   4.946  1.00  0.00     0.167 HD
ATOM     51  C   UNL     1      13.962  -4.871   8.670  1.00  0.00     0.034 A 
ATOM     52  C   UNL     1      14.332  -9.422   3.415  1.00  0.00     0.034 A 
ATOM     53  C   UNL     1      14.238  -6.224   9.068  1.00  0.00     0.049 A 
ATOM     54  C   UNL     1      14.622  -9.826   4.840  1.00  0.00     0.074 A 
ATOM     55  C   UNL     1      14.449  -6.719  10.344  1.00  0.00     0.029 A 
ATOM     56  N   UNL     1      14.365  -7.296   8.200  1.00  0.00    -0.354 N 
ATOM     57  N   UNL     1      14.520  -9.120   5.940  1.00  0.00    -0.248 NA
ATOM     58  C   UNL     1      15.039 -11.220   5.062  1.00  0.00     0.031 C 
ATOM     59  C   UNL     1      14.734  -8.085  10.243  1.00  0.00     0.029 A 
ATOM     60  C   UNL     1      14.668  -8.448   8.909  1.00  0.00     0.049 A 
ATOM     61  H   UNL     1      14.256  -7.247   7.223  1.00  0.00     0.167 HD
ATOM     62  C   UNL     1      14.818  -9.993   6.984  1.00  0.00     0.074 A 
ATOM     63  C   UNL     1      15.081 -11.284   6.385  1.00  0.00     0.031 C 
ATOM     64  C   UNL     1      14.878  -9.744   8.316  1.00  0.00     0.034 A 
BRANCH  51  65
ATOM     65  C   UNL     1      13.932  -3.809   9.736  1.00  0.00     0.023 A 
ATOM     66  C   UNL     1      12.698  -3.264  10.146  1.00  0.00     0.012 A 
ATOM     67  C   UNL     1      15.118  -3.384  10.364  1.00  0.00     0.148 A 
ATOM     68  C   UNL     1      12.648  -2.289  11.140  1.00  0.00     0.002 A 
ATOM     69  C   UNL     1      15.056  -2.444  11.386  1.00  0.00     0.091 A 
ATOM     70  F   UNL     1      16.284  -3.893   9.941  1.00  0.00    -0.205 F 
ATOM     71  C   UNL     1      13.824  -1.888  11.767  1.00  0.00     0.022 A 
BRANCH  69  72
ATOM     72  S   UNL     1      16.508  -1.923  12.304  1.00  0.00     0.127 S 
ATOM     73  O   UNL     1      16.718  -0.574  11.782  1.00  0.00    -0.237 OA
ATOM     74  O   UNL     1      16.033  -1.975  13.688  1.00  0.00    -0.237 OA
ATOM     75  O   UNL     1      17.550  -2.889  11.986  1.00  0.00    -0.744 OA
ENDBRANCH  69  72
ENDBRANCH  51  65
BRANCH  52  76
ATOM     76  C   UNL     1      14.417 -10.431   2.320  1.00  0.00     0.023 A 
ATOM     77  C   UNL     1      13.500 -11.500   2.287  1.00  0.00     0.012 A 
ATOM     78  C   UNL     1      15.405 -10.343   1.321  1.00  0.00     0.148 A 
ATOM     79  C   UNL     1      13.586 -12.482   1.299  1.00  0.00     0.002 A 
ATOM     80  C   UNL     1      15.452 -11.295   0.309  1.00  0.00     0.091 A 
ATOM     81  F   UNL     1      16.281  -9.330   1.382  1.00  0.00    -0.205 F 
ATOM     82  C   UNL     1      14.555 -12.374   0.305  1.00  0.00     0.022 A 
BRANCH  80  83
ATOM     83  S   UNL     1      16.590 -11.175  -1.075  1.00  0.00     0.127 S 
ATOM     84  O   UNL     1      17.497 -12.291  -0.814  1.00  0.00    -0.237 OA
ATOM     85  O   UNL     1      15.695 -11.363  -2.217  1.00  0.00    -0.237 OA
ATOM     86  O   UNL     1      17.181  -9.847  -0.984  1.00  0.00    -0.744 OA
ENDBRANCH  80  83
ENDBRANCH  52  76
BRANCH  64  87
ATOM     87  C   UNL     1      15.204 -10.897   9.233  1.00  0.00     0.023 A 
ATOM     88  C   UNL     1      16.502 -11.447   9.243  1.00  0.00     0.012 A 
ATOM     89  C   UNL     1      14.237 -11.408  10.123  1.00  0.00     0.148 A 
ATOM     90  C   UNL     1      16.818 -12.513  10.086  1.00  0.00     0.002 A 
ATOM     91  C   UNL     1      14.573 -12.437  10.996  1.00  0.00     0.091 A 
ATOM     92  F   UNL     1      13.000 -10.890  10.092  1.00  0.00    -0.205 F 
ATOM     93  C   UNL     1      15.858 -13.001  10.968  1.00  0.00     0.022 A 
BRANCH  91  94
ATOM     94  S   UNL     1      13.422 -13.054  12.231  1.00  0.00     0.127 S 
ATOM     95  O   UNL     1      12.944 -14.285  11.606  1.00  0.00    -0.237 OA
ATOM     96  O   UNL     1      14.287 -13.258  13.395  1.00  0.00    -0.237 OA
ATOM     97  O   UNL     1      12.427 -12.004  12.402  1.00  0.00    -0.744 OA
ENDBRANCH  91  94
ENDBRANCH  64  87
ENDBRANCH  38  39
ENDBRANCH  31  33
ENDBRANCH  30  31
ENDBRANCH  29  30
ENDBRANCH  28  29
ENDBRANCH  27  28
ENDBRANCH  26  27
ENDBRANCH   1  26
TORSDOF 25
