REMARK SMILES Cc1ccc(CNC(=O)c2csc(/C=C/C(=O)OCCOCCOCCOC(=O)c3ccc(-c4c5nc(c(-c6cccc(S(=O)(=O)[O-])c6F)c6ccc([nH]6)c(-c6cccc(S(=O)(=O)[O-])c6F)c6nc(c(-c7cccc(S(=O)(=O)[O-])c7F)c7ccc4[nH]7)C=C6)C=C5)cc3)c2)s1
REMARK SMILES IDX 22 1 21 2 20 3 19 4 18 5 16 6 17 7 15 8 14 9 13 10 10 11
REMARK SMILES IDX 11 12 93 13 12 14 8 15 7 16 9 18 6 19 5 20 1 21 2 22 3 23
REMARK SMILES IDX 94 24 4 25 23 26 24 27 25 28 26 29 27 30 28 31 29 32 30 33
REMARK SMILES IDX 31 34 92 35 32 36 91 37 33 38 34 39 35 40 85 41 36 42 90 43
REMARK SMILES IDX 84 44 86 45 37 46 89 47 83 48 82 49 38 51 70 52 50 53 69 54
REMARK SMILES IDX 51 55 54 56 68 57 87 58 52 59 53 60 67 62 88 63 55 64 39 65
REMARK SMILES IDX 40 66 48 67 41 68 43 69 49 70 42 71 44 72 45 73 46 74 47 75
REMARK SMILES IDX 71 76 72 77 80 78 73 79 75 80 81 81 74 82 76 83 77 84 78 85
REMARK SMILES IDX 79 86 56 87 57 88 65 89 58 90 60 91 66 92 59 93 61 94 62 95
REMARK SMILES IDX 63 96 64 97
REMARK H PARENT 7 17 86 50 54 61
REMARK Flexibility Score: inf
ROOT
ATOM      1  C   UNL     1      -7.191   5.334  -6.696  1.00  0.00     0.188 C 
ENDROOT
BRANCH   1   2
ATOM      2  O   UNL     1      -7.716   4.819  -7.900  1.00  0.00    -0.376 OA
BRANCH   2   3
ATOM      3  C   UNL     1      -7.494   3.472  -8.277  1.00  0.00     0.202 C 
BRANCH   3   4
ATOM      4  C   UNL     1      -6.375   2.568  -7.728  1.00  0.00     0.261 C 
BRANCH   4   5
ATOM      5  O   UNL     1      -5.908   2.841  -6.403  1.00  0.00    -0.460 OA
BRANCH   5   6
ATOM      6  C   UNL     1      -4.615   3.242  -6.319  1.00  0.00     0.330 C 
ATOM      7  O   UNL     1      -3.821   3.328  -7.242  1.00  0.00    -0.247 OA
BRANCH   6   8
ATOM      8  C   UNL     1      -4.262   3.695  -4.959  1.00  0.00     0.095 C 
ATOM      9  C   UNL     1      -4.861   3.271  -3.836  1.00  0.00     0.026 C 
BRANCH   9  10
ATOM     10  C   UNL     1      -4.446   3.698  -2.538  1.00  0.00     0.028 A 
ATOM     11  C   UNL     1      -3.816   3.557  -0.269  1.00  0.00     0.051 A 
ATOM     12  C   UNL     1      -3.380   4.824  -0.602  1.00  0.00     0.079 A 
ATOM     13  C   UNL     1      -4.580   2.999  -1.350  1.00  0.00     0.033 A 
ATOM     14  S   UNL     1      -3.710   5.224  -2.228  1.00  0.00    -0.144 S 
BRANCH  11  15
ATOM     15  C   UNL     1      -3.518   2.952   1.025  1.00  0.00     0.252 C 
ATOM     16  N   UNL     1      -3.159   1.627   1.069  1.00  0.00    -0.347 N 
ATOM     17  H   UNL     1      -3.062   1.243   1.970  1.00  0.00     0.164 HD
ATOM     18  O   UNL     1      -3.533   3.598   2.070  1.00  0.00    -0.269 OA
BRANCH  16  19
ATOM     19  C   UNL     1      -2.903   0.718  -0.027  1.00  0.00     0.163 C 
BRANCH  19  20
ATOM     20  C   UNL     1      -1.562   0.075   0.110  1.00  0.00     0.024 A 
ATOM     21  C   UNL     1       2.350  -0.183   0.049  1.00  0.00     0.056 C 
ATOM     22  C   UNL     1       0.871  -0.351   0.099  1.00  0.00     0.002 A 
ATOM     23  C   UNL     1       0.138  -1.518   0.144  1.00  0.00     0.015 A 
ATOM     24  S   UNL     1      -0.137   1.028   0.085  1.00  0.00    -0.144 S 
ATOM     25  C   UNL     1      -1.266  -1.272   0.157  1.00  0.00     0.017 A 
ENDBRANCH  19  20
ENDBRANCH  16  19
ENDBRANCH  11  15
ENDBRANCH   9  10
ENDBRANCH   6   8
ENDBRANCH   5   6
ENDBRANCH   4   5
ENDBRANCH   3   4
ENDBRANCH   2   3
ENDBRANCH   1   2
BRANCH   1  26
ATOM     26  C   UNL     1      -7.798   4.847  -5.367  1.00  0.00     0.188 C 
BRANCH  26  27
ATOM     27  O   UNL     1      -8.634   3.712  -5.372  1.00  0.00    -0.376 OA
BRANCH  27  28
ATOM     28  C   UNL     1      -9.938   3.790  -5.926  1.00  0.00     0.202 C 
BRANCH  28  29
ATOM     29  C   UNL     1     -10.728   5.084  -6.221  1.00  0.00     0.261 C 
BRANCH  29  30
ATOM     30  O   UNL     1     -10.002   6.306  -6.356  1.00  0.00    -0.460 OA
BRANCH  30  31
ATOM     31  C   UNL     1     -10.099   7.160  -5.309  1.00  0.00     0.338 C 
ATOM     32  O   UNL     1     -10.704   6.979  -4.260  1.00  0.00    -0.246 OA
BRANCH  31  33
ATOM     33  C   UNL     1      -9.198   8.301  -5.542  1.00  0.00     0.060 A 
ATOM     34  C   UNL     1      -8.060   8.438  -4.735  1.00  0.00     0.016 A 
ATOM     35  C   UNL     1      -9.492   9.245  -6.525  1.00  0.00     0.016 A 
ATOM     36  C   UNL     1      -7.215   9.534  -4.902  1.00  0.00     0.010 A 
ATOM     37  C   UNL     1      -8.657  10.355  -6.675  1.00  0.00     0.010 A 
ATOM     38  C   UNL     1      -7.531  10.518  -5.846  1.00  0.00    -0.014 A 
BRANCH  38  39
ATOM     39  C   UNL     1      -6.778  11.795  -5.861  1.00  0.00     0.031 A 
ATOM     40  C   UNL     1      -7.383  12.996  -5.188  1.00  0.00     0.074 A 
ATOM     41  C   UNL     1      -5.583  11.889  -6.469  1.00  0.00     0.049 A 
ATOM     42  N   UNL     1      -6.935  14.221  -5.120  1.00  0.00    -0.248 NA
ATOM     43  C   UNL     1      -8.670  12.785  -4.505  1.00  0.00     0.031 C 
ATOM     44  C   UNL     1      -4.887  10.794  -7.142  1.00  0.00     0.029 A 
ATOM     45  N   UNL     1      -4.756  12.972  -6.640  1.00  0.00    -0.354 N 
ATOM     46  C   UNL     1      -7.896  14.936  -4.415  1.00  0.00     0.074 A 
ATOM     47  C   UNL     1      -8.958  14.009  -4.089  1.00  0.00     0.031 C 
ATOM     48  C   UNL     1      -3.749  11.268  -7.679  1.00  0.00     0.029 A 
ATOM     49  C   UNL     1      -3.653  12.702  -7.414  1.00  0.00     0.049 A 
ATOM     50  H   UNL     1      -4.936  13.856  -6.247  1.00  0.00     0.167 HD
ATOM     51  C   UNL     1      -7.890  16.243  -4.060  1.00  0.00     0.034 A 
ATOM     52  C   UNL     1      -2.690  13.525  -7.876  1.00  0.00     0.034 A 
ATOM     53  C   UNL     1      -6.830  17.160  -4.380  1.00  0.00     0.049 A 
ATOM     54  C   UNL     1      -2.729  14.986  -7.505  1.00  0.00     0.074 A 
ATOM     55  C   UNL     1      -6.711  18.493  -4.030  1.00  0.00     0.029 A 
ATOM     56  N   UNL     1      -5.714  16.846  -5.141  1.00  0.00    -0.354 N 
ATOM     57  N   UNL     1      -3.586  15.626  -6.746  1.00  0.00    -0.248 NA
ATOM     58  C   UNL     1      -1.648  15.834  -8.031  1.00  0.00     0.031 C 
ATOM     59  C   UNL     1      -5.543  18.995  -4.613  1.00  0.00     0.029 A 
ATOM     60  C   UNL     1      -4.911  17.964  -5.289  1.00  0.00     0.049 A 
ATOM     61  H   UNL     1      -5.522  15.958  -5.521  1.00  0.00     0.167 HD
ATOM     62  C   UNL     1      -3.128  16.938  -6.671  1.00  0.00     0.074 A 
ATOM     63  C   UNL     1      -1.907  16.997  -7.448  1.00  0.00     0.031 C 
ATOM     64  C   UNL     1      -3.672  18.000  -6.026  1.00  0.00     0.034 A 
BRANCH  51  65
ATOM     65  C   UNL     1      -9.070  16.754  -3.275  1.00  0.00     0.023 A 
ATOM     66  C   UNL     1      -9.251  16.348  -1.936  1.00  0.00     0.012 A 
ATOM     67  C   UNL     1      -9.980  17.662  -3.850  1.00  0.00     0.148 A 
ATOM     68  C   UNL     1     -10.341  16.805  -1.197  1.00  0.00     0.002 A 
ATOM     69  C   UNL     1     -11.037  18.151  -3.091  1.00  0.00     0.091 A 
ATOM     70  F   UNL     1      -9.805  18.019  -5.130  1.00  0.00    -0.205 F 
ATOM     71  C   UNL     1     -11.227  17.712  -1.770  1.00  0.00     0.022 A 
BRANCH  69  72
ATOM     72  S   UNL     1     -12.186  19.384  -3.712  1.00  0.00     0.127 S 
ATOM     73  O   UNL     1     -13.410  18.599  -3.859  1.00  0.00    -0.237 OA
ATOM     74  O   UNL     1     -12.213  20.356  -2.619  1.00  0.00    -0.237 OA
ATOM     75  O   UNL     1     -11.610  19.881  -4.953  1.00  0.00    -0.744 OA
ENDBRANCH  69  72
ENDBRANCH  51  65
BRANCH  52  76
ATOM     76  C   UNL     1      -1.586  12.984  -8.719  1.00  0.00     0.023 A 
ATOM     77  C   UNL     1      -0.277  12.941  -8.202  1.00  0.00     0.012 A 
ATOM     78  C   UNL     1      -1.827  12.507 -10.021  1.00  0.00     0.148 A 
ATOM     79  C   UNL     1       0.778  12.461  -8.979  1.00  0.00     0.002 A 
ATOM     80  C   UNL     1      -0.781  11.979 -10.770  1.00  0.00     0.091 A 
ATOM     81  F   UNL     1      -3.078  12.570 -10.499  1.00  0.00    -0.205 F 
ATOM     82  C   UNL     1       0.525  11.972 -10.257  1.00  0.00     0.022 A 
BRANCH  80  83
ATOM     83  S   UNL     1      -1.028  11.222 -12.379  1.00  0.00     0.127 S 
ATOM     84  O   UNL     1      -0.314  12.145 -13.258  1.00  0.00    -0.237 OA
ATOM     85  O   UNL     1      -0.384   9.920 -12.199  1.00  0.00    -0.237 OA
ATOM     86  O   UNL     1      -2.470  11.160 -12.572  1.00  0.00    -0.744 OA
ENDBRANCH  80  83
ENDBRANCH  52  76
BRANCH  64  87
ATOM     87  C   UNL     1      -2.935  19.315  -6.087  1.00  0.00     0.023 A 
ATOM     88  C   UNL     1      -2.898  20.049  -7.289  1.00  0.00     0.012 A 
ATOM     89  C   UNL     1      -2.342  19.858  -4.929  1.00  0.00     0.148 A 
ATOM     90  C   UNL     1      -2.251  21.284  -7.347  1.00  0.00     0.002 A 
ATOM     91  C   UNL     1      -1.746  21.112  -4.981  1.00  0.00     0.091 A 
ATOM     92  F   UNL     1      -2.374  19.139  -3.797  1.00  0.00    -0.205 F 
ATOM     93  C   UNL     1      -1.687  21.820  -6.192  1.00  0.00     0.022 A 
BRANCH  91  94
ATOM     94  S   UNL     1      -1.081  21.927  -3.524  1.00  0.00     0.127 S 
ATOM     95  O   UNL     1       0.356  21.881  -3.787  1.00  0.00    -0.237 OA
ATOM     96  O   UNL     1      -1.675  23.261  -3.618  1.00  0.00    -0.237 OA
ATOM     97  O   UNL     1      -1.531  21.143  -2.382  1.00  0.00    -0.744 OA
ENDBRANCH  91  94
ENDBRANCH  64  87
ENDBRANCH  38  39
ENDBRANCH  31  33
ENDBRANCH  30  31
ENDBRANCH  29  30
ENDBRANCH  28  29
ENDBRANCH  27  28
ENDBRANCH  26  27
ENDBRANCH   1  26
TORSDOF 24
