REMARK SMILES Cc1cccc(-c2c(C(=O)OCCOCCOCCOC(=O)c3ccc(-c4c5nc(c(-c6cccc(S(=O)(=O)[O-])c6F)c6ccc([nH]6)c(-c6cccc(S(=O)(=O)[O-])c6F)c6nc(c(-c7cccc(S(=O)(=O)[O-])c7F)c7ccc4[nH]7)C=C6)C=C5)cc3)nnn2Cc2cc(F)cc(F)c2)c1
REMARK SMILES IDX 16 1 15 2 14 3 13 4 12 5 11 6 9 7 10 8 8 9 7 10 88 11 86 12
REMARK SMILES IDX 87 13 6 14 1 15 2 16 3 17 98 18 4 19 5 20 89 21 90 22 91 23
REMARK SMILES IDX 97 24 92 25 95 26 93 27 94 28 96 29 17 30 18 31 19 32 20 33
REMARK SMILES IDX 21 34 22 35 23 36 24 37 85 38 25 39 84 40 26 41 27 42 28 43
REMARK SMILES IDX 78 44 29 45 83 46 77 47 79 48 30 49 82 50 76 51 75 52 31 54
REMARK SMILES IDX 63 55 43 56 62 57 44 58 47 59 61 60 80 61 45 62 46 63 60 65
REMARK SMILES IDX 81 66 48 67 32 68 33 69 41 70 34 71 36 72 42 73 35 74 37 75
REMARK SMILES IDX 38 76 39 77 40 78 64 79 65 80 73 81 66 82 68 83 74 84 67 85
REMARK SMILES IDX 69 86 70 87 71 88 72 89 49 90 50 91 58 92 51 93 53 94 59 95
REMARK SMILES IDX 52 96 54 97 55 98 56 99 57 100
REMARK H PARENT 79 53 47 64
REMARK Flexibility Score: inf
ROOT
ATOM      1  C   UNL     1       0.291   2.099   5.756  1.00  0.00     0.188 C 
ENDROOT
BRANCH   1   2
ATOM      2  C   UNL     1      -1.215   2.190   5.594  1.00  0.00     0.188 C 
BRANCH   2   3
ATOM      3  O   UNL     1      -2.076   1.188   6.012  1.00  0.00    -0.376 OA
BRANCH   3   4
ATOM      4  C   UNL     1      -2.196   0.200   5.019  1.00  0.00     0.202 C 
BRANCH   4   5
ATOM      5  C   UNL     1      -1.514   0.375   3.541  1.00  0.00     0.261 C 
BRANCH   5   6
ATOM      6  O   UNL     1      -1.647   1.612   2.227  1.00  0.00    -0.458 OA
BRANCH   6   7
ATOM      7  C   UNL     1      -2.670   2.506   1.212  1.00  0.00     0.361 C 
ATOM      8  O   UNL     1      -3.905   2.449   1.134  1.00  0.00    -0.244 OA
BRANCH   7   9
ATOM      9  C   UNL     1      -2.119   3.321   0.198  1.00  0.00     0.198 A 
ATOM     10  C   UNL     1      -1.861   2.661  -0.966  1.00  0.00     0.104 A 
ATOM     11  N   UNL     1      -1.760   3.682  -1.856  1.00  0.00    -0.239 N 
ATOM     12  N   UNL     1      -2.460   4.620  -0.060  1.00  0.00    -0.122 NA
ATOM     13  N   UNL     1      -2.167   4.853  -1.329  1.00  0.00    -0.066 NA
BRANCH  10  14
ATOM     14  C   UNL     1      -1.666   1.200  -0.984  1.00  0.00     0.003 A 
ATOM     15  C   UNL     1       2.180  -0.430   0.601  1.00  0.00     0.044 C 
ATOM     16  C   UNL     1       0.686  -0.378   0.483  1.00  0.00    -0.050 A 
ATOM     17  C   UNL     1      -0.422  -1.516   1.366  1.00  0.00     0.003 A 
ATOM     18  C   UNL     1       0.091   0.915  -0.641  1.00  0.00     0.013 A 
ATOM     19  C   UNL     1      -2.270  -1.325   1.227  1.00  0.00     0.001 A 
ATOM     20  C   UNL     1      -2.966   0.156  -0.120  1.00  0.00     0.010 A 
ENDBRANCH  10  14
BRANCH  11  21
ATOM     21  C   UNL     1      -1.198   3.681  -3.179  1.00  0.00     0.182 C 
BRANCH  21  22
ATOM     22  C   UNL     1      -1.599   2.461  -3.952  1.00  0.00    -0.021 A 
ATOM     23  C   UNL     1      -0.668   1.904  -4.828  1.00  0.00     0.045 A 
ATOM     24  C   UNL     1      -2.825   1.800  -3.745  1.00  0.00     0.045 A 
ATOM     25  C   UNL     1      -0.917   0.660  -5.391  1.00  0.00     0.126 A 
ATOM     26  C   UNL     1      -3.014   0.524  -4.255  1.00  0.00     0.126 A 
ATOM     27  F   UNL     1      -0.008   0.142  -6.226  1.00  0.00    -0.207 F 
ATOM     28  C   UNL     1      -2.064  -0.057  -5.079  1.00  0.00     0.078 A 
ATOM     29  F   UNL     1      -4.103  -0.165  -3.897  1.00  0.00    -0.207 F 
ENDBRANCH  21  22
ENDBRANCH  11  21
ENDBRANCH   7   9
ENDBRANCH   6   7
ENDBRANCH   5   6
ENDBRANCH   4   5
ENDBRANCH   3   4
ENDBRANCH   2   3
ENDBRANCH   1   2
BRANCH   1  30
ATOM     30  O   UNL     1       0.682   1.565   6.986  1.00  0.00    -0.376 OA
BRANCH  30  31
ATOM     31  C   UNL     1      -0.245   1.929   7.990  1.00  0.00     0.202 C 
BRANCH  31  32
ATOM     32  C   UNL     1      -0.769   3.433   8.060  1.00  0.00     0.261 C 
BRANCH  32  33
ATOM     33  O   UNL     1      -0.332   4.562   7.096  1.00  0.00    -0.460 OA
BRANCH  33  34
ATOM     34  C   UNL     1      -0.713   5.491   6.131  1.00  0.00     0.338 C 
ATOM     35  O   UNL     1      -0.329   6.655   6.246  1.00  0.00    -0.246 OA
BRANCH  34  36
ATOM     36  C   UNL     1      -1.246   5.144   4.769  1.00  0.00     0.060 A 
ATOM     37  C   UNL     1      -2.530   5.412   4.295  1.00  0.00     0.016 A 
ATOM     38  C   UNL     1      -0.496   4.518   3.841  1.00  0.00     0.016 A 
ATOM     39  C   UNL     1      -3.318   4.371   3.687  1.00  0.00     0.010 A 
ATOM     40  C   UNL     1      -1.243   3.567   3.155  1.00  0.00     0.010 A 
ATOM     41  C   UNL     1      -2.725   3.176   3.432  1.00  0.00    -0.014 A 
BRANCH  41  42
ATOM     42  C   UNL     1      -3.644   1.586   3.141  1.00  0.00     0.031 A 
ATOM     43  C   UNL     1      -3.248   0.271   1.801  1.00  0.00     0.074 A 
ATOM     44  C   UNL     1      -4.711   1.362   3.934  1.00  0.00     0.049 A 
ATOM     45  N   UNL     1      -4.242  -0.745   1.204  1.00  0.00    -0.248 NA
ATOM     46  C   UNL     1      -1.456   0.144   0.762  1.00  0.00     0.031 C 
ATOM     47  C   UNL     1      -5.501   0.142   4.101  1.00  0.00     0.029 A 
ATOM     48  N   UNL     1      -5.281   2.226   4.838  1.00  0.00    -0.354 N 
ATOM     49  C   UNL     1      -3.602  -1.764  -0.166  1.00  0.00     0.074 A 
ATOM     50  C   UNL     1      -1.797  -1.171  -0.520  1.00  0.00     0.031 C 
ATOM     51  C   UNL     1      -6.547   0.406   4.914  1.00  0.00     0.029 A 
ATOM     52  C   UNL     1      -6.601   1.848   5.079  1.00  0.00     0.049 A 
ATOM     53  H   UNL     1      -4.827   2.994   5.253  1.00  0.00     0.167 HD
ATOM     54  C   UNL     1      -4.206  -2.981  -0.293  1.00  0.00     0.034 A 
ATOM     55  C   UNL     1      -7.577   2.646   4.534  1.00  0.00     0.034 A 
ATOM     56  C   UNL     1      -5.467  -2.877   0.478  1.00  0.00     0.049 A 
ATOM     57  C   UNL     1      -8.189   1.985   3.266  1.00  0.00     0.074 A 
ATOM     58  C   UNL     1      -5.892  -3.291   1.734  1.00  0.00     0.029 A 
ATOM     59  N   UNL     1      -6.319  -1.812   0.165  1.00  0.00    -0.354 N 
ATOM     60  N   UNL     1      -7.841   0.818   2.763  1.00  0.00    -0.248 NA
ATOM     61  C   UNL     1      -9.233   2.617   2.468  1.00  0.00     0.031 C 
ATOM     62  C   UNL     1      -6.993  -2.448   2.146  1.00  0.00     0.029 A 
ATOM     63  C   UNL     1      -7.295  -1.562   1.125  1.00  0.00     0.049 A 
ATOM     64  H   UNL     1      -6.235  -1.285  -0.662  1.00  0.00     0.167 HD
ATOM     65  C   UNL     1      -8.496   0.568   1.584  1.00  0.00     0.074 A 
ATOM     66  C   UNL     1      -9.332   1.762   1.435  1.00  0.00     0.031 C 
ATOM     67  C   UNL     1      -8.337  -0.567   0.807  1.00  0.00     0.034 A 
BRANCH  54  68
ATOM     68  C   UNL     1      -3.493  -4.253  -0.767  1.00  0.00     0.023 A 
ATOM     69  C   UNL     1      -4.139  -5.484  -0.557  1.00  0.00     0.012 A 
ATOM     70  C   UNL     1      -2.203  -4.360  -1.364  1.00  0.00     0.148 A 
ATOM     71  C   UNL     1      -3.532  -6.720  -0.865  1.00  0.00     0.002 A 
ATOM     72  C   UNL     1      -1.570  -5.583  -1.626  1.00  0.00     0.091 A 
ATOM     73  F   UNL     1      -1.572  -3.276  -1.786  1.00  0.00    -0.205 F 
ATOM     74  C   UNL     1      -2.240  -6.774  -1.379  1.00  0.00     0.022 A 
BRANCH  72  75
ATOM     75  S   UNL     1       0.124  -5.692  -2.266  1.00  0.00     0.127 S 
ATOM     76  O   UNL     1       0.759  -6.602  -1.309  1.00  0.00    -0.237 OA
ATOM     77  O   UNL     1      -0.077  -6.259  -3.598  1.00  0.00    -0.237 OA
ATOM     78  O   UNL     1       0.668  -4.339  -2.242  1.00  0.00    -0.744 OA
ENDBRANCH  72  75
ENDBRANCH  54  68
BRANCH  55  79
ATOM     79  C   UNL     1      -7.223   4.120   4.734  1.00  0.00     0.023 A 
ATOM     80  C   UNL     1      -6.702   4.490   6.015  1.00  0.00     0.012 A 
ATOM     81  C   UNL     1      -6.972   4.989   3.664  1.00  0.00     0.148 A 
ATOM     82  C   UNL     1      -5.736   5.494   6.144  1.00  0.00     0.002 A 
ATOM     83  C   UNL     1      -6.078   6.054   3.819  1.00  0.00     0.091 A 
ATOM     84  F   UNL     1      -7.545   4.755   2.479  1.00  0.00    -0.205 F 
ATOM     85  C   UNL     1      -5.413   6.270   5.038  1.00  0.00     0.022 A 
BRANCH  83  86
ATOM     86  S   UNL     1      -5.582   6.992   2.353  1.00  0.00     0.127 S 
ATOM     87  O   UNL     1      -4.334   7.634   2.768  1.00  0.00    -0.237 OA
ATOM     88  O   UNL     1      -5.420   5.972   1.329  1.00  0.00    -0.237 OA
ATOM     89  O   UNL     1      -6.708   7.905   2.196  1.00  0.00    -0.744 OA
ENDBRANCH  83  86
ENDBRANCH  55  79
BRANCH  67  90
ATOM     90  C   UNL     1      -9.212  -0.847  -0.425  1.00  0.00     0.023 A 
ATOM     91  C   UNL     1     -10.499  -0.300  -0.542  1.00  0.00     0.012 A 
ATOM     92  C   UNL     1      -8.849  -1.756  -1.459  1.00  0.00     0.148 A 
ATOM     93  C   UNL     1     -11.269  -0.449  -1.701  1.00  0.00     0.002 A 
ATOM     94  C   UNL     1      -9.616  -1.929  -2.600  1.00  0.00     0.091 A 
ATOM     95  F   UNL     1      -7.794  -2.556  -1.336  1.00  0.00    -0.205 F 
ATOM     96  C   UNL     1     -10.810  -1.236  -2.748  1.00  0.00     0.022 A 
BRANCH  94  97
ATOM     97  S   UNL     1      -9.144  -3.097  -3.886  1.00  0.00     0.127 S 
ATOM     98  O   UNL     1     -10.231  -4.072  -3.802  1.00  0.00    -0.237 OA
ATOM     99  O   UNL     1      -9.168  -2.251  -5.079  1.00  0.00    -0.237 OA
ATOM    100  O   UNL     1      -7.829  -3.611  -3.531  1.00  0.00    -0.744 OA
ENDBRANCH  94  97
ENDBRANCH  67  90
ENDBRANCH  41  42
ENDBRANCH  34  36
ENDBRANCH  33  34
ENDBRANCH  32  33
ENDBRANCH  31  32
ENDBRANCH  30  31
ENDBRANCH   1  30
TORSDOF 23
