REMARK SMILES CS(=O)(=O)Nc1ccc(-c2cc(Cl)cc3c2O[C@H](C(F)(F)F)C(C(=O)OCCOCCOCCOC(=O)c2ccc(-c4c5nc(c(-c6cccc(S(=O)(=O)[O-])c6F)c6ccc([nH]6)c(-c6cccc(S(=O)(=O)[O-])c6F)c6nc(c(-c7cccc(S(=O)(=O)[O-])c7F)c7ccc4[nH]7)C=C6)C=C5)cc2)=C3)cc1
REMARK SMILES IDX 30 1 29 2 28 3 27 4 26 5 24 6 25 7 23 8 10 9 11 10 16 11
REMARK SMILES IDX 12 12 15 13 17 14 13 15 14 16 101 17 18 18 9 19 6 20 7 21
REMARK SMILES IDX 103 22 8 23 102 24 5 25 2 27 1 28 3 29 4 30 19 31 20 32
REMARK SMILES IDX 21 33 22 34 31 35 32 36 33 37 34 38 35 39 36 40 37 41 38 42
REMARK SMILES IDX 39 43 100 44 40 45 99 46 41 47 42 48 43 49 93 50 44 51 98 52
REMARK SMILES IDX 92 53 94 54 45 55 97 56 91 57 90 58 46 60 78 61 58 62 77 63
REMARK SMILES IDX 59 64 62 65 76 66 95 67 60 68 61 69 75 71 96 72 63 73 47 74
REMARK SMILES IDX 48 75 56 76 49 77 51 78 57 79 50 80 52 81 53 82 54 83 55 84
REMARK SMILES IDX 79 85 80 86 88 87 81 88 83 89 89 90 82 91 84 92 85 93 86 94
REMARK SMILES IDX 87 95 64 96 65 97 73 98 66 99 68 100 74 101 67 102 69 103
REMARK SMILES IDX 70 104 71 105 72 106
REMARK H PARENT 5 26 94 59 62 70
REMARK Flexibility Score: inf
ROOT
ATOM      1  C   UNL     1       6.895   8.838  -3.915  1.00  0.00     0.188 C 
ENDROOT
BRANCH   1   2
ATOM      2  O   UNL     1       6.797  10.159  -3.412  1.00  0.00    -0.376 OA
BRANCH   2   3
ATOM      3  C   UNL     1       7.393  10.394  -2.140  1.00  0.00     0.202 C 
BRANCH   3   4
ATOM      4  C   UNL     1       8.883  10.040  -2.051  1.00  0.00     0.261 C 
BRANCH   4   5
ATOM      5  O   UNL     1       9.086   8.604  -2.063  1.00  0.00    -0.460 OA
BRANCH   5   6
ATOM      6  C   UNL     1       9.098   8.015  -0.848  1.00  0.00     0.338 C 
ATOM      7  O   UNL     1       9.106   8.619   0.216  1.00  0.00    -0.246 OA
BRANCH   6   8
ATOM      8  C   UNL     1       8.973   6.535  -0.934  1.00  0.00     0.087 C 
ATOM      9  C   UNL     1       5.663   4.449  -2.269  1.00  0.00     0.026 A 
ATOM     10  C   UNL     1       4.588   5.355  -2.110  1.00  0.00     0.033 A 
ATOM     11  C   UNL     1       6.872   4.870  -1.707  1.00  0.00     0.135 A 
ATOM     12  C   UNL     1       4.652   6.476  -1.282  1.00  0.00     0.042 A 
ATOM     13  C   UNL     1       6.859   5.850  -0.693  1.00  0.00     0.019 A 
ATOM     14  O   UNL     1       8.128   4.527  -2.200  1.00  0.00    -0.475 OA
ATOM     15  Cl  UNL     1       3.341   7.576  -1.182  1.00  0.00    -0.084 Cl
ATOM     16  C   UNL     1       5.764   6.675  -0.493  1.00  0.00     0.032 A 
ATOM     17  C   UNL     1       8.129   6.104   0.018  1.00  0.00     0.027 C 
ATOM     18  C   UNL     1       9.008   5.750  -2.245  1.00  0.00     0.316 C 
BRANCH   9  19
ATOM     19  C   UNL     1       5.234   3.053  -2.595  1.00  0.00    -0.014 A 
ATOM     20  C   UNL     1       3.294   0.948  -2.532  1.00  0.00     0.048 A 
ATOM     21  C   UNL     1       3.416   1.774  -3.647  1.00  0.00     0.027 A 
ATOM     22  C   UNL     1       4.239   1.080  -1.516  1.00  0.00     0.027 A 
ATOM     23  C   UNL     1       4.392   2.787  -3.689  1.00  0.00     0.011 A 
ATOM     24  C   UNL     1       5.202   2.110  -1.551  1.00  0.00     0.011 A 
BRANCH  20  25
ATOM     25  N   UNL     1       2.059   0.245  -2.362  1.00  0.00    -0.284 N 
ATOM     26  H   UNL     1       1.244   0.659  -2.725  1.00  0.00     0.180 HD
BRANCH  25  27
ATOM     27  S   UNL     1       1.905  -1.226  -1.591  1.00  0.00     0.229 S 
ATOM     28  C   UNL     1       1.991  -0.823   0.145  1.00  0.00     0.183 C 
ATOM     29  O   UNL     1       3.030  -2.069  -1.924  1.00  0.00    -0.207 OA
ATOM     30  O   UNL     1       0.540  -1.644  -1.838  1.00  0.00    -0.207 OA
ENDBRANCH  25  27
ENDBRANCH  20  25
ENDBRANCH   9  19
BRANCH  18  31
ATOM     31  C   UNL     1      10.461   5.400  -2.578  1.00  0.00     0.430 C 
ATOM     32  F   UNL     1      11.024   4.601  -1.643  1.00  0.00    -0.167 F 
ATOM     33  F   UNL     1      10.573   4.782  -3.775  1.00  0.00    -0.167 F 
ATOM     34  F   UNL     1      11.223   6.523  -2.649  1.00  0.00    -0.167 F 
ENDBRANCH  18  31
ENDBRANCH   6   8
ENDBRANCH   5   6
ENDBRANCH   4   5
ENDBRANCH   3   4
ENDBRANCH   2   3
ENDBRANCH   1   2
BRANCH   1  35
ATOM     35  C   UNL     1       8.019   8.627  -4.955  1.00  0.00     0.188 C 
BRANCH  35  36
ATOM     36  O   UNL     1       8.790   9.729  -5.416  1.00  0.00    -0.376 OA
BRANCH  36  37
ATOM     37  C   UNL     1       8.132  10.935  -5.782  1.00  0.00     0.202 C 
BRANCH  37  38
ATOM     38  C   UNL     1       7.027  10.884  -6.844  1.00  0.00     0.261 C 
BRANCH  38  39
ATOM     39  O   UNL     1       5.927  10.010  -6.532  1.00  0.00    -0.460 OA
BRANCH  39  40
ATOM     40  C   UNL     1       5.776   8.950  -7.363  1.00  0.00     0.338 C 
ATOM     41  O   UNL     1       6.477   8.664  -8.320  1.00  0.00    -0.246 OA
BRANCH  40  42
ATOM     42  C   UNL     1       4.725   8.039  -6.862  1.00  0.00     0.060 A 
ATOM     43  C   UNL     1       5.089   6.717  -6.589  1.00  0.00     0.016 A 
ATOM     44  C   UNL     1       3.389   8.431  -6.762  1.00  0.00     0.016 A 
ATOM     45  C   UNL     1       4.112   5.782  -6.247  1.00  0.00     0.010 A 
ATOM     46  C   UNL     1       2.408   7.484  -6.419  1.00  0.00     0.010 A 
ATOM     47  C   UNL     1       2.758   6.146  -6.172  1.00  0.00    -0.014 A 
BRANCH  47  48
ATOM     48  C   UNL     1       1.721   5.087  -5.999  1.00  0.00     0.031 A 
ATOM     49  C   UNL     1       1.303   4.287  -7.196  1.00  0.00     0.074 A 
ATOM     50  C   UNL     1       1.154   4.825  -4.805  1.00  0.00     0.049 A 
ATOM     51  N   UNL     1       0.505   3.255  -7.260  1.00  0.00    -0.248 NA
ATOM     52  C   UNL     1       1.833   4.729  -8.495  1.00  0.00     0.031 C 
ATOM     53  C   UNL     1       1.430   5.572  -3.591  1.00  0.00     0.029 A 
ATOM     54  N   UNL     1       0.267   3.853  -4.396  1.00  0.00    -0.354 N 
ATOM     55  C   UNL     1       0.355   2.985  -8.613  1.00  0.00     0.074 A 
ATOM     56  C   UNL     1       1.206   3.912  -9.329  1.00  0.00     0.031 C 
ATOM     57  C   UNL     1       0.839   4.964  -2.549  1.00  0.00     0.029 A 
ATOM     58  C   UNL     1       0.049   3.836  -3.030  1.00  0.00     0.049 A 
ATOM     59  H   UNL     1      -0.171   3.229  -5.019  1.00  0.00     0.167 HD
ATOM     60  C   UNL     1      -0.454   2.080  -9.210  1.00  0.00     0.034 A 
ATOM     61  C   UNL     1      -0.694   3.001  -2.265  1.00  0.00     0.034 A 
ATOM     62  C   UNL     1      -1.299   1.157  -8.504  1.00  0.00     0.049 A 
ATOM     63  C   UNL     1      -1.482   1.912  -2.969  1.00  0.00     0.074 A 
ATOM     64  C   UNL     1      -2.148   0.200  -9.029  1.00  0.00     0.029 A 
ATOM     65  N   UNL     1      -1.419   1.085  -7.125  1.00  0.00    -0.354 N 
ATOM     66  N   UNL     1      -1.423   1.521  -4.221  1.00  0.00    -0.248 NA
ATOM     67  C   UNL     1      -2.429   1.137  -2.150  1.00  0.00     0.031 C 
ATOM     68  C   UNL     1      -2.803  -0.432  -7.968  1.00  0.00     0.029 A 
ATOM     69  C   UNL     1      -2.338   0.110  -6.780  1.00  0.00     0.049 A 
ATOM     70  H   UNL     1      -0.922   1.645  -6.486  1.00  0.00     0.167 HD
ATOM     71  C   UNL     1      -2.310   0.449  -4.328  1.00  0.00     0.074 A 
ATOM     72  C   UNL     1      -2.812   0.192  -2.996  1.00  0.00     0.031 C 
ATOM     73  C   UNL     1      -2.730  -0.219  -5.433  1.00  0.00     0.034 A 
BRANCH  60  74
ATOM     74  C   UNL     1      -0.504   2.085 -10.712  1.00  0.00     0.023 A 
ATOM     75  C   UNL     1       0.562   1.548 -11.460  1.00  0.00     0.012 A 
ATOM     76  C   UNL     1      -1.632   2.602 -11.379  1.00  0.00     0.148 A 
ATOM     77  C   UNL     1       0.517   1.553 -12.853  1.00  0.00     0.002 A 
ATOM     78  C   UNL     1      -1.688   2.563 -12.766  1.00  0.00     0.091 A 
ATOM     79  F   UNL     1      -2.619   3.136 -10.646  1.00  0.00    -0.205 F 
ATOM     80  C   UNL     1      -0.610   2.049 -13.505  1.00  0.00     0.022 A 
BRANCH  78  81
ATOM     81  S   UNL     1      -3.126   3.113 -13.690  1.00  0.00     0.127 S 
ATOM     82  O   UNL     1      -2.619   4.326 -14.330  1.00  0.00    -0.237 OA
ATOM     83  O   UNL     1      -3.352   1.990 -14.601  1.00  0.00    -0.237 OA
ATOM     84  O   UNL     1      -4.181   3.321 -12.708  1.00  0.00    -0.744 OA
ENDBRANCH  78  81
ENDBRANCH  60  74
BRANCH  61  85
ATOM     85  C   UNL     1      -0.667   3.055  -0.758  1.00  0.00     0.023 A 
ATOM     86  C   UNL     1      -0.363   1.873  -0.049  1.00  0.00     0.012 A 
ATOM     87  C   UNL     1      -0.924   4.216  -0.003  1.00  0.00     0.148 A 
ATOM     88  C   UNL     1      -0.324   1.832   1.347  1.00  0.00     0.002 A 
ATOM     89  C   UNL     1      -0.793   4.195   1.386  1.00  0.00     0.091 A 
ATOM     90  F   UNL     1      -1.303   5.328  -0.648  1.00  0.00    -0.205 F 
ATOM     91  C   UNL     1      -0.512   3.002   2.065  1.00  0.00     0.022 A 
BRANCH  89  92
ATOM     92  S   UNL     1      -0.874   5.682   2.392  1.00  0.00     0.127 S 
ATOM     93  O   UNL     1      -2.098   5.461   3.157  1.00  0.00    -0.237 OA
ATOM     94  O   UNL     1       0.364   5.583   3.168  1.00  0.00    -0.237 OA
ATOM     95  O   UNL     1      -0.906   6.791   1.449  1.00  0.00    -0.744 OA
ENDBRANCH  89  92
ENDBRANCH  61  85
BRANCH  73  96
ATOM     96  C   UNL     1      -3.751  -1.322  -5.257  1.00  0.00     0.023 A 
ATOM     97  C   UNL     1      -5.064  -1.001  -4.855  1.00  0.00     0.012 A 
ATOM     98  C   UNL     1      -3.444  -2.659  -5.585  1.00  0.00     0.148 A 
ATOM     99  C   UNL     1      -6.038  -1.992  -4.733  1.00  0.00     0.002 A 
ATOM    100  C   UNL     1      -4.436  -3.633  -5.519  1.00  0.00     0.091 A 
ATOM    101  F   UNL     1      -2.193  -2.953  -5.969  1.00  0.00    -0.205 F 
ATOM    102  C   UNL     1      -5.727  -3.304  -5.076  1.00  0.00     0.022 A 
BRANCH 100 103
ATOM    103  S   UNL     1      -4.173  -5.325  -6.066  1.00  0.00     0.127 S 
ATOM    104  O   UNL     1      -4.164  -6.052  -4.797  1.00  0.00    -0.237 OA
ATOM    105  O   UNL     1      -5.353  -5.569  -6.897  1.00  0.00    -0.237 OA
ATOM    106  O   UNL     1      -2.912  -5.321  -6.796  1.00  0.00    -0.744 OA
ENDBRANCH 100 103
ENDBRANCH  73  96
ENDBRANCH  47  48
ENDBRANCH  40  42
ENDBRANCH  39  40
ENDBRANCH  38  39
ENDBRANCH  37  38
ENDBRANCH  36  37
ENDBRANCH  35  36
ENDBRANCH   1  35
TORSDOF 24
