REMARK SMILES COC(=O)c1c(NC(=O)[C@@H]2C[C@@H]2C(=O)OCCOCCOCCOC(=O)c2ccc(-c3c4nc(c(-c5cccc(S(=O)(=O)[O-])c5F)c5ccc([nH]5)c(-c5cccc(S(=O)(=O)[O-])c5F)c5nc(c(-c6cccc(S(=O)(=O)[O-])c6F)c6ccc3[nH]6)C=C5)C=C4)cc2)sc2c1CC[N@@H+](Cc1ccccc1)C2
REMARK SMILES IDX 19 1 18 2 17 3 16 4 15 5 13 6 14 7 12 8 10 9 11 10 8 11 7 12
REMARK SMILES IDX 9 14 6 15 5 16 92 17 90 18 91 19 93 20 103 21 94 22 95 23
REMARK SMILES IDX 3 25 4 26 2 27 1 28 96 29 97 30 98 31 102 32 99 33 101 34
REMARK SMILES IDX 100 35 20 36 21 37 22 38 23 39 24 40 25 41 26 42 27 43 28 44
REMARK SMILES IDX 89 45 29 46 88 47 30 48 31 49 32 50 82 51 33 52 87 53 81 54
REMARK SMILES IDX 83 55 34 56 86 57 80 58 79 59 35 61 67 62 47 63 66 64 48 65
REMARK SMILES IDX 51 66 65 67 84 68 49 69 50 70 64 72 85 73 52 74 36 75 37 76
REMARK SMILES IDX 45 77 38 78 40 79 46 80 39 81 41 82 42 83 43 84 44 85 68 86
REMARK SMILES IDX 69 87 77 88 70 89 72 90 78 91 71 92 73 93 74 94 75 95 76 96
REMARK SMILES IDX 53 97 54 98 62 99 55 100 57 101 63 102 56 103 58 104 59 105
REMARK SMILES IDX 60 106 61 107
REMARK H PARENT 7 13 95 24 83 60 51 71
REMARK Flexibility Score: inf
ROOT
ATOM      1  C   UNL     1       2.310  -2.096  -4.008  1.00  0.00     0.188 C 
ENDROOT
BRANCH   1   2
ATOM      2  O   UNL     1       1.024  -3.023  -5.258  1.00  0.00    -0.376 OA
BRANCH   2   3
ATOM      3  C   UNL     1      -0.403  -2.997  -5.897  1.00  0.00     0.202 C 
BRANCH   3   4
ATOM      4  C   UNL     1      -1.821  -2.614  -5.211  1.00  0.00     0.261 C 
BRANCH   4   5
ATOM      5  O   UNL     1      -1.907  -1.419  -4.354  1.00  0.00    -0.463 OA
BRANCH   5   6
ATOM      6  C   UNL     1      -2.557  -1.549  -3.163  1.00  0.00     0.309 C 
ATOM      7  O   UNL     1      -3.423  -2.389  -2.953  1.00  0.00    -0.252 OA
BRANCH   6   8
ATOM      8  C   UNL     1      -2.011  -0.802  -1.970  1.00  0.00     0.112 C 
ATOM      9  C   UNL     1      -2.913   0.386  -1.629  1.00  0.00     0.094 C 
ATOM     10  C   UNL     1      -1.478   0.503  -1.424  1.00  0.00     0.030 C 
BRANCH   9  11
ATOM     11  C   UNL     1      -3.553   1.204  -2.683  1.00  0.00     0.229 C 
ATOM     12  N   UNL     1      -2.967   1.665  -3.831  1.00  0.00    -0.317 N 
ATOM     13  H   UNL     1      -3.676   2.018  -4.417  1.00  0.00     0.170 HD
ATOM     14  O   UNL     1      -4.769   1.374  -2.579  1.00  0.00    -0.274 OA
BRANCH  12  15
ATOM     15  C   UNL     1      -1.758   1.821  -4.476  1.00  0.00     0.110 A 
ATOM     16  C   UNL     1      -0.378   2.055  -4.356  1.00  0.00     0.098 A 
ATOM     17  C   UNL     1       0.215   2.114  -5.691  1.00  0.00    -0.006 A 
ATOM     18  S   UNL     1      -2.204   1.613  -6.146  1.00  0.00    -0.116 S 
ATOM     19  C   UNL     1      -0.601   1.481  -6.602  1.00  0.00     0.065 A 
ATOM     20  C   UNL     1       1.614   2.489  -6.091  1.00  0.00     0.099 C 
ATOM     21  C   UNL     1      -0.154   0.819  -7.858  1.00  0.00     0.310 C 
ATOM     22  C   UNL     1       1.962   1.909  -7.494  1.00  0.00     0.267 C 
ATOM     23  N   UNL     1       1.292   0.646  -7.825  1.00  0.00    -0.326 N 
ATOM     24  H   UNL     1       1.661   0.480  -8.762  1.00  0.00     0.348 HD
BRANCH  16  25
ATOM     25  C   UNL     1       0.475   2.243  -3.172  1.00  0.00     0.341 C 
ATOM     26  O   UNL     1       0.699   3.338  -2.671  1.00  0.00    -0.246 OA
BRANCH  25  27
ATOM     27  O   UNL     1       0.988   1.059  -2.713  1.00  0.00    -0.465 OA
ATOM     28  C   UNL     1       1.710   1.056  -1.468  1.00  0.00     0.282 C 
ENDBRANCH  25  27
ENDBRANCH  16  25
BRANCH  23  29
ATOM     29  C   UNL     1       1.820  -0.676  -7.465  1.00  0.00     0.299 C 
BRANCH  29  30
ATOM     30  C   UNL     1       1.767  -1.414  -6.109  1.00  0.00     0.006 A 
ATOM     31  C   UNL     1       2.749  -2.930  -6.137  1.00  0.00     0.009 A 
ATOM     32  C   UNL     1       0.576  -1.200  -4.764  1.00  0.00     0.009 A 
ATOM     33  C   UNL     1       2.521  -4.230  -4.934  1.00  0.00     0.001 A 
ATOM     34  C   UNL     1       0.306  -2.585  -3.526  1.00  0.00     0.001 A 
ATOM     35  C   UNL     1       1.278  -4.092  -3.653  1.00  0.00     0.000 A 
ENDBRANCH  29  30
ENDBRANCH  23  29
ENDBRANCH  12  15
ENDBRANCH   9  11
ENDBRANCH   6   8
ENDBRANCH   5   6
ENDBRANCH   4   5
ENDBRANCH   3   4
ENDBRANCH   2   3
ENDBRANCH   1   2
BRANCH   1  36
ATOM     36  C   UNL     1       3.541  -1.174  -4.270  1.00  0.00     0.188 C 
BRANCH  36  37
ATOM     37  O   UNL     1       3.402   0.195  -4.572  1.00  0.00    -0.376 OA
BRANCH  37  38
ATOM     38  C   UNL     1       4.239   0.720  -5.605  1.00  0.00     0.202 C 
BRANCH  38  39
ATOM     39  C   UNL     1       5.490   0.052  -6.150  1.00  0.00     0.261 C 
BRANCH  39  40
ATOM     40  O   UNL     1       6.598   0.158  -5.272  1.00  0.00    -0.460 OA
BRANCH  40  41
ATOM     41  C   UNL     1       6.256   0.129  -3.962  1.00  0.00     0.338 C 
ATOM     42  O   UNL     1       6.038   1.109  -3.273  1.00  0.00    -0.246 OA
BRANCH  41  43
ATOM     43  C   UNL     1       6.507  -1.234  -3.469  1.00  0.00     0.060 A 
ATOM     44  C   UNL     1       7.282  -1.244  -2.327  1.00  0.00     0.016 A 
ATOM     45  C   UNL     1       6.424  -2.337  -4.351  1.00  0.00     0.016 A 
ATOM     46  C   UNL     1       8.331  -2.108  -2.373  1.00  0.00     0.010 A 
ATOM     47  C   UNL     1       7.408  -3.254  -4.344  1.00  0.00     0.010 A 
ATOM     48  C   UNL     1       8.426  -2.973  -3.473  1.00  0.00    -0.014 A 
BRANCH  48  49
ATOM     49  C   UNL     1       9.651  -3.652  -3.701  1.00  0.00     0.031 A 
ATOM     50  C   UNL     1       9.724  -4.777  -2.783  1.00  0.00     0.074 A 
ATOM     51  C   UNL     1      10.521  -3.247  -4.634  1.00  0.00     0.049 A 
ATOM     52  N   UNL     1      10.098  -4.684  -1.552  1.00  0.00    -0.248 NA
ATOM     53  C   UNL     1       8.933  -5.974  -3.097  1.00  0.00     0.031 C 
ATOM     54  C   UNL     1      10.329  -2.354  -5.781  1.00  0.00     0.029 A 
ATOM     55  N   UNL     1      11.789  -3.672  -4.777  1.00  0.00    -0.354 N 
ATOM     56  C   UNL     1       9.905  -5.957  -1.060  1.00  0.00     0.074 A 
ATOM     57  C   UNL     1       8.897  -6.553  -1.894  1.00  0.00     0.031 C 
ATOM     58  C   UNL     1      11.377  -2.508  -6.628  1.00  0.00     0.029 A 
ATOM     59  C   UNL     1      12.359  -3.377  -6.000  1.00  0.00     0.049 A 
ATOM     60  H   UNL     1      12.271  -4.155  -4.068  1.00  0.00     0.167 HD
ATOM     61  C   UNL     1      10.898  -6.525  -0.330  1.00  0.00     0.034 A 
ATOM     62  C   UNL     1      13.509  -3.932  -6.446  1.00  0.00     0.034 A 
ATOM     63  C   UNL     1      11.873  -5.530   0.070  1.00  0.00     0.049 A 
ATOM     64  C   UNL     1      14.241  -4.420  -5.244  1.00  0.00     0.074 A 
ATOM     65  C   UNL     1      11.860  -4.389   0.846  1.00  0.00     0.029 A 
ATOM     66  N   UNL     1      12.970  -5.439  -0.757  1.00  0.00    -0.354 N 
ATOM     67  N   UNL     1      14.703  -3.629  -4.311  1.00  0.00    -0.248 NA
ATOM     68  C   UNL     1      14.082  -5.813  -4.845  1.00  0.00     0.031 C 
ATOM     69  C   UNL     1      12.800  -3.501   0.241  1.00  0.00     0.029 A 
ATOM     70  C   UNL     1      13.390  -4.140  -0.853  1.00  0.00     0.049 A 
ATOM     71  H   UNL     1      13.393  -6.202  -1.215  1.00  0.00     0.167 HD
ATOM     72  C   UNL     1      14.458  -4.307  -3.122  1.00  0.00     0.074 A 
ATOM     73  C   UNL     1      14.229  -5.692  -3.522  1.00  0.00     0.031 C 
ATOM     74  C   UNL     1      14.158  -3.624  -1.975  1.00  0.00     0.034 A 
BRANCH  61  75
ATOM     75  C   UNL     1      11.260  -7.986  -0.411  1.00  0.00     0.023 A 
ATOM     76  C   UNL     1      12.217  -8.440   0.515  1.00  0.00     0.012 A 
ATOM     77  C   UNL     1      10.938  -8.856  -1.482  1.00  0.00     0.148 A 
ATOM     78  C   UNL     1      12.854  -9.673   0.357  1.00  0.00     0.002 A 
ATOM     79  C   UNL     1      11.508 -10.114  -1.587  1.00  0.00     0.091 A 
ATOM     80  F   UNL     1      10.189  -8.438  -2.502  1.00  0.00    -0.205 F 
ATOM     81  C   UNL     1      12.493 -10.516  -0.688  1.00  0.00     0.022 A 
BRANCH  79  82
ATOM     82  S   UNL     1      11.040 -11.244  -2.905  1.00  0.00     0.127 S 
ATOM     83  O   UNL     1      12.242 -11.238  -3.734  1.00  0.00    -0.237 OA
ATOM     84  O   UNL     1      10.801 -12.480  -2.160  1.00  0.00    -0.237 OA
ATOM     85  O   UNL     1       9.843 -10.674  -3.513  1.00  0.00    -0.744 OA
ENDBRANCH  79  82
ENDBRANCH  61  75
BRANCH  62  86
ATOM     86  C   UNL     1      13.838  -4.391  -7.813  1.00  0.00     0.023 A 
ATOM     87  C   UNL     1      15.181  -4.661  -8.137  1.00  0.00     0.012 A 
ATOM     88  C   UNL     1      12.831  -4.848  -8.694  1.00  0.00     0.148 A 
ATOM     89  C   UNL     1      15.510  -5.401  -9.278  1.00  0.00     0.002 A 
ATOM     90  C   UNL     1      13.164  -5.577  -9.831  1.00  0.00     0.091 A 
ATOM     91  F   UNL     1      11.546  -4.651  -8.368  1.00  0.00    -0.205 F 
ATOM     92  C   UNL     1      14.503  -5.868 -10.118  1.00  0.00     0.022 A 
BRANCH  90  93
ATOM     93  S   UNL     1      11.918  -6.235 -10.948  1.00  0.00     0.127 S 
ATOM     94  O   UNL     1      12.412  -5.782 -12.249  1.00  0.00    -0.237 OA
ATOM     95  O   UNL     1      12.033  -7.672 -10.716  1.00  0.00    -0.237 OA
ATOM     96  O   UNL     1      10.656  -5.629 -10.542  1.00  0.00    -0.744 OA
ENDBRANCH  90  93
ENDBRANCH  62  86
BRANCH  74  97
ATOM     97  C   UNL     1      14.496  -2.154  -1.938  1.00  0.00     0.023 A 
ATOM     98  C   UNL     1      13.854  -1.192  -2.745  1.00  0.00     0.012 A 
ATOM     99  C   UNL     1      15.406  -1.720  -0.958  1.00  0.00     0.148 A 
ATOM    100  C   UNL     1      14.133   0.171  -2.590  1.00  0.00     0.002 A 
ATOM    101  C   UNL     1      15.645  -0.365  -0.776  1.00  0.00     0.091 A 
ATOM    102  F   UNL     1      16.009  -2.649  -0.201  1.00  0.00    -0.205 F 
ATOM    103  C   UNL     1      15.019   0.585  -1.596  1.00  0.00     0.022 A 
BRANCH 101 104
ATOM    104  S   UNL     1      16.682   0.228   0.563  1.00  0.00     0.127 S 
ATOM    105  O   UNL     1      17.903   0.610  -0.142  1.00  0.00    -0.237 OA
ATOM    106  O   UNL     1      15.903   1.349   1.091  1.00  0.00    -0.237 OA
ATOM    107  O   UNL     1      16.815  -0.889   1.490  1.00  0.00    -0.744 OA
ENDBRANCH 101 104
ENDBRANCH  74  97
ENDBRANCH  48  49
ENDBRANCH  41  43
ENDBRANCH  40  41
ENDBRANCH  39  40
ENDBRANCH  38  39
ENDBRANCH  37  38
ENDBRANCH  36  37
ENDBRANCH   1  36
TORSDOF 26
