REMARK SMILES CCOc1cc(CO)cc(Br)c1OCC(C)(C)C(=O)OCCOCCOCCOC(=O)c1ccc(-c2c3nc(c(-c4cccc(S(=O)(=O)[O-])c4F)c4ccc([nH]4)c(-c4cccc(S(=O)(=O)[O-])c4F)c4nc(c(-c5cccc(S(=O)(=O)[O-])c5F)c5ccc2[nH]5)C=C4)C=C3)cc1
REMARK SMILES IDX 24 1 23 2 22 3 21 4 20 5 18 6 19 7 15 8 16 9 17 10 14 11
REMARK SMILES IDX 13 12 12 13 4 14 5 15 6 16 10 17 9 18 11 19 3 20 2 21 1 22
REMARK SMILES IDX 7 23 8 24 25 26 26 27 27 28 28 29 29 30 30 31 31 32 32 33
REMARK SMILES IDX 33 34 94 35 34 36 93 37 35 38 36 39 37 40 87 41 38 42 92 43
REMARK SMILES IDX 86 44 88 45 39 46 91 47 85 48 84 49 40 51 72 52 52 53 71 54
REMARK SMILES IDX 53 55 56 56 70 57 89 58 54 59 55 60 69 62 90 63 57 64 41 65
REMARK SMILES IDX 42 66 50 67 43 68 45 69 51 70 44 71 46 72 47 73 48 74 49 75
REMARK SMILES IDX 73 76 74 77 82 78 75 79 77 80 83 81 76 82 78 83 79 84 80 85
REMARK SMILES IDX 81 86 58 87 59 88 67 89 60 90 62 91 68 92 61 93 63 94 64 95
REMARK SMILES IDX 65 96 66 97
REMARK H PARENT 8 25 88 50 56 61
REMARK Flexibility Score: inf
ROOT
ATOM      1  C   UNL     1       0.728   7.519  -1.909  1.00  0.00     0.188 C 
ENDROOT
BRANCH   1   2
ATOM      2  O   UNL     1       0.501   7.860  -0.549  1.00  0.00    -0.376 OA
BRANCH   2   3
ATOM      3  C   UNL     1       1.609   7.970   0.337  1.00  0.00     0.202 C 
BRANCH   3   4
ATOM      4  C   UNL     1       2.689   6.876   0.356  1.00  0.00     0.261 C 
BRANCH   4   5
ATOM      5  O   UNL     1       3.368   6.651  -0.898  1.00  0.00    -0.463 OA
BRANCH   5   6
ATOM      6  C   UNL     1       3.309   5.386  -1.391  1.00  0.00     0.315 C 
ATOM      7  O   UNL     1       2.748   4.468  -0.803  1.00  0.00    -0.251 OA
BRANCH   6   8
ATOM      8  C   UNL     1       4.097   5.174  -2.694  1.00  0.00     0.096 C 
ATOM      9  C   UNL     1       5.329   4.378  -2.241  1.00  0.00     0.027 C 
ATOM     10  C   UNL     1       4.690   6.435  -3.384  1.00  0.00     0.027 C 
BRANCH   8  11
ATOM     11  C   UNL     1       3.128   4.527  -3.745  1.00  0.00     0.248 C 
BRANCH  11  12
ATOM     12  O   UNL     1       2.464   3.274  -3.538  1.00  0.00    -0.487 OA
BRANCH  12  13
ATOM     13  C   UNL     1       3.191   2.190  -3.142  1.00  0.00     0.175 A 
ATOM     14  C   UNL     1       2.653   1.452  -2.069  1.00  0.00     0.162 A 
ATOM     15  C   UNL     1       3.462   0.539  -1.396  1.00  0.00     0.056 A 
ATOM     16  C   UNL     1       4.790   0.333  -1.790  1.00  0.00    -0.018 A 
ATOM     17  C   UNL     1       4.413   1.792  -3.691  1.00  0.00     0.064 A 
ATOM     18  C   UNL     1       5.230   0.903  -2.988  1.00  0.00     0.026 A 
ATOM     19  Br  UNL     1       5.029   2.330  -5.408  1.00  0.00    -0.047 Br
BRANCH  14  20
ATOM     20  O   UNL     1       1.308   1.565  -1.838  1.00  0.00    -0.490 OA
BRANCH  20  21
ATOM     21  C   UNL     1       0.825   1.606  -0.494  1.00  0.00     0.226 C 
ATOM     22  C   UNL     1       0.582   0.232   0.120  1.00  0.00     0.049 C 
ENDBRANCH  20  21
ENDBRANCH  14  20
BRANCH  16  23
ATOM     23  C   UNL     1       5.700  -0.555  -0.988  1.00  0.00     0.191 C 
BRANCH  23  24
ATOM     24  O   UNL     1       5.637  -0.248   0.402  1.00  0.00    -0.392 OA
ATOM     25  H   UNL     1       5.921   0.669   0.543  1.00  0.00     0.211 HD
ENDBRANCH  23  24
ENDBRANCH  16  23
ENDBRANCH  12  13
ENDBRANCH  11  12
ENDBRANCH   8  11
ENDBRANCH   6   8
ENDBRANCH   5   6
ENDBRANCH   4   5
ENDBRANCH   3   4
ENDBRANCH   2   3
ENDBRANCH   1   2
BRANCH   1  26
ATOM     26  C   UNL     1       1.836   8.260  -2.668  1.00  0.00     0.188 C 
BRANCH  26  27
ATOM     27  O   UNL     1       2.573   9.189  -1.912  1.00  0.00    -0.376 OA
BRANCH  27  28
ATOM     28  C   UNL     1       2.354  10.573  -2.111  1.00  0.00     0.202 C 
BRANCH  28  29
ATOM     29  C   UNL     1       0.957  11.159  -2.385  1.00  0.00     0.261 C 
BRANCH  29  30
ATOM     30  O   UNL     1       0.046  10.376  -3.168  1.00  0.00    -0.460 OA
BRANCH  30  31
ATOM     31  C   UNL     1       0.232  10.344  -4.506  1.00  0.00     0.338 C 
ATOM     32  O   UNL     1       1.114  10.915  -5.137  1.00  0.00    -0.246 OA
BRANCH  31  33
ATOM     33  C   UNL     1      -0.660   9.293  -5.045  1.00  0.00     0.060 A 
ATOM     34  C   UNL     1      -0.100   8.195  -5.718  1.00  0.00     0.016 A 
ATOM     35  C   UNL     1      -2.039   9.367  -4.843  1.00  0.00     0.016 A 
ATOM     36  C   UNL     1      -0.922   7.180  -6.212  1.00  0.00     0.010 A 
ATOM     37  C   UNL     1      -2.862   8.366  -5.361  1.00  0.00     0.010 A 
ATOM     38  C   UNL     1      -2.312   7.284  -6.074  1.00  0.00    -0.014 A 
BRANCH  38  39
ATOM     39  C   UNL     1      -3.216   6.405  -6.853  1.00  0.00     0.031 A 
ATOM     40  C   UNL     1      -3.775   6.943  -8.142  1.00  0.00     0.074 A 
ATOM     41  C   UNL     1      -3.583   5.189  -6.412  1.00  0.00     0.049 A 
ATOM     42  N   UNL     1      -4.692   6.442  -8.925  1.00  0.00    -0.248 NA
ATOM     43  C   UNL     1      -3.228   8.232  -8.601  1.00  0.00     0.031 C 
ATOM     44  C   UNL     1      -3.096   4.543  -5.196  1.00  0.00     0.029 A 
ATOM     45  N   UNL     1      -4.493   4.297  -6.928  1.00  0.00    -0.354 N 
ATOM     46  C   UNL     1      -4.864   7.371  -9.944  1.00  0.00     0.074 A 
ATOM     47  C   UNL     1      -3.957   8.466  -9.681  1.00  0.00     0.031 C 
ATOM     48  C   UNL     1      -3.745   3.376  -5.033  1.00  0.00     0.029 A 
ATOM     49  C   UNL     1      -4.718   3.212  -6.113  1.00  0.00     0.049 A 
ATOM     50  H   UNL     1      -4.939   4.422  -7.796  1.00  0.00     0.167 HD
ATOM     51  C   UNL     1      -5.697   7.316 -11.008  1.00  0.00     0.034 A 
ATOM     52  C   UNL     1      -5.631   2.224  -6.210  1.00  0.00     0.034 A 
ATOM     53  C   UNL     1      -6.589   6.222 -11.276  1.00  0.00     0.049 A 
ATOM     54  C   UNL     1      -6.578   2.203  -7.386  1.00  0.00     0.074 A 
ATOM     55  C   UNL     1      -7.445   6.055 -12.349  1.00  0.00     0.029 A 
ATOM     56  N   UNL     1      -6.750   5.116 -10.456  1.00  0.00    -0.354 N 
ATOM     57  N   UNL     1      -6.664   3.036  -8.396  1.00  0.00    -0.248 NA
ATOM     58  C   UNL     1      -7.538   1.089  -7.451  1.00  0.00     0.031 C 
ATOM     59  C   UNL     1      -8.151   4.863 -12.161  1.00  0.00     0.029 A 
ATOM     60  C   UNL     1      -7.702   4.267 -10.993  1.00  0.00     0.049 A 
ATOM     61  H   UNL     1      -6.261   4.959  -9.617  1.00  0.00     0.167 HD
ATOM     62  C   UNL     1      -7.649   2.523  -9.235  1.00  0.00     0.074 A 
ATOM     63  C   UNL     1      -8.126   1.302  -8.620  1.00  0.00     0.031 C 
ATOM     64  C   UNL     1      -8.122   3.021 -10.404  1.00  0.00     0.034 A 
BRANCH  51  65
ATOM     65  C   UNL     1      -5.679   8.475 -11.968  1.00  0.00     0.023 A 
ATOM     66  C   UNL     1      -4.574   8.661 -12.823  1.00  0.00     0.012 A 
ATOM     67  C   UNL     1      -6.777   9.353 -12.054  1.00  0.00     0.148 A 
ATOM     68  C   UNL     1      -4.547   9.723 -13.725  1.00  0.00     0.002 A 
ATOM     69  C   UNL     1      -6.763  10.380 -12.989  1.00  0.00     0.091 A 
ATOM     70  F   UNL     1      -7.807   9.174 -11.214  1.00  0.00    -0.205 F 
ATOM     71  C   UNL     1      -5.645  10.575 -13.816  1.00  0.00     0.022 A 
BRANCH  69  72
ATOM     72  S   UNL     1      -8.161  11.480 -13.238  1.00  0.00     0.127 S 
ATOM     73  O   UNL     1      -7.637  12.744 -12.721  1.00  0.00    -0.237 OA
ATOM     74  O   UNL     1      -8.327  11.439 -14.691  1.00  0.00    -0.237 OA
ATOM     75  O   UNL     1      -9.265  10.906 -12.483  1.00  0.00    -0.744 OA
ENDBRANCH  69  72
ENDBRANCH  51  65
BRANCH  52  76
ATOM     76  C   UNL     1      -5.693   1.155  -5.171  1.00  0.00     0.023 A 
ATOM     77  C   UNL     1      -5.328  -0.163  -5.508  1.00  0.00     0.012 A 
ATOM     78  C   UNL     1      -6.114   1.435  -3.856  1.00  0.00     0.148 A 
ATOM     79  C   UNL     1      -5.414  -1.189  -4.566  1.00  0.00     0.002 A 
ATOM     80  C   UNL     1      -6.146   0.419  -2.908  1.00  0.00     0.091 A 
ATOM     81  F   UNL     1      -6.476   2.691  -3.559  1.00  0.00    -0.205 F 
ATOM     82  C   UNL     1      -5.814  -0.897  -3.265  1.00  0.00     0.022 A 
BRANCH  80  83
ATOM     83  S   UNL     1      -6.539   0.719  -1.180  1.00  0.00     0.127 S 
ATOM     84  O   UNL     1      -7.815   0.021  -1.038  1.00  0.00    -0.237 OA
ATOM     85  O   UNL     1      -5.411   0.083  -0.500  1.00  0.00    -0.237 OA
ATOM     86  O   UNL     1      -6.594   2.167  -1.032  1.00  0.00    -0.744 OA
ENDBRANCH  80  83
ENDBRANCH  52  76
BRANCH  64  87
ATOM     87  C   UNL     1      -9.167   2.228 -11.148  1.00  0.00     0.023 A 
ATOM     88  C   UNL     1     -10.489   2.173 -10.668  1.00  0.00     0.012 A 
ATOM     89  C   UNL     1      -8.853   1.623 -12.383  1.00  0.00     0.148 A 
ATOM     90  C   UNL     1     -11.478   1.506 -11.392  1.00  0.00     0.002 A 
ATOM     91  C   UNL     1      -9.854   1.006 -13.123  1.00  0.00     0.091 A 
ATOM     92  F   UNL     1      -7.585   1.675 -12.815  1.00  0.00    -0.205 F 
ATOM     93  C   UNL     1     -11.164   0.936 -12.624  1.00  0.00     0.022 A 
BRANCH  91  94
ATOM     94  S   UNL     1      -9.566   0.335 -14.765  1.00  0.00     0.127 S 
ATOM     95  O   UNL     1      -9.688  -1.102 -14.525  1.00  0.00    -0.237 OA
ATOM     96  O   UNL     1     -10.664   0.920 -15.535  1.00  0.00    -0.237 OA
ATOM     97  O   UNL     1      -8.240   0.789 -15.161  1.00  0.00    -0.744 OA
ENDBRANCH  91  94
ENDBRANCH  64  87
ENDBRANCH  38  39
ENDBRANCH  31  33
ENDBRANCH  30  31
ENDBRANCH  29  30
ENDBRANCH  28  29
ENDBRANCH  27  28
ENDBRANCH  26  27
ENDBRANCH   1  26
TORSDOF 27
