REMARK SMILES Cc1[nH]c2c(C(=O)N3CC[C@H](O)C[C@@H]3C(=O)OCCOCCOCCOC(=O)c3ccc(-c4c5nc(c(-c6cccc(S(=O)(=O)[O-])c6F)c6ccc([nH]6)c(-c6cccc(S(=O)(=O)[O-])c6F)c6nc(c(-c7cccc(S(=O)(=O)[O-])c7F)c7ccc4[nH]7)C=C6)C=C5)cc3)cccc2c1C
REMARK SMILES IDX 22 1 21 2 20 3 19 4 18 5 17 6 15 7 16 8 14 9 8 10 9 11 10 12
REMARK SMILES IDX 13 13 11 14 6 15 7 16 5 17 1 18 2 19 3 20 96 21 4 22 95 24
REMARK SMILES IDX 97 25 94 26 92 27 93 28 12 29 23 31 24 32 25 33 26 34 27 35
REMARK SMILES IDX 28 36 29 37 30 38 91 39 31 40 90 41 32 42 33 43 34 44 84 45
REMARK SMILES IDX 35 46 89 47 83 48 85 49 36 50 88 51 82 52 81 53 37 55 69 56
REMARK SMILES IDX 49 57 68 58 50 59 53 60 67 61 86 62 51 63 52 64 66 66 87 67
REMARK SMILES IDX 54 68 38 69 39 70 47 71 40 72 42 73 48 74 41 75 43 76 44 77
REMARK SMILES IDX 45 78 46 79 70 80 71 81 79 82 72 83 74 84 80 85 73 86 75 87
REMARK SMILES IDX 76 88 77 89 78 90 55 91 56 92 64 93 57 94 59 95 65 96 58 97
REMARK SMILES IDX 60 98 61 99 62 100 63 101
REMARK H PARENT 3 23 12 30 85 54 53 65
REMARK Flexibility Score: inf
ROOT
ATOM      1  C   UNL     1      -2.897  -6.782   2.661  1.00  0.00     0.188 C 
ENDROOT
BRANCH   1   2
ATOM      2  C   UNL     1      -2.386  -5.674   3.586  1.00  0.00     0.188 C 
BRANCH   2   3
ATOM      3  O   UNL     1      -3.304  -4.634   3.886  1.00  0.00    -0.376 OA
BRANCH   3   4
ATOM      4  C   UNL     1      -3.830  -3.909   2.784  1.00  0.00     0.202 C 
BRANCH   4   5
ATOM      5  C   UNL     1      -2.823  -3.155   1.908  1.00  0.00     0.261 C 
BRANCH   5   6
ATOM      6  O   UNL     1      -1.791  -3.959   1.290  1.00  0.00    -0.462 OA
BRANCH   6   7
ATOM      7  C   UNL     1      -0.511  -3.643   1.647  1.00  0.00     0.329 C 
ATOM      8  O   UNL     1      -0.230  -2.775   2.467  1.00  0.00    -0.250 OA
BRANCH   7   9
ATOM      9  C   UNL     1       0.555  -4.301   0.761  1.00  0.00     0.198 C 
ATOM     10  N   UNL     1       0.867  -3.354  -0.317  1.00  0.00    -0.325 N 
ATOM     11  C   UNL     1       0.254  -3.531  -1.629  1.00  0.00     0.123 C 
ATOM     12  C   UNL     1       0.377  -4.978  -2.087  1.00  0.00     0.053 C 
ATOM     13  C   UNL     1       0.339  -5.745   0.312  1.00  0.00     0.069 C 
ATOM     14  C   UNL     1      -0.297  -5.893  -1.067  1.00  0.00     0.118 C 
BRANCH  10  15
ATOM     15  C   UNL     1       1.923  -2.481  -0.113  1.00  0.00     0.256 C 
ATOM     16  O   UNL     1       3.024  -2.898   0.243  1.00  0.00    -0.269 OA
BRANCH  15  17
ATOM     17  C   UNL     1       1.683  -1.014  -0.224  1.00  0.00     0.064 A 
ATOM     18  C   UNL     1      -3.260  -0.279  -0.284  1.00  0.00     0.064 C 
ATOM     19  C   UNL     1      -1.815   0.056  -0.224  1.00  0.00     0.016 A 
ATOM     20  N   UNL     1      -0.858  -0.921  -0.161  1.00  0.00    -0.358 N 
ATOM     21  C   UNL     1      -1.159   1.270  -0.166  1.00  0.00    -0.023 A 
ATOM     22  C   UNL     1       0.412  -0.399  -0.214  1.00  0.00     0.059 A 
ATOM     23  H   UNL     1      -1.056  -1.883  -0.086  1.00  0.00     0.166 HD
ATOM     24  C   UNL     1       0.249   0.989  -0.184  1.00  0.00     0.003 A 
ATOM     25  C   UNL     1      -1.783   2.617  -0.092  1.00  0.00     0.047 C 
ATOM     26  C   UNL     1       1.398   1.806  -0.154  1.00  0.00     0.010 A 
ATOM     27  C   UNL     1       2.803  -0.164  -0.198  1.00  0.00     0.016 A 
ATOM     28  C   UNL     1       2.666   1.221  -0.163  1.00  0.00     0.002 A 
ENDBRANCH  15  17
ENDBRANCH  10  15
BRANCH  14  29
ATOM     29  O   UNL     1      -1.687  -5.583  -1.043  1.00  0.00    -0.393 OA
ATOM     30  H   UNL     1      -1.807  -4.655  -0.787  1.00  0.00     0.210 HD
ENDBRANCH  14  29
ENDBRANCH   7   9
ENDBRANCH   6   7
ENDBRANCH   5   6
ENDBRANCH   4   5
ENDBRANCH   3   4
ENDBRANCH   2   3
ENDBRANCH   1   2
BRANCH   1  31
ATOM     31  O   UNL     1      -3.469  -6.353   1.426  1.00  0.00    -0.376 OA
BRANCH  31  32
ATOM     32  C   UNL     1      -3.865  -7.396   0.521  1.00  0.00     0.202 C 
BRANCH  32  33
ATOM     33  C   UNL     1      -4.646  -8.587   1.107  1.00  0.00     0.261 C 
BRANCH  33  34
ATOM     34  O   UNL     1      -3.897  -9.361   2.065  1.00  0.00    -0.460 OA
BRANCH  34  35
ATOM     35  C   UNL     1      -2.695  -9.845   1.670  1.00  0.00     0.338 C 
ATOM     36  O   UNL     1      -2.293  -9.937   0.521  1.00  0.00    -0.246 OA
BRANCH  35  37
ATOM     37  C   UNL     1      -1.830  -9.969   2.872  1.00  0.00     0.060 A 
ATOM     38  C   UNL     1      -0.475  -9.623   2.752  1.00  0.00     0.016 A 
ATOM     39  C   UNL     1      -2.354 -10.314   4.122  1.00  0.00     0.016 A 
ATOM     40  C   UNL     1       0.367  -9.678   3.865  1.00  0.00     0.010 A 
ATOM     41  C   UNL     1      -1.510 -10.373   5.234  1.00  0.00     0.010 A 
ATOM     42  C   UNL     1      -0.138 -10.099   5.102  1.00  0.00    -0.014 A 
BRANCH  42  43
ATOM     43  C   UNL     1       0.792 -10.486   6.191  1.00  0.00     0.031 A 
ATOM     44  C   UNL     1       1.128 -11.947   6.338  1.00  0.00     0.074 A 
ATOM     45  C   UNL     1       1.317  -9.586   7.041  1.00  0.00     0.049 A 
ATOM     46  N   UNL     1       1.884 -12.540   7.223  1.00  0.00    -0.248 NA
ATOM     47  C   UNL     1       0.522 -12.862   5.354  1.00  0.00     0.031 C 
ATOM     48  C   UNL     1       1.077  -8.146   7.014  1.00  0.00     0.029 A 
ATOM     49  N   UNL     1       2.152  -9.769   8.118  1.00  0.00    -0.354 N 
ATOM     50  C   UNL     1       1.821 -13.896   6.924  1.00  0.00     0.074 A 
ATOM     51  C   UNL     1       0.943 -14.041   5.784  1.00  0.00     0.031 C 
ATOM     52  C   UNL     1       1.730  -7.576   8.043  1.00  0.00     0.029 A 
ATOM     53  C   UNL     1       2.419  -8.613   8.813  1.00  0.00     0.049 A 
ATOM     54  H   UNL     1       2.524 -10.645   8.368  1.00  0.00     0.167 HD
ATOM     55  C   UNL     1       2.450 -14.930   7.527  1.00  0.00     0.034 A 
ATOM     56  C   UNL     1       3.124  -8.420   9.946  1.00  0.00     0.034 A 
ATOM     57  C   UNL     1       3.343 -14.793   8.643  1.00  0.00     0.049 A 
ATOM     58  C   UNL     1       3.795  -9.595  10.616  1.00  0.00     0.074 A 
ATOM     59  C   UNL     1       4.070 -15.780   9.284  1.00  0.00     0.029 A 
ATOM     60  N   UNL     1       3.621 -13.602   9.291  1.00  0.00    -0.354 N 
ATOM     61  N   UNL     1       3.838 -10.850  10.239  1.00  0.00    -0.248 NA
ATOM     62  C   UNL     1       4.543  -9.319  11.854  1.00  0.00     0.031 C 
ATOM     63  C   UNL     1       4.772 -15.187  10.339  1.00  0.00     0.029 A 
ATOM     64  C   UNL     1       4.499 -13.828  10.337  1.00  0.00     0.049 A 
ATOM     65  H   UNL     1       3.250 -12.724   9.045  1.00  0.00     0.167 HD
ATOM     66  C   UNL     1       4.647 -11.502  11.167  1.00  0.00     0.074 A 
ATOM     67  C   UNL     1       5.087 -10.500  12.114  1.00  0.00     0.031 C 
ATOM     68  C   UNL     1       4.984 -12.814  11.236  1.00  0.00     0.034 A 
BRANCH  55  69
ATOM     69  C   UNL     1       2.212 -16.305   6.969  1.00  0.00     0.023 A 
ATOM     70  C   UNL     1       2.813 -16.674   5.749  1.00  0.00     0.012 A 
ATOM     71  C   UNL     1       1.435 -17.244   7.673  1.00  0.00     0.148 A 
ATOM     72  C   UNL     1       2.621 -17.950   5.223  1.00  0.00     0.002 A 
ATOM     73  C   UNL     1       1.284 -18.527   7.164  1.00  0.00     0.091 A 
ATOM     74  F   UNL     1       0.848 -16.861   8.816  1.00  0.00    -0.205 F 
ATOM     75  C   UNL     1       1.867 -18.879   5.935  1.00  0.00     0.022 A 
BRANCH  73  76
ATOM     76  S   UNL     1       0.391 -19.814   8.042  1.00  0.00     0.127 S 
ATOM     77  O   UNL     1      -0.824 -19.932   7.237  1.00  0.00    -0.237 OA
ATOM     78  O   UNL     1       1.306 -20.951   7.936  1.00  0.00    -0.237 OA
ATOM     79  O   UNL     1       0.199 -19.315   9.396  1.00  0.00    -0.744 OA
ENDBRANCH  73  76
ENDBRANCH  55  69
BRANCH  56  80
ATOM     80  C   UNL     1       3.273  -7.049  10.515  1.00  0.00     0.023 A 
ATOM     81  C   UNL     1       4.537  -6.425  10.494  1.00  0.00     0.012 A 
ATOM     82  C   UNL     1       2.182  -6.369  11.089  1.00  0.00     0.148 A 
ATOM     83  C   UNL     1       4.718  -5.164  11.064  1.00  0.00     0.002 A 
ATOM     84  C   UNL     1       2.358  -5.092  11.610  1.00  0.00     0.091 A 
ATOM     85  F   UNL     1       0.994  -6.989  11.121  1.00  0.00    -0.205 F 
ATOM     86  C   UNL     1       3.628  -4.494  11.613  1.00  0.00     0.022 A 
BRANCH  84  87
ATOM     87  S   UNL     1       0.990  -4.113  12.240  1.00  0.00     0.127 S 
ATOM     88  O   UNL     1       1.248  -4.130  13.678  1.00  0.00    -0.237 OA
ATOM     89  O   UNL     1       1.217  -2.822  11.589  1.00  0.00    -0.237 OA
ATOM     90  O   UNL     1      -0.217  -4.802  11.805  1.00  0.00    -0.744 OA
ENDBRANCH  84  87
ENDBRANCH  56  80
BRANCH  68  91
ATOM     91  C   UNL     1       5.905 -13.253  12.346  1.00  0.00     0.023 A 
ATOM     92  C   UNL     1       5.424 -13.327  13.668  1.00  0.00     0.012 A 
ATOM     93  C   UNL     1       7.218 -13.682  12.064  1.00  0.00     0.148 A 
ATOM     94  C   UNL     1       6.243 -13.792  14.696  1.00  0.00     0.002 A 
ATOM     95  C   UNL     1       8.013 -14.190  13.086  1.00  0.00     0.091 A 
ATOM     96  F   UNL     1       7.664 -13.591  10.803  1.00  0.00    -0.205 F 
ATOM     97  C   UNL     1       7.531 -14.235  14.404  1.00  0.00     0.022 A 
BRANCH  95  98
ATOM     98  S   UNL     1       9.647 -14.873  12.783  1.00  0.00     0.127 S 
ATOM     99  O   UNL     1      10.513 -13.822  13.314  1.00  0.00    -0.237 OA
ATOM    100  O   UNL     1       9.623 -16.102  13.577  1.00  0.00    -0.237 OA
ATOM    101  O   UNL     1       9.730 -15.088  11.345  1.00  0.00    -0.744 OA
ENDBRANCH  95  98
ENDBRANCH  68  91
ENDBRANCH  42  43
ENDBRANCH  35  37
ENDBRANCH  34  35
ENDBRANCH  33  34
ENDBRANCH  32  33
ENDBRANCH  31  32
ENDBRANCH   1  31
TORSDOF 23
