REMARK SMILES CC(C)(C)c1ccc(C(=O)N/C(=C/c2ccc(O)cc2)C(=O)OCCOCCOCCOC(=O)c2ccc(-c3c4nc(c(-c5cccc(S(=O)(=O)[O-])c5F)c5ccc([nH]5)c(-c5cccc(S(=O)(=O)[O-])c5F)c5nc(c(-c6cccc(S(=O)(=O)[O-])c6F)c6ccc3[nH]6)C=C5)C=C4)cc2)cc1
REMARK SMILES IDX 27 1 26 2 25 3 24 4 23 5 21 6 22 7 12 8 13 9 11 10 9 11
REMARK SMILES IDX 10 12 8 14 5 15 6 16 99 17 7 18 98 19 2 20 1 21 3 22 4 23
REMARK SMILES IDX 14 24 15 25 20 26 16 27 19 28 17 29 18 30 28 32 29 33 30 34
REMARK SMILES IDX 31 35 32 36 33 37 34 38 35 39 36 40 97 41 37 42 96 43 38 44
REMARK SMILES IDX 39 45 40 46 90 47 41 48 95 49 89 50 91 51 42 52 94 53 88 54
REMARK SMILES IDX 87 55 43 57 75 58 55 59 74 60 56 61 59 62 73 63 92 64 57 65
REMARK SMILES IDX 58 66 72 68 93 69 60 70 44 71 45 72 53 73 46 74 48 75 54 76
REMARK SMILES IDX 47 77 49 78 50 79 51 80 52 81 76 82 77 83 85 84 78 85 80 86
REMARK SMILES IDX 86 87 79 88 81 89 82 90 83 91 84 92 61 93 62 94 70 95 63 96
REMARK SMILES IDX 65 97 71 98 64 99 66 100 67 101 68 102 69 103
REMARK H PARENT 11 13 18 31 91 56 59 67
REMARK Flexibility Score: inf
ROOT
ATOM      1  C   UNL     1       3.208   2.584   3.493  1.00  0.00     0.188 C 
ENDROOT
BRANCH   1   2
ATOM      2  O   UNL     1       2.603   3.392   2.490  1.00  0.00    -0.376 OA
BRANCH   2   3
ATOM      3  C   UNL     1       2.018   4.636   2.856  1.00  0.00     0.202 C 
BRANCH   3   4
ATOM      4  C   UNL     1       0.935   4.592   3.925  1.00  0.00     0.261 C 
BRANCH   4   5
ATOM      5  O   UNL     1       1.511   4.059   5.114  1.00  0.00    -0.459 OA
BRANCH   5   6
ATOM      6  C   UNL     1       0.655   3.668   6.074  1.00  0.00     0.354 C 
ATOM      7  O   UNL     1      -0.549   3.884   6.111  1.00  0.00    -0.244 OA
BRANCH   6   8
ATOM      8  C   UNL     1       1.432   3.014   7.158  1.00  0.00     0.128 C 
ATOM      9  C   UNL     1       2.151   3.827   7.971  1.00  0.00     0.042 C 
BRANCH   8  10
ATOM     10  N   UNL     1       1.433   1.649   7.368  1.00  0.00    -0.316 N 
ATOM     11  C   UNL     1       1.065   0.520   6.660  1.00  0.00     0.255 C 
ATOM     12  O   UNL     1       1.256  -0.563   7.219  1.00  0.00    -0.269 OA
ATOM     13  H   UNL     1       1.791   1.419   8.256  1.00  0.00     0.170 HD
BRANCH  11  14
ATOM     14  C   UNL     1       0.644   0.495   5.238  1.00  0.00     0.040 A 
ATOM     15  C   UNL     1       0.118   0.462   2.433  1.00  0.00    -0.043 A 
ATOM     16  C   UNL     1       1.070  -0.396   3.001  1.00  0.00     0.005 A 
ATOM     17  C   UNL     1      -0.637   1.245   3.328  1.00  0.00     0.005 A 
ATOM     18  C   UNL     1       1.338  -0.364   4.379  1.00  0.00     0.014 A 
ATOM     19  C   UNL     1      -0.414   1.220   4.715  1.00  0.00     0.014 A 
BRANCH  15  20
ATOM     20  C   UNL     1      -0.087   0.587   0.909  1.00  0.00    -0.013 C 
ATOM     21  C   UNL     1       0.646  -0.495   0.083  1.00  0.00     0.016 C 
ATOM     22  C   UNL     1       0.460   1.953   0.440  1.00  0.00     0.016 C 
ATOM     23  C   UNL     1      -1.583   0.504   0.540  1.00  0.00     0.016 C 
ENDBRANCH  15  20
ENDBRANCH  11  14
ENDBRANCH   8  10
BRANCH   9  24
ATOM     24  C   UNL     1       2.316   5.283   7.767  1.00  0.00    -0.023 A 
ATOM     25  C   UNL     1       3.603   5.807   7.592  1.00  0.00     0.012 A 
ATOM     26  C   UNL     1       1.212   6.135   7.613  1.00  0.00     0.012 A 
ATOM     27  C   UNL     1       3.775   7.127   7.162  1.00  0.00     0.047 A 
ATOM     28  C   UNL     1       1.379   7.438   7.143  1.00  0.00     0.047 A 
ATOM     29  C   UNL     1       2.661   7.914   6.897  1.00  0.00     0.115 A 
BRANCH  29  30
ATOM     30  O   UNL     1       2.861   9.153   6.364  1.00  0.00    -0.508 OA
ATOM     31  H   UNL     1       3.733   9.459   6.205  1.00  0.00     0.293 HD
ENDBRANCH  29  30
ENDBRANCH   9  24
ENDBRANCH   6   8
ENDBRANCH   5   6
ENDBRANCH   4   5
ENDBRANCH   3   4
ENDBRANCH   2   3
ENDBRANCH   1   2
BRANCH   1  32
ATOM     32  C   UNL     1       4.295   3.171   4.416  1.00  0.00     0.188 C 
BRANCH  32  33
ATOM     33  O   UNL     1       5.298   4.062   3.951  1.00  0.00    -0.376 OA
BRANCH  33  34
ATOM     34  C   UNL     1       5.495   4.235   2.563  1.00  0.00     0.202 C 
BRANCH  34  35
ATOM     35  C   UNL     1       6.239   3.128   1.814  1.00  0.00     0.261 C 
BRANCH  35  36
ATOM     36  O   UNL     1       5.810   1.794   2.112  1.00  0.00    -0.460 OA
BRANCH  36  37
ATOM     37  C   UNL     1       6.523   1.166   3.073  1.00  0.00     0.338 C 
ATOM     38  O   UNL     1       7.464   1.626   3.712  1.00  0.00    -0.246 OA
BRANCH  37  39
ATOM     39  C   UNL     1       5.958  -0.170   3.339  1.00  0.00     0.060 A 
ATOM     40  C   UNL     1       5.704  -0.532   4.667  1.00  0.00     0.016 A 
ATOM     41  C   UNL     1       5.785  -1.098   2.308  1.00  0.00     0.016 A 
ATOM     42  C   UNL     1       5.331  -1.840   4.975  1.00  0.00     0.010 A 
ATOM     43  C   UNL     1       5.423  -2.413   2.620  1.00  0.00     0.010 A 
ATOM     44  C   UNL     1       5.238  -2.801   3.958  1.00  0.00    -0.014 A 
BRANCH  44  45
ATOM     45  C   UNL     1       5.112  -4.237   4.317  1.00  0.00     0.031 A 
ATOM     46  C   UNL     1       6.349  -5.090   4.343  1.00  0.00     0.074 A 
ATOM     47  C   UNL     1       3.920  -4.773   4.628  1.00  0.00     0.049 A 
ATOM     48  N   UNL     1       6.468  -6.361   4.624  1.00  0.00    -0.248 NA
ATOM     49  C   UNL     1       7.617  -4.427   3.997  1.00  0.00     0.031 C 
ATOM     50  C   UNL     1       2.656  -4.048   4.621  1.00  0.00     0.029 A 
ATOM     51  N   UNL     1       3.570  -6.048   4.996  1.00  0.00    -0.354 N 
ATOM     52  C   UNL     1       7.814  -6.660   4.458  1.00  0.00     0.074 A 
ATOM     53  C   UNL     1       8.472  -5.439   4.045  1.00  0.00     0.031 C 
ATOM     54  C   UNL     1       1.664  -4.879   4.974  1.00  0.00     0.029 A 
ATOM     55  C   UNL     1       2.217  -6.213   5.187  1.00  0.00     0.049 A 
ATOM     56  H   UNL     1       4.224  -6.775   5.112  1.00  0.00     0.167 HD
ATOM     57  C   UNL     1       8.446  -7.842   4.643  1.00  0.00     0.034 A 
ATOM     58  C   UNL     1       1.502  -7.318   5.476  1.00  0.00     0.034 A 
ATOM     59  C   UNL     1       7.788  -9.049   5.066  1.00  0.00     0.049 A 
ATOM     60  C   UNL     1       2.229  -8.622   5.666  1.00  0.00     0.074 A 
ATOM     61  C   UNL     1       8.348 -10.289   5.320  1.00  0.00     0.029 A 
ATOM     62  N   UNL     1       6.425  -9.173   5.285  1.00  0.00    -0.354 N 
ATOM     63  N   UNL     1       3.517  -8.863   5.614  1.00  0.00    -0.248 NA
ATOM     64  C   UNL     1       1.410  -9.803   5.976  1.00  0.00     0.031 C 
ATOM     65  C   UNL     1       7.317 -11.169   5.667  1.00  0.00     0.029 A 
ATOM     66  C   UNL     1       6.120 -10.471   5.658  1.00  0.00     0.049 A 
ATOM     67  H   UNL     1       5.769  -8.445   5.189  1.00  0.00     0.167 HD
ATOM     68  C   UNL     1       3.666 -10.213   5.913  1.00  0.00     0.074 A 
ATOM     69  C   UNL     1       2.337 -10.731   6.168  1.00  0.00     0.031 C 
ATOM     70  C   UNL     1       4.797 -10.959   5.955  1.00  0.00     0.034 A 
BRANCH  57  71
ATOM     71  C   UNL     1       9.930  -7.879   4.398  1.00  0.00     0.023 A 
ATOM     72  C   UNL     1      10.805  -7.266   5.318  1.00  0.00     0.012 A 
ATOM     73  C   UNL     1      10.461  -8.548   3.278  1.00  0.00     0.148 A 
ATOM     74  C   UNL     1      12.184  -7.288   5.108  1.00  0.00     0.002 A 
ATOM     75  C   UNL     1      11.838  -8.603   3.099  1.00  0.00     0.091 A 
ATOM     76  F   UNL     1       9.611  -9.103   2.403  1.00  0.00    -0.205 F 
ATOM     77  C   UNL     1      12.700  -7.964   4.006  1.00  0.00     0.022 A 
BRANCH  75  78
ATOM     78  S   UNL     1      12.603  -9.507   1.749  1.00  0.00     0.127 S 
ATOM     79  O   UNL     1      13.109  -8.418   0.914  1.00  0.00    -0.237 OA
ATOM     80  O   UNL     1      13.637 -10.276   2.441  1.00  0.00    -0.237 OA
ATOM     81  O   UNL     1      11.545 -10.311   1.153  1.00  0.00    -0.744 OA
ENDBRANCH  75  78
ENDBRANCH  57  71
BRANCH  58  82
ATOM     82  C   UNL     1       0.020  -7.235   5.623  1.00  0.00     0.023 A 
ATOM     83  C   UNL     1      -0.566  -7.437   6.888  1.00  0.00     0.012 A 
ATOM     84  C   UNL     1      -0.810  -6.942   4.523  1.00  0.00     0.148 A 
ATOM     85  C   UNL     1      -1.951  -7.377   7.049  1.00  0.00     0.002 A 
ATOM     86  C   UNL     1      -2.184  -6.829   4.701  1.00  0.00     0.091 A 
ATOM     87  F   UNL     1      -0.238  -6.774   3.322  1.00  0.00    -0.205 F 
ATOM     88  C   UNL     1      -2.759  -7.063   5.959  1.00  0.00     0.022 A 
BRANCH  86  89
ATOM     89  S   UNL     1      -3.285  -6.311   3.378  1.00  0.00     0.127 S 
ATOM     90  O   UNL     1      -3.982  -7.556   3.064  1.00  0.00    -0.237 OA
ATOM     91  O   UNL     1      -4.106  -5.298   4.043  1.00  0.00    -0.237 OA
ATOM     92  O   UNL     1      -2.420  -5.788   2.329  1.00  0.00    -0.744 OA
ENDBRANCH  86  89
ENDBRANCH  58  82
BRANCH  70  93
ATOM     93  C   UNL     1       4.657 -12.414   6.321  1.00  0.00     0.023 A 
ATOM     94  C   UNL     1       4.102 -13.319   5.395  1.00  0.00     0.012 A 
ATOM     95  C   UNL     1       5.143 -12.894   7.552  1.00  0.00     0.148 A 
ATOM     96  C   UNL     1       4.003 -14.675   5.702  1.00  0.00     0.002 A 
ATOM     97  C   UNL     1       5.087 -14.254   7.832  1.00  0.00     0.091 A 
ATOM     98  F   UNL     1       5.650 -12.014   8.428  1.00  0.00    -0.205 F 
ATOM     99  C   UNL     1       4.506 -15.144   6.914  1.00  0.00     0.022 A 
BRANCH  97 100
ATOM    100  S   UNL     1       5.798 -14.960   9.323  1.00  0.00     0.127 S 
ATOM    101  O   UNL     1       4.601 -15.291  10.095  1.00  0.00    -0.237 OA
ATOM    102  O   UNL     1       6.528 -16.116   8.803  1.00  0.00    -0.237 OA
ATOM    103  O   UNL     1       6.643 -13.920   9.895  1.00  0.00    -0.744 OA
ENDBRANCH  97 100
ENDBRANCH  70  93
ENDBRANCH  44  45
ENDBRANCH  37  39
ENDBRANCH  36  37
ENDBRANCH  35  36
ENDBRANCH  34  35
ENDBRANCH  33  34
ENDBRANCH  32  33
ENDBRANCH   1  32
TORSDOF 25
