REMARK SMILES O=C(OCCOCCOCCOC(=O)c1ccc(-c2c3nc(c(-c4cccc(S(=O)(=O)[O-])c4F)c4ccc([nH]4)c(-c4cccc(S(=O)(=O)[O-])c4F)c4nc(c(-c5cccc(S(=O)(=O)[O-])c5F)c5ccc2[nH]5)C=C4)C=C3)cc1)c1ccc(/C=C/c2ccc3cccc(O)c3n2)cc1
REMARK SMILES IDX 7 1 6 2 5 3 4 4 3 5 2 6 1 7 78 8 79 9 96 10 80 11 95 12
REMARK SMILES IDX 81 13 82 14 83 15 84 16 85 17 94 18 86 19 93 20 87 21 91 22
REMARK SMILES IDX 88 23 90 24 89 25 92 26 8 28 9 29 10 30 11 31 12 32 13 33
REMARK SMILES IDX 14 34 15 35 16 36 77 37 17 38 76 39 18 40 19 41 20 42 70 43
REMARK SMILES IDX 21 44 75 45 69 46 71 47 22 48 74 49 68 50 67 51 23 53 55 54
REMARK SMILES IDX 35 55 54 56 36 57 39 58 53 59 72 60 37 61 38 62 52 64 73 65
REMARK SMILES IDX 40 66 24 67 25 68 33 69 26 70 28 71 34 72 27 73 29 74 30 75
REMARK SMILES IDX 31 76 32 77 56 78 57 79 65 80 58 81 60 82 66 83 59 84 61 85
REMARK SMILES IDX 62 86 63 87 64 88 41 89 42 90 50 91 43 92 45 93 51 94 44 95
REMARK SMILES IDX 46 96 47 97 48 98 49 99
REMARK H PARENT 92 27 71 52 39 63
REMARK Flexibility Score: inf
ROOT
ATOM      1  C   UNL     1       2.770  -0.267   1.785  1.00  0.00     0.188 C 
ENDROOT
BRANCH   1   2
ATOM      2  O   UNL     1       4.111  -0.679   1.557  1.00  0.00    -0.376 OA
BRANCH   2   3
ATOM      3  C   UNL     1       5.066   0.247   1.056  1.00  0.00     0.202 C 
BRANCH   3   4
ATOM      4  C   UNL     1       4.635   1.294   0.036  1.00  0.00     0.261 C 
BRANCH   4   5
ATOM      5  O   UNL     1       3.342   1.139  -0.569  1.00  0.00    -0.460 OA
BRANCH   5   6
ATOM      6  C   UNL     1       2.800   0.239  -1.408  1.00  0.00     0.338 C 
ATOM      7  O   UNL     1       1.626   0.409  -1.741  1.00  0.00    -0.246 OA
BRANCH   6   8
ATOM      8  C   UNL     1       3.491  -0.955  -1.968  1.00  0.00     0.060 A 
ATOM      9  C   UNL     1       4.265  -1.871  -1.252  1.00  0.00     0.016 A 
ATOM     10  C   UNL     1       3.126  -1.303  -3.270  1.00  0.00     0.016 A 
ATOM     11  C   UNL     1       4.691  -3.088  -1.805  1.00  0.00     0.009 A 
ATOM     12  C   UNL     1       3.519  -2.529  -3.815  1.00  0.00     0.009 A 
ATOM     13  C   UNL     1       4.297  -3.445  -3.084  1.00  0.00    -0.026 A 
BRANCH  13  14
ATOM     14  C   UNL     1       4.693  -4.696  -3.754  1.00  0.00     0.010 C 
ATOM     15  C   UNL     1       5.833  -5.386  -3.542  1.00  0.00     0.029 C 
BRANCH  15  16
ATOM     16  C   UNL     1       6.658  -5.549  -4.788  1.00  0.00     0.064 A 
ATOM     17  C   UNL     1       7.108  -4.283  -5.173  1.00  0.00     0.029 A 
ATOM     18  N   UNL     1       6.299  -6.499  -5.678  1.00  0.00    -0.245 NA
ATOM     19  C   UNL     1       6.323  -3.573  -6.079  1.00  0.00     0.013 A 
ATOM     20  C   UNL     1       6.061  -6.082  -6.959  1.00  0.00     0.113 A 
ATOM     21  C   UNL     1       5.819  -4.326  -7.126  1.00  0.00     0.004 A 
ATOM     22  C   UNL     1       5.918  -7.096  -8.507  1.00  0.00     0.141 A 
ATOM     23  C   UNL     1       5.452  -3.580  -8.731  1.00  0.00     0.010 A 
ATOM     24  C   UNL     1       5.560  -6.379 -10.112  1.00  0.00     0.048 A 
ATOM     25  C   UNL     1       5.442  -4.576 -10.241  1.00  0.00     0.005 A 
BRANCH  22  26
ATOM     26  O   UNL     1       5.967  -8.466  -8.417  1.00  0.00    -0.506 OA
ATOM     27  H   UNL     1       5.896  -8.990  -9.192  1.00  0.00     0.293 HD
ENDBRANCH  22  26
ENDBRANCH  15  16
ENDBRANCH  13  14
ENDBRANCH   6   8
ENDBRANCH   5   6
ENDBRANCH   4   5
ENDBRANCH   3   4
ENDBRANCH   2   3
ENDBRANCH   1   2
BRANCH   1  28
ATOM     28  C   UNL     1       2.096  -1.096   2.882  1.00  0.00     0.188 C 
BRANCH  28  29
ATOM     29  O   UNL     1       2.705  -1.071   4.168  1.00  0.00    -0.376 OA
BRANCH  29  30
ATOM     30  C   UNL     1       4.098  -1.358   4.226  1.00  0.00     0.202 C 
BRANCH  30  31
ATOM     31  C   UNL     1       4.598  -2.759   3.812  1.00  0.00     0.261 C 
BRANCH  31  32
ATOM     32  O   UNL     1       4.145  -3.292   2.552  1.00  0.00    -0.460 OA
BRANCH  32  33
ATOM     33  C   UNL     1       3.210  -4.269   2.652  1.00  0.00     0.338 C 
ATOM     34  O   UNL     1       2.642  -4.635   3.670  1.00  0.00    -0.246 OA
BRANCH  33  35
ATOM     35  C   UNL     1       2.938  -4.904   1.348  1.00  0.00     0.060 A 
ATOM     36  C   UNL     1       1.831  -4.514   0.587  1.00  0.00     0.016 A 
ATOM     37  C   UNL     1       3.650  -6.054   1.005  1.00  0.00     0.016 A 
ATOM     38  C   UNL     1       1.398  -5.313  -0.482  1.00  0.00     0.010 A 
ATOM     39  C   UNL     1       3.230  -6.833  -0.081  1.00  0.00     0.010 A 
ATOM     40  C   UNL     1       2.073  -6.499  -0.811  1.00  0.00    -0.014 A 
BRANCH  40  41
ATOM     41  C   UNL     1       1.562  -7.454  -1.841  1.00  0.00     0.031 A 
ATOM     42  C   UNL     1       1.154  -8.846  -1.451  1.00  0.00     0.074 A 
ATOM     43  C   UNL     1       1.483  -7.139  -3.146  1.00  0.00     0.049 A 
ATOM     44  N   UNL     1       0.937  -9.887  -2.213  1.00  0.00    -0.248 NA
ATOM     45  C   UNL     1       0.933  -9.083  -0.019  1.00  0.00     0.031 C 
ATOM     46  C   UNL     1       1.708  -5.818  -3.707  1.00  0.00     0.029 A 
ATOM     47  N   UNL     1       1.265  -7.942  -4.246  1.00  0.00    -0.354 N 
ATOM     48  C   UNL     1       0.566 -10.913  -1.357  1.00  0.00     0.074 A 
ATOM     49  C   UNL     1       0.617 -10.370  -0.013  1.00  0.00     0.031 C 
ATOM     50  C   UNL     1       1.738  -5.911  -5.044  1.00  0.00     0.029 A 
ATOM     51  C   UNL     1       1.583  -7.311  -5.424  1.00  0.00     0.049 A 
ATOM     52  H   UNL     1       0.919  -8.862  -4.193  1.00  0.00     0.167 HD
ATOM     53  C   UNL     1       0.198 -12.182  -1.659  1.00  0.00     0.034 A 
ATOM     54  C   UNL     1       1.837  -7.796  -6.656  1.00  0.00     0.034 A 
ATOM     55  C   UNL     1       0.154 -12.738  -2.987  1.00  0.00     0.049 A 
ATOM     56  C   UNL     1       1.712  -9.257  -6.954  1.00  0.00     0.074 A 
ATOM     57  C   UNL     1      -0.268 -13.999  -3.376  1.00  0.00     0.029 A 
ATOM     58  N   UNL     1       0.589 -12.097  -4.135  1.00  0.00    -0.354 N 
ATOM     59  N   UNL     1       1.341 -10.221  -6.152  1.00  0.00    -0.248 NA
ATOM     60  C   UNL     1       2.003  -9.692  -8.328  1.00  0.00     0.031 C 
ATOM     61  C   UNL     1      -0.020 -14.145  -4.746  1.00  0.00     0.029 A 
ATOM     62  C   UNL     1       0.480 -12.946  -5.226  1.00  0.00     0.049 A 
ATOM     63  H   UNL     1       0.926 -11.173  -4.171  1.00  0.00     0.167 HD
ATOM     64  C   UNL     1       1.270 -11.363  -6.941  1.00  0.00     0.074 A 
ATOM     65  C   UNL     1       1.689 -10.981  -8.273  1.00  0.00     0.031 C 
ATOM     66  C   UNL     1       0.846 -12.597  -6.577  1.00  0.00     0.034 A 
BRANCH  53  67
ATOM     67  C   UNL     1      -0.160 -13.076  -0.503  1.00  0.00     0.023 A 
ATOM     68  C   UNL     1      -1.328 -12.834   0.249  1.00  0.00     0.012 A 
ATOM     69  C   UNL     1       0.667 -14.164  -0.170  1.00  0.00     0.148 A 
ATOM     70  C   UNL     1      -1.629 -13.623   1.359  1.00  0.00     0.002 A 
ATOM     71  C   UNL     1       0.329 -14.980   0.900  1.00  0.00     0.091 A 
ATOM     72  F   UNL     1       1.780 -14.367  -0.890  1.00  0.00    -0.205 F 
ATOM     73  C   UNL     1      -0.805 -14.699   1.679  1.00  0.00     0.022 A 
BRANCH  71  74
ATOM     74  S   UNL     1       1.280 -16.439   1.331  1.00  0.00     0.127 S 
ATOM     75  O   UNL     1       1.926 -16.014   2.571  1.00  0.00    -0.237 OA
ATOM     76  O   UNL     1       0.233 -17.447   1.502  1.00  0.00    -0.237 OA
ATOM     77  O   UNL     1       2.176 -16.682   0.209  1.00  0.00    -0.744 OA
ENDBRANCH  71  74
ENDBRANCH  53  67
BRANCH  54  78
ATOM     78  C   UNL     1       2.390  -6.850  -7.668  1.00  0.00     0.023 A 
ATOM     79  C   UNL     1       1.546  -6.324  -8.623  1.00  0.00     0.012 A 
ATOM     80  C   UNL     1       3.798  -6.511  -7.595  1.00  0.00     0.148 A 
ATOM     81  C   UNL     1       2.051  -5.346  -9.439  1.00  0.00     0.002 A 
ATOM     82  C   UNL     1       4.620  -5.485  -8.476  1.00  0.00     0.091 A 
ATOM     83  F   UNL     1       4.325  -7.337  -6.663  1.00  0.00    -0.205 F 
ATOM     84  C   UNL     1       3.408  -4.904  -9.327  1.00  0.00     0.022 A 
BRANCH  82  85
ATOM     85  S   UNL     1       7.141  -5.190  -8.866  1.00  0.00     0.127 S 
ATOM     86  O   UNL     1       7.561  -5.398 -10.286  1.00  0.00    -0.237 OA
ATOM     87  O   UNL     1       7.640  -3.825  -8.507  1.00  0.00    -0.237 OA
ATOM     88  O   UNL     1       7.964  -6.138  -8.067  1.00  0.00    -0.744 OA
ENDBRANCH  82  85
ENDBRANCH  54  78
BRANCH  66  89
ATOM     89  C   UNL     1       0.650 -13.632  -7.653  1.00  0.00     0.023 A 
ATOM     90  C   UNL     1       1.740 -14.268  -8.275  1.00  0.00     0.012 A 
ATOM     91  C   UNL     1      -0.663 -14.029  -7.990  1.00  0.00     0.148 A 
ATOM     92  C   UNL     1       1.525 -15.270  -9.225  1.00  0.00     0.002 A 
ATOM     93  C   UNL     1      -0.868 -15.062  -8.893  1.00  0.00     0.091 A 
ATOM     94  F   UNL     1      -1.689 -13.391  -7.407  1.00  0.00    -0.205 F 
ATOM     95  C   UNL     1       0.225 -15.677  -9.523  1.00  0.00     0.022 A 
BRANCH  93  96
ATOM     96  S   UNL     1      -2.503 -15.710  -9.262  1.00  0.00     0.127 S 
ATOM     97  O   UNL     1      -2.653 -15.358 -10.673  1.00  0.00    -0.237 OA
ATOM     98  O   UNL     1      -2.332 -17.140  -9.004  1.00  0.00    -0.237 OA
ATOM     99  O   UNL     1      -3.423 -15.034  -8.357  1.00  0.00    -0.744 OA
ENDBRANCH  93  96
ENDBRANCH  66  89
ENDBRANCH  40  41
ENDBRANCH  33  35
ENDBRANCH  32  33
ENDBRANCH  31  32
ENDBRANCH  30  31
ENDBRANCH  29  30
ENDBRANCH  28  29
ENDBRANCH   1  28
TORSDOF 23
