REMARK SMILES O=C(OCCOCCOCCOC(=O)[C@@H](NC(=O)[C@H]1CC[C@@H]2CCCC[C@H]2[NH2+]1)C1CC1)c1ccc(-c2c3nc(c(-c4cccc(S(=O)(=O)[O-])c4F)c4ccc([nH]4)c(-c4cccc(S(=O)(=O)[O-])c4F)c4nc(c(-c5cccc(S(=O)(=O)[O-])c5F)c5ccc2[nH]5)C=C4)C=C3)cc1
REMARK SMILES IDX 7 1 6 2 5 3 4 4 3 5 2 6 1 7 32 8 33 9 94 10 34 11 93 12
REMARK SMILES IDX 35 13 36 14 37 15 87 16 38 17 92 18 86 19 88 20 39 21 91 22
REMARK SMILES IDX 85 23 84 24 40 26 72 27 52 28 71 29 53 30 56 31 70 32 89 33
REMARK SMILES IDX 54 34 55 35 69 37 90 38 57 39 41 40 42 41 50 42 43 43 45 44
REMARK SMILES IDX 51 45 44 46 46 47 47 48 48 49 49 50 73 51 74 52 82 53 75 54
REMARK SMILES IDX 77 55 83 56 76 57 78 58 79 59 80 60 81 61 58 62 59 63 67 64
REMARK SMILES IDX 60 65 62 66 68 67 61 68 63 69 64 70 65 71 66 72 8 73 9 74
REMARK SMILES IDX 10 75 11 76 12 77 13 78 14 79 15 80 16 81 17 82 18 84 19 85
REMARK SMILES IDX 20 86 28 87 21 88 27 89 22 92 26 93 23 94 25 95 24 96 29 97
REMARK SMILES IDX 30 98 31 99
REMARK H PARENT 88 25 56 36 16 83 28 90 28 91
REMARK Flexibility Score: inf
ROOT
ATOM      1  C   UNL     1       3.161  11.635  -6.414  1.00  0.00     0.188 C 
ENDROOT
BRANCH   1   2
ATOM      2  O   UNL     1       3.227  10.445  -7.213  1.00  0.00    -0.376 OA
BRANCH   2   3
ATOM      3  C   UNL     1       2.499  10.534  -8.445  1.00  0.00     0.202 C 
BRANCH   3   4
ATOM      4  C   UNL     1       0.966  10.602  -8.340  1.00  0.00     0.261 C 
BRANCH   4   5
ATOM      5  O   UNL     1       0.490  11.107  -7.085  1.00  0.00    -0.460 OA
BRANCH   5   6
ATOM      6  C   UNL     1       0.152  10.422  -5.964  1.00  0.00     0.338 C 
ATOM      7  O   UNL     1      -0.286  11.065  -5.011  1.00  0.00    -0.246 OA
BRANCH   6   8
ATOM      8  C   UNL     1       0.262   8.937  -5.819  1.00  0.00     0.060 A 
ATOM      9  C   UNL     1       1.166   8.115  -6.496  1.00  0.00     0.016 A 
ATOM     10  C   UNL     1      -0.576   8.339  -4.860  1.00  0.00     0.016 A 
ATOM     11  C   UNL     1       1.172   6.732  -6.298  1.00  0.00     0.010 A 
ATOM     12  C   UNL     1      -0.553   6.958  -4.632  1.00  0.00     0.010 A 
ATOM     13  C   UNL     1       0.297   6.143  -5.381  1.00  0.00    -0.014 A 
BRANCH  13  14
ATOM     14  C   UNL     1       0.179   4.666  -5.359  1.00  0.00     0.031 A 
ATOM     15  C   UNL     1      -0.857   4.049  -6.237  1.00  0.00     0.074 A 
ATOM     16  C   UNL     1       0.982   3.913  -4.585  1.00  0.00     0.049 A 
ATOM     17  N   UNL     1      -1.062   2.791  -6.500  1.00  0.00    -0.248 NA
ATOM     18  C   UNL     1      -1.842   4.966  -6.840  1.00  0.00     0.031 C 
ATOM     19  C   UNL     1       1.859   4.464  -3.572  1.00  0.00     0.029 A 
ATOM     20  N   UNL     1       1.245   2.564  -4.535  1.00  0.00    -0.354 N 
ATOM     21  C   UNL     1      -2.291   2.751  -7.143  1.00  0.00     0.074 A 
ATOM     22  C   UNL     1      -2.722   4.115  -7.343  1.00  0.00     0.031 C 
ATOM     23  C   UNL     1       2.697   3.512  -3.136  1.00  0.00     0.029 A 
ATOM     24  C   UNL     1       2.364   2.247  -3.772  1.00  0.00     0.049 A 
ATOM     25  H   UNL     1       0.695   1.889  -4.995  1.00  0.00     0.167 HD
ATOM     26  C   UNL     1      -3.022   1.655  -7.439  1.00  0.00     0.034 A 
ATOM     27  C   UNL     1       3.032   1.073  -3.666  1.00  0.00     0.034 A 
ATOM     28  C   UNL     1      -2.544   0.320  -7.213  1.00  0.00     0.049 A 
ATOM     29  C   UNL     1       2.353  -0.100  -4.355  1.00  0.00     0.074 A 
ATOM     30  C   UNL     1      -3.184  -0.883  -7.439  1.00  0.00     0.029 A 
ATOM     31  N   UNL     1      -1.295   0.021  -6.686  1.00  0.00    -0.354 N 
ATOM     32  N   UNL     1       1.330  -0.100  -5.181  1.00  0.00    -0.248 NA
ATOM     33  C   UNL     1       2.902  -1.440  -4.098  1.00  0.00     0.031 C 
ATOM     34  C   UNL     1      -2.328  -1.910  -7.027  1.00  0.00     0.029 A 
ATOM     35  C   UNL     1      -1.143  -1.347  -6.577  1.00  0.00     0.049 A 
ATOM     36  H   UNL     1      -0.617   0.686  -6.428  1.00  0.00     0.167 HD
ATOM     37  C   UNL     1       1.109  -1.428  -5.510  1.00  0.00     0.074 A 
ATOM     38  C   UNL     1       2.216  -2.179  -4.955  1.00  0.00     0.031 C 
ATOM     39  C   UNL     1       0.034  -2.016  -6.093  1.00  0.00     0.034 A 
BRANCH  26  40
ATOM     40  C   UNL     1      -4.434   1.878  -7.901  1.00  0.00     0.023 A 
ATOM     41  C   UNL     1      -4.705   2.403  -9.178  1.00  0.00     0.012 A 
ATOM     42  C   UNL     1      -5.502   1.592  -7.027  1.00  0.00     0.148 A 
ATOM     43  C   UNL     1      -6.017   2.680  -9.563  1.00  0.00     0.002 A 
ATOM     44  C   UNL     1      -6.808   1.821  -7.436  1.00  0.00     0.091 A 
ATOM     45  F   UNL     1      -5.219   1.128  -5.801  1.00  0.00    -0.205 F 
ATOM     46  C   UNL     1      -7.067   2.382  -8.697  1.00  0.00     0.022 A 
BRANCH  44  47
ATOM     47  S   UNL     1      -8.229   1.400  -6.424  1.00  0.00     0.127 S 
ATOM     48  O   UNL     1      -8.811   2.717  -6.167  1.00  0.00    -0.237 OA
ATOM     49  O   UNL     1      -9.006   0.556  -7.332  1.00  0.00    -0.237 OA
ATOM     50  O   UNL     1      -7.704   0.715  -5.251  1.00  0.00    -0.744 OA
ENDBRANCH  44  47
ENDBRANCH  26  40
BRANCH  27  51
ATOM     51  C   UNL     1       4.406   0.908  -3.034  1.00  0.00     0.023 A 
ATOM     52  C   UNL     1       5.369   0.118  -3.709  1.00  0.00     0.012 A 
ATOM     53  C   UNL     1       4.832   1.505  -1.832  1.00  0.00     0.148 A 
ATOM     54  C   UNL     1       6.645  -0.137  -3.191  1.00  0.00     0.002 A 
ATOM     55  C   UNL     1       6.165   1.406  -1.420  1.00  0.00     0.091 A 
ATOM     56  F   UNL     1       3.934   2.132  -1.062  1.00  0.00    -0.205 F 
ATOM     57  C   UNL     1       7.060   0.545  -2.064  1.00  0.00     0.022 A 
BRANCH  55  58
ATOM     58  S   UNL     1       6.877   2.499  -0.182  1.00  0.00     0.127 S 
ATOM     59  O   UNL     1       7.372   1.550   0.815  1.00  0.00    -0.237 OA
ATOM     60  O   UNL     1       7.918   3.176  -0.960  1.00  0.00    -0.237 OA
ATOM     61  O   UNL     1       5.792   3.364   0.251  1.00  0.00    -0.744 OA
ENDBRANCH  55  58
ENDBRANCH  27  51
BRANCH  39  62
ATOM     62  C   UNL     1       0.039  -3.519  -6.118  1.00  0.00     0.023 A 
ATOM     63  C   UNL     1      -0.066  -4.227  -4.900  1.00  0.00     0.012 A 
ATOM     64  C   UNL     1       0.132  -4.224  -7.328  1.00  0.00     0.148 A 
ATOM     65  C   UNL     1      -0.001  -5.616  -4.882  1.00  0.00     0.002 A 
ATOM     66  C   UNL     1       0.133  -5.611  -7.307  1.00  0.00     0.091 A 
ATOM     67  F   UNL     1       0.234  -3.527  -8.469  1.00  0.00    -0.205 F 
ATOM     68  C   UNL     1       0.091  -6.308  -6.086  1.00  0.00     0.022 A 
BRANCH  66  69
ATOM     69  S   UNL     1       0.147  -6.596  -8.805  1.00  0.00     0.127 S 
ATOM     70  O   UNL     1       1.466  -7.222  -8.736  1.00  0.00    -0.237 OA
ATOM     71  O   UNL     1      -0.976  -7.506  -8.581  1.00  0.00    -0.237 OA
ATOM     72  O   UNL     1      -0.040  -5.659  -9.905  1.00  0.00    -0.744 OA
ENDBRANCH  66  69
ENDBRANCH  39  62
ENDBRANCH  13  14
ENDBRANCH   6   8
ENDBRANCH   5   6
ENDBRANCH   4   5
ENDBRANCH   3   4
ENDBRANCH   2   3
ENDBRANCH   1   2
BRANCH   1  73
ATOM     73  C   UNL     1       4.484  11.962  -5.723  1.00  0.00     0.188 C 
BRANCH  73  74
ATOM     74  O   UNL     1       5.542  12.446  -6.551  1.00  0.00    -0.376 OA
BRANCH  74  75
ATOM     75  C   UNL     1       5.880  11.682  -7.702  1.00  0.00     0.202 C 
BRANCH  75  76
ATOM     76  C   UNL     1       6.606  10.351  -7.486  1.00  0.00     0.261 C 
BRANCH  76  77
ATOM     77  O   UNL     1       6.043   9.542  -6.457  1.00  0.00    -0.462 OA
BRANCH  77  78
ATOM     78  C   UNL     1       6.705   9.531  -5.253  1.00  0.00     0.329 C 
ATOM     79  O   UNL     1       7.672  10.237  -4.989  1.00  0.00    -0.250 OA
BRANCH  78  80
ATOM     80  C   UNL     1       5.973   8.616  -4.244  1.00  0.00     0.195 C 
BRANCH  80  81
ATOM     81  N   UNL     1       5.155   7.699  -5.044  1.00  0.00    -0.337 N 
ATOM     82  C   UNL     1       4.536   6.618  -4.502  1.00  0.00     0.278 C 
ATOM     83  H   UNL     1       5.051   7.873  -6.007  1.00  0.00     0.164 HD
ATOM     84  O   UNL     1       3.489   6.806  -3.894  1.00  0.00    -0.268 OA
BRANCH  82  85
ATOM     85  C   UNL     1       5.173   5.237  -4.791  1.00  0.00     0.272 C 
ATOM     86  C   UNL     1       4.685   4.585  -6.088  1.00  0.00     0.076 C 
ATOM     87  N   UNL     1       6.647   5.353  -4.884  1.00  0.00    -0.333 N 
ATOM     88  C   UNL     1       5.338   3.203  -6.283  1.00  0.00     0.016 C 
ATOM     89  C   UNL     1       7.239   4.023  -4.846  1.00  0.00     0.186 C 
ATOM     90  H   UNL     1       6.995   5.904  -4.099  1.00  0.00     0.347 HD
ATOM     91  H   UNL     1       6.898   5.814  -5.758  1.00  0.00     0.347 HD
ATOM     92  C   UNL     1       6.871   3.256  -6.119  1.00  0.00     0.048 C 
ATOM     93  C   UNL     1       8.753   4.160  -4.697  1.00  0.00     0.065 C 
ATOM     94  C   UNL     1       7.500   1.861  -6.048  1.00  0.00     0.010 C 
ATOM     95  C   UNL     1       9.374   2.778  -4.566  1.00  0.00     0.006 C 
ATOM     96  C   UNL     1       9.003   1.886  -5.749  1.00  0.00     0.001 C 
ENDBRANCH  82  85
ENDBRANCH  80  81
BRANCH  80  97
ATOM     97  C   UNL     1       6.932   7.939  -3.296  1.00  0.00     0.023 C 
ATOM     98  C   UNL     1       7.158   8.441  -1.889  1.00  0.00     0.007 C 
ATOM     99  C   UNL     1       6.442   7.143  -2.095  1.00  0.00     0.007 C 
ENDBRANCH  80  97
ENDBRANCH  78  80
ENDBRANCH  77  78
ENDBRANCH  76  77
ENDBRANCH  75  76
ENDBRANCH  74  75
ENDBRANCH  73  74
ENDBRANCH   1  73
TORSDOF 23
