REMARK SMILES O=C(OCCOCCOCCOC(=O)c1ccc(N[C@@H]2CCCS(=O)(=O)C2)c(F)c1F)c1ccc(-c2c3nc(c(-c4cccc(S(=O)(=O)[O-])c4F)c4ccc([nH]4)c(-c4cccc(S(=O)(=O)[O-])c4F)c4nc(c(-c5cccc(S(=O)(=O)[O-])c5F)c5ccc2[nH]5)C=C4)C=C3)cc1
REMARK SMILES IDX 7 1 6 2 5 3 4 4 3 5 2 6 1 7 32 8 33 9 94 10 34 11 93 12
REMARK SMILES IDX 35 13 36 14 37 15 87 16 38 17 92 18 86 19 88 20 39 21 91 22
REMARK SMILES IDX 85 23 84 24 40 26 72 27 52 28 71 29 53 30 56 31 70 32 89 33
REMARK SMILES IDX 54 34 55 35 69 37 90 38 57 39 41 40 42 41 50 42 43 43 45 44
REMARK SMILES IDX 51 45 44 46 46 47 47 48 48 49 49 50 73 51 74 52 82 53 75 54
REMARK SMILES IDX 77 55 83 56 76 57 78 58 79 59 80 60 81 61 58 62 59 63 67 64
REMARK SMILES IDX 60 65 62 66 68 67 61 68 63 69 64 70 65 71 66 72 8 73 9 74
REMARK SMILES IDX 10 75 11 76 12 77 13 78 14 79 15 80 16 81 30 82 17 83 28 84
REMARK SMILES IDX 31 85 18 86 29 87 19 88 20 90 21 91 27 92 22 93 24 94 23 95
REMARK SMILES IDX 25 96 26 97
REMARK H PARENT 88 25 56 36 19 89
REMARK Flexibility Score: inf
ROOT
ATOM      1  C   UNL     1       2.813   0.069  -1.814  1.00  0.00     0.188 C 
ENDROOT
BRANCH   1   2
ATOM      2  O   UNL     1       4.185   0.404  -1.653  1.00  0.00    -0.376 OA
BRANCH   2   3
ATOM      3  C   UNL     1       5.041  -0.584  -1.078  1.00  0.00     0.202 C 
BRANCH   3   4
ATOM      4  C   UNL     1       4.527  -1.474   0.071  1.00  0.00     0.261 C 
BRANCH   4   5
ATOM      5  O   UNL     1       3.160  -1.306   0.514  1.00  0.00    -0.460 OA
BRANCH   5   6
ATOM      6  C   UNL     1       2.530  -0.440   1.341  1.00  0.00     0.338 C 
ATOM      7  O   UNL     1       1.359  -0.664   1.638  1.00  0.00    -0.246 OA
BRANCH   6   8
ATOM      8  C   UNL     1       3.177   0.776   1.901  1.00  0.00     0.060 A 
ATOM      9  C   UNL     1       4.275   1.402   1.331  1.00  0.00     0.016 A 
ATOM     10  C   UNL     1       2.619   1.362   3.045  1.00  0.00     0.016 A 
ATOM     11  C   UNL     1       4.953   2.425   1.971  1.00  0.00     0.010 A 
ATOM     12  C   UNL     1       3.236   2.464   3.654  1.00  0.00     0.010 A 
ATOM     13  C   UNL     1       4.464   2.937   3.164  1.00  0.00    -0.014 A 
BRANCH  13  14
ATOM     14  C   UNL     1       5.376   3.759   3.992  1.00  0.00     0.031 A 
ATOM     15  C   UNL     1       5.912   3.119   5.247  1.00  0.00     0.074 A 
ATOM     16  C   UNL     1       5.848   4.947   3.558  1.00  0.00     0.049 A 
ATOM     17  N   UNL     1       6.728   3.608   6.137  1.00  0.00    -0.248 NA
ATOM     18  C   UNL     1       5.512   1.721   5.515  1.00  0.00     0.031 C 
ATOM     19  C   UNL     1       5.584   5.531   2.241  1.00  0.00     0.029 A 
ATOM     20  N   UNL     1       6.684   5.862   4.149  1.00  0.00    -0.354 N 
ATOM     21  C   UNL     1       6.893   2.607   7.087  1.00  0.00     0.074 A 
ATOM     22  C   UNL     1       6.097   1.479   6.675  1.00  0.00     0.031 C 
ATOM     23  C   UNL     1       6.253   6.692   2.134  1.00  0.00     0.029 A 
ATOM     24  C   UNL     1       6.886   7.005   3.398  1.00  0.00     0.049 A 
ATOM     25  H   UNL     1       7.103   5.718   5.029  1.00  0.00     0.167 HD
ATOM     26  C   UNL     1       7.652   2.633   8.204  1.00  0.00     0.034 A 
ATOM     27  C   UNL     1       7.489   8.169   3.723  1.00  0.00     0.034 A 
ATOM     28  C   UNL     1       8.451   3.765   8.572  1.00  0.00     0.049 A 
ATOM     29  C   UNL     1       8.222   8.193   5.027  1.00  0.00     0.074 A 
ATOM     30  C   UNL     1       9.259   3.928   9.681  1.00  0.00     0.029 A 
ATOM     31  N   UNL     1       8.525   4.940   7.839  1.00  0.00    -0.354 N 
ATOM     32  N   UNL     1       8.319   7.253   5.935  1.00  0.00    -0.248 NA
ATOM     33  C   UNL     1       9.017   9.396   5.293  1.00  0.00     0.031 C 
ATOM     34  C   UNL     1       9.772   5.228   9.648  1.00  0.00     0.029 A 
ATOM     35  C   UNL     1       9.341   5.846   8.485  1.00  0.00     0.049 A 
ATOM     36  H   UNL     1       8.063   5.103   6.984  1.00  0.00     0.167 HD
ATOM     37  C   UNL     1       9.218   7.737   6.868  1.00  0.00     0.074 A 
ATOM     38  C   UNL     1       9.637   9.047   6.407  1.00  0.00     0.031 C 
ATOM     39  C   UNL     1       9.684   7.152   7.996  1.00  0.00     0.034 A 
BRANCH  26  40
ATOM     40  C   UNL     1       7.587   1.444   9.123  1.00  0.00     0.023 A 
ATOM     41  C   UNL     1       8.167   0.211   8.765  1.00  0.00     0.012 A 
ATOM     42  C   UNL     1       6.932   1.566  10.363  1.00  0.00     0.148 A 
ATOM     43  C   UNL     1       8.063  -0.893   9.614  1.00  0.00     0.002 A 
ATOM     44  C   UNL     1       6.878   0.480  11.225  1.00  0.00     0.091 A 
ATOM     45  F   UNL     1       6.355   2.737  10.667  1.00  0.00    -0.205 F 
ATOM     46  C   UNL     1       7.429  -0.755  10.847  1.00  0.00     0.022 A 
BRANCH  44  47
ATOM     47  S   UNL     1       6.148   0.583  12.861  1.00  0.00     0.127 S 
ATOM     48  O   UNL     1       4.992  -0.303  12.724  1.00  0.00    -0.237 OA
ATOM     49  O   UNL     1       7.221   0.061  13.705  1.00  0.00    -0.237 OA
ATOM     50  O   UNL     1       5.830   1.988  13.074  1.00  0.00    -0.744 OA
ENDBRANCH  44  47
ENDBRANCH  26  40
BRANCH  27  51
ATOM     51  C   UNL     1       7.543   9.387   2.850  1.00  0.00     0.023 A 
ATOM     52  C   UNL     1       8.496   9.455   1.819  1.00  0.00     0.012 A 
ATOM     53  C   UNL     1       6.750  10.533   3.121  1.00  0.00     0.148 A 
ATOM     54  C   UNL     1       8.637  10.616   1.051  1.00  0.00     0.002 A 
ATOM     55  C   UNL     1       6.868  11.678   2.323  1.00  0.00     0.091 A 
ATOM     56  F   UNL     1       5.893  10.473   4.151  1.00  0.00    -0.205 F 
ATOM     57  C   UNL     1       7.816  11.716   1.290  1.00  0.00     0.022 A 
BRANCH  55  58
ATOM     58  S   UNL     1       5.789  13.131   2.443  1.00  0.00     0.127 S 
ATOM     59  O   UNL     1       6.757  14.201   2.685  1.00  0.00    -0.237 OA
ATOM     60  O   UNL     1       5.177  13.180   1.109  1.00  0.00    -0.237 OA
ATOM     61  O   UNL     1       4.874  12.890   3.552  1.00  0.00    -0.744 OA
ENDBRANCH  55  58
ENDBRANCH  27  51
BRANCH  39  62
ATOM     62  C   UNL     1      10.687   7.944   8.774  1.00  0.00     0.023 A 
ATOM     63  C   UNL     1      10.289   9.102   9.469  1.00  0.00     0.012 A 
ATOM     64  C   UNL     1      12.029   7.526   8.809  1.00  0.00     0.148 A 
ATOM     65  C   UNL     1      11.231   9.867  10.147  1.00  0.00     0.002 A 
ATOM     66  C   UNL     1      12.947   8.256   9.543  1.00  0.00     0.091 A 
ATOM     67  F   UNL     1      12.380   6.437   8.109  1.00  0.00    -0.205 F 
ATOM     68  C   UNL     1      12.556   9.438  10.195  1.00  0.00     0.022 A 
BRANCH  66  69
ATOM     69  S   UNL     1      14.642   7.712   9.751  1.00  0.00     0.127 S 
ATOM     70  O   UNL     1      15.372   8.694   8.952  1.00  0.00    -0.237 OA
ATOM     71  O   UNL     1      14.828   7.838  11.197  1.00  0.00    -0.237 OA
ATOM     72  O   UNL     1      14.692   6.343   9.254  1.00  0.00    -0.744 OA
ENDBRANCH  66  69
ENDBRANCH  39  62
ENDBRANCH  13  14
ENDBRANCH   6   8
ENDBRANCH   5   6
ENDBRANCH   4   5
ENDBRANCH   3   4
ENDBRANCH   2   3
ENDBRANCH   1   2
BRANCH   1  73
ATOM     73  C   UNL     1       2.152   0.560  -3.102  1.00  0.00     0.188 C 
BRANCH  73  74
ATOM     74  O   UNL     1       2.833   0.342  -4.329  1.00  0.00    -0.376 OA
BRANCH  74  75
ATOM     75  C   UNL     1       4.188   0.767  -4.418  1.00  0.00     0.202 C 
BRANCH  75  76
ATOM     76  C   UNL     1       4.534   2.249  -4.198  1.00  0.00     0.261 C 
BRANCH  76  77
ATOM     77  O   UNL     1       3.986   2.861  -3.022  1.00  0.00    -0.460 OA
BRANCH  77  78
ATOM     78  C   UNL     1       2.918   3.657  -3.255  1.00  0.00     0.341 C 
ATOM     79  O   UNL     1       2.347   3.858  -4.314  1.00  0.00    -0.246 OA
BRANCH  78  80
ATOM     80  C   UNL     1       2.602   4.422  -2.059  1.00  0.00     0.099 A 
ATOM     81  C   UNL     1       3.131   5.700  -2.028  1.00  0.00     0.021 A 
ATOM     82  C   UNL     1       1.675   4.013  -1.105  1.00  0.00     0.175 A 
ATOM     83  C   UNL     1       2.687   6.578  -1.057  1.00  0.00     0.030 A 
ATOM     84  C   UNL     1       1.282   4.897  -0.099  1.00  0.00     0.182 A 
ATOM     85  F   UNL     1       1.119   2.795  -1.160  1.00  0.00    -0.203 F 
ATOM     86  C   UNL     1       1.779   6.206  -0.050  1.00  0.00     0.074 A 
ATOM     87  F   UNL     1       0.388   4.497   0.821  1.00  0.00    -0.201 F 
BRANCH  86  88
ATOM     88  N   UNL     1       1.355   7.097   0.932  1.00  0.00    -0.379 N 
ATOM     89  H   UNL     1       0.635   6.808   1.537  1.00  0.00     0.160 HD
BRANCH  88  90
ATOM     90  C   UNL     1       1.918   8.448   1.123  1.00  0.00     0.094 C 
ATOM     91  C   UNL     1       1.342   9.374   0.021  1.00  0.00     0.027 C 
ATOM     92  C   UNL     1       3.420   8.323   1.333  1.00  0.00     0.161 C 
ATOM     93  C   UNL     1       2.106  10.652  -0.291  1.00  0.00     0.018 C 
ATOM     94  S   UNL     1       4.353   9.694   0.793  1.00  0.00     0.152 S 
ATOM     95  C   UNL     1       3.542  10.358  -0.619  1.00  0.00     0.137 C 
ATOM     96  O   UNL     1       5.628   9.212   0.316  1.00  0.00    -0.229 OA
ATOM     97  O   UNL     1       4.191  10.632   1.879  1.00  0.00    -0.229 OA
ENDBRANCH  88  90
ENDBRANCH  86  88
ENDBRANCH  78  80
ENDBRANCH  77  78
ENDBRANCH  76  77
ENDBRANCH  75  76
ENDBRANCH  74  75
ENDBRANCH  73  74
ENDBRANCH   1  73
TORSDOF 22
