REMARK SMILES Cc1cc(-c2cc(C(=O)OCCOCCOCCOC(=O)c3ccc(-c4c5nc(c(-c6cccc(S(=O)(=O)[O-])c6F)c6ccc([nH]6)c(-c6cccc(S(=O)(=O)[O-])c6F)c6nc(c(-c7cccc(S(=O)(=O)[O-])c7F)c7ccc4[nH]7)C=C6)C=C5)cc3)c[nH]c2=O)ccc1Cl
REMARK SMILES IDX 15 1 14 2 13 3 12 4 11 5 10 6 8 7 9 8 7 9 5 10 6 11 87 12
REMARK SMILES IDX 86 13 88 14 85 15 4 17 1 18 2 19 3 20 91 21 90 22 92 23
REMARK SMILES IDX 89 24 16 25 17 26 18 27 19 28 20 29 21 30 22 31 23 32 84 33
REMARK SMILES IDX 24 34 83 35 25 36 26 37 27 38 77 39 28 40 82 41 76 42 78 43
REMARK SMILES IDX 29 44 81 45 75 46 74 47 30 49 62 50 42 51 61 52 43 53 46 54
REMARK SMILES IDX 60 55 79 56 44 57 45 58 59 60 80 61 47 62 31 63 32 64 40 65
REMARK SMILES IDX 33 66 35 67 41 68 34 69 36 70 37 71 38 72 39 73 63 74 64 75
REMARK SMILES IDX 72 76 65 77 67 78 73 79 66 80 68 81 69 82 70 83 71 84 48 85
REMARK SMILES IDX 49 86 57 87 50 88 52 89 58 90 51 91 53 92 54 93 55 94 56 95
REMARK H PARENT 86 16 78 48 46 59
REMARK Flexibility Score: inf
ROOT
ATOM      1  C   UNL     1      -6.788   0.801   3.446  1.00  0.00     0.188 C 
ENDROOT
BRANCH   1   2
ATOM      2  C   UNL     1      -8.178   0.171   3.226  1.00  0.00     0.188 C 
BRANCH   2   3
ATOM      3  O   UNL     1      -8.726  -0.608   4.264  1.00  0.00    -0.376 OA
BRANCH   3   4
ATOM      4  C   UNL     1      -8.224  -1.898   4.560  1.00  0.00     0.202 C 
BRANCH   4   5
ATOM      5  C   UNL     1      -7.311  -2.736   3.645  1.00  0.00     0.261 C 
BRANCH   5   6
ATOM      6  O   UNL     1      -6.479  -2.025   2.725  1.00  0.00    -0.460 OA
BRANCH   6   7
ATOM      7  C   UNL     1      -6.785  -2.188   1.410  1.00  0.00     0.339 C 
ATOM      8  O   UNL     1      -7.647  -2.917   0.950  1.00  0.00    -0.246 OA
BRANCH   7   9
ATOM      9  C   UNL     1      -6.000  -1.227   0.596  1.00  0.00     0.077 A 
ATOM     10  C   UNL     1      -3.865  -0.228  -0.054  1.00  0.00     0.048 A 
ATOM     11  C   UNL     1      -4.567  -1.072   0.732  1.00  0.00     0.031 A 
ATOM     12  C   UNL     1      -4.635   0.641  -1.022  1.00  0.00     0.255 A 
ATOM     13  N   UNL     1      -6.000   0.450  -1.053  1.00  0.00    -0.328 N 
ATOM     14  O   UNL     1      -4.094   1.468  -1.748  1.00  0.00    -0.269 OA
ATOM     15  C   UNL     1      -6.669  -0.470  -0.285  1.00  0.00     0.101 A 
ATOM     16  H   UNL     1      -6.528   1.011  -1.665  1.00  0.00     0.169 HD
BRANCH  10  17
ATOM     17  C   UNL     1      -2.387  -0.208   0.009  1.00  0.00    -0.012 A 
ATOM     18  C   UNL     1       0.498   2.295   0.020  1.00  0.00     0.046 C 
ATOM     19  C   UNL     1      -0.247   0.990   0.033  1.00  0.00    -0.032 A 
ATOM     20  C   UNL     1      -1.656   0.990   0.021  1.00  0.00     0.014 A 
ATOM     21  C   UNL     1       0.428  -0.240   0.039  1.00  0.00     0.044 A 
ATOM     22  C   UNL     1      -0.285  -1.438   0.025  1.00  0.00     0.021 A 
ATOM     23  Cl  UNL     1       2.153  -0.333   0.052  1.00  0.00    -0.084 Cl
ATOM     24  C   UNL     1      -1.679  -1.421   0.003  1.00  0.00     0.010 A 
ENDBRANCH  10  17
ENDBRANCH   7   9
ENDBRANCH   6   7
ENDBRANCH   5   6
ENDBRANCH   4   5
ENDBRANCH   3   4
ENDBRANCH   2   3
ENDBRANCH   1   2
BRANCH   1  25
ATOM     25  O   UNL     1      -6.036   0.458   4.589  1.00  0.00    -0.376 OA
BRANCH  25  26
ATOM     26  C   UNL     1      -6.526   0.780   5.880  1.00  0.00     0.202 C 
BRANCH  26  27
ATOM     27  C   UNL     1      -7.463   1.963   6.199  1.00  0.00     0.261 C 
BRANCH  27  28
ATOM     28  O   UNL     1      -8.370   2.391   5.180  1.00  0.00    -0.460 OA
BRANCH  28  29
ATOM     29  C   UNL     1      -8.077   3.575   4.590  1.00  0.00     0.338 C 
ATOM     30  O   UNL     1      -7.112   4.294   4.814  1.00  0.00    -0.246 OA
BRANCH  29  31
ATOM     31  C   UNL     1      -9.012   3.796   3.473  1.00  0.00     0.060 A 
ATOM     32  C   UNL     1      -8.530   3.722   2.158  1.00  0.00     0.016 A 
ATOM     33  C   UNL     1     -10.353   4.091   3.721  1.00  0.00     0.016 A 
ATOM     34  C   UNL     1      -9.392   3.939   1.084  1.00  0.00     0.010 A 
ATOM     35  C   UNL     1     -11.208   4.335   2.643  1.00  0.00     0.010 A 
ATOM     36  C   UNL     1     -10.730   4.276   1.321  1.00  0.00    -0.014 A 
BRANCH  36  37
ATOM     37  C   UNL     1     -11.604   4.696   0.200  1.00  0.00     0.031 A 
ATOM     38  C   UNL     1     -11.850   6.162  -0.019  1.00  0.00     0.074 A 
ATOM     39  C   UNL     1     -12.202   3.786  -0.588  1.00  0.00     0.049 A 
ATOM     40  N   UNL     1     -12.645   6.750  -0.873  1.00  0.00    -0.248 NA
ATOM     41  C   UNL     1     -11.103   7.088   0.849  1.00  0.00     0.031 C 
ATOM     42  C   UNL     1     -12.042   2.338  -0.478  1.00  0.00     0.029 A 
ATOM     43  N   UNL     1     -13.102   3.951  -1.613  1.00  0.00    -0.354 N 
ATOM     44  C   UNL     1     -12.527   8.111  -0.623  1.00  0.00     0.074 A 
ATOM     45  C   UNL     1     -11.584   8.261   0.465  1.00  0.00     0.031 C 
ATOM     46  C   UNL     1     -12.855   1.742  -1.368  1.00  0.00     0.029 A 
ATOM     47  C   UNL     1     -13.615   2.765  -2.085  1.00  0.00     0.049 A 
ATOM     48  H   UNL     1     -13.354   4.831  -1.975  1.00  0.00     0.167 HD
ATOM     49  C   UNL     1     -13.145   9.144  -1.244  1.00  0.00     0.034 A 
ATOM     50  C   UNL     1     -14.614   2.532  -2.960  1.00  0.00     0.034 A 
ATOM     51  C   UNL     1     -14.079   8.992  -2.326  1.00  0.00     0.049 A 
ATOM     52  C   UNL     1     -15.312   3.696  -3.616  1.00  0.00     0.074 A 
ATOM     53  C   UNL     1     -14.711   9.980  -3.061  1.00  0.00     0.029 A 
ATOM     54  N   UNL     1     -14.540   7.778  -2.812  1.00  0.00    -0.354 N 
ATOM     55  N   UNL     1     -15.100   4.981  -3.461  1.00  0.00    -0.248 NA
ATOM     56  C   UNL     1     -16.370   3.378  -4.587  1.00  0.00     0.031 C 
ATOM     57  C   UNL     1     -15.589   9.364  -3.958  1.00  0.00     0.029 A 
ATOM     58  C   UNL     1     -15.467   7.990  -3.817  1.00  0.00     0.049 A 
ATOM     59  H   UNL     1     -14.250   6.894  -2.489  1.00  0.00     0.167 HD
ATOM     60  C   UNL     1     -15.973   5.622  -4.336  1.00  0.00     0.074 A 
ATOM     61  C   UNL     1     -16.702   4.582  -5.032  1.00  0.00     0.031 C 
ATOM     62  C   UNL     1     -16.160   6.950  -4.536  1.00  0.00     0.034 A 
BRANCH  49  63
ATOM     63  C   UNL     1     -12.829  10.536  -0.762  1.00  0.00     0.023 A 
ATOM     64  C   UNL     1     -11.561  11.098  -1.013  1.00  0.00     0.012 A 
ATOM     65  C   UNL     1     -13.805  11.302  -0.095  1.00  0.00     0.148 A 
ATOM     66  C   UNL     1     -11.255  12.385  -0.571  1.00  0.00     0.002 A 
ATOM     67  C   UNL     1     -13.510  12.601   0.297  1.00  0.00     0.091 A 
ATOM     68  F   UNL     1     -14.998  10.742   0.153  1.00  0.00    -0.205 F 
ATOM     69  C   UNL     1     -12.232  13.139   0.074  1.00  0.00     0.022 A 
BRANCH  67  70
ATOM     70  S   UNL     1     -14.725  13.681   1.061  1.00  0.00     0.127 S 
ATOM     71  O   UNL     1     -14.223  13.766   2.432  1.00  0.00    -0.237 OA
ATOM     72  O   UNL     1     -14.578  14.909   0.281  1.00  0.00    -0.237 OA
ATOM     73  O   UNL     1     -16.010  13.013   0.907  1.00  0.00    -0.744 OA
ENDBRANCH  67  70
ENDBRANCH  49  63
BRANCH  50  74
ATOM     74  C   UNL     1     -15.017   1.131  -3.267  1.00  0.00     0.023 A 
ATOM     75  C   UNL     1     -14.763   0.591  -4.543  1.00  0.00     0.012 A 
ATOM     76  C   UNL     1     -15.634   0.325  -2.290  1.00  0.00     0.148 A 
ATOM     77  C   UNL     1     -15.142  -0.717  -4.848  1.00  0.00     0.002 A 
ATOM     78  C   UNL     1     -15.955  -0.995  -2.582  1.00  0.00     0.091 A 
ATOM     79  F   UNL     1     -15.881   0.864  -1.088  1.00  0.00    -0.205 F 
ATOM     80  C   UNL     1     -15.726  -1.512  -3.866  1.00  0.00     0.022 A 
BRANCH  78  81
ATOM     81  S   UNL     1     -16.593  -2.130  -1.345  1.00  0.00     0.127 S 
ATOM     82  O   UNL     1     -17.942  -2.387  -1.843  1.00  0.00    -0.237 OA
ATOM     83  O   UNL     1     -15.665  -3.255  -1.468  1.00  0.00    -0.237 OA
ATOM     84  O   UNL     1     -16.514  -1.419  -0.077  1.00  0.00    -0.744 OA
ENDBRANCH  78  81
ENDBRANCH  50  74
BRANCH  62  85
ATOM     85  C   UNL     1     -17.166   7.373  -5.577  1.00  0.00     0.023 A 
ATOM     86  C   UNL     1     -18.545   7.213  -5.334  1.00  0.00     0.012 A 
ATOM     87  C   UNL     1     -16.745   8.009  -6.763  1.00  0.00     0.148 A 
ATOM     88  C   UNL     1     -19.486   7.649  -6.267  1.00  0.00     0.002 A 
ATOM     89  C   UNL     1     -17.689   8.488  -7.663  1.00  0.00     0.091 A 
ATOM     90  F   UNL     1     -15.429   8.140  -6.984  1.00  0.00    -0.205 F 
ATOM     91  C   UNL     1     -19.059   8.297  -7.424  1.00  0.00     0.022 A 
BRANCH  89  92
ATOM     92  S   UNL     1     -17.239   9.420  -9.132  1.00  0.00     0.127 S 
ATOM     93  O   UNL     1     -17.602   8.488 -10.199  1.00  0.00    -0.237 OA
ATOM     94  O   UNL     1     -18.104  10.595  -9.028  1.00  0.00    -0.237 OA
ATOM     95  O   UNL     1     -15.815   9.702  -9.011  1.00  0.00    -0.744 OA
ENDBRANCH  89  92
ENDBRANCH  62  85
ENDBRANCH  36  37
ENDBRANCH  29  31
ENDBRANCH  28  29
ENDBRANCH  27  28
ENDBRANCH  26  27
ENDBRANCH  25  26
ENDBRANCH   1  25
TORSDOF 21
