REMARK SMILES Cc1cc(C)c(OCC(=O)Nc2ccc(Cl)c(C(=O)OCCOCCOCCOC(=O)c3ccc(-c4c5nc(c(-c6cccc(S(=O)(=O)[O-])c6F)c6ccc([nH]6)c(-c6cccc(S(=O)(=O)[O-])c6F)c6nc(c(-c7cccc(S(=O)(=O)[O-])c7F)c7ccc4[nH]7)C=C6)C=C5)cc3)c2)c(Cl)c1
REMARK SMILES IDX 24 1 23 2 22 3 21 4 20 5 18 6 19 7 17 8 12 9 13 10 95 11
REMARK SMILES IDX 14 12 15 13 16 14 11 15 9 16 10 17 8 19 7 20 6 21 1 22 2 23
REMARK SMILES IDX 3 24 98 25 4 26 96 27 5 28 97 29 25 30 26 31 27 32 28 33
REMARK SMILES IDX 29 34 30 35 31 36 32 37 33 38 94 39 34 40 93 41 35 42 36 43
REMARK SMILES IDX 37 44 87 45 38 46 92 47 86 48 88 49 39 50 91 51 85 52 84 53
REMARK SMILES IDX 40 55 72 56 52 57 71 58 53 59 56 60 70 61 89 62 54 63 55 64
REMARK SMILES IDX 69 66 90 67 57 68 41 69 42 70 50 71 43 72 45 73 51 74 44 75
REMARK SMILES IDX 46 76 47 77 48 78 49 79 73 80 74 81 82 82 75 83 77 84 83 85
REMARK SMILES IDX 76 86 78 87 79 88 80 89 81 90 58 91 59 92 67 93 60 94 62 95
REMARK SMILES IDX 68 96 61 97 63 98 64 99 65 100 66 101
REMARK H PARENT 11 18 88 54 56 65
REMARK Flexibility Score: inf
ROOT
ATOM      1  C   UNL     1      -3.842   5.102   6.579  1.00  0.00     0.188 C 
ENDROOT
BRANCH   1   2
ATOM      2  O   UNL     1      -4.729   5.919   7.315  1.00  0.00    -0.376 OA
BRANCH   2   3
ATOM      3  C   UNL     1      -5.949   6.361   6.738  1.00  0.00     0.202 C 
BRANCH   3   4
ATOM      4  C   UNL     1      -6.156   6.538   5.226  1.00  0.00     0.261 C 
BRANCH   4   5
ATOM      5  O   UNL     1      -5.596   5.496   4.422  1.00  0.00    -0.460 OA
BRANCH   5   6
ATOM      6  C   UNL     1      -4.806   5.905   3.403  1.00  0.00     0.339 C 
ATOM      7  O   UNL     1      -4.584   7.055   3.051  1.00  0.00    -0.246 OA
BRANCH   6   8
ATOM      8  C   UNL     1      -4.024   4.765   2.905  1.00  0.00     0.080 A 
ATOM      9  C   UNL     1      -1.809   3.886   2.483  1.00  0.00     0.042 A 
ATOM     10  C   UNL     1      -2.376   2.681   2.079  1.00  0.00     0.028 A 
ATOM     11  C   UNL     1      -2.627   4.908   2.950  1.00  0.00     0.043 A 
ATOM     12  C   UNL     1      -3.765   2.529   2.049  1.00  0.00     0.023 A 
ATOM     13  C   UNL     1      -4.598   3.581   2.437  1.00  0.00     0.055 A 
ATOM     14  Cl  UNL     1      -6.302   3.359   2.292  1.00  0.00    -0.083 Cl
BRANCH   9  15
ATOM     15  N   UNL     1      -0.434   4.114   2.445  1.00  0.00    -0.323 N 
ATOM     16  C   UNL     1       0.389   4.042   1.351  1.00  0.00     0.262 C 
ATOM     17  O   UNL     1       1.540   4.468   1.478  1.00  0.00    -0.271 OA
ATOM     18  H   UNL     1      -0.006   4.354   3.299  1.00  0.00     0.170 HD
BRANCH  16  19
ATOM     19  C   UNL     1      -0.160   3.649  -0.035  1.00  0.00     0.329 C 
BRANCH  19  20
ATOM     20  O   UNL     1      -0.595   2.353  -0.361  1.00  0.00    -0.482 OA
BRANCH  20  21
ATOM     21  C   UNL     1       0.165   1.224  -0.292  1.00  0.00     0.141 A 
ATOM     22  C   UNL     1       1.980  -2.707   0.051  1.00  0.00     0.044 C 
ATOM     23  C   UNL     1       1.349  -1.355  -0.084  1.00  0.00    -0.049 A 
ATOM     24  C   UNL     1       2.122  -0.193  -0.068  1.00  0.00     0.010 A 
ATOM     25  C   UNL     1      -0.027  -1.233  -0.236  1.00  0.00     0.027 A 
ATOM     26  C   UNL     1       1.560   1.101  -0.203  1.00  0.00    -0.007 A 
ATOM     27  C   UNL     1      -0.606   0.034  -0.347  1.00  0.00     0.083 A 
ATOM     28  C   UNL     1       2.565   2.217  -0.223  1.00  0.00     0.048 C 
ATOM     29  Cl  UNL     1      -2.331   0.075  -0.564  1.00  0.00    -0.080 Cl
ENDBRANCH  20  21
ENDBRANCH  19  20
ENDBRANCH  16  19
ENDBRANCH   9  15
ENDBRANCH   6   8
ENDBRANCH   5   6
ENDBRANCH   4   5
ENDBRANCH   3   4
ENDBRANCH   2   3
ENDBRANCH   1   2
BRANCH   1  30
ATOM     30  C   UNL     1      -4.241   3.643   6.274  1.00  0.00     0.188 C 
BRANCH  30  31
ATOM     31  O   UNL     1      -5.569   3.219   6.471  1.00  0.00    -0.376 OA
BRANCH  31  32
ATOM     32  C   UNL     1      -6.098   3.116   7.782  1.00  0.00     0.202 C 
BRANCH  32  33
ATOM     33  C   UNL     1      -5.269   2.937   9.070  1.00  0.00     0.261 C 
BRANCH  33  34
ATOM     34  O   UNL     1      -3.921   3.411   9.070  1.00  0.00    -0.460 OA
BRANCH  34  35
ATOM     35  C   UNL     1      -2.968   2.448   9.020  1.00  0.00     0.338 C 
ATOM     36  O   UNL     1      -3.142   1.240   8.944  1.00  0.00    -0.246 OA
BRANCH  35  37
ATOM     37  C   UNL     1      -1.649   3.087   8.870  1.00  0.00     0.060 A 
ATOM     38  C   UNL     1      -0.944   2.903   7.673  1.00  0.00     0.016 A 
ATOM     39  C   UNL     1      -1.097   3.824   9.917  1.00  0.00     0.016 A 
ATOM     40  C   UNL     1       0.332   3.446   7.525  1.00  0.00     0.010 A 
ATOM     41  C   UNL     1       0.190   4.348   9.775  1.00  0.00     0.010 A 
ATOM     42  C   UNL     1       0.920   4.137   8.591  1.00  0.00    -0.014 A 
BRANCH  42  43
ATOM     43  C   UNL     1       2.357   4.495   8.536  1.00  0.00     0.031 A 
ATOM     44  C   UNL     1       3.348   3.610   9.240  1.00  0.00     0.074 A 
ATOM     45  C   UNL     1       2.775   5.597   7.888  1.00  0.00     0.049 A 
ATOM     46  N   UNL     1       4.641   3.746   9.363  1.00  0.00    -0.248 NA
ATOM     47  C   UNL     1       2.801   2.413   9.900  1.00  0.00     0.031 C 
ATOM     48  C   UNL     1       1.915   6.524   7.155  1.00  0.00     0.029 A 
ATOM     49  N   UNL     1       4.032   6.131   7.766  1.00  0.00    -0.354 N 
ATOM     50  C   UNL     1       5.061   2.678  10.147  1.00  0.00     0.074 A 
ATOM     51  C   UNL     1       3.881   1.907  10.476  1.00  0.00     0.031 C 
ATOM     52  C   UNL     1       2.671   7.526   6.672  1.00  0.00     0.029 A 
ATOM     53  C   UNL     1       4.058   7.327   7.090  1.00  0.00     0.049 A 
ATOM     54  H   UNL     1       4.840   5.699   8.129  1.00  0.00     0.167 HD
ATOM     55  C   UNL     1       6.314   2.363  10.553  1.00  0.00     0.034 A 
ATOM     56  C   UNL     1       5.081   8.173   6.855  1.00  0.00     0.034 A 
ATOM     57  C   UNL     1       7.484   3.128  10.219  1.00  0.00     0.049 A 
ATOM     58  C   UNL     1       6.459   7.824   7.357  1.00  0.00     0.074 A 
ATOM     59  C   UNL     1       8.805   2.860  10.530  1.00  0.00     0.029 A 
ATOM     60  N   UNL     1       7.474   4.326   9.521  1.00  0.00    -0.354 N 
ATOM     61  N   UNL     1       6.862   6.751   7.994  1.00  0.00    -0.248 NA
ATOM     62  C   UNL     1       7.530   8.794   7.084  1.00  0.00     0.031 C 
ATOM     63  C   UNL     1       9.588   3.920  10.062  1.00  0.00     0.029 A 
ATOM     64  C   UNL     1       8.762   4.825   9.415  1.00  0.00     0.049 A 
ATOM     65  H   UNL     1       6.670   4.759   9.155  1.00  0.00     0.167 HD
ATOM     66  C   UNL     1       8.237   6.894   8.156  1.00  0.00     0.074 A 
ATOM     67  C   UNL     1       8.598   8.155   7.542  1.00  0.00     0.031 C 
ATOM     68  C   UNL     1       9.118   6.060   8.762  1.00  0.00     0.034 A 
BRANCH  55  69
ATOM     69  C   UNL     1       6.475   1.137  11.414  1.00  0.00     0.023 A 
ATOM     70  C   UNL     1       6.276  -0.146  10.864  1.00  0.00     0.012 A 
ATOM     71  C   UNL     1       6.843   1.256  12.769  1.00  0.00     0.148 A 
ATOM     72  C   UNL     1       6.391  -1.286  11.659  1.00  0.00     0.002 A 
ATOM     73  C   UNL     1       7.006   0.113  13.542  1.00  0.00     0.091 A 
ATOM     74  F   UNL     1       7.005   2.484  13.283  1.00  0.00    -0.205 F 
ATOM     75  C   UNL     1       6.764  -1.157  12.993  1.00  0.00     0.022 A 
BRANCH  73  76
ATOM     76  S   UNL     1       7.565   0.174  15.247  1.00  0.00     0.127 S 
ATOM     77  O   UNL     1       6.336  -0.148  15.972  1.00  0.00    -0.237 OA
ATOM     78  O   UNL     1       8.582  -0.877  15.275  1.00  0.00    -0.237 OA
ATOM     79  O   UNL     1       8.080   1.521  15.451  1.00  0.00    -0.744 OA
ENDBRANCH  73  76
ENDBRANCH  55  69
BRANCH  56  80
ATOM     80  C   UNL     1       4.854   9.416   6.065  1.00  0.00     0.023 A 
ATOM     81  C   UNL     1       5.413   9.523   4.776  1.00  0.00     0.012 A 
ATOM     82  C   UNL     1       4.083  10.481   6.570  1.00  0.00     0.148 A 
ATOM     83  C   UNL     1       5.230  10.677   4.015  1.00  0.00     0.002 A 
ATOM     84  C   UNL     1       3.862  11.607   5.785  1.00  0.00     0.091 A 
ATOM     85  F   UNL     1       3.571  10.363   7.803  1.00  0.00    -0.205 F 
ATOM     86  C   UNL     1       4.448  11.714   4.514  1.00  0.00     0.022 A 
BRANCH  84  87
ATOM     87  S   UNL     1       2.777  12.945   6.294  1.00  0.00     0.127 S 
ATOM     88  O   UNL     1       3.711  14.064   6.400  1.00  0.00    -0.237 OA
ATOM     89  O   UNL     1       1.849  13.021   5.165  1.00  0.00    -0.237 OA
ATOM     90  O   UNL     1       2.172  12.512   7.546  1.00  0.00    -0.744 OA
ENDBRANCH  84  87
ENDBRANCH  56  80
BRANCH  68  91
ATOM     91  C   UNL     1      10.576   6.450   8.755  1.00  0.00     0.023 A 
ATOM     92  C   UNL     1      11.028   7.523   9.549  1.00  0.00     0.012 A 
ATOM     93  C   UNL     1      11.513   5.698   8.016  1.00  0.00     0.148 A 
ATOM     94  C   UNL     1      12.380   7.864   9.578  1.00  0.00     0.002 A 
ATOM     95  C   UNL     1      12.865   6.010   8.093  1.00  0.00     0.091 A 
ATOM     96  F   UNL     1      11.064   4.690   7.254  1.00  0.00    -0.205 F 
ATOM     97  C   UNL     1      13.299   7.101   8.861  1.00  0.00     0.022 A 
BRANCH  95  98
ATOM     98  S   UNL     1      14.130   5.021   7.286  1.00  0.00     0.127 S 
ATOM     99  O   UNL     1      14.582   5.921   6.226  1.00  0.00    -0.237 OA
ATOM    100  O   UNL     1      15.098   4.817   8.365  1.00  0.00    -0.237 OA
ATOM    101  O   UNL     1      13.466   3.807   6.832  1.00  0.00    -0.744 OA
ENDBRANCH  95  98
ENDBRANCH  68  91
ENDBRANCH  42  43
ENDBRANCH  35  37
ENDBRANCH  34  35
ENDBRANCH  33  34
ENDBRANCH  32  33
ENDBRANCH  31  32
ENDBRANCH  30  31
ENDBRANCH   1  30
TORSDOF 24
