REMARK SMILES Cc1c(Cc2ccccc2)c(=O)oc2cc(OCC(=O)N[C@H](C)C(=O)OCCOCCOCCOC(=O)c3ccc(-c4c5nc(c(-c6cccc(S(=O)(=O)[O-])c6F)c6ccc([nH]6)c(-c6cccc(S(=O)(=O)[O-])c6F)c6nc(c(-c7cccc(S(=O)(=O)[O-])c7F)c7ccc4[nH]7)C=C6)C=C5)cc3)ccc12
REMARK SMILES IDX 29 1 28 2 27 3 26 4 24 5 25 6 22 7 23 8 21 9 19 10 20 11
REMARK SMILES IDX 18 13 17 14 16 15 1 16 2 17 3 18 103 19 11 20 14 21 102 22
REMARK SMILES IDX 12 23 13 24 15 25 101 26 4 27 5 28 6 29 10 30 7 31 9 32 8 33
REMARK SMILES IDX 30 34 31 35 32 36 33 37 34 38 35 39 36 40 37 41 38 42 39 43
REMARK SMILES IDX 100 44 40 45 99 46 41 47 42 48 43 49 93 50 44 51 98 52 92 53
REMARK SMILES IDX 94 54 45 55 97 56 91 57 90 58 46 60 78 61 58 62 77 63 59 64
REMARK SMILES IDX 62 65 76 66 95 67 60 68 61 69 75 71 96 72 63 73 47 74 48 75
REMARK SMILES IDX 56 76 49 77 51 78 57 79 50 80 52 81 53 82 54 83 55 84 79 85
REMARK SMILES IDX 80 86 88 87 81 88 83 89 89 90 82 91 84 92 85 93 86 94 87 95
REMARK SMILES IDX 64 96 65 97 73 98 66 99 68 100 74 101 67 102 69 103 70 104
REMARK SMILES IDX 71 105 72 106
REMARK H PARENT 21 12 94 59 62 70
REMARK Flexibility Score: inf
ROOT
ATOM      1  O   UNL     1       7.564   6.002  -3.836  1.00  0.00    -0.376 OA
ENDROOT
BRANCH   1   2
ATOM      2  C   UNL     1       7.171   5.826  -5.189  1.00  0.00     0.202 C 
BRANCH   2   3
ATOM      3  C   UNL     1       6.598   4.462  -5.598  1.00  0.00     0.261 C 
BRANCH   3   4
ATOM      4  O   UNL     1       5.611   3.912  -4.697  1.00  0.00    -0.462 OA
BRANCH   4   5
ATOM      5  C   UNL     1       5.945   2.714  -4.140  1.00  0.00     0.328 C 
ATOM      6  O   UNL     1       6.956   2.076  -4.422  1.00  0.00    -0.250 OA
BRANCH   5   7
ATOM      7  C   UNL     1       4.866   2.127  -3.217  1.00  0.00     0.189 C 
ATOM      8  C   UNL     1       3.891   3.051  -2.517  1.00  0.00     0.043 C 
BRANCH   7   9
ATOM      9  N   UNL     1       4.283   0.996  -3.931  1.00  0.00    -0.340 N 
ATOM     10  C   UNL     1       3.372   0.966  -4.939  1.00  0.00     0.258 C 
ATOM     11  O   UNL     1       3.353  -0.033  -5.664  1.00  0.00    -0.271 OA
ATOM     12  H   UNL     1       4.601   0.112  -3.636  1.00  0.00     0.164 HD
BRANCH  10  13
ATOM     13  C   UNL     1       2.384   2.118  -5.179  1.00  0.00     0.329 C 
BRANCH  13  14
ATOM     14  O   UNL     1       1.473   2.508  -4.165  1.00  0.00    -0.484 OA
BRANCH  14  15
ATOM     15  C   UNL     1       0.750   1.553  -3.512  1.00  0.00     0.123 A 
ATOM     16  C   UNL     1      -2.467  -0.672  -0.114  1.00  0.00     0.046 C 
ATOM     17  C   UNL     1      -1.476  -1.228  -1.102  1.00  0.00    -0.029 A 
ATOM     18  C   UNL     1      -1.263  -2.546  -1.323  1.00  0.00     0.046 A 
ATOM     19  C   UNL     1      -0.714  -0.240  -1.883  1.00  0.00     0.021 A 
ATOM     20  C   UNL     1      -0.403  -2.997  -2.459  1.00  0.00     0.340 A 
ATOM     21  C   UNL     1      -0.049  -0.664  -3.026  1.00  0.00     0.142 A 
ATOM     22  C   UNL     1      -0.621   1.117  -1.551  1.00  0.00     0.016 A 
ATOM     23  O   UNL     1      -0.160  -4.182  -2.663  1.00  0.00    -0.246 OA
ATOM     24  O   UNL     1       0.015  -2.026  -3.358  1.00  0.00    -0.422 OA
ATOM     25  C   UNL     1       0.632   0.216  -3.870  1.00  0.00     0.094 A 
ATOM     26  C   UNL     1       0.110   2.000  -2.354  1.00  0.00     0.047 A 
BRANCH  18  27
ATOM     27  C   UNL     1      -1.926  -3.681  -0.569  1.00  0.00     0.079 C 
BRANCH  27  28
ATOM     28  C   UNL     1      -1.241  -4.083   0.725  1.00  0.00    -0.043 A 
ATOM     29  C   UNL     1      -0.594  -5.322   0.835  1.00  0.00     0.004 A 
ATOM     30  C   UNL     1      -1.282  -3.257   1.858  1.00  0.00     0.004 A 
ATOM     31  C   UNL     1      -0.022  -5.724   2.047  1.00  0.00     0.000 A 
ATOM     32  C   UNL     1      -0.698  -3.650   3.064  1.00  0.00     0.000 A 
ATOM     33  C   UNL     1      -0.075  -4.888   3.161  1.00  0.00     0.000 A 
ENDBRANCH  27  28
ENDBRANCH  18  27
ENDBRANCH  14  15
ENDBRANCH  13  14
ENDBRANCH  10  13
ENDBRANCH   7   9
ENDBRANCH   5   7
ENDBRANCH   4   5
ENDBRANCH   3   4
ENDBRANCH   2   3
ENDBRANCH   1   2
BRANCH   1  34
ATOM     34  C   UNL     1       6.609   5.724  -2.826  1.00  0.00     0.188 C 
BRANCH  34  35
ATOM     35  C   UNL     1       5.205   6.329  -2.953  1.00  0.00     0.188 C 
BRANCH  35  36
ATOM     36  O   UNL     1       4.910   6.993  -4.168  1.00  0.00    -0.376 OA
BRANCH  36  37
ATOM     37  C   UNL     1       3.907   8.003  -4.078  1.00  0.00     0.202 C 
BRANCH  37  38
ATOM     38  C   UNL     1       4.405   9.312  -3.432  1.00  0.00     0.261 C 
BRANCH  38  39
ATOM     39  O   UNL     1       4.889   9.210  -2.074  1.00  0.00    -0.460 OA
BRANCH  39  40
ATOM     40  C   UNL     1       4.024   8.754  -1.133  1.00  0.00     0.338 C 
ATOM     41  O   UNL     1       2.828   8.567  -1.290  1.00  0.00    -0.246 OA
BRANCH  40  42
ATOM     42  C   UNL     1       4.809   8.219   0.020  1.00  0.00     0.060 A 
ATOM     43  C   UNL     1       4.479   6.947   0.520  1.00  0.00     0.016 A 
ATOM     44  C   UNL     1       5.896   8.910   0.560  1.00  0.00     0.016 A 
ATOM     45  C   UNL     1       5.192   6.396   1.592  1.00  0.00     0.010 A 
ATOM     46  C   UNL     1       6.598   8.363   1.645  1.00  0.00     0.010 A 
ATOM     47  C   UNL     1       6.226   7.122   2.196  1.00  0.00    -0.014 A 
BRANCH  47  48
ATOM     48  C   UNL     1       6.765   6.702   3.521  1.00  0.00     0.031 A 
ATOM     49  C   UNL     1       6.229   7.385   4.755  1.00  0.00     0.074 A 
ATOM     50  C   UNL     1       7.706   5.748   3.653  1.00  0.00     0.049 A 
ATOM     51  N   UNL     1       6.568   7.231   6.009  1.00  0.00    -0.248 NA
ATOM     52  C   UNL     1       5.166   8.381   4.538  1.00  0.00     0.031 C 
ATOM     53  C   UNL     1       8.306   4.987   2.561  1.00  0.00     0.029 A 
ATOM     54  N   UNL     1       8.339   5.274   4.780  1.00  0.00    -0.354 N 
ATOM     55  C   UNL     1       5.784   8.128   6.726  1.00  0.00     0.074 A 
ATOM     56  C   UNL     1       4.965   8.835   5.766  1.00  0.00     0.031 C 
ATOM     57  C   UNL     1       9.238   4.158   3.067  1.00  0.00     0.029 A 
ATOM     58  C   UNL     1       9.320   4.346   4.516  1.00  0.00     0.049 A 
ATOM     59  H   UNL     1       8.110   5.570   5.690  1.00  0.00     0.167 HD
ATOM     60  C   UNL     1       5.731   8.340   8.063  1.00  0.00     0.034 A 
ATOM     61  C   UNL     1      10.197   3.736   5.342  1.00  0.00     0.034 A 
ATOM     62  C   UNL     1       6.535   7.641   9.029  1.00  0.00     0.049 A 
ATOM     63  C   UNL     1      10.158   4.027   6.824  1.00  0.00     0.074 A 
ATOM     64  C   UNL     1       6.527   7.769  10.407  1.00  0.00     0.029 A 
ATOM     65  N   UNL     1       7.501   6.696   8.722  1.00  0.00    -0.354 N 
ATOM     66  N   UNL     1       9.340   4.800   7.496  1.00  0.00    -0.248 NA
ATOM     67  C   UNL     1      11.148   3.333   7.665  1.00  0.00     0.031 C 
ATOM     68  C   UNL     1       7.512   6.924  10.931  1.00  0.00     0.029 A 
ATOM     69  C   UNL     1       8.105   6.241   9.882  1.00  0.00     0.049 A 
ATOM     70  H   UNL     1       7.725   6.394   7.812  1.00  0.00     0.167 HD
ATOM     71  C   UNL     1       9.687   4.652   8.837  1.00  0.00     0.074 A 
ATOM     72  C   UNL     1      10.778   3.703   8.884  1.00  0.00     0.031 C 
ATOM     73  C   UNL     1       9.154   5.255   9.930  1.00  0.00     0.034 A 
BRANCH  60  74
ATOM     74  C   UNL     1       4.749   9.370   8.561  1.00  0.00     0.023 A 
ATOM     75  C   UNL     1       3.366   9.099   8.509  1.00  0.00     0.012 A 
ATOM     76  C   UNL     1       5.194  10.590   9.106  1.00  0.00     0.148 A 
ATOM     77  C   UNL     1       2.440  10.042   8.952  1.00  0.00     0.002 A 
ATOM     78  C   UNL     1       4.267  11.505   9.589  1.00  0.00     0.091 A 
ATOM     79  F   UNL     1       6.511  10.839   9.126  1.00  0.00    -0.205 F 
ATOM     80  C   UNL     1       2.891  11.240   9.500  1.00  0.00     0.022 A 
BRANCH  78  81
ATOM     81  S   UNL     1       4.749  13.041  10.385  1.00  0.00     0.127 S 
ATOM     82  O   UNL     1       4.369  14.028   9.376  1.00  0.00    -0.237 OA
ATOM     83  O   UNL     1       3.911  13.042  11.585  1.00  0.00    -0.237 OA
ATOM     84  O   UNL     1       6.178  12.928  10.644  1.00  0.00    -0.744 OA
ENDBRANCH  78  81
ENDBRANCH  60  74
BRANCH  61  85
ATOM     85  C   UNL     1      11.180   2.751   4.801  1.00  0.00     0.023 A 
ATOM     86  C   UNL     1      11.057   1.389   5.143  1.00  0.00     0.012 A 
ATOM     87  C   UNL     1      12.240   3.155   3.967  1.00  0.00     0.148 A 
ATOM     88  C   UNL     1      11.987   0.453   4.688  1.00  0.00     0.002 A 
ATOM     89  C   UNL     1      13.132   2.209   3.473  1.00  0.00     0.091 A 
ATOM     90  F   UNL     1      12.354   4.457   3.671  1.00  0.00    -0.205 F 
ATOM     91  C   UNL     1      13.018   0.860   3.846  1.00  0.00     0.022 A 
BRANCH  89  92
ATOM     92  S   UNL     1      14.423   2.618   2.293  1.00  0.00     0.127 S 
ATOM     93  O   UNL     1      15.632   2.379   3.077  1.00  0.00    -0.237 OA
ATOM     94  O   UNL     1      14.174   1.644   1.230  1.00  0.00    -0.237 OA
ATOM     95  O   UNL     1      14.184   4.003   1.912  1.00  0.00    -0.744 OA
ENDBRANCH  89  92
ENDBRANCH  61  85
BRANCH  73  96
ATOM     96  C   UNL     1       9.699   4.875  11.286  1.00  0.00     0.023 A 
ATOM     97  C   UNL     1      10.991   5.286  11.672  1.00  0.00     0.012 A 
ATOM     98  C   UNL     1       8.900   4.165  12.206  1.00  0.00     0.148 A 
ATOM     99  C   UNL     1      11.492   4.963  12.934  1.00  0.00     0.002 A 
ATOM    100  C   UNL     1       9.386   3.892  13.480  1.00  0.00     0.091 A 
ATOM    101  F   UNL     1       7.680   3.767  11.819  1.00  0.00    -0.205 F 
ATOM    102  C   UNL     1      10.687   4.278  13.841  1.00  0.00     0.022 A 
BRANCH 100 103
ATOM    103  S   UNL     1       8.386   3.101  14.746  1.00  0.00     0.127 S 
ATOM    104  O   UNL     1       8.997   1.775  14.824  1.00  0.00    -0.237 OA
ATOM    105  O   UNL     1       8.627   3.954  15.911  1.00  0.00    -0.237 OA
ATOM    106  O   UNL     1       7.016   3.130  14.251  1.00  0.00    -0.744 OA
ENDBRANCH 100 103
ENDBRANCH  73  96
ENDBRANCH  47  48
ENDBRANCH  40  42
ENDBRANCH  39  40
ENDBRANCH  38  39
ENDBRANCH  37  38
ENDBRANCH  36  37
ENDBRANCH  35  36
ENDBRANCH  34  35
ENDBRANCH   1  34
TORSDOF 26
