REMARK SMILES Cc1nc(C(C)C)[nH]c(=O)c1C(=O)N(C)CC(=O)OCCOCCOCCOC(=O)c1ccc(-c2c3nc(c(-c4cccc(S(=O)(=O)[O-])c4F)c4ccc([nH]4)c(-c4cccc(S(=O)(=O)[O-])c4F)c4nc(c(-c5cccc(S(=O)(=O)[O-])c5F)c5ccc2[nH]5)C=C4)C=C3)cc1
REMARK SMILES IDX 23 1 22 2 21 3 20 4 19 5 17 6 18 7 16 8 14 9 15 10 12 11
REMARK SMILES IDX 13 12 11 13 1 14 2 15 3 16 4 17 9 18 8 19 10 20 5 22 6 23
REMARK SMILES IDX 7 24 24 25 25 26 26 27 27 28 28 29 29 30 30 31 31 32 32 33
REMARK SMILES IDX 93 34 33 35 92 36 34 37 35 38 36 39 86 40 37 41 91 42 85 43
REMARK SMILES IDX 87 44 38 45 90 46 84 47 83 48 39 50 71 51 51 52 70 53 52 54
REMARK SMILES IDX 55 55 69 56 88 57 53 58 54 59 68 61 89 62 56 63 40 64 41 65
REMARK SMILES IDX 49 66 42 67 44 68 50 69 43 70 45 71 46 72 47 73 48 74 72 75
REMARK SMILES IDX 73 76 81 77 74 78 76 79 82 80 75 81 77 82 78 83 79 84 80 85
REMARK SMILES IDX 57 86 58 87 66 88 59 89 61 90 67 91 60 92 62 93 63 94 64 95
REMARK SMILES IDX 65 96
REMARK H PARENT 8 21 87 49 55 60
REMARK Flexibility Score: inf
ROOT
ATOM      1  C   UNL     1       1.597  -5.022  -2.024  1.00  0.00     0.188 C 
ENDROOT
BRANCH   1   2
ATOM      2  O   UNL     1       1.466  -6.011  -3.044  1.00  0.00    -0.376 OA
BRANCH   2   3
ATOM      3  C   UNL     1       0.286  -6.019  -3.835  1.00  0.00     0.202 C 
BRANCH   3   4
ATOM      4  C   UNL     1      -0.993  -6.410  -3.095  1.00  0.00     0.261 C 
BRANCH   4   5
ATOM      5  O   UNL     1      -1.319  -5.444  -2.078  1.00  0.00    -0.462 OA
BRANCH   5   6
ATOM      6  C   UNL     1      -1.657  -5.924  -0.852  1.00  0.00     0.325 C 
ATOM      7  O   UNL     1      -1.804  -7.113  -0.596  1.00  0.00    -0.250 OA
BRANCH   6   8
ATOM      8  C   UNL     1      -1.767  -4.823   0.221  1.00  0.00     0.242 C 
BRANCH   8   9
ATOM      9  N   UNL     1      -1.816  -3.382  -0.138  1.00  0.00    -0.330 N 
ATOM     10  C   UNL     1      -2.807  -2.985  -1.124  1.00  0.00     0.147 C 
BRANCH   9  11
ATOM     11  C   UNL     1      -1.136  -2.492   0.698  1.00  0.00     0.261 C 
ATOM     12  O   UNL     1      -0.560  -2.891   1.713  1.00  0.00    -0.269 OA
BRANCH  11  13
ATOM     13  C   UNL     1      -1.017  -1.031   0.367  1.00  0.00     0.126 A 
ATOM     14  C   UNL     1      -3.445  -0.420   0.620  1.00  0.00     0.068 C 
ATOM     15  C   UNL     1      -2.001  -0.107   0.334  1.00  0.00     0.058 A 
ATOM     16  N   UNL     1      -1.799   1.250   0.118  1.00  0.00    -0.239 NA
ATOM     17  C   UNL     1      -0.584   1.693   0.072  1.00  0.00     0.111 A 
ATOM     18  C   UNL     1       0.355  -0.473   0.277  1.00  0.00     0.264 A 
ATOM     19  N   UNL     1       0.489   0.871   0.160  1.00  0.00    -0.310 N 
ATOM     20  O   UNL     1       1.356  -1.173   0.285  1.00  0.00    -0.269 OA
ATOM     21  H   UNL     1       1.392   1.260   0.137  1.00  0.00     0.171 HD
BRANCH  17  22
ATOM     22  C   UNL     1      -0.297   3.181  -0.072  1.00  0.00     0.049 C 
ATOM     23  C   UNL     1       0.468   3.701   1.145  1.00  0.00     0.016 C 
ATOM     24  C   UNL     1       0.468   3.481  -1.359  1.00  0.00     0.016 C 
ENDBRANCH  17  22
ENDBRANCH  11  13
ENDBRANCH   9  11
ENDBRANCH   8   9
ENDBRANCH   6   8
ENDBRANCH   5   6
ENDBRANCH   4   5
ENDBRANCH   3   4
ENDBRANCH   2   3
ENDBRANCH   1   2
BRANCH   1  25
ATOM     25  C   UNL     1       1.054  -3.609  -2.299  1.00  0.00     0.188 C 
BRANCH  25  26
ATOM     26  O   UNL     1       1.257  -3.172  -3.641  1.00  0.00    -0.376 OA
BRANCH  26  27
ATOM     27  C   UNL     1       2.045  -1.992  -3.754  1.00  0.00     0.202 C 
BRANCH  27  28
ATOM     28  C   UNL     1       3.536  -2.328  -3.759  1.00  0.00     0.261 C 
BRANCH  28  29
ATOM     29  O   UNL     1       3.987  -2.915  -2.527  1.00  0.00    -0.460 OA
BRANCH  29  30
ATOM     30  C   UNL     1       4.055  -2.077  -1.468  1.00  0.00     0.338 C 
ATOM     31  O   UNL     1       3.822  -0.881  -1.468  1.00  0.00    -0.246 OA
BRANCH  30  32
ATOM     32  C   UNL     1       4.439  -2.872  -0.285  1.00  0.00     0.060 A 
ATOM     33  C   UNL     1       3.484  -3.209   0.676  1.00  0.00     0.016 A 
ATOM     34  C   UNL     1       5.772  -3.229  -0.099  1.00  0.00     0.016 A 
ATOM     35  C   UNL     1       3.866  -3.787   1.882  1.00  0.00     0.010 A 
ATOM     36  C   UNL     1       6.151  -3.860   1.089  1.00  0.00     0.010 A 
ATOM     37  C   UNL     1       5.210  -4.090   2.110  1.00  0.00    -0.014 A 
BRANCH  37  38
ATOM     38  C   UNL     1       5.651  -4.530   3.455  1.00  0.00     0.031 A 
ATOM     39  C   UNL     1       6.489  -3.600   4.289  1.00  0.00     0.074 A 
ATOM     40  C   UNL     1       5.304  -5.739   3.933  1.00  0.00     0.049 A 
ATOM     41  N   UNL     1       7.078  -3.818   5.435  1.00  0.00    -0.248 NA
ATOM     42  C   UNL     1       6.699  -2.243   3.754  1.00  0.00     0.031 C 
ATOM     43  C   UNL     1       4.467  -6.718   3.240  1.00  0.00     0.029 A 
ATOM     44  N   UNL     1       5.636  -6.356   5.114  1.00  0.00    -0.354 N 
ATOM     45  C   UNL     1       7.770  -2.651   5.733  1.00  0.00     0.074 A 
ATOM     46  C   UNL     1       7.532  -1.727   4.645  1.00  0.00     0.031 C 
ATOM     47  C   UNL     1       4.366  -7.822   4.000  1.00  0.00     0.029 A 
ATOM     48  C   UNL     1       5.163  -7.643   5.211  1.00  0.00     0.049 A 
ATOM     49  H   UNL     1       6.161  -5.919   5.822  1.00  0.00     0.167 HD
ATOM     50  C   UNL     1       8.523  -2.366   6.821  1.00  0.00     0.034 A 
ATOM     51  C   UNL     1       5.372  -8.580   6.157  1.00  0.00     0.034 A 
ATOM     52  C   UNL     1       8.711  -3.263   7.929  1.00  0.00     0.049 A 
ATOM     53  C   UNL     1       6.221  -8.240   7.354  1.00  0.00     0.074 A 
ATOM     54  C   UNL     1       9.426  -3.051   9.094  1.00  0.00     0.029 A 
ATOM     55  N   UNL     1       8.175  -4.538   8.014  1.00  0.00    -0.354 N 
ATOM     56  N   UNL     1       6.808  -7.107   7.658  1.00  0.00    -0.248 NA
ATOM     57  C   UNL     1       6.414  -9.301   8.352  1.00  0.00     0.031 C 
ATOM     58  C   UNL     1       9.332  -4.205   9.880  1.00  0.00     0.029 A 
ATOM     59  C   UNL     1       8.545  -5.128   9.210  1.00  0.00     0.049 A 
ATOM     60  H   UNL     1       7.614  -4.962   7.325  1.00  0.00     0.167 HD
ATOM     61  C   UNL     1       7.412  -7.309   8.893  1.00  0.00     0.074 A 
ATOM     62  C   UNL     1       7.099  -8.666   9.294  1.00  0.00     0.031 C 
ATOM     63  C   UNL     1       8.176  -6.458   9.623  1.00  0.00     0.034 A 
BRANCH  50  64
ATOM     64  C   UNL     1       9.176  -1.012   6.879  1.00  0.00     0.023 A 
ATOM     65  C   UNL     1       8.396   0.127   7.159  1.00  0.00     0.012 A 
ATOM     66  C   UNL     1      10.566  -0.874   6.701  1.00  0.00     0.148 A 
ATOM     67  C   UNL     1       8.984   1.389   7.231  1.00  0.00     0.002 A 
ATOM     68  C   UNL     1      11.152   0.382   6.815  1.00  0.00     0.091 A 
ATOM     69  F   UNL     1      11.287  -1.966   6.408  1.00  0.00    -0.205 F 
ATOM     70  C   UNL     1      10.362   1.515   7.070  1.00  0.00     0.022 A 
BRANCH  68  71
ATOM     71  S   UNL     1      12.926   0.633   6.694  1.00  0.00     0.127 S 
ATOM     72  O   UNL     1      13.048   1.253   5.376  1.00  0.00    -0.237 OA
ATOM     73  O   UNL     1      13.189   1.533   7.817  1.00  0.00    -0.237 OA
ATOM     74  O   UNL     1      13.527  -0.687   6.825  1.00  0.00    -0.744 OA
ENDBRANCH  68  71
ENDBRANCH  50  64
BRANCH  51  75
ATOM     75  C   UNL     1       4.740  -9.923   6.027  1.00  0.00     0.023 A 
ATOM     76  C   UNL     1       3.710 -10.290   6.914  1.00  0.00     0.012 A 
ATOM     77  C   UNL     1       5.142 -10.830   5.026  1.00  0.00     0.148 A 
ATOM     78  C   UNL     1       3.110 -11.546   6.825  1.00  0.00     0.002 A 
ATOM     79  C   UNL     1       4.503 -12.059   4.910  1.00  0.00     0.091 A 
ATOM     80  F   UNL     1       6.140 -10.472   4.206  1.00  0.00    -0.205 F 
ATOM     81  C   UNL     1       3.498 -12.426   5.818  1.00  0.00     0.022 A 
BRANCH  79  82
ATOM     82  S   UNL     1       4.858 -13.202   3.570  1.00  0.00     0.127 S 
ATOM     83  O   UNL     1       5.620 -14.241   4.258  1.00  0.00    -0.237 OA
ATOM     84  O   UNL     1       3.515 -13.602   3.146  1.00  0.00    -0.237 OA
ATOM     85  O   UNL     1       5.592 -12.426   2.579  1.00  0.00    -0.744 OA
ENDBRANCH  79  82
ENDBRANCH  51  75
BRANCH  63  86
ATOM     86  C   UNL     1       8.705  -6.952  10.944  1.00  0.00     0.023 A 
ATOM     87  C   UNL     1       9.757  -7.889  10.966  1.00  0.00     0.012 A 
ATOM     88  C   UNL     1       8.210  -6.439  12.159  1.00  0.00     0.148 A 
ATOM     89  C   UNL     1      10.286  -8.332  12.177  1.00  0.00     0.002 A 
ATOM     90  C   UNL     1       8.774  -6.852  13.362  1.00  0.00     0.091 A 
ATOM     91  F   UNL     1       7.196  -5.563  12.121  1.00  0.00    -0.205 F 
ATOM     92  C   UNL     1       9.803  -7.807  13.373  1.00  0.00     0.022 A 
BRANCH  90  93
ATOM     93  S   UNL     1       8.273  -6.154  14.940  1.00  0.00     0.127 S 
ATOM     94  O   UNL     1       7.397  -7.200  15.466  1.00  0.00    -0.237 OA
ATOM     95  O   UNL     1       9.549  -6.017  15.645  1.00  0.00    -0.237 OA
ATOM     96  O   UNL     1       7.625  -4.888  14.624  1.00  0.00    -0.744 OA
ENDBRANCH  90  93
ENDBRANCH  63  86
ENDBRANCH  37  38
ENDBRANCH  30  32
ENDBRANCH  29  30
ENDBRANCH  28  29
ENDBRANCH  27  28
ENDBRANCH  26  27
ENDBRANCH  25  26
ENDBRANCH   1  25
TORSDOF 24
