REMARK SMILES [NH3+][C@@]1(C(=O)OCCOCCOCCOC(=O)c2ccc(-c3c4nc(c(-c5cccc(S(=O)(=O)[O-])c5F)c5ccc([nH]5)c(-c5cccc(S(=O)(=O)[O-])c5F)c5nc(c(-c6cccc(S(=O)(=O)[O-])c6F)c6ccc3[nH]6)C=C5)C=C4)cc2)CCC[C@H](Oc2ccc([N+](=O)[O-])c(F)c2)C1
REMARK SMILES IDX 9 1 8 2 7 3 6 4 5 5 3 6 4 7 2 8 80 9 95 10 81 11 83 12 82 13
REMARK SMILES IDX 1 14 84 18 85 19 86 20 94 21 87 22 92 23 88 24 93 25 89 26
REMARK SMILES IDX 90 27 91 28 10 29 11 30 12 31 13 32 14 33 15 34 16 35 17 36
REMARK SMILES IDX 18 37 79 38 19 39 78 40 20 41 21 42 22 43 72 44 23 45 77 46
REMARK SMILES IDX 71 47 73 48 24 49 76 50 70 51 69 52 25 54 57 55 37 56 56 57
REMARK SMILES IDX 38 58 41 59 55 60 74 61 39 62 40 63 54 65 75 66 42 67 26 68
REMARK SMILES IDX 27 69 35 70 28 71 30 72 36 73 29 74 31 75 32 76 33 77 34 78
REMARK SMILES IDX 58 79 59 80 67 81 60 82 62 83 68 84 61 85 63 86 64 87 65 88
REMARK SMILES IDX 66 89 43 90 44 91 52 92 45 93 47 94 53 95 46 96 48 97 49 98
REMARK SMILES IDX 50 99 51 100
REMARK H PARENT 1 15 1 16 1 17 73 53 41 64
REMARK Flexibility Score: inf
ROOT
ATOM      1  C   UNL     1      -3.406  -1.373   1.640  1.00  0.00     0.188 C 
ENDROOT
BRANCH   1   2
ATOM      2  O   UNL     1      -4.607  -0.629   1.792  1.00  0.00    -0.376 OA
BRANCH   2   3
ATOM      3  C   UNL     1      -5.322  -0.215   0.642  1.00  0.00     0.202 C 
BRANCH   3   4
ATOM      4  C   UNL     1      -4.610   0.652  -0.409  1.00  0.00     0.261 C 
BRANCH   4   5
ATOM      5  O   UNL     1      -3.264   0.271  -0.777  1.00  0.00    -0.459 OA
BRANCH   5   6
ATOM      6  C   UNL     1      -2.284   1.107  -0.327  1.00  0.00     0.368 C 
ATOM      7  O   UNL     1      -2.519   2.124   0.318  1.00  0.00    -0.245 OA
BRANCH   6   8
ATOM      8  C   UNL     1      -0.838   0.700  -0.794  1.00  0.00     0.196 C 
ATOM      9  C   UNL     1      -0.370  -0.698  -0.325  1.00  0.00     0.081 C 
ATOM     10  C   UNL     1       0.084   1.785  -0.210  1.00  0.00     0.126 C 
ATOM     11  C   UNL     1       1.141  -0.943  -0.362  1.00  0.00     0.011 C 
ATOM     12  C   UNL     1       1.574   1.505  -0.345  1.00  0.00     0.180 C 
ATOM     13  C   UNL     1       1.897   0.174   0.332  1.00  0.00     0.046 C 
BRANCH   8  14
ATOM     14  N   UNL     1      -0.761   0.729  -2.280  1.00  0.00    -0.343 N 
ATOM     15  H   UNL     1       0.178   0.464  -2.577  1.00  0.00     0.345 HD
ATOM     16  H   UNL     1      -0.971   1.670  -2.613  1.00  0.00     0.345 HD
ATOM     17  H   UNL     1      -1.438   0.072  -2.668  1.00  0.00     0.345 HD
ENDBRANCH   8  14
BRANCH  12  18
ATOM     18  O   UNL     1       2.217   2.588   0.327  1.00  0.00    -0.490 OA
BRANCH  18  19
ATOM     19  C   UNL     1       3.508   2.882   0.021  1.00  0.00     0.123 A 
ATOM     20  C   UNL     1       4.351   2.125  -0.792  1.00  0.00     0.054 A 
ATOM     21  C   UNL     1       3.987   4.042   0.631  1.00  0.00     0.093 A 
ATOM     22  C   UNL     1       5.680   2.513  -0.972  1.00  0.00     0.093 A 
ATOM     23  C   UNL     1       5.306   4.441   0.445  1.00  0.00     0.204 A 
ATOM     24  C   UNL     1       6.155   3.675  -0.349  1.00  0.00     0.305 A 
ATOM     25  F   UNL     1       5.711   5.561   1.056  1.00  0.00    -0.199 F 
BRANCH  24  26
ATOM     26  N   UNL     1       7.544   4.071  -0.549  1.00  0.00     0.065 N 
ATOM     27  O   UNL     1       8.300   3.238  -1.073  1.00  0.00    -0.258 OA
ATOM     28  O   UNL     1       7.890   5.215  -0.229  1.00  0.00    -0.258 OA
ENDBRANCH  24  26
ENDBRANCH  18  19
ENDBRANCH  12  18
ENDBRANCH   6   8
ENDBRANCH   5   6
ENDBRANCH   4   5
ENDBRANCH   3   4
ENDBRANCH   2   3
ENDBRANCH   1   2
BRANCH   1  29
ATOM     29  C   UNL     1      -3.254  -2.335   0.445  1.00  0.00     0.188 C 
BRANCH  29  30
ATOM     30  O   UNL     1      -4.482  -2.671  -0.167  1.00  0.00    -0.376 OA
BRANCH  30  31
ATOM     31  C   UNL     1      -4.803  -4.043  -0.227  1.00  0.00     0.202 C 
BRANCH  31  32
ATOM     32  C   UNL     1      -5.101  -4.707   1.124  1.00  0.00     0.261 C 
BRANCH  32  33
ATOM     33  O   UNL     1      -4.174  -4.425   2.191  1.00  0.00    -0.460 OA
BRANCH  33  34
ATOM     34  C   UNL     1      -3.004  -5.101   2.188  1.00  0.00     0.338 C 
ATOM     35  O   UNL     1      -2.645  -5.920   1.351  1.00  0.00    -0.246 OA
BRANCH  34  36
ATOM     36  C   UNL     1      -2.121  -4.548   3.243  1.00  0.00     0.060 A 
ATOM     37  C   UNL     1      -0.900  -3.970   2.869  1.00  0.00     0.016 A 
ATOM     38  C   UNL     1      -2.474  -4.615   4.593  1.00  0.00     0.016 A 
ATOM     39  C   UNL     1      -0.018  -3.489   3.843  1.00  0.00     0.010 A 
ATOM     40  C   UNL     1      -1.581  -4.146   5.569  1.00  0.00     0.010 A 
ATOM     41  C   UNL     1      -0.333  -3.607   5.204  1.00  0.00    -0.014 A 
BRANCH  41  42
ATOM     42  C   UNL     1       0.693  -3.290   6.237  1.00  0.00     0.031 A 
ATOM     43  C   UNL     1       1.437  -4.416   6.910  1.00  0.00     0.074 A 
ATOM     44  C   UNL     1       0.979  -2.018   6.576  1.00  0.00     0.049 A 
ATOM     45  N   UNL     1       2.363  -4.366   7.834  1.00  0.00    -0.248 NA
ATOM     46  C   UNL     1       1.090  -5.781   6.483  1.00  0.00     0.031 C 
ATOM     47  C   UNL     1       0.343  -0.830   6.012  1.00  0.00     0.029 A 
ATOM     48  N   UNL     1       1.867  -1.518   7.500  1.00  0.00    -0.354 N 
ATOM     49  C   UNL     1       2.689  -5.687   8.121  1.00  0.00     0.074 A 
ATOM     50  C   UNL     1       1.853  -6.516   7.279  1.00  0.00     0.031 C 
ATOM     51  C   UNL     1       0.843   0.261   6.619  1.00  0.00     0.029 A 
ATOM     52  C   UNL     1       1.815  -0.150   7.631  1.00  0.00     0.049 A 
ATOM     53  H   UNL     1       2.482  -2.086   8.018  1.00  0.00     0.167 HD
ATOM     54  C   UNL     1       3.606  -6.172   8.995  1.00  0.00     0.034 A 
ATOM     55  C   UNL     1       2.458   0.676   8.482  1.00  0.00     0.034 A 
ATOM     56  C   UNL     1       4.447  -5.356   9.832  1.00  0.00     0.049 A 
ATOM     57  C   UNL     1       3.454   0.110   9.464  1.00  0.00     0.074 A 
ATOM     58  C   UNL     1       5.436  -5.761  10.711  1.00  0.00     0.029 A 
ATOM     59  N   UNL     1       4.386  -3.974   9.915  1.00  0.00    -0.354 N 
ATOM     60  N   UNL     1       3.836  -1.132   9.636  1.00  0.00    -0.248 NA
ATOM     61  C   UNL     1       4.136   1.071  10.346  1.00  0.00     0.031 C 
ATOM     62  C   UNL     1       5.945  -4.628  11.355  1.00  0.00     0.029 A 
ATOM     63  C   UNL     1       5.307  -3.512  10.842  1.00  0.00     0.049 A 
ATOM     64  H   UNL     1       3.778  -3.404   9.391  1.00  0.00     0.167 HD
ATOM     65  C   UNL     1       4.824  -1.097  10.617  1.00  0.00     0.074 A 
ATOM     66  C   UNL     1       5.002   0.293  10.978  1.00  0.00     0.031 C 
ATOM     67  C   UNL     1       5.511  -2.125  11.176  1.00  0.00     0.034 A 
BRANCH  54  68
ATOM     68  C   UNL     1       3.759  -7.670   9.085  1.00  0.00     0.023 A 
ATOM     69  C   UNL     1       4.359  -8.380   8.025  1.00  0.00     0.012 A 
ATOM     70  C   UNL     1       3.362  -8.365  10.245  1.00  0.00     0.148 A 
ATOM     71  C   UNL     1       4.527  -9.762   8.102  1.00  0.00     0.002 A 
ATOM     72  C   UNL     1       3.578  -9.735  10.333  1.00  0.00     0.091 A 
ATOM     73  F   UNL     1       2.777  -7.676  11.235  1.00  0.00    -0.205 F 
ATOM     74  C   UNL     1       4.147 -10.437   9.258  1.00  0.00     0.022 A 
BRANCH  72  75
ATOM     75  S   UNL     1       3.198 -10.683  11.811  1.00  0.00     0.127 S 
ATOM     76  O   UNL     1       2.072 -11.499  11.357  1.00  0.00    -0.237 OA
ATOM     77  O   UNL     1       4.440 -11.425  12.027  1.00  0.00    -0.237 OA
ATOM     78  O   UNL     1       2.884  -9.708  12.846  1.00  0.00    -0.744 OA
ENDBRANCH  72  75
ENDBRANCH  54  68
BRANCH  55  79
ATOM     79  C   UNL     1       2.199   2.145   8.440  1.00  0.00     0.023 A 
ATOM     80  C   UNL     1       3.216   3.023   8.017  1.00  0.00     0.012 A 
ATOM     81  C   UNL     1       0.953   2.674   8.828  1.00  0.00     0.148 A 
ATOM     82  C   UNL     1       3.008   4.404   8.015  1.00  0.00     0.002 A 
ATOM     83  C   UNL     1       0.733   4.044   8.766  1.00  0.00     0.091 A 
ATOM     84  F   UNL     1       0.005   1.823   9.247  1.00  0.00    -0.205 F 
ATOM     85  C   UNL     1       1.764   4.913   8.379  1.00  0.00     0.022 A 
BRANCH  83  86
ATOM     86  S   UNL     1      -0.872   4.780   9.098  1.00  0.00     0.127 S 
ATOM     87  O   UNL     1      -0.610   5.526  10.326  1.00  0.00    -0.237 OA
ATOM     88  O   UNL     1      -1.075   5.604   7.907  1.00  0.00    -0.237 OA
ATOM     89  O   UNL     1      -1.799   3.664   9.225  1.00  0.00    -0.744 OA
ENDBRANCH  83  86
ENDBRANCH  55  79
BRANCH  67  90
ATOM     90  C   UNL     1       6.554  -1.786  12.216  1.00  0.00     0.023 A 
ATOM     91  C   UNL     1       6.164  -1.280  13.473  1.00  0.00     0.012 A 
ATOM     92  C   UNL     1       7.924  -1.997  11.958  1.00  0.00     0.148 A 
ATOM     93  C   UNL     1       7.119  -0.936  14.430  1.00  0.00     0.002 A 
ATOM     94  C   UNL     1       8.867  -1.704  12.938  1.00  0.00     0.091 A 
ATOM     95  F   UNL     1       8.285  -2.465  10.754  1.00  0.00    -0.205 F 
ATOM     96  C   UNL     1       8.468  -1.156  14.167  1.00  0.00     0.022 A 
BRANCH  94  97
ATOM     97  S   UNL     1      10.617  -2.048  12.722  1.00  0.00     0.127 S 
ATOM     98  O   UNL     1      11.162  -0.708  12.514  1.00  0.00    -0.237 OA
ATOM     99  O   UNL     1      10.975  -2.659  14.004  1.00  0.00    -0.237 OA
ATOM    100  O   UNL     1      10.710  -2.948  11.580  1.00  0.00    -0.744 OA
ENDBRANCH  94  97
ENDBRANCH  67  90
ENDBRANCH  41  42
ENDBRANCH  34  36
ENDBRANCH  33  34
ENDBRANCH  32  33
ENDBRANCH  31  32
ENDBRANCH  30  31
ENDBRANCH  29  30
ENDBRANCH   1  29
TORSDOF 24
