REMARK SMILES CC(=O)NS(=O)(=O)c1ccc(-c2ccn(C(F)F)c(=O)c2)cc1C(=O)OCCOCCOCCOC(=O)c1ccc(-c2c3nc(c(-c4cccc(S(=O)(=O)[O-])c4F)c4ccc([nH]4)c(-c4cccc(S(=O)(=O)[O-])c4F)c4nc(c(-c5cccc(S(=O)(=O)[O-])c5F)c5ccc2[nH]5)C=C4)C=C3)cc1
REMARK SMILES IDX 31 1 30 2 29 3 28 4 27 5 26 6 24 7 25 8 23 9 8 10 9 11 10 12
REMARK SMILES IDX 22 13 11 14 5 15 6 16 7 17 4 18 1 19 2 20 3 21 12 23 13 24
REMARK SMILES IDX 21 25 14 26 19 27 15 28 20 29 16 30 17 31 18 32 32 33 33 34
REMARK SMILES IDX 34 35 35 36 36 37 37 38 38 39 39 40 100 41 40 42 99 43 41 44
REMARK SMILES IDX 42 45 43 46 93 47 44 48 98 49 92 50 94 51 45 52 97 53 91 54
REMARK SMILES IDX 90 55 46 57 78 58 58 59 77 60 59 61 62 62 76 63 95 64 60 65
REMARK SMILES IDX 61 66 75 68 96 69 63 70 47 71 48 72 56 73 49 74 51 75 57 76
REMARK SMILES IDX 50 77 52 78 53 79 54 80 55 81 79 82 80 83 88 84 81 85 83 86
REMARK SMILES IDX 89 87 82 88 84 89 85 90 86 91 87 92 64 93 65 94 73 95 66 96
REMARK SMILES IDX 68 97 74 98 67 99 69 100 70 101 71 102 72 103
REMARK H PARENT 4 22 94 56 62 67
REMARK Flexibility Score: inf
ROOT
ATOM      1  C   UNL     1      -2.232   0.267  -0.276  1.00  0.00     0.188 C 
ENDROOT
BRANCH   1   2
ATOM      2  C   UNL     1      -2.252   0.777  -1.719  1.00  0.00     0.188 C 
BRANCH   2   3
ATOM      3  O   UNL     1      -3.177   0.154  -2.599  1.00  0.00    -0.376 OA
BRANCH   3   4
ATOM      4  C   UNL     1      -3.009  -1.242  -2.828  1.00  0.00     0.202 C 
BRANCH   4   5
ATOM      5  C   UNL     1      -1.717  -1.671  -3.539  1.00  0.00     0.261 C 
BRANCH   5   6
ATOM      6  O   UNL     1      -0.503  -1.230  -2.893  1.00  0.00    -0.460 OA
BRANCH   6   7
ATOM      7  C   UNL     1       0.359  -0.571  -3.705  1.00  0.00     0.339 C 
ATOM      8  O   UNL     1       0.206  -0.318  -4.890  1.00  0.00    -0.246 OA
BRANCH   7   9
ATOM      9  C   UNL     1       1.529  -0.032  -2.982  1.00  0.00     0.081 A 
ATOM     10  C   UNL     1       2.497  -0.816  -2.354  1.00  0.00     0.102 A 
ATOM     11  C   UNL     1       3.714  -0.243  -1.946  1.00  0.00     0.024 A 
ATOM     12  C   UNL     1       3.921   1.128  -2.059  1.00  0.00     0.010 A 
ATOM     13  C   UNL     1       1.745   1.358  -3.086  1.00  0.00     0.025 A 
ATOM     14  C   UNL     1       2.923   1.943  -2.598  1.00  0.00    -0.017 A 
BRANCH  10  15
ATOM     15  S   UNL     1       2.230  -2.514  -1.954  1.00  0.00     0.264 S 
ATOM     16  O   UNL     1       3.467  -3.042  -1.411  1.00  0.00    -0.201 OA
ATOM     17  O   UNL     1       1.581  -3.164  -3.062  1.00  0.00    -0.201 OA
BRANCH  15  18
ATOM     18  N   UNL     1       1.143  -2.417  -0.692  1.00  0.00    -0.249 N 
ATOM     19  C   UNL     1       2.156  -0.847   0.938  1.00  0.00     0.115 C 
ATOM     20  C   UNL     1       1.515  -2.176   0.642  1.00  0.00     0.230 C 
ATOM     21  O   UNL     1       1.175  -2.958   1.519  1.00  0.00    -0.274 OA
ATOM     22  H   UNL     1       0.186  -2.536  -0.893  1.00  0.00     0.183 HD
ENDBRANCH  15  18
ENDBRANCH  10  15
BRANCH  14  23
ATOM     23  C   UNL     1       3.136   3.397  -2.650  1.00  0.00    -0.011 A 
ATOM     24  C   UNL     1       2.648   4.301  -1.627  1.00  0.00     0.027 A 
ATOM     25  C   UNL     1       3.850   3.891  -3.675  1.00  0.00     0.080 A 
ATOM     26  C   UNL     1       2.877   5.617  -1.717  1.00  0.00     0.095 A 
ATOM     27  C   UNL     1       4.140   5.349  -3.774  1.00  0.00     0.255 A 
ATOM     28  N   UNL     1       3.599   6.141  -2.774  1.00  0.00    -0.258 N 
ATOM     29  O   UNL     1       4.834   5.736  -4.708  1.00  0.00    -0.269 OA
BRANCH  28  30
ATOM     30  C   UNL     1       3.828   7.562  -2.871  1.00  0.00     0.451 C 
ATOM     31  F   UNL     1       5.156   7.834  -2.815  1.00  0.00    -0.185 F 
ATOM     32  F   UNL     1       3.354   8.046  -4.045  1.00  0.00    -0.185 F 
ENDBRANCH  28  30
ENDBRANCH  14  23
ENDBRANCH   7   9
ENDBRANCH   6   7
ENDBRANCH   5   6
ENDBRANCH   4   5
ENDBRANCH   3   4
ENDBRANCH   2   3
ENDBRANCH   1   2
BRANCH   1  33
ATOM     33  O   UNL     1      -2.125  -1.145  -0.129  1.00  0.00    -0.376 OA
BRANCH  33  34
ATOM     34  C   UNL     1      -1.949  -1.627   1.208  1.00  0.00     0.202 C 
BRANCH  34  35
ATOM     35  C   UNL     1      -2.902  -1.087   2.288  1.00  0.00     0.261 C 
BRANCH  35  36
ATOM     36  O   UNL     1      -2.794   0.331   2.524  1.00  0.00    -0.460 OA
BRANCH  36  37
ATOM     37  C   UNL     1      -1.572   0.841   2.807  1.00  0.00     0.338 C 
ATOM     38  O   UNL     1      -0.566   0.216   3.095  1.00  0.00    -0.246 OA
BRANCH  37  39
ATOM     39  C   UNL     1      -1.577   2.277   2.428  1.00  0.00     0.060 A 
ATOM     40  C   UNL     1      -0.414   2.815   1.856  1.00  0.00     0.016 A 
ATOM     41  C   UNL     1      -2.728   3.063   2.540  1.00  0.00     0.016 A 
ATOM     42  C   UNL     1      -0.393   4.144   1.431  1.00  0.00     0.010 A 
ATOM     43  C   UNL     1      -2.706   4.391   2.112  1.00  0.00     0.010 A 
ATOM     44  C   UNL     1      -1.530   4.947   1.581  1.00  0.00    -0.014 A 
BRANCH  44  45
ATOM     45  C   UNL     1      -1.441   6.408   1.353  1.00  0.00     0.031 A 
ATOM     46  C   UNL     1      -1.246   7.304   2.545  1.00  0.00     0.074 A 
ATOM     47  C   UNL     1      -1.540   6.938   0.120  1.00  0.00     0.049 A 
ATOM     48  N   UNL     1      -1.157   8.606   2.594  1.00  0.00    -0.248 NA
ATOM     49  C   UNL     1      -1.132   6.640   3.854  1.00  0.00     0.031 C 
ATOM     50  C   UNL     1      -1.737   6.183  -1.116  1.00  0.00     0.029 A 
ATOM     51  N   UNL     1      -1.516   8.250  -0.285  1.00  0.00    -0.354 N 
ATOM     52  C   UNL     1      -1.002   8.921   3.938  1.00  0.00     0.074 A 
ATOM     53  C   UNL     1      -1.018   7.675   4.672  1.00  0.00     0.031 C 
ATOM     54  C   UNL     1      -1.853   7.049  -2.139  1.00  0.00     0.029 A 
ATOM     55  C   UNL     1      -1.759   8.416  -1.629  1.00  0.00     0.049 A 
ATOM     56  H   UNL     1      -1.343   9.001   0.328  1.00  0.00     0.167 HD
ATOM     57  C   UNL     1      -0.843  10.135   4.513  1.00  0.00     0.034 A 
ATOM     58  C   UNL     1      -1.914   9.542  -2.355  1.00  0.00     0.034 A 
ATOM     59  C   UNL     1      -0.822  11.377   3.792  1.00  0.00     0.049 A 
ATOM     60  C   UNL     1      -1.776  10.886  -1.684  1.00  0.00     0.074 A 
ATOM     61  C   UNL     1      -0.616  12.652   4.286  1.00  0.00     0.029 A 
ATOM     62  N   UNL     1      -1.036  11.504   2.430  1.00  0.00    -0.354 N 
ATOM     63  N   UNL     1      -1.486  11.161  -0.435  1.00  0.00    -0.248 NA
ATOM     64  C   UNL     1      -1.956  12.076  -2.531  1.00  0.00     0.031 C 
ATOM     65  C   UNL     1      -0.727  13.555   3.223  1.00  0.00     0.029 A 
ATOM     66  C   UNL     1      -0.978  12.837   2.064  1.00  0.00     0.049 A 
ATOM     67  H   UNL     1      -1.204  10.756   1.812  1.00  0.00     0.167 HD
ATOM     68  C   UNL     1      -1.417  12.549  -0.354  1.00  0.00     0.074 A 
ATOM     69  C   UNL     1      -1.674  13.058  -1.685  1.00  0.00     0.031 C 
ATOM     70  C   UNL     1      -1.177  13.332   0.727  1.00  0.00     0.034 A 
BRANCH  57  71
ATOM     71  C   UNL     1      -0.650  10.171   6.003  1.00  0.00     0.023 A 
ATOM     72  C   UNL     1       0.583   9.765   6.553  1.00  0.00     0.012 A 
ATOM     73  C   UNL     1      -1.669  10.639   6.853  1.00  0.00     0.148 A 
ATOM     74  C   UNL     1       0.789   9.799   7.931  1.00  0.00     0.002 A 
ATOM     75  C   UNL     1      -1.442  10.708   8.222  1.00  0.00     0.091 A 
ATOM     76  F   UNL     1      -2.844  10.989   6.311  1.00  0.00    -0.205 F 
ATOM     77  C   UNL     1      -0.218  10.279   8.763  1.00  0.00     0.022 A 
BRANCH  75  78
ATOM     78  S   UNL     1      -2.653  11.375   9.367  1.00  0.00     0.127 S 
ATOM     79  O   UNL     1      -3.135  10.161  10.024  1.00  0.00    -0.237 OA
ATOM     80  O   UNL     1      -1.833  12.243  10.213  1.00  0.00    -0.237 OA
ATOM     81  O   UNL     1      -3.632  12.076   8.547  1.00  0.00    -0.744 OA
ENDBRANCH  75  78
ENDBRANCH  57  71
BRANCH  58  82
ATOM     82  C   UNL     1      -2.195   9.457  -3.816  1.00  0.00     0.023 A 
ATOM     83  C   UNL     1      -1.209   9.858  -4.738  1.00  0.00     0.012 A 
ATOM     84  C   UNL     1      -3.432   8.985  -4.294  1.00  0.00     0.148 A 
ATOM     85  C   UNL     1      -1.462   9.817  -6.110  1.00  0.00     0.002 A 
ATOM     86  C   UNL     1      -3.659   8.899  -5.662  1.00  0.00     0.091 A 
ATOM     87  F   UNL     1      -4.364   8.629  -3.398  1.00  0.00    -0.205 F 
ATOM     88  C   UNL     1      -2.681   9.329  -6.572  1.00  0.00     0.022 A 
BRANCH  86  89
ATOM     89  S   UNL     1      -5.155   8.179  -6.346  1.00  0.00     0.127 S 
ATOM     90  O   UNL     1      -5.828   9.353  -6.896  1.00  0.00    -0.237 OA
ATOM     91  O   UNL     1      -4.616   7.252  -7.342  1.00  0.00    -0.237 OA
ATOM     92  O   UNL     1      -5.825   7.533  -5.226  1.00  0.00    -0.744 OA
ENDBRANCH  86  89
ENDBRANCH  58  82
BRANCH  70  93
ATOM     93  C   UNL     1      -1.137  14.825   0.525  1.00  0.00     0.023 A 
ATOM     94  C   UNL     1      -2.334  15.536   0.308  1.00  0.00     0.012 A 
ATOM     95  C   UNL     1       0.076  15.534   0.641  1.00  0.00     0.148 A 
ATOM     96  C   UNL     1      -2.321  16.925   0.183  1.00  0.00     0.002 A 
ATOM     97  C   UNL     1       0.075  16.922   0.562  1.00  0.00     0.091 A 
ATOM     98  F   UNL     1       1.207  14.839   0.829  1.00  0.00    -0.205 F 
ATOM     99  C   UNL     1      -1.121  17.619   0.323  1.00  0.00     0.022 A 
BRANCH  97 100
ATOM    100  S   UNL     1       1.558  17.900   0.830  1.00  0.00     0.127 S 
ATOM    101  O   UNL     1       1.884  18.325  -0.530  1.00  0.00    -0.237 OA
ATOM    102  O   UNL     1       1.075  18.969   1.704  1.00  0.00    -0.237 OA
ATOM    103  O   UNL     1       2.520  17.002   1.454  1.00  0.00    -0.744 OA
ENDBRANCH  97 100
ENDBRANCH  70  93
ENDBRANCH  44  45
ENDBRANCH  37  39
ENDBRANCH  36  37
ENDBRANCH  35  36
ENDBRANCH  34  35
ENDBRANCH  33  34
ENDBRANCH   1  33
TORSDOF 24
