REMARK SMILES C[C@H]1C[C@@H]1C(=O)NC[C@@H]1CC[C@H](C(=O)OCCOCCOCCOC(=O)c2ccc(-c3c4nc(c(-c5cccc(S(=O)(=O)[O-])c5F)c5ccc([nH]5)c(-c5cccc(S(=O)(=O)[O-])c5F)c5nc(c(-c6cccc(S(=O)(=O)[O-])c6F)c6ccc3[nH]6)C=C5)C=C4)cc2)O1
REMARK SMILES IDX 19 1 18 2 17 3 16 4 15 5 13 6 14 7 12 8 9 9 10 10 90 11
REMARK SMILES IDX 11 12 8 13 7 14 5 15 6 16 4 18 1 19 2 20 3 21 20 22 21 23
REMARK SMILES IDX 22 24 23 25 24 26 25 27 26 28 27 29 28 30 89 31 29 32 88 33
REMARK SMILES IDX 30 34 31 35 32 36 82 37 33 38 87 39 81 40 83 41 34 42 86 43
REMARK SMILES IDX 80 44 79 45 35 47 67 48 47 49 66 50 48 51 51 52 65 53 84 54
REMARK SMILES IDX 49 55 50 56 64 58 85 59 52 60 36 61 37 62 45 63 38 64 40 65
REMARK SMILES IDX 46 66 39 67 41 68 42 69 43 70 44 71 68 72 69 73 77 74 70 75
REMARK SMILES IDX 72 76 78 77 71 78 73 79 74 80 75 81 76 82 53 83 54 84 62 85
REMARK SMILES IDX 55 86 57 87 63 88 56 89 58 90 59 91 60 92 61 93
REMARK H PARENT 7 17 83 46 51 57
REMARK Flexibility Score: inf
ROOT
ATOM      1  C   UNL     1       4.542  -1.404   3.517  1.00  0.00     0.188 C 
ENDROOT
BRANCH   1   2
ATOM      2  O   UNL     1       3.286  -2.031   3.763  1.00  0.00    -0.376 OA
BRANCH   2   3
ATOM      3  C   UNL     1       2.259  -1.763   2.811  1.00  0.00     0.202 C 
BRANCH   3   4
ATOM      4  C   UNL     1       1.950  -0.280   2.572  1.00  0.00     0.261 C 
BRANCH   4   5
ATOM      5  O   UNL     1       3.070   0.495   2.086  1.00  0.00    -0.461 OA
BRANCH   5   6
ATOM      6  C   UNL     1       3.236   1.728   2.640  1.00  0.00     0.335 C 
ATOM      7  O   UNL     1       2.410   2.272   3.366  1.00  0.00    -0.249 OA
BRANCH   6   8
ATOM      8  C   UNL     1       4.610   2.360   2.338  1.00  0.00     0.228 C 
ATOM      9  C   UNL     1       4.344   4.017   0.717  1.00  0.00     0.138 C 
ATOM     10  C   UNL     1       4.789   2.734   0.015  1.00  0.00     0.037 C 
ATOM     11  O   UNL     1       4.465   3.778   2.134  1.00  0.00    -0.361 OA
ATOM     12  C   UNL     1       5.373   1.892   1.119  1.00  0.00     0.047 C 
BRANCH   9  13
ATOM     13  C   UNL     1       2.906   4.479   0.395  1.00  0.00     0.147 C 
BRANCH  13  14
ATOM     14  N   UNL     1       2.445   4.054  -0.916  1.00  0.00    -0.353 N 
ATOM     15  C   UNL     1       1.310   3.362  -1.236  1.00  0.00     0.223 C 
ATOM     16  O   UNL     1       1.185   2.894  -2.364  1.00  0.00    -0.275 OA
ATOM     17  H   UNL     1       3.025   4.297  -1.673  1.00  0.00     0.163 HD
BRANCH  15  18
ATOM     18  C   UNL     1       0.233   3.216  -0.216  1.00  0.00     0.081 C 
ATOM     19  C   UNL     1      -0.600   1.766   1.799  1.00  0.00     0.008 C 
ATOM     20  C   UNL     1      -0.123   1.874   0.387  1.00  0.00    -0.001 C 
ATOM     21  C   UNL     1      -1.043   2.496  -0.619  1.00  0.00     0.018 C 
ENDBRANCH  15  18
ENDBRANCH  13  14
ENDBRANCH   9  13
ENDBRANCH   6   8
ENDBRANCH   5   6
ENDBRANCH   4   5
ENDBRANCH   3   4
ENDBRANCH   2   3
ENDBRANCH   1   2
BRANCH   1  22
ATOM     22  C   UNL     1       5.203  -1.790   2.190  1.00  0.00     0.188 C 
BRANCH  22  23
ATOM     23  O   UNL     1       4.366  -1.746   1.039  1.00  0.00    -0.376 OA
BRANCH  23  24
ATOM     24  C   UNL     1       4.874  -2.388  -0.137  1.00  0.00     0.202 C 
BRANCH  24  25
ATOM     25  C   UNL     1       5.127  -3.908  -0.011  1.00  0.00     0.261 C 
BRANCH  25  26
ATOM     26  O   UNL     1       6.169  -4.275   0.916  1.00  0.00    -0.460 OA
BRANCH  26  27
ATOM     27  C   UNL     1       7.368  -3.665   0.752  1.00  0.00     0.338 C 
ATOM     28  O   UNL     1       7.765  -3.128  -0.269  1.00  0.00    -0.246 OA
BRANCH  27  29
ATOM     29  C   UNL     1       7.989  -3.473   2.092  1.00  0.00     0.060 A 
ATOM     30  C   UNL     1       8.627  -2.248   2.339  1.00  0.00     0.016 A 
ATOM     31  C   UNL     1       7.857  -4.408   3.126  1.00  0.00     0.016 A 
ATOM     32  C   UNL     1       9.197  -1.988   3.586  1.00  0.00     0.010 A 
ATOM     33  C   UNL     1       8.440  -4.152   4.375  1.00  0.00     0.010 A 
ATOM     34  C   UNL     1       9.161  -2.964   4.590  1.00  0.00    -0.014 A 
BRANCH  34  35
ATOM     35  C   UNL     1      10.131  -2.863   5.710  1.00  0.00     0.031 A 
ATOM     36  C   UNL     1      11.461  -3.551   5.532  1.00  0.00     0.074 A 
ATOM     37  C   UNL     1       9.887  -2.155   6.828  1.00  0.00     0.049 A 
ATOM     38  N   UNL     1      12.509  -3.552   6.312  1.00  0.00    -0.248 NA
ATOM     39  C   UNL     1      11.627  -4.345   4.301  1.00  0.00     0.031 C 
ATOM     40  C   UNL     1       8.647  -1.449   7.138  1.00  0.00     0.029 A 
ATOM     41  N   UNL     1      10.687  -1.930   7.923  1.00  0.00    -0.354 N 
ATOM     42  C   UNL     1      13.449  -4.354   5.676  1.00  0.00     0.074 A 
ATOM     43  C   UNL     1      12.842  -4.844   4.460  1.00  0.00     0.031 C 
ATOM     44  C   UNL     1       8.761  -0.885   8.356  1.00  0.00     0.029 A 
ATOM     45  C   UNL     1      10.079  -1.194   8.912  1.00  0.00     0.049 A 
ATOM     46  H   UNL     1      11.610  -2.265   7.993  1.00  0.00     0.167 HD
ATOM     47  C   UNL     1      14.715  -4.645   6.051  1.00  0.00     0.034 A 
ATOM     48  C   UNL     1      10.535  -0.817  10.126  1.00  0.00     0.034 A 
ATOM     49  C   UNL     1      15.333  -4.158   7.251  1.00  0.00     0.049 A 
ATOM     50  C   UNL     1      11.949  -1.163  10.530  1.00  0.00     0.074 A 
ATOM     51  C   UNL     1      16.626  -4.366   7.698  1.00  0.00     0.029 A 
ATOM     52  N   UNL     1      14.698  -3.380   8.206  1.00  0.00    -0.354 N 
ATOM     53  N   UNL     1      12.873  -1.800   9.852  1.00  0.00    -0.248 NA
ATOM     54  C   UNL     1      12.396  -0.697  11.852  1.00  0.00     0.031 C 
ATOM     55  C   UNL     1      16.765  -3.732   8.937  1.00  0.00     0.029 A 
ATOM     56  C   UNL     1      15.568  -3.106   9.246  1.00  0.00     0.049 A 
ATOM     57  H   UNL     1      13.766  -3.069   8.152  1.00  0.00     0.167 HD
ATOM     58  C   UNL     1      14.017  -1.778  10.646  1.00  0.00     0.074 A 
ATOM     59  C   UNL     1      13.676  -1.044  11.846  1.00  0.00     0.031 C 
ATOM     60  C   UNL     1      15.236  -2.325  10.409  1.00  0.00     0.034 A 
BRANCH  47  61
ATOM     61  C   UNL     1      15.521  -5.518   5.129  1.00  0.00     0.023 A 
ATOM     62  C   UNL     1      15.992  -4.994   3.908  1.00  0.00     0.012 A 
ATOM     63  C   UNL     1      15.829  -6.846   5.479  1.00  0.00     0.148 A 
ATOM     64  C   UNL     1      16.730  -5.790   3.033  1.00  0.00     0.002 A 
ATOM     65  C   UNL     1      16.602  -7.618   4.623  1.00  0.00     0.091 A 
ATOM     66  F   UNL     1      15.342  -7.333   6.629  1.00  0.00    -0.205 F 
ATOM     67  C   UNL     1      17.043  -7.097   3.395  1.00  0.00     0.022 A 
BRANCH  65  68
ATOM     68  S   UNL     1      17.120  -9.287   5.034  1.00  0.00     0.127 S 
ATOM     69  O   UNL     1      16.289 -10.084   4.132  1.00  0.00    -0.237 OA
ATOM     70  O   UNL     1      18.542  -9.262   4.690  1.00  0.00    -0.237 OA
ATOM     71  O   UNL     1      16.842  -9.454   6.454  1.00  0.00    -0.744 OA
ENDBRANCH  65  68
ENDBRANCH  47  61
BRANCH  48  72
ATOM     72  C   UNL     1       9.663  -0.025  11.042  1.00  0.00     0.023 A 
ATOM     73  C   UNL     1       9.979   1.320  11.318  1.00  0.00     0.012 A 
ATOM     74  C   UNL     1       8.530  -0.601  11.647  1.00  0.00     0.148 A 
ATOM     75  C   UNL     1       9.202   2.066  12.206  1.00  0.00     0.002 A 
ATOM     76  C   UNL     1       7.729   0.164  12.488  1.00  0.00     0.091 A 
ATOM     77  F   UNL     1       8.258  -1.888  11.389  1.00  0.00    -0.205 F 
ATOM     78  C   UNL     1       8.073   1.492  12.782  1.00  0.00     0.022 A 
BRANCH  76  79
ATOM     79  S   UNL     1       6.194  -0.456  13.184  1.00  0.00     0.127 S 
ATOM     80  O   UNL     1       6.532  -0.572  14.600  1.00  0.00    -0.237 OA
ATOM     81  O   UNL     1       5.260   0.623  12.859  1.00  0.00    -0.237 OA
ATOM     82  O   UNL     1       5.927  -1.710  12.493  1.00  0.00    -0.744 OA
ENDBRANCH  76  79
ENDBRANCH  48  72
BRANCH  60  83
ATOM     83  C   UNL     1      16.314  -2.123  11.444  1.00  0.00     0.023 A 
ATOM     84  C   UNL     1      16.241  -2.801  12.678  1.00  0.00     0.012 A 
ATOM     85  C   UNL     1      17.437  -1.319  11.165  1.00  0.00     0.148 A 
ATOM     86  C   UNL     1      17.248  -2.650  13.631  1.00  0.00     0.002 A 
ATOM     87  C   UNL     1      18.461  -1.213  12.100  1.00  0.00     0.091 A 
ATOM     88  F   UNL     1      17.485  -0.667   9.994  1.00  0.00    -0.205 F 
ATOM     89  C   UNL     1      18.362  -1.866  13.339  1.00  0.00     0.022 A 
BRANCH  87  90
ATOM     90  S   UNL     1      19.974  -0.305  11.760  1.00  0.00     0.127 S 
ATOM     91  O   UNL     1      19.747   0.939  12.492  1.00  0.00    -0.237 OA
ATOM     92  O   UNL     1      21.000  -1.174  12.338  1.00  0.00    -0.237 OA
ATOM     93  O   UNL     1      20.043  -0.180  10.310  1.00  0.00    -0.744 OA
ENDBRANCH  87  90
ENDBRANCH  60  83
ENDBRANCH  34  35
ENDBRANCH  27  29
ENDBRANCH  26  27
ENDBRANCH  25  26
ENDBRANCH  24  25
ENDBRANCH  23  24
ENDBRANCH  22  23
ENDBRANCH   1  22
TORSDOF 23
