REMARK SMILES C[C@@H]1C(C(=O)OCCOCCOCCOC(=O)c2ccc(-c3c4nc(c(-c5cccc(S(=O)(=O)[O-])c5F)c5ccc([nH]5)c(-c5cccc(S(=O)(=O)[O-])c5F)c5nc(c(-c6cccc(S(=O)(=O)[O-])c6F)c6ccc3[nH]6)C=C5)C=C4)cc2)=NC2=C1C(=O)C[C@H](c1ccccc1)C2
REMARK SMILES IDX 11 1 10 2 9 3 8 4 7 5 6 6 4 7 5 8 3 9 1 10 2 11 83 12 81 13
REMARK SMILES IDX 82 14 84 15 94 16 85 17 86 18 87 19 88 20 89 21 93 22 90 23
REMARK SMILES IDX 92 24 91 25 12 26 13 27 14 28 15 29 16 30 17 31 18 32 19 33
REMARK SMILES IDX 80 34 20 35 79 36 21 37 22 38 23 39 73 40 24 41 78 42 72 43
REMARK SMILES IDX 74 44 25 45 77 46 71 47 70 48 26 50 58 51 38 52 57 53 39 54
REMARK SMILES IDX 42 55 56 56 75 57 40 58 41 59 55 61 76 62 43 63 27 64 28 65
REMARK SMILES IDX 36 66 29 67 31 68 37 69 30 70 32 71 33 72 34 73 35 74 59 75
REMARK SMILES IDX 60 76 68 77 61 78 63 79 69 80 62 81 64 82 65 83 66 84 67 85
REMARK SMILES IDX 44 86 45 87 53 88 46 89 48 90 54 91 47 92 49 93 50 94 51 95
REMARK SMILES IDX 52 96
REMARK H PARENT 74 49 42 60
REMARK Flexibility Score: inf
ROOT
ATOM      1  C   UNL     1      -0.133  -2.576  -3.002  1.00  0.00     0.188 C 
ENDROOT
BRANCH   1   2
ATOM      2  C   UNL     1      -0.758  -1.308  -2.460  1.00  0.00     0.188 C 
BRANCH   2   3
ATOM      3  O   UNL     1      -1.752  -0.749  -3.301  1.00  0.00    -0.376 OA
BRANCH   3   4
ATOM      4  C   UNL     1      -2.327   0.486  -2.869  1.00  0.00     0.202 C 
BRANCH   4   5
ATOM      5  C   UNL     1      -1.560   1.405  -1.886  1.00  0.00     0.261 C 
BRANCH   5   6
ATOM      6  O   UNL     1      -0.913   0.722  -0.787  1.00  0.00    -0.459 OA
BRANCH   6   7
ATOM      7  C   UNL     1      -1.583   0.479   0.362  1.00  0.00     0.353 C 
ATOM      8  O   UNL     1      -2.615   0.985   0.716  1.00  0.00    -0.245 OA
BRANCH   7   9
ATOM      9  C   UNL     1      -0.898  -0.713   1.063  1.00  0.00     0.133 C 
ATOM     10  C   UNL     1       1.520  -0.417   1.660  1.00  0.00     0.020 C 
ATOM     11  C   UNL     1       0.535  -1.105   0.723  1.00  0.00     0.078 C 
ATOM     12  C   UNL     1       0.318  -2.523   1.105  1.00  0.00     0.026 C 
ATOM     13  N   UNL     1      -1.518  -1.508   1.901  1.00  0.00    -0.249 NA
ATOM     14  C   UNL     1      -0.748  -2.652   1.894  1.00  0.00     0.049 C 
ATOM     15  C   UNL     1       0.797  -3.711   0.386  1.00  0.00     0.161 C 
ATOM     16  C   UNL     1      -1.278  -4.013   2.230  1.00  0.00     0.065 C 
ATOM     17  O   UNL     1       1.945  -3.722  -0.052  1.00  0.00    -0.294 OA
ATOM     18  C   UNL     1      -0.192  -4.866   0.146  1.00  0.00     0.089 C 
ATOM     19  C   UNL     1      -1.560  -4.752   0.900  1.00  0.00     0.033 C 
BRANCH  19  20
ATOM     20  C   UNL     1      -2.739  -4.128   0.129  1.00  0.00    -0.044 A 
ATOM     21  C   UNL     1      -3.733  -3.384   0.800  1.00  0.00     0.004 A 
ATOM     22  C   UNL     1      -2.914  -4.301  -1.248  1.00  0.00     0.004 A 
ATOM     23  C   UNL     1      -4.756  -2.720   0.123  1.00  0.00     0.000 A 
ATOM     24  C   UNL     1      -3.951  -3.647  -1.930  1.00  0.00     0.000 A 
ATOM     25  C   UNL     1      -4.853  -2.835  -1.252  1.00  0.00     0.000 A 
ENDBRANCH  19  20
ENDBRANCH   7   9
ENDBRANCH   6   7
ENDBRANCH   5   6
ENDBRANCH   4   5
ENDBRANCH   3   4
ENDBRANCH   2   3
ENDBRANCH   1   2
BRANCH   1  26
ATOM     26  O   UNL     1       0.774  -2.356  -4.079  1.00  0.00    -0.376 OA
BRANCH  26  27
ATOM     27  C   UNL     1       0.222  -1.829  -5.279  1.00  0.00     0.202 C 
BRANCH  27  28
ATOM     28  C   UNL     1      -0.483  -2.845  -6.161  1.00  0.00     0.261 C 
BRANCH  28  29
ATOM     29  O   UNL     1      -1.607  -3.437  -5.526  1.00  0.00    -0.460 OA
BRANCH  29  30
ATOM     30  C   UNL     1      -1.360  -4.653  -4.992  1.00  0.00     0.338 C 
ATOM     31  O   UNL     1      -0.277  -5.139  -4.707  1.00  0.00    -0.246 OA
BRANCH  30  32
ATOM     32  C   UNL     1      -2.617  -5.394  -4.911  1.00  0.00     0.060 A 
ATOM     33  C   UNL     1      -2.549  -6.665  -4.336  1.00  0.00     0.016 A 
ATOM     34  C   UNL     1      -3.721  -4.960  -5.662  1.00  0.00     0.016 A 
ATOM     35  C   UNL     1      -3.476  -7.594  -4.729  1.00  0.00     0.010 A 
ATOM     36  C   UNL     1      -4.642  -5.892  -6.061  1.00  0.00     0.010 A 
ATOM     37  C   UNL     1      -4.431  -7.211  -5.674  1.00  0.00    -0.014 A 
BRANCH  37  38
ATOM     38  C   UNL     1      -5.141  -8.272  -6.338  1.00  0.00     0.031 A 
ATOM     39  C   UNL     1      -6.221  -8.872  -5.540  1.00  0.00     0.074 A 
ATOM     40  C   UNL     1      -4.825  -8.621  -7.598  1.00  0.00     0.049 A 
ATOM     41  N   UNL     1      -6.277 -10.075  -5.075  1.00  0.00    -0.248 NA
ATOM     42  C   UNL     1      -7.294  -7.983  -5.078  1.00  0.00     0.031 C 
ATOM     43  C   UNL     1      -3.977  -7.896  -8.550  1.00  0.00     0.029 A 
ATOM     44  N   UNL     1      -5.342  -9.630  -8.345  1.00  0.00    -0.354 N 
ATOM     45  C   UNL     1      -7.516 -10.160  -4.454  1.00  0.00     0.074 A 
ATOM     46  C   UNL     1      -8.006  -8.813  -4.317  1.00  0.00     0.031 C 
ATOM     47  C   UNL     1      -4.265  -8.324  -9.799  1.00  0.00     0.029 A 
ATOM     48  C   UNL     1      -5.215  -9.419  -9.710  1.00  0.00     0.049 A 
ATOM     49  H   UNL     1      -5.764 -10.430  -7.957  1.00  0.00     0.167 HD
ATOM     50  C   UNL     1      -8.165 -11.348  -4.339  1.00  0.00     0.034 A 
ATOM     51  C   UNL     1      -5.955 -10.020 -10.671  1.00  0.00     0.034 A 
ATOM     52  C   UNL     1      -7.282 -12.470  -4.521  1.00  0.00     0.049 A 
ATOM     53  C   UNL     1      -6.536 -11.253 -10.079  1.00  0.00     0.074 A 
ATOM     54  C   UNL     1      -6.114 -12.893  -3.918  1.00  0.00     0.029 A 
ATOM     55  N   UNL     1      -7.362 -13.156  -5.710  1.00  0.00    -0.354 N 
ATOM     56  N   UNL     1      -5.826 -12.285  -9.713  1.00  0.00    -0.248 NA
ATOM     57  C   UNL     1      -7.862 -11.167  -9.484  1.00  0.00     0.031 C 
ATOM     58  C   UNL     1      -5.327 -13.431  -4.977  1.00  0.00     0.029 A 
ATOM     59  C   UNL     1      -6.078 -13.343  -6.151  1.00  0.00     0.049 A 
ATOM     60  H   UNL     1      -8.185 -13.456  -6.159  1.00  0.00     0.167 HD
ATOM     61  C   UNL     1      -6.421 -12.721  -8.534  1.00  0.00     0.074 A 
ATOM     62  C   UNL     1      -7.728 -12.068  -8.506  1.00  0.00     0.031 C 
ATOM     63  C   UNL     1      -5.693 -13.327  -7.547  1.00  0.00     0.034 A 
BRANCH  50  64
ATOM     64  C   UNL     1      -9.660 -11.486  -4.420  1.00  0.00     0.023 A 
ATOM     65  C   UNL     1     -10.222 -12.727  -4.057  1.00  0.00     0.012 A 
ATOM     66  C   UNL     1     -10.504 -10.563  -5.082  1.00  0.00     0.148 A 
ATOM     67  C   UNL     1     -11.546 -13.047  -4.372  1.00  0.00     0.002 A 
ATOM     68  C   UNL     1     -11.842 -10.851  -5.309  1.00  0.00     0.091 A 
ATOM     69  F   UNL     1      -9.993  -9.456  -5.631  1.00  0.00    -0.205 F 
ATOM     70  C   UNL     1     -12.362 -12.104  -4.986  1.00  0.00     0.022 A 
BRANCH  68  71
ATOM     71  S   UNL     1     -12.936  -9.627  -6.038  1.00  0.00     0.127 S 
ATOM     72  O   UNL     1     -12.965 -10.054  -7.434  1.00  0.00    -0.237 OA
ATOM     73  O   UNL     1     -14.177  -9.847  -5.295  1.00  0.00    -0.237 OA
ATOM     74  O   UNL     1     -12.303  -8.343  -5.764  1.00  0.00    -0.744 OA
ENDBRANCH  68  71
ENDBRANCH  50  64
BRANCH  51  75
ATOM     75  C   UNL     1      -6.431  -9.435 -11.946  1.00  0.00     0.023 A 
ATOM     76  C   UNL     1      -6.869 -10.284 -12.979  1.00  0.00     0.012 A 
ATOM     77  C   UNL     1      -6.682  -8.048 -12.076  1.00  0.00     0.148 A 
ATOM     78  C   UNL     1      -7.546  -9.772 -14.094  1.00  0.00     0.002 A 
ATOM     79  C   UNL     1      -7.331  -7.541 -13.197  1.00  0.00     0.091 A 
ATOM     80  F   UNL     1      -6.374  -7.231 -11.060  1.00  0.00    -0.205 F 
ATOM     81  C   UNL     1      -7.777  -8.403 -14.204  1.00  0.00     0.022 A 
BRANCH  79  82
ATOM     82  S   UNL     1      -7.643  -5.780 -13.395  1.00  0.00     0.127 S 
ATOM     83  O   UNL     1      -7.311  -5.566 -14.805  1.00  0.00    -0.237 OA
ATOM     84  O   UNL     1      -9.065  -5.685 -13.081  1.00  0.00    -0.237 OA
ATOM     85  O   UNL     1      -6.738  -5.113 -12.466  1.00  0.00    -0.744 OA
ENDBRANCH  79  82
ENDBRANCH  51  75
BRANCH  63  86
ATOM     86  C   UNL     1      -4.267 -13.727  -7.840  1.00  0.00     0.023 A 
ATOM     87  C   UNL     1      -3.285 -12.774  -8.186  1.00  0.00     0.012 A 
ATOM     88  C   UNL     1      -3.859 -15.044  -7.560  1.00  0.00     0.148 A 
ATOM     89  C   UNL     1      -1.937 -13.129  -8.274  1.00  0.00     0.002 A 
ATOM     90  C   UNL     1      -2.511 -15.383  -7.603  1.00  0.00     0.091 A 
ATOM     91  F   UNL     1      -4.798 -15.941  -7.221  1.00  0.00    -0.205 F 
ATOM     92  C   UNL     1      -1.548 -14.430  -7.969  1.00  0.00     0.022 A 
BRANCH  90  93
ATOM     93  S   UNL     1      -1.932 -17.002  -7.088  1.00  0.00     0.127 S 
ATOM     94  O   UNL     1      -1.685 -17.662  -8.368  1.00  0.00    -0.237 OA
ATOM     95  O   UNL     1      -0.725 -16.681  -6.324  1.00  0.00    -0.237 OA
ATOM     96  O   UNL     1      -3.007 -17.571  -6.283  1.00  0.00    -0.744 OA
ENDBRANCH  90  93
ENDBRANCH  63  86
ENDBRANCH  37  38
ENDBRANCH  30  32
ENDBRANCH  29  30
ENDBRANCH  28  29
ENDBRANCH  27  28
ENDBRANCH  26  27
ENDBRANCH   1  26
TORSDOF 21
