REMARK SMILES CSCc1ccc(C(=O)Nc2cc(C)c(C(=O)OCCOCCOCCOC(=O)c3ccc(-c4c5nc(c(-c6cccc(S(=O)(=O)[O-])c6F)c6ccc([nH]6)c(-c6cccc(S(=O)(=O)[O-])c6F)c6nc(c(-c7cccc(S(=O)(=O)[O-])c7F)c7ccc4[nH]7)C=C6)C=C5)cc3)s2)cc1
REMARK SMILES IDX 22 1 21 2 20 3 19 4 18 5 16 6 17 7 15 8 11 9 12 10 93 11
REMARK SMILES IDX 13 12 14 13 10 14 8 15 9 16 7 18 4 19 5 20 95 21 6 22 94 23
REMARK SMILES IDX 3 24 2 25 1 26 23 27 24 28 25 29 26 30 27 31 28 32 29 33
REMARK SMILES IDX 30 34 31 35 92 36 32 37 91 38 33 39 34 40 35 41 85 42 36 43
REMARK SMILES IDX 90 44 84 45 86 46 37 47 89 48 83 49 82 50 38 52 70 53 50 54
REMARK SMILES IDX 69 55 51 56 54 57 68 58 87 59 52 60 53 61 67 63 88 64 55 65
REMARK SMILES IDX 39 66 40 67 48 68 41 69 43 70 49 71 42 72 44 73 45 74 46 75
REMARK SMILES IDX 47 76 71 77 72 78 80 79 73 80 75 81 81 82 74 83 76 84 77 85
REMARK SMILES IDX 78 86 79 87 56 88 57 89 65 90 58 91 60 92 66 93 59 94 61 95
REMARK SMILES IDX 62 96 63 97 64 98
REMARK H PARENT 10 17 86 51 54 62
REMARK Flexibility Score: inf
ROOT
ATOM      1  C   UNL     1       4.615  -4.375   5.116  1.00  0.00     0.188 C 
ENDROOT
BRANCH   1   2
ATOM      2  O   UNL     1       5.798  -4.564   5.880  1.00  0.00    -0.376 OA
BRANCH   2   3
ATOM      3  C   UNL     1       5.795  -5.670   6.765  1.00  0.00     0.202 C 
BRANCH   3   4
ATOM      4  C   UNL     1       5.971  -7.031   6.082  1.00  0.00     0.261 C 
BRANCH   4   5
ATOM      5  O   UNL     1       5.189  -7.218   4.892  1.00  0.00    -0.459 OA
BRANCH   5   6
ATOM      6  C   UNL     1       3.905  -7.643   5.025  1.00  0.00     0.348 C 
ATOM      7  O   UNL     1       3.378  -7.883   6.104  1.00  0.00    -0.245 OA
BRANCH   6   8
ATOM      8  C   UNL     1       3.273  -7.700   3.712  1.00  0.00     0.117 A 
ATOM      9  C   UNL     1       1.568  -7.602   1.935  1.00  0.00     0.096 A 
ATOM     10  C   UNL     1       2.758  -8.099   1.476  1.00  0.00     0.042 A 
ATOM     11  S   UNL     1       1.618  -7.211   3.580  1.00  0.00    -0.111 S 
ATOM     12  C   UNL     1       3.798  -8.035   2.463  1.00  0.00    -0.023 A 
ATOM     13  C   UNL     1       5.219  -8.361   2.128  1.00  0.00     0.046 C 
BRANCH   9  14
ATOM     14  N   UNL     1       0.382  -7.573   1.252  1.00  0.00    -0.314 N 
ATOM     15  C   UNL     1      -0.554  -6.569   1.163  1.00  0.00     0.256 C 
ATOM     16  O   UNL     1      -1.702  -6.883   0.837  1.00  0.00    -0.269 OA
ATOM     17  H   UNL     1       0.167  -8.392   0.749  1.00  0.00     0.171 HD
BRANCH  15  18
ATOM     18  C   UNL     1      -0.197  -5.115   1.221  1.00  0.00     0.040 A 
ATOM     19  C   UNL     1       0.279  -2.326   1.037  1.00  0.00    -0.038 A 
ATOM     20  C   UNL     1      -1.016  -2.819   1.245  1.00  0.00     0.005 A 
ATOM     21  C   UNL     1       1.330  -3.242   0.900  1.00  0.00     0.005 A 
ATOM     22  C   UNL     1      -1.249  -4.195   1.333  1.00  0.00     0.014 A 
ATOM     23  C   UNL     1       1.094  -4.622   0.986  1.00  0.00     0.014 A 
BRANCH  19  24
ATOM     24  C   UNL     1       0.531  -0.838   1.038  1.00  0.00     0.104 C 
BRANCH  24  25
ATOM     25  S   UNL     1      -0.071   0.030  -0.431  1.00  0.00    -0.161 SA
ATOM     26  C   UNL     1       1.374  -0.160  -1.490  1.00  0.00     0.085 C 
ENDBRANCH  24  25
ENDBRANCH  19  24
ENDBRANCH  15  18
ENDBRANCH   9  14
ENDBRANCH   6   8
ENDBRANCH   5   6
ENDBRANCH   4   5
ENDBRANCH   3   4
ENDBRANCH   2   3
ENDBRANCH   1   2
BRANCH   1  27
ATOM     27  C   UNL     1       4.891  -4.391   3.597  1.00  0.00     0.188 C 
BRANCH  27  28
ATOM     28  O   UNL     1       6.245  -4.409   3.153  1.00  0.00    -0.376 OA
BRANCH  28  29
ATOM     29  C   UNL     1       7.119  -3.407   3.672  1.00  0.00     0.202 C 
BRANCH  29  30
ATOM     30  C   UNL     1       6.679  -1.948   3.506  1.00  0.00     0.261 C 
BRANCH  30  31
ATOM     31  O   UNL     1       5.454  -1.645   4.204  1.00  0.00    -0.460 OA
BRANCH  31  32
ATOM     32  C   UNL     1       4.582  -0.871   3.515  1.00  0.00     0.338 C 
ATOM     33  O   UNL     1       4.755  -0.366   2.417  1.00  0.00    -0.246 OA
BRANCH  32  34
ATOM     34  C   UNL     1       3.287  -0.778   4.212  1.00  0.00     0.060 A 
ATOM     35  C   UNL     1       2.317  -1.750   3.961  1.00  0.00     0.016 A 
ATOM     36  C   UNL     1       2.948   0.381   4.910  1.00  0.00     0.016 A 
ATOM     37  C   UNL     1       0.993  -1.529   4.328  1.00  0.00     0.010 A 
ATOM     38  C   UNL     1       1.616   0.590   5.298  1.00  0.00     0.010 A 
ATOM     39  C   UNL     1       0.615  -0.330   4.944  1.00  0.00    -0.014 A 
BRANCH  39  40
ATOM     40  C   UNL     1      -0.835  -0.005   5.068  1.00  0.00     0.031 A 
ATOM     41  C   UNL     1      -1.433   1.119   4.253  1.00  0.00     0.074 A 
ATOM     42  C   UNL     1      -1.643  -0.775   5.822  1.00  0.00     0.049 A 
ATOM     43  N   UNL     1      -2.680   1.513   4.183  1.00  0.00    -0.248 NA
ATOM     44  C   UNL     1      -0.523   1.879   3.378  1.00  0.00     0.031 C 
ATOM     45  C   UNL     1      -1.217  -1.936   6.604  1.00  0.00     0.029 A 
ATOM     46  N   UNL     1      -2.994  -0.692   6.059  1.00  0.00    -0.354 N 
ATOM     47  C   UNL     1      -2.702   2.557   3.265  1.00  0.00     0.074 A 
ATOM     48  C   UNL     1      -1.345   2.745   2.804  1.00  0.00     0.031 C 
ATOM     49  C   UNL     1      -2.280  -2.449   7.242  1.00  0.00     0.029 A 
ATOM     50  C   UNL     1      -3.450  -1.620   6.966  1.00  0.00     0.049 A 
ATOM     51  H   UNL     1      -3.579  -0.032   5.621  1.00  0.00     0.167 HD
ATOM     52  C   UNL     1      -3.754   3.289   2.831  1.00  0.00     0.034 A 
ATOM     53  C   UNL     1      -4.657  -1.760   7.549  1.00  0.00     0.034 A 
ATOM     54  C   UNL     1      -5.106   3.124   3.288  1.00  0.00     0.049 A 
ATOM     55  C   UNL     1      -5.770  -0.821   7.171  1.00  0.00     0.074 A 
ATOM     56  C   UNL     1      -6.237   3.818   2.894  1.00  0.00     0.029 A 
ATOM     57  N   UNL     1      -5.507   2.224   4.261  1.00  0.00    -0.354 N 
ATOM     58  N   UNL     1      -5.793   0.097   6.236  1.00  0.00    -0.248 NA
ATOM     59  C   UNL     1      -7.027  -0.942   7.925  1.00  0.00     0.031 C 
ATOM     60  C   UNL     1      -7.315   3.369   3.665  1.00  0.00     0.029 A 
ATOM     61  C   UNL     1      -6.858   2.377   4.518  1.00  0.00     0.049 A 
ATOM     62  H   UNL     1      -4.917   1.572   4.704  1.00  0.00     0.167 HD
ATOM     63  C   UNL     1      -7.071   0.643   6.269  1.00  0.00     0.074 A 
ATOM     64  C   UNL     1      -7.800  -0.061   7.304  1.00  0.00     0.031 C 
ATOM     65  C   UNL     1      -7.589   1.647   5.520  1.00  0.00     0.034 A 
BRANCH  52  66
ATOM     66  C   UNL     1      -3.490   4.354   1.802  1.00  0.00     0.023 A 
ATOM     67  C   UNL     1      -3.365   3.996   0.446  1.00  0.00     0.012 A 
ATOM     68  C   UNL     1      -3.444   5.712   2.171  1.00  0.00     0.148 A 
ATOM     69  C   UNL     1      -3.192   4.977  -0.530  1.00  0.00     0.002 A 
ATOM     70  C   UNL     1      -3.297   6.685   1.191  1.00  0.00     0.091 A 
ATOM     71  F   UNL     1      -3.538   6.022   3.472  1.00  0.00    -0.205 F 
ATOM     72  C   UNL     1      -3.169   6.320  -0.160  1.00  0.00     0.022 A 
BRANCH  70  73
ATOM     73  S   UNL     1      -3.299   8.442   1.563  1.00  0.00     0.127 S 
ATOM     74  O   UNL     1      -1.911   8.805   1.277  1.00  0.00    -0.237 OA
ATOM     75  O   UNL     1      -4.274   8.960   0.605  1.00  0.00    -0.237 OA
ATOM     76  O   UNL     1      -3.695   8.559   2.960  1.00  0.00    -0.744 OA
ENDBRANCH  70  73
ENDBRANCH  52  66
BRANCH  53  77
ATOM     77  C   UNL     1      -4.866  -2.816   8.581  1.00  0.00     0.023 A 
ATOM     78  C   UNL     1      -5.758  -3.876   8.335  1.00  0.00     0.012 A 
ATOM     79  C   UNL     1      -4.168  -2.778   9.805  1.00  0.00     0.148 A 
ATOM     80  C   UNL     1      -5.962  -4.869   9.295  1.00  0.00     0.002 A 
ATOM     81  C   UNL     1      -4.326  -3.804  10.728  1.00  0.00     0.091 A 
ATOM     82  F   UNL     1      -3.355  -1.739  10.045  1.00  0.00    -0.205 F 
ATOM     83  C   UNL     1      -5.235  -4.842  10.484  1.00  0.00     0.022 A 
BRANCH  81  84
ATOM     84  S   UNL     1      -3.307  -3.902  12.204  1.00  0.00     0.127 S 
ATOM     85  O   UNL     1      -4.194  -3.346  13.221  1.00  0.00    -0.237 OA
ATOM     86  O   UNL     1      -3.062  -5.340  12.320  1.00  0.00    -0.237 OA
ATOM     87  O   UNL     1      -2.115  -3.122  11.896  1.00  0.00    -0.744 OA
ENDBRANCH  81  84
ENDBRANCH  53  77
BRANCH  65  88
ATOM     88  C   UNL     1      -9.018   2.047   5.776  1.00  0.00     0.023 A 
ATOM     89  C   UNL     1      -9.338   2.773   6.940  1.00  0.00     0.012 A 
ATOM     90  C   UNL     1     -10.027   1.772   4.833  1.00  0.00     0.148 A 
ATOM     91  C   UNL     1     -10.646   3.194   7.176  1.00  0.00     0.002 A 
ATOM     92  C   UNL     1     -11.319   2.236   5.051  1.00  0.00     0.091 A 
ATOM     93  F   UNL     1      -9.708   1.062   3.740  1.00  0.00    -0.205 F 
ATOM     94  C   UNL     1     -11.633   2.937   6.227  1.00  0.00     0.022 A 
BRANCH  92  95
ATOM     95  S   UNL     1     -12.626   2.033   3.835  1.00  0.00     0.127 S 
ATOM     96  O   UNL     1     -13.402   0.936   4.410  1.00  0.00    -0.237 OA
ATOM     97  O   UNL     1     -13.294   3.336   3.871  1.00  0.00    -0.237 OA
ATOM     98  O   UNL     1     -11.954   1.738   2.577  1.00  0.00    -0.744 OA
ENDBRANCH  92  95
ENDBRANCH  65  88
ENDBRANCH  39  40
ENDBRANCH  32  34
ENDBRANCH  31  32
ENDBRANCH  30  31
ENDBRANCH  29  30
ENDBRANCH  28  29
ENDBRANCH  27  28
ENDBRANCH   1  27
TORSDOF 24
