REMARK SMILES Cc1cc(Oc2ccnc(C(=O)OCCOCCOCCOC(=O)c3ccc(-c4c5nc(c(-c6cccc(S(=O)(=O)[O-])c6F)c6ccc([nH]6)c(-c6cccc(S(=O)(=O)[O-])c6F)c6nc(c(-c7cccc(S(=O)(=O)[O-])c7F)c7ccc4[nH]7)C=C6)C=C5)cc3)c2)cc(C)c1Cl
REMARK SMILES IDX 18 1 17 2 16 3 15 4 14 5 13 6 11 7 12 8 10 9 6 10 7 11 88 12
REMARK SMILES IDX 8 13 9 14 5 15 4 16 1 17 2 18 3 19 92 20 90 21 93 22 89 23
REMARK SMILES IDX 91 24 19 25 20 26 21 27 22 28 23 29 24 30 25 31 26 32 87 33
REMARK SMILES IDX 27 34 86 35 28 36 29 37 30 38 80 39 31 40 85 41 79 42 81 43
REMARK SMILES IDX 32 44 84 45 78 46 77 47 33 49 65 50 45 51 64 52 46 53 49 54
REMARK SMILES IDX 63 55 82 56 47 57 48 58 62 60 83 61 50 62 34 63 35 64 43 65
REMARK SMILES IDX 36 66 38 67 44 68 37 69 39 70 40 71 41 72 42 73 66 74 67 75
REMARK SMILES IDX 75 76 68 77 70 78 76 79 69 80 71 81 72 82 73 83 74 84 51 85
REMARK SMILES IDX 52 86 60 87 53 88 55 89 61 90 54 91 56 92 57 93 58 94 59 95
REMARK H PARENT 81 48 49 59
REMARK Flexibility Score: inf
ROOT
ATOM      1  C   UNL     1       5.429   3.980  -3.369  1.00  0.00     0.188 C 
ENDROOT
BRANCH   1   2
ATOM      2  C   UNL     1       6.761   4.736  -3.192  1.00  0.00     0.188 C 
BRANCH   2   3
ATOM      3  O   UNL     1       7.606   4.784  -4.319  1.00  0.00    -0.376 OA
BRANCH   3   4
ATOM      4  C   UNL     1       8.452   3.693  -4.637  1.00  0.00     0.202 C 
BRANCH   4   5
ATOM      5  C   UNL     1       8.626   2.407  -3.802  1.00  0.00     0.261 C 
BRANCH   5   6
ATOM      6  O   UNL     1       7.595   2.086  -2.864  1.00  0.00    -0.459 OA
BRANCH   6   7
ATOM      7  C   UNL     1       7.972   2.099  -1.554  1.00  0.00     0.357 C 
ATOM      8  O   UNL     1       9.105   2.251  -1.129  1.00  0.00    -0.244 OA
BRANCH   7   9
ATOM      9  C   UNL     1       6.757   2.020  -0.695  1.00  0.00     0.152 A 
ATOM     10  C   UNL     1       4.697   1.014  -0.051  1.00  0.00     0.131 A 
ATOM     11  C   UNL     1       4.591   1.950   0.974  1.00  0.00     0.067 A 
ATOM     12  C   UNL     1       5.806   1.033  -0.895  1.00  0.00     0.083 A 
ATOM     13  C   UNL     1       5.571   2.923   1.069  1.00  0.00     0.116 A 
ATOM     14  N   UNL     1       6.647   2.980   0.260  1.00  0.00    -0.249 NA
BRANCH  10  15
ATOM     15  O   UNL     1       3.841  -0.043  -0.230  1.00  0.00    -0.457 OA
BRANCH  15  16
ATOM     16  C   UNL     1       2.476   0.086  -0.120  1.00  0.00     0.128 A 
ATOM     17  C   UNL     1      -0.409   2.561  -0.084  1.00  0.00     0.046 C 
ATOM     18  C   UNL     1       0.340   1.255  -0.076  1.00  0.00    -0.028 A 
ATOM     19  C   UNL     1       1.745   1.272  -0.176  1.00  0.00     0.052 A 
ATOM     20  C   UNL     1      -0.329   0.018   0.008  1.00  0.00     0.047 A 
ATOM     21  C   UNL     1       0.395  -1.187   0.021  1.00  0.00    -0.028 A 
ATOM     22  Cl  UNL     1      -2.064  -0.025   0.075  1.00  0.00    -0.084 Cl
ATOM     23  C   UNL     1       1.796  -1.132  -0.028  1.00  0.00     0.052 A 
ATOM     24  C   UNL     1      -0.282  -2.529   0.063  1.00  0.00     0.046 C 
ENDBRANCH  15  16
ENDBRANCH  10  15
ENDBRANCH   7   9
ENDBRANCH   6   7
ENDBRANCH   5   6
ENDBRANCH   4   5
ENDBRANCH   3   4
ENDBRANCH   2   3
ENDBRANCH   1   2
BRANCH   1  25
ATOM     25  O   UNL     1       5.231   3.153  -4.498  1.00  0.00    -0.376 OA
BRANCH  25  26
ATOM     26  C   UNL     1       5.239   3.718  -5.800  1.00  0.00     0.202 C 
BRANCH  26  27
ATOM     27  C   UNL     1       4.820   5.164  -6.141  1.00  0.00     0.261 C 
BRANCH  27  28
ATOM     28  O   UNL     1       4.992   6.167  -5.137  1.00  0.00    -0.460 OA
BRANCH  28  29
ATOM     29  C   UNL     1       3.856   6.590  -4.535  1.00  0.00     0.338 C 
ATOM     30  O   UNL     1       2.717   6.193  -4.741  1.00  0.00    -0.246 OA
BRANCH  29  31
ATOM     31  C   UNL     1       4.207   7.494  -3.426  1.00  0.00     0.060 A 
ATOM     32  C   UNL     1       3.984   7.063  -2.111  1.00  0.00     0.016 A 
ATOM     33  C   UNL     1       4.710   8.770  -3.679  1.00  0.00     0.016 A 
ATOM     34  C   UNL     1       4.253   7.914  -1.042  1.00  0.00     0.010 A 
ATOM     35  C   UNL     1       4.956   9.631  -2.606  1.00  0.00     0.010 A 
ATOM     36  C   UNL     1       4.703   9.216  -1.285  1.00  0.00    -0.014 A 
BRANCH  36  37
ATOM     37  C   UNL     1       4.757  10.193  -0.171  1.00  0.00     0.031 A 
ATOM     38  C   UNL     1       3.639  11.188  -0.026  1.00  0.00     0.074 A 
ATOM     39  C   UNL     1       5.782  10.194   0.700  1.00  0.00     0.049 A 
ATOM     40  N   UNL     1       3.497  12.154   0.842  1.00  0.00    -0.248 NA
ATOM     41  C   UNL     1       2.533  11.080  -0.993  1.00  0.00     0.031 C 
ATOM     42  C   UNL     1       6.915   9.271   0.675  1.00  0.00     0.029 A 
ATOM     43  N   UNL     1       6.044  11.021   1.764  1.00  0.00    -0.354 N 
ATOM     44  C   UNL     1       2.307  12.790   0.509  1.00  0.00     0.074 A 
ATOM     45  C   UNL     1       1.770  12.106  -0.646  1.00  0.00     0.031 C 
ATOM     46  C   UNL     1       7.770   9.604   1.658  1.00  0.00     0.029 A 
ATOM     47  C   UNL     1       7.258  10.778   2.362  1.00  0.00     0.049 A 
ATOM     48  H   UNL     1       5.422  11.721   2.069  1.00  0.00     0.167 HD
ATOM     49  C   UNL     1       1.709  13.841   1.117  1.00  0.00     0.034 A 
ATOM     50  C   UNL     1       7.894  11.447   3.345  1.00  0.00     0.034 A 
ATOM     51  C   UNL     1       2.241  14.515   2.271  1.00  0.00     0.049 A 
ATOM     52  C   UNL     1       7.225  12.640   3.979  1.00  0.00     0.074 A 
ATOM     53  C   UNL     1       1.687  15.562   2.986  1.00  0.00     0.029 A 
ATOM     54  N   UNL     1       3.457  14.222   2.869  1.00  0.00    -0.354 N 
ATOM     55  N   UNL     1       6.047  13.160   3.727  1.00  0.00    -0.248 NA
ATOM     56  C   UNL     1       7.960  13.320   5.056  1.00  0.00     0.031 C 
ATOM     57  C   UNL     1       2.587  15.930   3.991  1.00  0.00     0.029 A 
ATOM     58  C   UNL     1       3.680  15.079   3.933  1.00  0.00     0.049 A 
ATOM     59  H   UNL     1       4.071  13.510   2.579  1.00  0.00     0.167 HD
ATOM     60  C   UNL     1       5.884  14.198   4.639  1.00  0.00     0.074 A 
ATOM     61  C   UNL     1       7.076  14.221   5.462  1.00  0.00     0.031 C 
ATOM     62  C   UNL     1       4.846  15.061   4.778  1.00  0.00     0.034 A 
BRANCH  49  63
ATOM     63  C   UNL     1       0.400  14.325   0.549  1.00  0.00     0.023 A 
ATOM     64  C   UNL     1      -0.763  13.544   0.703  1.00  0.00     0.012 A 
ATOM     65  C   UNL     1       0.312  15.579  -0.087  1.00  0.00     0.148 A 
ATOM     66  C   UNL     1      -1.987  13.986   0.200  1.00  0.00     0.002 A 
ATOM     67  C   UNL     1      -0.919  16.034  -0.542  1.00  0.00     0.091 A 
ATOM     68  F   UNL     1       1.433  16.297  -0.242  1.00  0.00    -0.205 F 
ATOM     69  C   UNL     1      -2.066  15.235  -0.411  1.00  0.00     0.022 A 
BRANCH  67  70
ATOM     70  S   UNL     1      -1.143  17.661  -1.270  1.00  0.00     0.127 S 
ATOM     71  O   UNL     1      -1.448  17.322  -2.660  1.00  0.00    -0.237 OA
ATOM     72  O   UNL     1      -2.276  18.184  -0.508  1.00  0.00    -0.237 OA
ATOM     73  O   UNL     1       0.111  18.372  -1.064  1.00  0.00    -0.744 OA
ENDBRANCH  67  70
ENDBRANCH  49  63
BRANCH  50  74
ATOM     74  C   UNL     1       9.236  10.995   3.811  1.00  0.00     0.023 A 
ATOM     75  C   UNL     1       9.381  10.465   5.108  1.00  0.00     0.012 A 
ATOM     76  C   UNL     1      10.369  11.096   2.980  1.00  0.00     0.148 A 
ATOM     77  C   UNL     1      10.635  10.077   5.582  1.00  0.00     0.002 A 
ATOM     78  C   UNL     1      11.605  10.657   3.438  1.00  0.00     0.091 A 
ATOM     79  F   UNL     1      10.213  11.619   1.756  1.00  0.00    -0.205 F 
ATOM     80  C   UNL     1      11.744  10.164   4.745  1.00  0.00     0.022 A 
BRANCH  78  81
ATOM     81  S   UNL     1      13.067  10.626   2.395  1.00  0.00     0.127 S 
ATOM     82  O   UNL     1      13.903  11.647   3.022  1.00  0.00    -0.237 OA
ATOM     83  O   UNL     1      13.535   9.252   2.575  1.00  0.00    -0.237 OA
ATOM     84  O   UNL     1      12.600  10.934   1.050  1.00  0.00    -0.744 OA
ENDBRANCH  78  81
ENDBRANCH  50  74
BRANCH  62  85
ATOM     85  C   UNL     1       4.917  16.076   5.891  1.00  0.00     0.023 A 
ATOM     86  C   UNL     1       5.820  17.154   5.811  1.00  0.00     0.012 A 
ATOM     87  C   UNL     1       4.032  15.998   6.986  1.00  0.00     0.148 A 
ATOM     88  C   UNL     1       5.867  18.117   6.819  1.00  0.00     0.002 A 
ATOM     89  C   UNL     1       4.046  16.990   7.959  1.00  0.00     0.091 A 
ATOM     90  F   UNL     1       3.189  14.957   7.053  1.00  0.00    -0.205 F 
ATOM     91  C   UNL     1       4.973  18.042   7.885  1.00  0.00     0.022 A 
BRANCH  89  92
ATOM     92  S   UNL     1       2.867  17.030   9.314  1.00  0.00     0.127 S 
ATOM     93  O   UNL     1       3.719  16.717  10.460  1.00  0.00    -0.237 OA
ATOM     94  O   UNL     1       2.391  18.413   9.268  1.00  0.00    -0.237 OA
ATOM     95  O   UNL     1       1.855  16.031   8.998  1.00  0.00    -0.744 OA
ENDBRANCH  89  92
ENDBRANCH  62  85
ENDBRANCH  36  37
ENDBRANCH  29  31
ENDBRANCH  28  29
ENDBRANCH  27  28
ENDBRANCH  26  27
ENDBRANCH  25  26
ENDBRANCH   1  25
TORSDOF 22
