REMARK SMILES C[C@@H](C(=O)OCCOCCOCCOC(=O)c1ccc(-c2c3nc(c(-c4cccc(S(=O)(=O)[O-])c4F)c4ccc([nH]4)c(-c4cccc(S(=O)(=O)[O-])c4F)c4nc(c(-c5cccc(S(=O)(=O)[O-])c5F)c5ccc2[nH]5)C=C4)C=C3)cc1)N(C)c1ccc(C(N)=O)nn1
REMARK SMILES IDX 9 1 8 2 7 3 6 4 5 5 3 6 4 7 2 8 1 9 80 10 81 11 82 12 83 13
REMARK SMILES IDX 90 14 84 15 89 16 85 17 86 18 87 19 88 20 10 23 11 24 12 25
REMARK SMILES IDX 13 26 14 27 15 28 16 29 17 30 18 31 79 32 19 33 78 34 20 35
REMARK SMILES IDX 21 36 22 37 72 38 23 39 77 40 71 41 73 42 24 43 76 44 70 45
REMARK SMILES IDX 69 46 25 48 57 49 37 50 56 51 38 52 41 53 55 54 74 55 39 56
REMARK SMILES IDX 40 57 54 59 75 60 42 61 26 62 27 63 35 64 28 65 30 66 36 67
REMARK SMILES IDX 29 68 31 69 32 70 33 71 34 72 58 73 59 74 67 75 60 76 62 77
REMARK SMILES IDX 68 78 61 79 63 80 64 81 65 82 66 83 43 84 44 85 52 86 45 87
REMARK SMILES IDX 47 88 53 89 46 90 48 91 49 92 50 93 51 94
REMARK H PARENT 87 21 87 22 73 47 41 58
REMARK Flexibility Score: inf
ROOT
ATOM      1  C   UNL     1       1.320  -0.578  -4.272  1.00  0.00     0.188 C 
ENDROOT
BRANCH   1   2
ATOM      2  O   UNL     1       2.189   0.055  -5.199  1.00  0.00    -0.376 OA
BRANCH   2   3
ATOM      3  C   UNL     1       3.141   0.964  -4.663  1.00  0.00     0.202 C 
BRANCH   3   4
ATOM      4  C   UNL     1       2.617   2.082  -3.737  1.00  0.00     0.261 C 
BRANCH   4   5
ATOM      5  O   UNL     1       2.172   1.636  -2.424  1.00  0.00    -0.462 OA
BRANCH   5   6
ATOM      6  C   UNL     1       0.899   1.954  -2.026  1.00  0.00     0.328 C 
ATOM      7  O   UNL     1       0.177   2.711  -2.666  1.00  0.00    -0.250 OA
BRANCH   6   8
ATOM      8  C   UNL     1       0.504   1.381  -0.615  1.00  0.00     0.190 C 
ATOM      9  C   UNL     1       1.439   0.395   0.083  1.00  0.00     0.044 C 
BRANCH   8  10
ATOM     10  N   UNL     1      -0.934   0.942  -0.456  1.00  0.00    -0.345 N 
ATOM     11  C   UNL     1      -1.888   2.059  -0.518  1.00  0.00     0.146 C 
BRANCH  10  12
ATOM     12  C   UNL     1      -1.428  -0.154  -1.200  1.00  0.00     0.151 A 
ATOM     13  C   UNL     1      -1.541  -1.739  -0.466  1.00  0.00     0.051 A 
ATOM     14  N   UNL     1      -1.930   0.118  -2.795  1.00  0.00    -0.132 NA
ATOM     15  C   UNL     1      -2.200  -3.110  -1.463  1.00  0.00     0.040 A 
ATOM     16  N   UNL     1      -2.557  -1.072  -3.885  1.00  0.00    -0.143 NA
ATOM     17  C   UNL     1      -2.744  -2.727  -3.373  1.00  0.00     0.150 A 
BRANCH  17  18
ATOM     18  C   UNL     1      -3.431  -3.398  -4.655  1.00  0.00     0.269 C 
ATOM     19  N   UNL     1      -4.410  -2.616  -5.221  1.00  0.00    -0.364 N 
ATOM     20  O   UNL     1      -3.154  -4.480  -5.155  1.00  0.00    -0.268 OA
ATOM     21  H   UNL     1      -4.636  -1.745  -4.822  1.00  0.00     0.160 HD
ATOM     22  H   UNL     1      -4.886  -2.928  -6.024  1.00  0.00     0.160 HD
ENDBRANCH  17  18
ENDBRANCH  10  12
ENDBRANCH   8  10
ENDBRANCH   6   8
ENDBRANCH   5   6
ENDBRANCH   4   5
ENDBRANCH   3   4
ENDBRANCH   2   3
ENDBRANCH   1   2
BRANCH   1  23
ATOM     23  C   UNL     1       1.989  -1.175  -3.012  1.00  0.00     0.188 C 
BRANCH  23  24
ATOM     24  O   UNL     1       3.339  -1.514  -3.186  1.00  0.00    -0.376 OA
BRANCH  24  25
ATOM     25  C   UNL     1       3.647  -2.857  -3.485  1.00  0.00     0.202 C 
BRANCH  25  26
ATOM     26  C   UNL     1       2.665  -3.800  -4.210  1.00  0.00     0.261 C 
BRANCH  26  27
ATOM     27  O   UNL     1       1.261  -3.514  -4.086  1.00  0.00    -0.460 OA
BRANCH  27  28
ATOM     28  C   UNL     1       0.596  -4.127  -3.090  1.00  0.00     0.338 C 
ATOM     29  O   UNL     1       1.043  -4.949  -2.308  1.00  0.00    -0.246 OA
BRANCH  28  30
ATOM     30  C   UNL     1      -0.789  -3.630  -2.991  1.00  0.00     0.060 A 
ATOM     31  C   UNL     1      -1.230  -1.939  -2.576  1.00  0.00     0.016 A 
ATOM     32  C   UNL     1      -2.019  -4.846  -2.849  1.00  0.00     0.016 A 
ATOM     33  C   UNL     1      -3.108  -1.535  -1.949  1.00  0.00     0.010 A 
ATOM     34  C   UNL     1      -3.688  -4.498  -2.364  1.00  0.00     0.010 A 
ATOM     35  C   UNL     1      -4.304  -2.893  -1.901  1.00  0.00    -0.014 A 
BRANCH  35  36
ATOM     36  C   UNL     1      -5.807  -2.746  -1.827  1.00  0.00     0.031 A 
ATOM     37  C   UNL     1      -6.657  -3.957  -1.448  1.00  0.00     0.074 A 
ATOM     38  C   UNL     1      -6.434  -1.677  -2.370  1.00  0.00     0.049 A 
ATOM     39  N   UNL     1      -7.887  -4.258  -1.788  1.00  0.00    -0.248 NA
ATOM     40  C   UNL     1      -5.991  -5.026  -0.682  1.00  0.00     0.031 C 
ATOM     41  C   UNL     1      -5.816  -0.460  -2.893  1.00  0.00     0.029 A 
ATOM     42  N   UNL     1      -7.769  -1.487  -2.666  1.00  0.00    -0.354 N 
ATOM     43  C   UNL     1      -8.078  -5.587  -1.405  1.00  0.00     0.074 A 
ATOM     44  C   UNL     1      -6.805  -6.051  -0.902  1.00  0.00     0.031 C 
ATOM     45  C   UNL     1      -6.732   0.317  -3.478  1.00  0.00     0.029 A 
ATOM     46  C   UNL     1      -8.013  -0.347  -3.404  1.00  0.00     0.049 A 
ATOM     47  H   UNL     1      -8.479  -2.106  -2.377  1.00  0.00     0.167 HD
ATOM     48  C   UNL     1      -9.214  -6.335  -1.395  1.00  0.00     0.034 A 
ATOM     49  C   UNL     1      -9.125   0.134  -3.989  1.00  0.00     0.034 A 
ATOM     50  C   UNL     1     -10.512  -5.779  -1.680  1.00  0.00     0.049 A 
ATOM     51  C   UNL     1     -10.405  -0.606  -3.790  1.00  0.00     0.074 A 
ATOM     52  C   UNL     1     -11.760  -6.333  -1.452  1.00  0.00     0.029 A 
ATOM     53  N   UNL     1     -10.727  -4.516  -2.208  1.00  0.00    -0.354 N 
ATOM     54  N   UNL     1     -10.589  -1.798  -3.284  1.00  0.00    -0.248 NA
ATOM     55  C   UNL     1     -11.638   0.100  -4.157  1.00  0.00     0.031 C 
ATOM     56  C   UNL     1     -12.729  -5.397  -1.831  1.00  0.00     0.029 A 
ATOM     57  C   UNL     1     -12.084  -4.257  -2.281  1.00  0.00     0.049 A 
ATOM     58  H   UNL     1     -10.018  -3.894  -2.489  1.00  0.00     0.167 HD
ATOM     59  C   UNL     1     -11.963  -1.962  -3.205  1.00  0.00     0.074 A 
ATOM     60  C   UNL     1     -12.560  -0.745  -3.719  1.00  0.00     0.031 C 
ATOM     61  C   UNL     1     -12.663  -3.023  -2.742  1.00  0.00     0.034 A 
BRANCH  48  62
ATOM     62  C   UNL     1      -9.139  -7.776  -0.917  1.00  0.00     0.023 A 
ATOM     63  C   UNL     1      -8.714  -8.054   0.402  1.00  0.00     0.012 A 
ATOM     64  C   UNL     1      -9.541  -8.855  -1.735  1.00  0.00     0.148 A 
ATOM     65  C   UNL     1      -8.595  -9.364   0.863  1.00  0.00     0.002 A 
ATOM     66  C   UNL     1      -9.486 -10.159  -1.243  1.00  0.00     0.091 A 
ATOM     67  F   UNL     1      -9.964  -8.595  -2.980  1.00  0.00    -0.205 F 
ATOM     68  C   UNL     1      -8.986 -10.415   0.044  1.00  0.00     0.022 A 
BRANCH  66  69
ATOM     69  S   UNL     1     -10.082 -11.588  -2.159  1.00  0.00     0.127 S 
ATOM     70  O   UNL     1      -8.840 -12.315  -2.416  1.00  0.00    -0.237 OA
ATOM     71  O   UNL     1     -10.969 -12.226  -1.185  1.00  0.00    -0.237 OA
ATOM     72  O   UNL     1     -10.752 -11.061  -3.339  1.00  0.00    -0.744 OA
ENDBRANCH  66  69
ENDBRANCH  48  62
BRANCH  49  73
ATOM     73  C   UNL     1      -9.082   1.461  -4.666  1.00  0.00     0.023 A 
ATOM     74  C   UNL     1      -9.562   2.586  -3.968  1.00  0.00     0.012 A 
ATOM     75  C   UNL     1      -8.503   1.634  -5.939  1.00  0.00     0.148 A 
ATOM     76  C   UNL     1      -9.508   3.856  -4.539  1.00  0.00     0.002 A 
ATOM     77  C   UNL     1      -8.419   2.910  -6.488  1.00  0.00     0.091 A 
ATOM     78  F   UNL     1      -8.021   0.554  -6.569  1.00  0.00    -0.205 F 
ATOM     79  C   UNL     1      -8.934   4.019  -5.796  1.00  0.00     0.022 A 
BRANCH  77  80
ATOM     80  S   UNL     1      -7.607   3.248  -8.056  1.00  0.00     0.127 S 
ATOM     81  O   UNL     1      -8.739   3.628  -8.898  1.00  0.00    -0.237 OA
ATOM     82  O   UNL     1      -6.710   4.347  -7.700  1.00  0.00    -0.237 OA
ATOM     83  O   UNL     1      -6.934   2.010  -8.424  1.00  0.00    -0.744 OA
ENDBRANCH  77  80
ENDBRANCH  49  73
BRANCH  61  84
ATOM     84  C   UNL     1     -14.157  -2.890  -2.695  1.00  0.00     0.023 A 
ATOM     85  C   UNL     1     -14.907  -2.920  -3.886  1.00  0.00     0.012 A 
ATOM     86  C   UNL     1     -14.817  -2.792  -1.456  1.00  0.00     0.148 A 
ATOM     87  C   UNL     1     -16.296  -2.820  -3.845  1.00  0.00     0.002 A 
ATOM     88  C   UNL     1     -16.203  -2.751  -1.419  1.00  0.00     0.091 A 
ATOM     89  F   UNL     1     -14.077  -2.736  -0.339  1.00  0.00    -0.205 F 
ATOM     90  C   UNL     1     -16.944  -2.750  -2.613  1.00  0.00     0.022 A 
BRANCH  88  91
ATOM     91  S   UNL     1     -17.124  -2.767   0.121  1.00  0.00     0.127 S 
ATOM     92  O   UNL     1     -17.680  -1.415   0.151  1.00  0.00    -0.237 OA
ATOM     93  O   UNL     1     -18.105  -3.826  -0.118  1.00  0.00    -0.237 OA
ATOM     94  O   UNL     1     -16.155  -3.065   1.168  1.00  0.00    -0.744 OA
ENDBRANCH  88  91
ENDBRANCH  61  84
ENDBRANCH  35  36
ENDBRANCH  28  30
ENDBRANCH  27  28
ENDBRANCH  26  27
ENDBRANCH  25  26
ENDBRANCH  24  25
ENDBRANCH  23  24
ENDBRANCH   1  23
TORSDOF 23
