REMARK SMILES O=C(OCCOCCOCCOC(=O)c1ccccc1Nc1cccc(S(F)(F)(F)(F)F)c1)c1ccc(-c2c3nc(c(-c4cccc(S(=O)(=O)[O-])c4F)c4ccc([nH]4)c(-c4cccc(S(=O)(=O)[O-])c4F)c4nc(c(-c5cccc(S(=O)(=O)[O-])c5F)c5ccc2[nH]5)C=C4)C=C3)cc1
REMARK SMILES IDX 7 1 6 2 5 3 4 4 3 5 2 6 1 7 34 8 35 9 96 10 36 11 95 12
REMARK SMILES IDX 37 13 38 14 39 15 89 16 40 17 94 18 88 19 90 20 41 21 93 22
REMARK SMILES IDX 87 23 86 24 42 26 74 27 54 28 73 29 55 30 58 31 72 32 91 33
REMARK SMILES IDX 56 34 57 35 71 37 92 38 59 39 43 40 44 41 52 42 45 43 47 44
REMARK SMILES IDX 53 45 46 46 48 47 49 48 50 49 51 50 75 51 76 52 84 53 77 54
REMARK SMILES IDX 79 55 85 56 78 57 80 58 81 59 82 60 83 61 60 62 61 63 69 64
REMARK SMILES IDX 62 65 64 66 70 67 63 68 65 69 66 70 67 71 68 72 8 73 9 74
REMARK SMILES IDX 10 75 11 76 12 77 13 78 14 79 15 80 16 81 20 82 17 83 19 84
REMARK SMILES IDX 18 85 21 86 22 88 23 89 33 90 24 91 26 92 25 93 27 94 28 95
REMARK SMILES IDX 29 96 30 97 31 98 32 99
REMARK H PARENT 90 25 58 36 21 87
REMARK Flexibility Score: inf
ROOT
ATOM      1  C   UNL     1       2.972  -0.510  -1.353  1.00  0.00     0.188 C 
ENDROOT
BRANCH   1   2
ATOM      2  O   UNL     1       4.392  -0.510  -1.353  1.00  0.00    -0.376 OA
BRANCH   2   3
ATOM      3  C   UNL     1       4.865  -1.232  -0.226  1.00  0.00     0.202 C 
BRANCH   3   4
ATOM      4  C   UNL     1       4.358  -0.574   1.047  1.00  0.00     0.261 C 
BRANCH   4   5
ATOM      5  O   UNL     1       2.938  -0.574   1.047  1.00  0.00    -0.460 OA
BRANCH   5   6
ATOM      6  C   UNL     1       2.228   0.090   0.011  1.00  0.00     0.338 C 
ATOM      7  O   UNL     1       0.957   0.090   0.011  1.00  0.00    -0.246 OA
BRANCH   6   8
ATOM      8  C   UNL     1       2.988   0.800  -1.097  1.00  0.00     0.060 A 
ATOM      9  C   UNL     1       4.004   0.177  -1.804  1.00  0.00     0.016 A 
ATOM     10  C   UNL     1       2.559   2.011  -1.431  1.00  0.00     0.016 A 
ATOM     11  C   UNL     1       4.707   1.040  -2.678  1.00  0.00     0.010 A 
ATOM     12  C   UNL     1       3.213   2.745  -2.391  1.00  0.00     0.010 A 
ATOM     13  C   UNL     1       4.263   2.214  -3.088  1.00  0.00    -0.014 A 
BRANCH  13  14
ATOM     14  C   UNL     1       4.885   2.936  -4.272  1.00  0.00     0.031 A 
ATOM     15  C   UNL     1       5.419   4.194  -3.989  1.00  0.00     0.074 A 
ATOM     16  C   UNL     1       4.782   2.408  -5.548  1.00  0.00     0.049 A 
ATOM     17  N   UNL     1       5.939   5.070  -4.851  1.00  0.00    -0.248 NA
ATOM     18  C   UNL     1       5.498   4.772  -2.639  1.00  0.00     0.031 C 
ATOM     19  C   UNL     1       4.252   1.136  -5.840  1.00  0.00     0.029 A 
ATOM     20  N   UNL     1       5.159   2.991  -6.737  1.00  0.00    -0.354 N 
ATOM     21  C   UNL     1       6.367   6.156  -4.203  1.00  0.00     0.074 A 
ATOM     22  C   UNL     1       6.083   5.982  -2.772  1.00  0.00     0.031 C 
ATOM     23  C   UNL     1       4.297   0.960  -7.187  1.00  0.00     0.029 A 
ATOM     24  C   UNL     1       4.858   2.118  -7.759  1.00  0.00     0.049 A 
ATOM     25  H   UNL     1       5.572   3.879  -6.839  1.00  0.00     0.167 HD
ATOM     26  C   UNL     1       6.983   7.282  -4.750  1.00  0.00     0.034 A 
ATOM     27  C   UNL     1       5.051   2.304  -9.118  1.00  0.00     0.034 A 
ATOM     28  C   UNL     1       7.216   7.449  -6.106  1.00  0.00     0.049 A 
ATOM     29  C   UNL     1       5.615   3.456  -9.671  1.00  0.00     0.074 A 
ATOM     30  C   UNL     1       7.843   8.576  -6.672  1.00  0.00     0.029 A 
ATOM     31  N   UNL     1       6.893   6.587  -7.130  1.00  0.00    -0.354 N 
ATOM     32  N   UNL     1       6.078   4.524  -9.020  1.00  0.00    -0.248 NA
ATOM     33  C   UNL     1       5.795   3.677 -11.112  1.00  0.00     0.031 C 
ATOM     34  C   UNL     1       7.889   8.399  -8.020  1.00  0.00     0.029 A 
ATOM     35  C   UNL     1       7.290   7.160  -8.317  1.00  0.00     0.049 A 
ATOM     36  H   UNL     1       6.453   5.712  -7.030  1.00  0.00     0.167 HD
ATOM     37  C   UNL     1       6.560   5.417  -9.886  1.00  0.00     0.074 A 
ATOM     38  C   UNL     1       6.378   4.888 -11.245  1.00  0.00     0.031 C 
ATOM     39  C   UNL     1       7.148   6.650  -9.598  1.00  0.00     0.034 A 
BRANCH  26  40
ATOM     40  C   UNL     1       7.423   8.388  -3.805  1.00  0.00     0.023 A 
ATOM     41  C   UNL     1       8.207   8.095  -2.701  1.00  0.00     0.012 A 
ATOM     42  C   UNL     1       6.899   9.596  -3.976  1.00  0.00     0.148 A 
ATOM     43  C   UNL     1       8.142   9.069  -1.677  1.00  0.00     0.002 A 
ATOM     44  C   UNL     1       6.991  10.545  -2.986  1.00  0.00     0.091 A 
ATOM     45  F   UNL     1       6.279   9.890  -5.115  1.00  0.00    -0.205 F 
ATOM     46  C   UNL     1       7.700  10.302  -1.843  1.00  0.00     0.022 A 
BRANCH  44  47
ATOM     47  S   UNL     1       6.161  12.139  -3.199  1.00  0.00     0.127 S 
ATOM     48  O   UNL     1       5.141  12.338  -2.075  1.00  0.00    -0.237 OA
ATOM     49  O   UNL     1       7.197  13.264  -3.153  1.00  0.00    -0.237 OA
ATOM     50  O   UNL     1       5.357  12.166  -4.708  1.00  0.00    -0.744 OA
ENDBRANCH  44  47
ENDBRANCH  26  40
BRANCH  27  51
ATOM     51  C   UNL     1       4.626   1.190 -10.062  1.00  0.00     0.023 A 
ATOM     52  C   UNL     1       5.514   0.441 -10.816  1.00  0.00     0.012 A 
ATOM     53  C   UNL     1       3.335   0.883 -10.012  1.00  0.00     0.148 A 
ATOM     54  C   UNL     1       4.889  -0.449 -11.721  1.00  0.00     0.002 A 
ATOM     55  C   UNL     1       2.816  -0.092 -10.829  1.00  0.00     0.091 A 
ATOM     56  F   UNL     1       2.537   1.526  -9.164  1.00  0.00    -0.205 F 
ATOM     57  C   UNL     1       3.627  -0.832 -11.644  1.00  0.00     0.022 A 
BRANCH  55  58
ATOM     58  S   UNL     1       1.033  -0.403 -10.825  1.00  0.00     0.127 S 
ATOM     59  O   UNL     1       0.471  -0.167 -12.230  1.00  0.00    -0.237 OA
ATOM     60  O   UNL     1       0.768  -1.851 -10.407  1.00  0.00    -0.237 OA
ATOM     61  O   UNL     1       0.271   0.658  -9.722  1.00  0.00    -0.744 OA
ENDBRANCH  55  58
ENDBRANCH  27  51
BRANCH  39  62
ATOM     62  C   UNL     1       7.663   7.484 -10.760  1.00  0.00     0.023 A 
ATOM     63  C   UNL     1       6.823   8.052 -11.704  1.00  0.00     0.012 A 
ATOM     64  C   UNL     1       8.961   7.764 -10.736  1.00  0.00     0.148 A 
ATOM     65  C   UNL     1       7.504   8.685 -12.770  1.00  0.00     0.002 A 
ATOM     66  C   UNL     1       9.536   8.504 -11.741  1.00  0.00     0.091 A 
ATOM     67  F   UNL     1       9.711   7.324  -9.730  1.00  0.00    -0.205 F 
ATOM     68  C   UNL     1       8.774   9.046 -12.739  1.00  0.00     0.022 A 
BRANCH  66  69
ATOM     69  S   UNL     1      11.327   8.764 -11.744  1.00  0.00     0.127 S 
ATOM     70  O   UNL     1      11.924   8.186 -13.029  1.00  0.00    -0.237 OA
ATOM     71  O   UNL     1      11.625  10.263 -11.672  1.00  0.00    -0.237 OA
ATOM     72  O   UNL     1      12.019   7.980 -10.391  1.00  0.00    -0.744 OA
ENDBRANCH  66  69
ENDBRANCH  39  62
ENDBRANCH  13  14
ENDBRANCH   6   8
ENDBRANCH   5   6
ENDBRANCH   4   5
ENDBRANCH   3   4
ENDBRANCH   2   3
ENDBRANCH   1   2
BRANCH   1  73
ATOM     73  C   UNL     1       2.465  -1.942  -1.419  1.00  0.00     0.188 C 
BRANCH  73  74
ATOM     74  O   UNL     1       2.938  -2.664  -0.292  1.00  0.00    -0.376 OA
BRANCH  74  75
ATOM     75  C   UNL     1       4.358  -2.664  -0.292  1.00  0.00     0.202 C 
BRANCH  75  76
ATOM     76  C   UNL     1       4.865  -3.322  -1.564  1.00  0.00     0.261 C 
BRANCH  76  77
ATOM     77  O   UNL     1       4.392  -2.600  -2.692  1.00  0.00    -0.460 OA
BRANCH  77  78
ATOM     78  C   UNL     1       2.996  -2.460  -2.910  1.00  0.00     0.340 C 
ATOM     79  O   UNL     1       2.170  -2.981  -2.097  1.00  0.00    -0.246 OA
BRANCH  78  80
ATOM     80  C   UNL     1       2.489  -1.687  -4.117  1.00  0.00     0.083 A 
ATOM     81  C   UNL     1       1.562  -0.694  -3.847  1.00  0.00     0.018 A 
ATOM     82  C   UNL     1       2.994  -1.846  -5.335  1.00  0.00     0.053 A 
ATOM     83  C   UNL     1       1.010  -0.095  -5.004  1.00  0.00     0.001 A 
ATOM     84  C   UNL     1       2.498  -1.128  -6.396  1.00  0.00     0.027 A 
ATOM     85  C   UNL     1       1.539  -0.171  -6.212  1.00  0.00     0.002 A 
BRANCH  82  86
ATOM     86  N   UNL     1       4.095  -2.797  -5.549  1.00  0.00    -0.355 N 
ATOM     87  H   UNL     1       4.453  -3.313  -4.791  1.00  0.00     0.167 HD
BRANCH  86  88
ATOM     88  C   UNL     1       4.659  -2.977  -6.894  1.00  0.00     0.040 A 
ATOM     89  C   UNL     1       4.593  -4.224  -7.493  1.00  0.00     0.026 A 
ATOM     90  C   UNL     1       5.203  -1.940  -7.520  1.00  0.00     0.050 A 
ATOM     91  C   UNL     1       5.394  -4.347  -8.652  1.00  0.00     0.004 A 
ATOM     92  C   UNL     1       5.854  -2.110  -8.718  1.00  0.00     0.109 A 
ATOM     93  C   UNL     1       5.879  -3.328  -9.339  1.00  0.00     0.024 A 
BRANCH  92  94
ATOM     94  S   UNL     1       6.690  -0.700  -9.486  1.00  0.00     0.310 S 
ATOM     95  F   UNL     1       7.835  -0.560  -8.398  1.00  0.00    -0.094 F 
ATOM     96  F   UNL     1       5.788   0.192  -8.552  1.00  0.00    -0.094 F 
ATOM     97  F   UNL     1       7.275   0.565 -10.176  1.00  0.00    -0.094 F 
ATOM     98  F   UNL     1       7.687  -1.602 -10.315  1.00  0.00    -0.094 F 
ATOM     99  F   UNL     1       6.188  -1.986  -8.717  1.00  0.00    -0.094 F 
ENDBRANCH  92  94
ENDBRANCH  86  88
ENDBRANCH  82  86
ENDBRANCH  78  80
ENDBRANCH  77  78
ENDBRANCH  76  77
ENDBRANCH  75  76
ENDBRANCH  74  75
ENDBRANCH  73  74
ENDBRANCH   1  73
TORSDOF 23
