REMARK SMILES COc1c[nH]c(C[N@H+]2CCC[C@@H](c3ccc(C(=O)OCCOCCOCCOC(=O)c4ccc(-c5c6nc(c(-c7cccc(S(=O)(=O)[O-])c7F)c7ccc([nH]7)c(-c7cccc(S(=O)(=O)[O-])c7F)c7nc(c(-c8cccc(S(=O)(=O)[O-])c8F)c8ccc5[nH]8)C=C7)C=C6)cc4)cc3)C2)cc1=O
REMARK SMILES IDX 23 1 22 2 21 3 20 4 19 5 17 6 18 7 16 8 13 9 14 10 95 11
REMARK SMILES IDX 15 12 94 13 12 14 8 15 9 16 96 17 10 19 11 20 7 21 6 22 3 23
REMARK SMILES IDX 4 24 98 25 5 26 97 27 99 28 2 30 1 31 24 32 25 33 26 34
REMARK SMILES IDX 27 35 28 36 29 37 30 38 31 39 32 40 93 41 33 42 92 43 34 44
REMARK SMILES IDX 35 45 36 46 86 47 37 48 91 49 85 50 87 51 38 52 90 53 84 54
REMARK SMILES IDX 83 55 39 57 71 58 51 59 70 60 52 61 55 62 69 63 88 64 53 65
REMARK SMILES IDX 54 66 68 68 89 69 56 70 40 71 41 72 49 73 42 74 44 75 50 76
REMARK SMILES IDX 43 77 45 78 46 79 47 80 48 81 72 82 73 83 81 84 74 85 76 86
REMARK SMILES IDX 82 87 75 88 77 89 78 90 79 91 80 92 57 93 58 94 66 95 59 96
REMARK SMILES IDX 61 97 67 98 60 99 62 100 63 101 64 102 65 103
REMARK H PARENT 8 18 5 29 87 56 55 67
REMARK Flexibility Score: inf
ROOT
ATOM      1  C   UNL     1      -6.789   2.416  -8.303  1.00  0.00     0.188 C 
ENDROOT
BRANCH   1   2
ATOM      2  O   UNL     1      -8.195   2.467  -8.351  1.00  0.00    -0.376 OA
BRANCH   2   3
ATOM      3  C   UNL     1      -8.913   3.486  -7.678  1.00  0.00     0.202 C 
BRANCH   3   4
ATOM      4  C   UNL     1      -8.303   4.661  -6.888  1.00  0.00     0.261 C 
BRANCH   4   5
ATOM      5  O   UNL     1      -6.914   4.933  -7.072  1.00  0.00    -0.460 OA
BRANCH   5   6
ATOM      6  C   UNL     1      -6.132   4.694  -5.993  1.00  0.00     0.338 C 
ATOM      7  O   UNL     1      -6.495   4.324  -4.884  1.00  0.00    -0.246 OA
BRANCH   6   8
ATOM      8  C   UNL     1      -4.712   4.773  -6.378  1.00  0.00     0.060 A 
ATOM      9  C   UNL     1      -1.962   4.909  -6.892  1.00  0.00    -0.039 A 
ATOM     10  C   UNL     1      -2.529   3.746  -6.339  1.00  0.00     0.005 A 
ATOM     11  C   UNL     1      -2.811   5.956  -7.284  1.00  0.00     0.005 A 
ATOM     12  C   UNL     1      -3.890   3.691  -6.054  1.00  0.00     0.016 A 
ATOM     13  C   UNL     1      -4.187   5.886  -7.038  1.00  0.00     0.016 A 
BRANCH   9  14
ATOM     14  C   UNL     1      -0.450   5.120  -6.868  1.00  0.00     0.074 C 
ATOM     15  N   UNL     1       1.434   5.237  -5.171  1.00  0.00    -0.329 N 
ATOM     16  C   UNL     1       2.185   4.225  -5.927  1.00  0.00     0.262 C 
ATOM     17  C   UNL     1      -0.007   5.094  -5.387  1.00  0.00     0.270 C 
ATOM     18  H   UNL     1       1.712   6.150  -5.531  1.00  0.00     0.348 HD
ATOM     19  C   UNL     1       1.850   4.279  -7.423  1.00  0.00     0.062 C 
ATOM     20  C   UNL     1       0.351   4.092  -7.676  1.00  0.00     0.020 C 
BRANCH  15  21
ATOM     21  C   UNL     1       1.779   5.236  -3.730  1.00  0.00     0.317 C 
BRANCH  21  22
ATOM     22  C   UNL     1       1.539   3.945  -2.947  1.00  0.00     0.074 A 
ATOM     23  C   UNL     1       0.864   1.451  -1.719  1.00  0.00     0.182 A 
ATOM     24  C   UNL     1      -0.057   2.321  -2.154  1.00  0.00     0.133 A 
ATOM     25  C   UNL     1       2.297   1.902  -1.815  1.00  0.00     0.223 A 
ATOM     26  N   UNL     1       0.240   3.553  -2.671  1.00  0.00    -0.357 N 
ATOM     27  C   UNL     1       2.569   3.188  -2.523  1.00  0.00     0.083 A 
ATOM     28  O   UNL     1       3.239   1.266  -1.351  1.00  0.00    -0.286 OA
ATOM     29  H   UNL     1      -0.495   4.182  -2.852  1.00  0.00     0.166 HD
BRANCH  23  30
ATOM     30  O   UNL     1       0.498   0.193  -1.288  1.00  0.00    -0.491 OA
ATOM     31  C   UNL     1       0.937  -0.091   0.035  1.00  0.00     0.278 C 
ENDBRANCH  23  30
ENDBRANCH  21  22
ENDBRANCH  15  21
ENDBRANCH   9  14
ENDBRANCH   6   8
ENDBRANCH   5   6
ENDBRANCH   4   5
ENDBRANCH   3   4
ENDBRANCH   2   3
ENDBRANCH   1   2
BRANCH   1  32
ATOM     32  C   UNL     1      -6.040   3.281  -9.339  1.00  0.00     0.188 C 
BRANCH  32  33
ATOM     33  O   UNL     1      -6.743   4.202 -10.153  1.00  0.00    -0.376 OA
BRANCH  33  34
ATOM     34  C   UNL     1      -7.834   3.751 -10.941  1.00  0.00     0.202 C 
BRANCH  34  35
ATOM     35  C   UNL     1      -7.821   2.416 -11.708  1.00  0.00     0.261 C 
BRANCH  35  36
ATOM     36  O   UNL     1      -7.201   1.301 -11.058  1.00  0.00    -0.460 OA
BRANCH  36  37
ATOM     37  C   UNL     1      -6.020   0.904 -11.588  1.00  0.00     0.338 C 
ATOM     38  O   UNL     1      -5.434   1.398 -12.542  1.00  0.00    -0.246 OA
BRANCH  37  39
ATOM     39  C   UNL     1      -5.423  -0.132 -10.728  1.00  0.00     0.060 A 
ATOM     40  C   UNL     1      -4.228   0.161 -10.055  1.00  0.00     0.016 A 
ATOM     41  C   UNL     1      -6.004  -1.396 -10.628  1.00  0.00     0.016 A 
ATOM     42  C   UNL     1      -3.598  -0.821  -9.292  1.00  0.00     0.010 A 
ATOM     43  C   UNL     1      -5.359  -2.385  -9.881  1.00  0.00     0.010 A 
ATOM     44  C   UNL     1      -4.139  -2.111  -9.234  1.00  0.00    -0.014 A 
BRANCH  44  45
ATOM     45  C   UNL     1      -3.349  -3.214  -8.638  1.00  0.00     0.031 A 
ATOM     46  C   UNL     1      -2.587  -4.132  -9.553  1.00  0.00     0.074 A 
ATOM     47  C   UNL     1      -3.318  -3.404  -7.307  1.00  0.00     0.049 A 
ATOM     48  N   UNL     1      -1.873  -5.187  -9.261  1.00  0.00    -0.248 NA
ATOM     49  C   UNL     1      -2.639  -3.818 -10.991  1.00  0.00     0.031 C 
ATOM     50  C   UNL     1      -4.007  -2.578  -6.318  1.00  0.00     0.029 A 
ATOM     51  N   UNL     1      -2.699  -4.377  -6.563  1.00  0.00    -0.354 N 
ATOM     52  C   UNL     1      -1.419  -5.684 -10.476  1.00  0.00     0.074 A 
ATOM     53  C   UNL     1      -1.944  -4.819 -11.511  1.00  0.00     0.031 C 
ATOM     54  C   UNL     1      -3.800  -3.099  -5.096  1.00  0.00     0.029 A 
ATOM     55  C   UNL     1      -2.989  -4.309  -5.221  1.00  0.00     0.049 A 
ATOM     56  H   UNL     1      -2.105  -5.059  -6.953  1.00  0.00     0.167 HD
ATOM     57  C   UNL     1      -0.627  -6.757 -10.711  1.00  0.00     0.034 A 
ATOM     58  C   UNL     1      -2.659  -5.144  -4.215  1.00  0.00     0.034 A 
ATOM     59  C   UNL     1      -0.097  -7.609  -9.682  1.00  0.00     0.049 A 
ATOM     60  C   UNL     1      -1.803  -6.351  -4.507  1.00  0.00     0.074 A 
ATOM     61  C   UNL     1       0.752  -8.693  -9.816  1.00  0.00     0.029 A 
ATOM     62  N   UNL     1      -0.378  -7.486  -8.330  1.00  0.00    -0.354 N 
ATOM     63  N   UNL     1      -1.286  -6.743  -5.646  1.00  0.00    -0.248 NA
ATOM     64  C   UNL     1      -1.458  -7.213  -3.366  1.00  0.00     0.031 C 
ATOM     65  C   UNL     1       0.956  -9.247  -8.548  1.00  0.00     0.029 A 
ATOM     66  C   UNL     1       0.267  -8.483  -7.620  1.00  0.00     0.049 A 
ATOM     67  H   UNL     1      -0.953  -6.791  -7.933  1.00  0.00     0.167 HD
ATOM     68  C   UNL     1      -0.524  -7.870  -5.354  1.00  0.00     0.074 A 
ATOM     69  C   UNL     1      -0.634  -8.089  -3.926  1.00  0.00     0.031 C 
ATOM     70  C   UNL     1       0.193  -8.660  -6.192  1.00  0.00     0.034 A 
BRANCH  57  71
ATOM     71  C   UNL     1      -0.273  -7.063 -12.143  1.00  0.00     0.023 A 
ATOM     72  C   UNL     1       0.625  -6.227 -12.836  1.00  0.00     0.012 A 
ATOM     73  C   UNL     1      -0.790  -8.206 -12.784  1.00  0.00     0.148 A 
ATOM     74  C   UNL     1       0.978  -6.505 -14.157  1.00  0.00     0.002 A 
ATOM     75  C   UNL     1      -0.398  -8.502 -14.083  1.00  0.00     0.091 A 
ATOM     76  F   UNL     1      -1.661  -8.975 -12.115  1.00  0.00    -0.205 F 
ATOM     77  C   UNL     1       0.476  -7.647 -14.775  1.00  0.00     0.022 A 
BRANCH  75  78
ATOM     78  S   UNL     1      -0.926  -9.990 -14.939  1.00  0.00     0.127 S 
ATOM     79  O   UNL     1      -1.816  -9.442 -15.961  1.00  0.00    -0.237 OA
ATOM     80  O   UNL     1       0.340 -10.515 -15.451  1.00  0.00    -0.237 OA
ATOM     81  O   UNL     1      -1.569 -10.826 -13.935  1.00  0.00    -0.744 OA
ENDBRANCH  75  78
ENDBRANCH  57  71
BRANCH  58  82
ATOM     82  C   UNL     1      -3.120  -4.859  -2.826  1.00  0.00     0.023 A 
ATOM     83  C   UNL     1      -2.180  -4.493  -1.843  1.00  0.00     0.012 A 
ATOM     84  C   UNL     1      -4.482  -4.945  -2.477  1.00  0.00     0.148 A 
ATOM     85  C   UNL     1      -2.583  -4.253  -0.529  1.00  0.00     0.002 A 
ATOM     86  C   UNL     1      -4.884  -4.650  -1.179  1.00  0.00     0.091 A 
ATOM     87  F   UNL     1      -5.358  -5.310  -3.423  1.00  0.00    -0.205 F 
ATOM     88  C   UNL     1      -3.934  -4.322  -0.199  1.00  0.00     0.022 A 
BRANCH  86  89
ATOM     89  S   UNL     1      -6.612  -4.591  -0.694  1.00  0.00     0.127 S 
ATOM     90  O   UNL     1      -6.710  -5.739   0.204  1.00  0.00    -0.237 OA
ATOM     91  O   UNL     1      -6.694  -3.286  -0.037  1.00  0.00    -0.237 OA
ATOM     92  O   UNL     1      -7.373  -4.691  -1.931  1.00  0.00    -0.744 OA
ENDBRANCH  86  89
ENDBRANCH  58  82
BRANCH  70  93
ATOM     93  C   UNL     1       0.961  -9.811  -5.591  1.00  0.00     0.023 A 
ATOM     94  C   UNL     1       0.274 -10.942  -5.108  1.00  0.00     0.012 A 
ATOM     95  C   UNL     1       2.371  -9.804  -5.581  1.00  0.00     0.148 A 
ATOM     96  C   UNL     1       0.976 -12.031  -4.591  1.00  0.00     0.002 A 
ATOM     97  C   UNL     1       3.064 -10.913  -5.113  1.00  0.00     0.091 A 
ATOM     98  F   UNL     1       3.007  -8.713  -6.032  1.00  0.00    -0.205 F 
ATOM     99  C   UNL     1       2.369 -12.022  -4.604  1.00  0.00     0.022 A 
BRANCH  97 100
ATOM    100  S   UNL     1       4.856 -11.033  -5.185  1.00  0.00     0.127 S 
ATOM    101  O   UNL     1       5.219 -10.919  -3.774  1.00  0.00    -0.237 OA
ATOM    102  O   UNL     1       5.054 -12.364  -5.760  1.00  0.00    -0.237 OA
ATOM    103  O   UNL     1       5.298  -9.936  -6.035  1.00  0.00    -0.744 OA
ENDBRANCH  97 100
ENDBRANCH  70  93
ENDBRANCH  44  45
ENDBRANCH  37  39
ENDBRANCH  36  37
ENDBRANCH  35  36
ENDBRANCH  34  35
ENDBRANCH  33  34
ENDBRANCH  32  33
ENDBRANCH   1  32
TORSDOF 24
