REMARK SMILES C[NH+]1CCN(C(=O)c2ccc3c(c2)N(CC(=O)OCCOCCOCCOC(=O)c2ccc(-c4c5nc(c(-c6cccc(S(=O)(=O)[O-])c6F)c6ccc([nH]6)c(-c6cccc(S(=O)(=O)[O-])c6F)c6nc(c(-c7cccc(S(=O)(=O)[O-])c7F)c7ccc4[nH]7)C=C6)C=C5)cc2)C(=O)CO3)CC1
REMARK SMILES IDX 23 1 22 2 21 3 20 4 19 5 18 6 16 7 17 8 15 9 14 10 8 11 9 12
REMARK SMILES IDX 13 13 10 14 12 15 11 16 96 17 93 18 95 19 94 20 6 21 1 22
REMARK SMILES IDX 2 23 3 24 98 25 4 27 97 28 5 29 7 30 24 31 25 32 26 33 27 34
REMARK SMILES IDX 28 35 29 36 30 37 31 38 92 39 32 40 91 41 33 42 34 43 35 44
REMARK SMILES IDX 85 45 36 46 90 47 84 48 86 49 37 50 89 51 83 52 82 53 38 55
REMARK SMILES IDX 70 56 50 57 69 58 51 59 54 60 68 61 87 62 52 63 53 64 67 66
REMARK SMILES IDX 88 67 55 68 39 69 40 70 48 71 41 72 43 73 49 74 42 75 44 76
REMARK SMILES IDX 45 77 46 78 47 79 71 80 72 81 80 82 73 83 75 84 81 85 74 86
REMARK SMILES IDX 76 87 77 88 78 89 79 90 56 91 57 92 65 93 58 94 60 95 66 96
REMARK SMILES IDX 59 97 61 98 62 99 63 100 64 101
REMARK H PARENT 2 26 86 54 54 65
REMARK Flexibility Score: inf
ROOT
ATOM      1  C   UNL     1       0.062  -3.867  -0.209  1.00  0.00     0.188 C 
ENDROOT
BRANCH   1   2
ATOM      2  C   UNL     1       1.325  -4.162   0.551  1.00  0.00     0.188 C 
BRANCH   2   3
ATOM      3  O   UNL     1       1.792  -5.487   0.477  1.00  0.00    -0.376 OA
BRANCH   3   4
ATOM      4  C   UNL     1       0.812  -6.515   0.618  1.00  0.00     0.202 C 
BRANCH   4   5
ATOM      5  C   UNL     1      -0.068  -6.517   1.897  1.00  0.00     0.261 C 
BRANCH   5   6
ATOM      6  O   UNL     1      -1.318  -5.729   1.862  1.00  0.00    -0.462 OA
BRANCH   6   7
ATOM      7  C   UNL     1      -1.606  -5.028   3.007  1.00  0.00     0.326 C 
ATOM      8  O   UNL     1      -0.826  -4.996   3.963  1.00  0.00    -0.250 OA
BRANCH   7   9
ATOM      9  C   UNL     1      -2.945  -4.173   3.076  1.00  0.00     0.248 C 
BRANCH   9  10
ATOM     10  N   UNL     1      -4.196  -4.287   2.310  1.00  0.00    -0.295 N 
ATOM     11  C   UNL     1      -4.646  -1.319  -0.206  1.00  0.00     0.042 A 
ATOM     12  C   UNL     1      -5.843  -1.760  -0.771  1.00  0.00     0.018 A 
ATOM     13  C   UNL     1      -4.372  -1.997   1.054  1.00  0.00     0.044 A 
ATOM     14  C   UNL     1      -6.547  -2.875  -0.243  1.00  0.00     0.049 A 
ATOM     15  C   UNL     1      -4.866  -3.287   1.451  1.00  0.00     0.087 A 
ATOM     16  C   UNL     1      -6.034  -3.665   0.802  1.00  0.00     0.143 A 
ATOM     17  O   UNL     1      -6.731  -4.811   1.078  1.00  0.00    -0.482 OA
ATOM     18  C   UNL     1      -4.870  -5.476   2.604  1.00  0.00     0.265 C 
ATOM     19  C   UNL     1      -6.348  -5.447   2.284  1.00  0.00     0.330 C 
ATOM     20  O   UNL     1      -4.354  -6.425   3.195  1.00  0.00    -0.270 OA
BRANCH  11  21
ATOM     21  C   UNL     1      -3.957  -0.031  -0.907  1.00  0.00     0.254 C 
ATOM     22  C   UNL     1       1.504   1.247  -0.653  1.00  0.00     0.332 C 
ATOM     23  N   UNL     1       0.343   1.027  -1.550  1.00  0.00    -0.334 N 
ATOM     24  C   UNL     1      -0.737   2.001  -1.267  1.00  0.00     0.283 C 
ATOM     25  C   UNL     1      -0.133  -0.357  -1.412  1.00  0.00     0.283 C 
ATOM     26  H   UNL     1       0.637   1.174  -2.515  1.00  0.00     0.347 HD
ATOM     27  C   UNL     1      -2.200   1.637  -1.792  1.00  0.00     0.181 C 
ATOM     28  C   UNL     1      -1.520  -0.632  -2.094  1.00  0.00     0.181 C 
ATOM     29  N   UNL     1      -2.625   0.210  -1.546  1.00  0.00    -0.327 N 
ATOM     30  O   UNL     1      -4.743   0.932  -0.910  1.00  0.00    -0.269 OA
ENDBRANCH  11  21
ENDBRANCH   9  10
ENDBRANCH   7   9
ENDBRANCH   6   7
ENDBRANCH   5   6
ENDBRANCH   4   5
ENDBRANCH   3   4
ENDBRANCH   2   3
ENDBRANCH   1   2
BRANCH   1  31
ATOM     31  O   UNL     1      -0.286  -4.482  -1.420  1.00  0.00    -0.376 OA
BRANCH  31  32
ATOM     32  C   UNL     1      -1.683  -4.274  -1.633  1.00  0.00     0.202 C 
BRANCH  32  33
ATOM     33  C   UNL     1      -2.496  -3.300  -0.706  1.00  0.00     0.261 C 
BRANCH  33  34
ATOM     34  O   UNL     1      -1.982  -2.051   0.064  1.00  0.00    -0.460 OA
BRANCH  34  35
ATOM     35  C   UNL     1      -1.448  -1.822   1.319  1.00  0.00     0.338 C 
ATOM     36  O   UNL     1      -0.825  -2.657   1.968  1.00  0.00    -0.246 OA
BRANCH  35  37
ATOM     37  C   UNL     1      -1.805  -0.541   2.063  1.00  0.00     0.060 A 
ATOM     38  C   UNL     1      -1.989  -0.576   3.450  1.00  0.00     0.016 A 
ATOM     39  C   UNL     1      -2.141   0.650   1.451  1.00  0.00     0.016 A 
ATOM     40  C   UNL     1      -2.530   0.522   4.145  1.00  0.00     0.010 A 
ATOM     41  C   UNL     1      -2.602   1.786   2.117  1.00  0.00     0.010 A 
ATOM     42  C   UNL     1      -2.773   1.745   3.489  1.00  0.00    -0.014 A 
BRANCH  42  43
ATOM     43  C   UNL     1      -2.831   3.033   4.228  1.00  0.00     0.031 A 
ATOM     44  C   UNL     1      -3.912   4.065   4.025  1.00  0.00     0.074 A 
ATOM     45  C   UNL     1      -1.709   3.342   4.913  1.00  0.00     0.049 A 
ATOM     46  N   UNL     1      -4.022   5.252   4.566  1.00  0.00    -0.248 NA
ATOM     47  C   UNL     1      -4.966   3.767   3.040  1.00  0.00     0.031 C 
ATOM     48  C   UNL     1      -0.490   2.518   4.924  1.00  0.00     0.029 A 
ATOM     49  N   UNL     1      -1.378   4.409   5.699  1.00  0.00    -0.354 N 
ATOM     50  C   UNL     1      -5.110   5.867   3.948  1.00  0.00     0.074 A 
ATOM     51  C   UNL     1      -5.618   4.924   2.975  1.00  0.00     0.031 C 
ATOM     52  C   UNL     1       0.416   3.062   5.738  1.00  0.00     0.029 A 
ATOM     53  C   UNL     1      -0.128   4.299   6.266  1.00  0.00     0.049 A 
ATOM     54  H   UNL     1      -1.973   5.180   5.844  1.00  0.00     0.167 HD
ATOM     55  C   UNL     1      -5.632   7.097   4.194  1.00  0.00     0.034 A 
ATOM     56  C   UNL     1       0.510   5.098   7.138  1.00  0.00     0.034 A 
ATOM     57  C   UNL     1      -5.119   7.962   5.231  1.00  0.00     0.049 A 
ATOM     58  C   UNL     1      -0.227   6.310   7.601  1.00  0.00     0.074 A 
ATOM     59  C   UNL     1      -5.643   9.147   5.715  1.00  0.00     0.029 A 
ATOM     60  N   UNL     1      -3.956   7.718   5.953  1.00  0.00    -0.354 N 
ATOM     61  N   UNL     1      -1.370   6.781   7.162  1.00  0.00    -0.248 NA
ATOM     62  C   UNL     1       0.369   7.072   8.700  1.00  0.00     0.031 C 
ATOM     63  C   UNL     1      -4.798   9.616   6.729  1.00  0.00     0.029 A 
ATOM     64  C   UNL     1      -3.755   8.716   6.890  1.00  0.00     0.049 A 
ATOM     65  H   UNL     1      -3.360   6.946   5.817  1.00  0.00     0.167 HD
ATOM     66  C   UNL     1      -1.641   7.896   7.933  1.00  0.00     0.074 A 
ATOM     67  C   UNL     1      -0.558   8.001   8.898  1.00  0.00     0.031 C 
ATOM     68  C   UNL     1      -2.672   8.770   7.840  1.00  0.00     0.034 A 
BRANCH  55  69
ATOM     69  C   UNL     1      -6.858   7.551   3.422  1.00  0.00     0.023 A 
ATOM     70  C   UNL     1      -8.084   6.875   3.606  1.00  0.00     0.012 A 
ATOM     71  C   UNL     1      -6.839   8.703   2.604  1.00  0.00     0.148 A 
ATOM     72  C   UNL     1      -9.249   7.305   2.966  1.00  0.00     0.002 A 
ATOM     73  C   UNL     1      -8.016   9.154   2.006  1.00  0.00     0.091 A 
ATOM     74  F   UNL     1      -5.674   9.341   2.424  1.00  0.00    -0.205 F 
ATOM     75  C   UNL     1      -9.217   8.449   2.176  1.00  0.00     0.022 A 
BRANCH  73  76
ATOM     76  S   UNL     1      -8.113  10.673   1.043  1.00  0.00     0.127 S 
ATOM     77  O   UNL     1      -8.360  10.156  -0.303  1.00  0.00    -0.237 OA
ATOM     78  O   UNL     1      -9.259  11.350   1.652  1.00  0.00    -0.237 OA
ATOM     79  O   UNL     1      -6.838  11.350   1.228  1.00  0.00    -0.744 OA
ENDBRANCH  73  76
ENDBRANCH  55  69
BRANCH  56  80
ATOM     80  C   UNL     1       1.810   4.646   7.705  1.00  0.00     0.023 A 
ATOM     81  C   UNL     1       1.834   4.115   9.009  1.00  0.00     0.012 A 
ATOM     82  C   UNL     1       2.967   4.553   6.907  1.00  0.00     0.148 A 
ATOM     83  C   UNL     1       2.986   3.506   9.509  1.00  0.00     0.002 A 
ATOM     84  C   UNL     1       4.090   3.886   7.387  1.00  0.00     0.091 A 
ATOM     85  F   UNL     1       2.926   5.056   5.664  1.00  0.00    -0.205 F 
ATOM     86  C   UNL     1       4.106   3.374   8.693  1.00  0.00     0.022 A 
BRANCH  84  87
ATOM     87  S   UNL     1       5.486   3.505   6.319  1.00  0.00     0.127 S 
ATOM     88  O   UNL     1       6.420   4.577   6.651  1.00  0.00    -0.237 OA
ATOM     89  O   UNL     1       5.884   2.175   6.784  1.00  0.00    -0.237 OA
ATOM     90  O   UNL     1       4.942   3.519   4.967  1.00  0.00    -0.744 OA
ENDBRANCH  84  87
ENDBRANCH  56  80
BRANCH  68  91
ATOM     91  C   UNL     1      -2.655   9.914   8.809  1.00  0.00     0.023 A 
ATOM     92  C   UNL     1      -1.740  10.967   8.617  1.00  0.00     0.012 A 
ATOM     93  C   UNL     1      -3.555   9.953   9.887  1.00  0.00     0.148 A 
ATOM     94  C   UNL     1      -1.694  12.030   9.514  1.00  0.00     0.002 A 
ATOM     95  C   UNL     1      -3.535  11.039  10.751  1.00  0.00     0.091 A 
ATOM     96  F   UNL     1      -4.397   8.923  10.059  1.00  0.00    -0.205 F 
ATOM     97  C   UNL     1      -2.597  12.070  10.574  1.00  0.00     0.022 A 
BRANCH  95  98
ATOM     98  S   UNL     1      -4.714  11.211  12.091  1.00  0.00     0.127 S 
ATOM     99  O   UNL     1      -3.891  10.884  13.255  1.00  0.00    -0.237 OA
ATOM    100  O   UNL     1      -5.096  12.620  11.990  1.00  0.00    -0.237 OA
ATOM    101  O   UNL     1      -5.790  10.273  11.800  1.00  0.00    -0.744 OA
ENDBRANCH  95  98
ENDBRANCH  68  91
ENDBRANCH  42  43
ENDBRANCH  35  37
ENDBRANCH  34  35
ENDBRANCH  33  34
ENDBRANCH  32  33
ENDBRANCH  31  32
ENDBRANCH   1  31
TORSDOF 22
