REMARK SMILES O=C(CCC(=O)OCCOCCOCCOC(=O)c1ccc(-c2c3nc(c(-c4cccc(S(=O)(=O)[O-])c4F)c4ccc([nH]4)c(-c4cccc(S(=O)(=O)[O-])c4F)c4nc(c(-c5cccc(S(=O)(=O)[O-])c5F)c5ccc2[nH]5)C=C4)C=C3)cc1)Nc1ccc2nc(-c3ccccc3)oc2c1
REMARK SMILES IDX 11 1 10 2 9 3 8 4 7 5 5 6 6 7 4 8 3 9 2 10 1 11 82 12 83 14
REMARK SMILES IDX 84 15 97 16 85 17 96 18 86 19 95 20 87 21 88 22 89 23 90 24
REMARK SMILES IDX 94 25 91 26 93 27 92 28 12 29 13 30 14 31 15 32 16 33 17 34
REMARK SMILES IDX 18 35 19 36 20 37 81 38 21 39 80 40 22 41 23 42 24 43 74 44
REMARK SMILES IDX 25 45 79 46 73 47 75 48 26 49 78 50 72 51 71 52 27 54 59 55
REMARK SMILES IDX 39 56 58 57 40 58 43 59 57 60 76 61 41 62 42 63 56 65 77 66
REMARK SMILES IDX 44 67 28 68 29 69 37 70 30 71 32 72 38 73 31 74 33 75 34 76
REMARK SMILES IDX 35 77 36 78 60 79 61 80 69 81 62 82 64 83 70 84 63 85 65 86
REMARK SMILES IDX 66 87 67 88 68 89 45 90 46 91 54 92 47 93 49 94 55 95 48 96
REMARK SMILES IDX 50 97 51 98 52 99 53 100
REMARK H PARENT 82 13 75 53 43 64
REMARK Flexibility Score: inf
ROOT
ATOM      1  C   UNL     1       6.718  -0.065   0.503  1.00  0.00     0.188 C 
ENDROOT
BRANCH   1   2
ATOM      2  O   UNL     1       7.476  -1.257   0.310  1.00  0.00    -0.376 OA
BRANCH   2   3
ATOM      3  C   UNL     1       6.770  -2.380  -0.215  1.00  0.00     0.202 C 
BRANCH   3   4
ATOM      4  C   UNL     1       5.583  -2.849   0.640  1.00  0.00     0.261 C 
BRANCH   4   5
ATOM      5  O   UNL     1       4.535  -1.849   0.758  1.00  0.00    -0.463 OA
BRANCH   5   6
ATOM      6  C   UNL     1       3.992  -1.711   1.998  1.00  0.00     0.306 C 
ATOM      7  O   UNL     1       4.223  -2.473   2.931  1.00  0.00    -0.252 OA
BRANCH   6   8
ATOM      8  C   UNL     1       3.147  -0.459   2.192  1.00  0.00     0.132 C 
BRANCH   8   9
ATOM      9  C   UNL     1       2.617   0.353   1.013  1.00  0.00     0.112 C 
BRANCH   9  10
ATOM     10  C   UNL     1       1.649  -0.386   0.107  1.00  0.00     0.224 C 
ATOM     11  O   UNL     1       0.440  -0.191   0.148  1.00  0.00    -0.275 OA
ATOM     12  N   UNL     1       2.298  -1.292  -0.695  1.00  0.00    -0.326 N 
ATOM     13  H   UNL     1       3.280  -1.301  -0.629  1.00  0.00     0.169 HD
BRANCH  12  14
ATOM     14  C   UNL     1       1.735  -2.204  -1.596  1.00  0.00     0.045 A 
ATOM     15  C   UNL     1       2.501  -3.363  -1.797  1.00  0.00     0.028 A 
ATOM     16  C   UNL     1       0.511  -2.013  -2.258  1.00  0.00     0.075 A 
ATOM     17  C   UNL     1       2.075  -4.391  -2.630  1.00  0.00     0.034 A 
ATOM     18  C   UNL     1       0.133  -3.049  -3.114  1.00  0.00     0.157 A 
ATOM     19  C   UNL     1       0.870  -4.210  -3.300  1.00  0.00     0.110 A 
ATOM     20  O   UNL     1      -1.001  -3.162  -3.886  1.00  0.00    -0.436 OA
ATOM     21  N   UNL     1       0.228  -5.057  -4.146  1.00  0.00    -0.209 NA
ATOM     22  C   UNL     1      -0.879  -4.409  -4.447  1.00  0.00     0.227 A 
BRANCH  22  23
ATOM     23  C   UNL     1      -2.021  -4.983  -5.133  1.00  0.00     0.037 A 
ATOM     24  C   UNL     1      -2.495  -4.500  -6.354  1.00  0.00     0.014 A 
ATOM     25  C   UNL     1      -2.553  -6.172  -4.608  1.00  0.00     0.014 A 
ATOM     26  C   UNL     1      -3.470  -5.222  -7.053  1.00  0.00     0.001 A 
ATOM     27  C   UNL     1      -3.530  -6.883  -5.298  1.00  0.00     0.001 A 
ATOM     28  C   UNL     1      -3.979  -6.413  -6.528  1.00  0.00     0.000 A 
ENDBRANCH  22  23
ENDBRANCH  12  14
ENDBRANCH   9  10
ENDBRANCH   8   9
ENDBRANCH   6   8
ENDBRANCH   5   6
ENDBRANCH   4   5
ENDBRANCH   3   4
ENDBRANCH   2   3
ENDBRANCH   1   2
BRANCH   1  29
ATOM     29  C   UNL     1       6.115   0.512  -0.777  1.00  0.00     0.188 C 
BRANCH  29  30
ATOM     30  O   UNL     1       5.341  -0.393  -1.562  1.00  0.00    -0.376 OA
BRANCH  30  31
ATOM     31  C   UNL     1       4.954   0.082  -2.861  1.00  0.00     0.202 C 
BRANCH  31  32
ATOM     32  C   UNL     1       6.063   0.653  -3.778  1.00  0.00     0.261 C 
BRANCH  32  33
ATOM     33  O   UNL     1       6.780   1.804  -3.280  1.00  0.00    -0.460 OA
BRANCH  33  34
ATOM     34  C   UNL     1       6.054   2.839  -2.797  1.00  0.00     0.338 C 
ATOM     35  O   UNL     1       4.859   3.021  -2.972  1.00  0.00    -0.246 OA
BRANCH  34  36
ATOM     36  C   UNL     1       6.864   3.568  -1.780  1.00  0.00     0.060 A 
ATOM     37  C   UNL     1       6.204   4.032  -0.631  1.00  0.00     0.016 A 
ATOM     38  C   UNL     1       8.245   3.748  -1.904  1.00  0.00     0.016 A 
ATOM     39  C   UNL     1       6.900   4.741   0.350  1.00  0.00     0.010 A 
ATOM     40  C   UNL     1       8.942   4.471  -0.925  1.00  0.00     0.010 A 
ATOM     41  C   UNL     1       8.261   5.020   0.177  1.00  0.00    -0.014 A 
BRANCH  41  42
ATOM     42  C   UNL     1       8.881   6.112   0.976  1.00  0.00     0.031 A 
ATOM     43  C   UNL     1       8.972   7.477   0.336  1.00  0.00     0.074 A 
ATOM     44  C   UNL     1       9.307   5.939   2.241  1.00  0.00     0.049 A 
ATOM     45  N   UNL     1       9.478   8.586   0.806  1.00  0.00    -0.248 NA
ATOM     46  C   UNL     1       8.415   7.603  -1.024  1.00  0.00     0.031 C 
ATOM     47  C   UNL     1       9.262   4.686   2.992  1.00  0.00     0.029 A 
ATOM     48  N   UNL     1       9.883   6.832   3.114  1.00  0.00    -0.354 N 
ATOM     49  C   UNL     1       9.318   9.532  -0.202  1.00  0.00     0.074 A 
ATOM     50  C   UNL     1       8.693   8.862  -1.319  1.00  0.00     0.031 C 
ATOM     51  C   UNL     1       9.819   4.882   4.202  1.00  0.00     0.029 A 
ATOM     52  C   UNL     1      10.277   6.268   4.306  1.00  0.00     0.049 A 
ATOM     53  H   UNL     1      10.004   7.786   2.905  1.00  0.00     0.167 HD
ATOM     54  C   UNL     1       9.635  10.847  -0.196  1.00  0.00     0.034 A 
ATOM     55  C   UNL     1      10.948   6.804   5.347  1.00  0.00     0.034 A 
ATOM     56  C   UNL     1      10.242  11.527   0.913  1.00  0.00     0.049 A 
ATOM     57  C   UNL     1      11.323   8.268   5.314  1.00  0.00     0.074 A 
ATOM     58  C   UNL     1      10.601  12.859   1.012  1.00  0.00     0.029 A 
ATOM     59  N   UNL     1      10.579  10.929   2.116  1.00  0.00    -0.354 N 
ATOM     60  N   UNL     1      11.090   9.164   4.385  1.00  0.00    -0.248 NA
ATOM     61  C   UNL     1      12.018   8.806   6.495  1.00  0.00     0.031 C 
ATOM     62  C   UNL     1      11.174  13.064   2.271  1.00  0.00     0.029 A 
ATOM     63  C   UNL     1      11.133  11.868   2.968  1.00  0.00     0.049 A 
ATOM     64  H   UNL     1      10.445   9.978   2.332  1.00  0.00     0.167 HD
ATOM     65  C   UNL     1      11.557  10.374   4.893  1.00  0.00     0.074 A 
ATOM     66  C   UNL     1      12.072  10.101   6.216  1.00  0.00     0.031 C 
ATOM     67  C   UNL     1      11.569  11.600   4.313  1.00  0.00     0.034 A 
BRANCH  54  68
ATOM     68  C   UNL     1       9.299  11.650  -1.424  1.00  0.00     0.023 A 
ATOM     69  C   UNL     1       7.954  11.967  -1.702  1.00  0.00     0.012 A 
ATOM     70  C   UNL     1      10.315  12.144  -2.265  1.00  0.00     0.148 A 
ATOM     71  C   UNL     1       7.622  12.742  -2.812  1.00  0.00     0.002 A 
ATOM     72  C   UNL     1       9.980  12.955  -3.342  1.00  0.00     0.091 A 
ATOM     73  F   UNL     1      11.585  11.812  -1.994  1.00  0.00    -0.205 F 
ATOM     74  C   UNL     1       8.635  13.245  -3.623  1.00  0.00     0.022 A 
BRANCH  72  75
ATOM     75  S   UNL     1      11.212  13.719  -4.402  1.00  0.00     0.127 S 
ATOM     76  O   UNL     1      10.949  13.060  -5.681  1.00  0.00    -0.237 OA
ATOM     77  O   UNL     1      10.825  15.129  -4.351  1.00  0.00    -0.237 OA
ATOM     78  O   UNL     1      12.504  13.416  -3.804  1.00  0.00    -0.744 OA
ENDBRANCH  72  75
ENDBRANCH  54  68
BRANCH  55  79
ATOM     79  C   UNL     1      11.313   5.970   6.531  1.00  0.00     0.023 A 
ATOM     80  C   UNL     1      10.744   6.248   7.791  1.00  0.00     0.012 A 
ATOM     81  C   UNL     1      12.263   4.937   6.425  1.00  0.00     0.148 A 
ATOM     82  C   UNL     1      11.154   5.551   8.928  1.00  0.00     0.002 A 
ATOM     83  C   UNL     1      12.623   4.206   7.551  1.00  0.00     0.091 A 
ATOM     84  F   UNL     1      12.811   4.699   5.225  1.00  0.00    -0.205 F 
ATOM     85  C   UNL     1      12.088   4.525   8.808  1.00  0.00     0.022 A 
BRANCH  83  86
ATOM     86  S   UNL     1      13.726   2.791   7.463  1.00  0.00     0.127 S 
ATOM     87  O   UNL     1      14.939   3.319   8.082  1.00  0.00    -0.237 OA
ATOM     88  O   UNL     1      13.008   1.798   8.262  1.00  0.00    -0.237 OA
ATOM     89  O   UNL     1      13.826   2.462   6.048  1.00  0.00    -0.744 OA
ENDBRANCH  83  86
ENDBRANCH  55  79
BRANCH  67  90
ATOM     90  C   UNL     1      12.070  12.765   5.128  1.00  0.00     0.023 A 
ATOM     91  C   UNL     1      13.440  12.886   5.436  1.00  0.00     0.012 A 
ATOM     92  C   UNL     1      11.180  13.779   5.536  1.00  0.00     0.148 A 
ATOM     93  C   UNL     1      13.907  13.973   6.175  1.00  0.00     0.002 A 
ATOM     94  C   UNL     1      11.661  14.886   6.224  1.00  0.00     0.091 A 
ATOM     95  F   UNL     1       9.877  13.641   5.248  1.00  0.00    -0.205 F 
ATOM     96  C   UNL     1      13.021  14.977   6.558  1.00  0.00     0.022 A 
BRANCH  94  97
ATOM     97  S   UNL     1      10.608  16.273   6.666  1.00  0.00     0.127 S 
ATOM     98  O   UNL     1      10.454  16.082   8.107  1.00  0.00    -0.237 OA
ATOM     99  O   UNL     1      11.432  17.422   6.289  1.00  0.00    -0.237 OA
ATOM    100  O   UNL     1       9.392  16.120   5.880  1.00  0.00    -0.744 OA
ENDBRANCH  94  97
ENDBRANCH  67  90
ENDBRANCH  41  42
ENDBRANCH  34  36
ENDBRANCH  33  34
ENDBRANCH  32  33
ENDBRANCH  31  32
ENDBRANCH  30  31
ENDBRANCH  29  30
ENDBRANCH   1  29
TORSDOF 24
