REMARK SMILES Cc1csc(CNC(=O)NC[C@H]2CC[C@@H](C(=O)OCCOCCOCCOC(=O)c3ccc(-c4c5nc(c(-c6cccc(S(=O)(=O)[O-])c6F)c6ccc([nH]6)c(-c6cccc(S(=O)(=O)[O-])c6F)c6nc(c(-c7cccc(S(=O)(=O)[O-])c7F)c7ccc4[nH]7)C=C6)C=C5)cc3)CC2)n1
REMARK SMILES IDX 22 1 21 2 20 3 19 4 18 5 16 6 17 7 15 8 12 9 13 10 94 11
REMARK SMILES IDX 14 12 93 13 11 14 10 15 7 16 8 17 9 19 6 21 5 22 1 23 2 24
REMARK SMILES IDX 3 25 95 26 4 27 23 28 24 29 25 30 26 31 27 32 28 33 29 34
REMARK SMILES IDX 30 35 31 36 92 37 32 38 91 39 33 40 34 41 35 42 85 43 36 44
REMARK SMILES IDX 90 45 84 46 86 47 37 48 89 49 83 50 82 51 38 53 70 54 50 55
REMARK SMILES IDX 69 56 51 57 54 58 68 59 87 60 52 61 53 62 67 64 88 65 55 66
REMARK SMILES IDX 39 67 40 68 48 69 41 70 43 71 49 72 42 73 44 74 45 75 46 76
REMARK SMILES IDX 47 77 71 78 72 79 80 80 73 81 75 82 81 83 74 84 76 85 77 86
REMARK SMILES IDX 78 87 79 88 56 89 57 90 65 91 58 92 60 93 66 94 59 95 61 96
REMARK SMILES IDX 62 97 63 98 64 99
REMARK H PARENT 7 18 10 20 86 52 54 63
REMARK Flexibility Score: inf
ROOT
ATOM      1  C   UNL     1       0.086   6.590   7.691  1.00  0.00     0.188 C 
ENDROOT
BRANCH   1   2
ATOM      2  O   UNL     1      -1.304   6.865   7.729  1.00  0.00    -0.376 OA
BRANCH   2   3
ATOM      3  C   UNL     1      -2.079   6.527   6.586  1.00  0.00     0.202 C 
BRANCH   3   4
ATOM      4  C   UNL     1      -1.594   7.000   5.205  1.00  0.00     0.261 C 
BRANCH   4   5
ATOM      5  O   UNL     1      -0.240   6.637   4.834  1.00  0.00    -0.463 OA
BRANCH   5   6
ATOM      6  C   UNL     1       0.624   7.668   4.632  1.00  0.00     0.309 C 
ATOM      7  O   UNL     1       0.322   8.847   4.790  1.00  0.00    -0.252 OA
BRANCH   6   8
ATOM      8  C   UNL     1       2.007   7.277   4.092  1.00  0.00     0.099 C 
ATOM      9  C   UNL     1       1.416   5.352   1.887  1.00  0.00     0.008 C 
ATOM     10  C   UNL     1       1.177   6.874   1.759  1.00  0.00     0.006 C 
ATOM     11  C   UNL     1       1.683   4.866   3.320  1.00  0.00     0.006 C 
ATOM     12  C   UNL     1       2.081   7.735   2.637  1.00  0.00     0.015 C 
ATOM     13  C   UNL     1       2.522   5.837   4.136  1.00  0.00     0.015 C 
BRANCH   9  14
ATOM     14  C   UNL     1       0.208   4.584   1.315  1.00  0.00     0.121 C 
BRANCH  14  15
ATOM     15  N   UNL     1       0.008   4.875  -0.087  1.00  0.00    -0.338 N 
ATOM     16  N   UNL     1       1.174   3.225  -1.309  1.00  0.00    -0.332 N 
ATOM     17  C   UNL     1       0.418   4.320  -1.228  1.00  0.00     0.315 C 
ATOM     18  H   UNL     1       1.420   3.001  -2.235  1.00  0.00     0.165 HD
ATOM     19  O   UNL     1       0.090   4.869  -2.284  1.00  0.00    -0.249 OA
ATOM     20  H   UNL     1      -0.562   5.664  -0.233  1.00  0.00     0.165 HD
BRANCH  16  21
ATOM     21  C   UNL     1       1.715   2.289  -0.344  1.00  0.00     0.185 C 
BRANCH  21  22
ATOM     22  C   UNL     1       0.805   1.100  -0.195  1.00  0.00     0.112 A 
ATOM     23  C   UNL     1      -2.505  -0.320  -0.004  1.00  0.00     0.067 C 
ATOM     24  C   UNL     1      -1.030  -0.147  -0.041  1.00  0.00     0.049 A 
ATOM     25  C   UNL     1      -0.081  -1.148   0.018  1.00  0.00     0.090 A 
ATOM     26  N   UNL     1      -0.513   1.134  -0.148  1.00  0.00    -0.245 NA
ATOM     27  S   UNL     1       1.491  -0.478  -0.067  1.00  0.00    -0.125 S 
ENDBRANCH  21  22
ENDBRANCH  16  21
ENDBRANCH  14  15
ENDBRANCH   9  14
ENDBRANCH   6   8
ENDBRANCH   5   6
ENDBRANCH   4   5
ENDBRANCH   3   4
ENDBRANCH   2   3
ENDBRANCH   1   2
BRANCH   1  28
ATOM     28  C   UNL     1       0.528   5.196   7.229  1.00  0.00     0.188 C 
BRANCH  28  29
ATOM     29  O   UNL     1      -0.511   4.356   6.772  1.00  0.00    -0.376 OA
BRANCH  29  30
ATOM     30  C   UNL     1      -0.436   2.975   7.087  1.00  0.00     0.202 C 
BRANCH  30  31
ATOM     31  C   UNL     1      -0.608   2.628   8.579  1.00  0.00     0.261 C 
BRANCH  31  32
ATOM     32  O   UNL     1       0.325   3.241   9.490  1.00  0.00    -0.460 OA
BRANCH  32  33
ATOM     33  C   UNL     1       1.640   2.956   9.323  1.00  0.00     0.338 C 
ATOM     34  O   UNL     1       2.105   2.123   8.560  1.00  0.00    -0.246 OA
BRANCH  33  35
ATOM     35  C   UNL     1       2.433   4.032   9.983  1.00  0.00     0.060 A 
ATOM     36  C   UNL     1       3.468   4.643   9.254  1.00  0.00     0.016 A 
ATOM     37  C   UNL     1       2.122   4.492  11.264  1.00  0.00     0.016 A 
ATOM     38  C   UNL     1       4.236   5.660   9.830  1.00  0.00     0.010 A 
ATOM     39  C   UNL     1       2.901   5.500  11.846  1.00  0.00     0.010 A 
ATOM     40  C   UNL     1       3.995   6.052  11.153  1.00  0.00    -0.014 A 
BRANCH  40  41
ATOM     41  C   UNL     1       5.032   6.814  11.899  1.00  0.00     0.031 A 
ATOM     42  C   UNL     1       5.970   6.030  12.785  1.00  0.00     0.074 A 
ATOM     43  C   UNL     1       5.165   8.150  11.807  1.00  0.00     0.049 A 
ATOM     44  N   UNL     1       6.934   6.451  13.561  1.00  0.00    -0.248 NA
ATOM     45  C   UNL     1       5.785   4.569  12.796  1.00  0.00     0.031 C 
ATOM     46  C   UNL     1       4.349   9.031  10.976  1.00  0.00     0.029 A 
ATOM     47  N   UNL     1       6.037   9.000  12.445  1.00  0.00    -0.354 N 
ATOM     48  C   UNL     1       7.445   5.314  14.177  1.00  0.00     0.074 A 
ATOM     49  C   UNL     1       6.671   4.189  13.702  1.00  0.00     0.031 C 
ATOM     50  C   UNL     1       4.749  10.302  11.167  1.00  0.00     0.029 A 
ATOM     51  C   UNL     1       5.829  10.328  12.152  1.00  0.00     0.049 A 
ATOM     52  H   UNL     1       6.744   8.687  13.054  1.00  0.00     0.167 HD
ATOM     53  C   UNL     1       8.477   5.204  15.047  1.00  0.00     0.034 A 
ATOM     54  C   UNL     1       6.433  11.434  12.637  1.00  0.00     0.034 A 
ATOM     55  C   UNL     1       9.256   6.315  15.518  1.00  0.00     0.049 A 
ATOM     56  C   UNL     1       7.547  11.292  13.647  1.00  0.00     0.074 A 
ATOM     57  C   UNL     1      10.342   6.302  16.374  1.00  0.00     0.029 A 
ATOM     58  N   UNL     1       9.023   7.640  15.186  1.00  0.00    -0.354 N 
ATOM     59  N   UNL     1       8.086  10.204  14.142  1.00  0.00    -0.248 NA
ATOM     60  C   UNL     1       8.159  12.537  14.139  1.00  0.00     0.031 C 
ATOM     61  C   UNL     1      10.743   7.625  16.591  1.00  0.00     0.029 A 
ATOM     62  C   UNL     1       9.937   8.457  15.830  1.00  0.00     0.049 A 
ATOM     63  H   UNL     1       8.313   7.954  14.581  1.00  0.00     0.167 HD
ATOM     64  C   UNL     1       9.130  10.630  14.960  1.00  0.00     0.074 A 
ATOM     65  C   UNL     1       9.154  12.076  14.886  1.00  0.00     0.031 C 
ATOM     66  C   UNL     1       9.989   9.892  15.707  1.00  0.00     0.034 A 
BRANCH  53  67
ATOM     67  C   UNL     1       8.818   3.820  15.539  1.00  0.00     0.023 A 
ATOM     68  C   UNL     1       9.382   2.878  14.652  1.00  0.00     0.012 A 
ATOM     69  C   UNL     1       8.592   3.455  16.880  1.00  0.00     0.148 A 
ATOM     70  C   UNL     1       9.665   1.581  15.079  1.00  0.00     0.002 A 
ATOM     71  C   UNL     1       8.926   2.178  17.311  1.00  0.00     0.091 A 
ATOM     72  F   UNL     1       8.033   4.355  17.702  1.00  0.00    -0.205 F 
ATOM     73  C   UNL     1       9.447   1.235  16.410  1.00  0.00     0.022 A 
BRANCH  71  74
ATOM     74  S   UNL     1       8.759   1.662  19.023  1.00  0.00     0.127 S 
ATOM     75  O   UNL     1       7.622   0.747  18.945  1.00  0.00    -0.237 OA
ATOM     76  O   UNL     1      10.047   1.014  19.276  1.00  0.00    -0.237 OA
ATOM     77  O   UNL     1       8.533   2.880  19.788  1.00  0.00    -0.744 OA
ENDBRANCH  71  74
ENDBRANCH  53  67
BRANCH  54  78
ATOM     78  C   UNL     1       6.039  12.786  12.142  1.00  0.00     0.023 A 
ATOM     79  C   UNL     1       6.949  13.529  11.364  1.00  0.00     0.012 A 
ATOM     80  C   UNL     1       4.781  13.342  12.445  1.00  0.00     0.148 A 
ATOM     81  C   UNL     1       6.627  14.814  10.923  1.00  0.00     0.002 A 
ATOM     82  C   UNL     1       4.447  14.601  11.958  1.00  0.00     0.091 A 
ATOM     83  F   UNL     1       3.937  12.627  13.201  1.00  0.00    -0.205 F 
ATOM     84  C   UNL     1       5.374  15.346  11.212  1.00  0.00     0.022 A 
BRANCH  82  85
ATOM     85  S   UNL     1       2.820  15.329  12.186  1.00  0.00     0.127 S 
ATOM     86  O   UNL     1       3.125  16.485  13.026  1.00  0.00    -0.237 OA
ATOM     87  O   UNL     1       2.442  15.649  10.810  1.00  0.00    -0.237 OA
ATOM     88  O   UNL     1       2.009  14.295  12.813  1.00  0.00    -0.744 OA
ENDBRANCH  82  85
ENDBRANCH  54  78
BRANCH  66  89
ATOM     89  C   UNL     1      11.080  10.617  16.457  1.00  0.00     0.023 A 
ATOM     90  C   UNL     1      10.767  11.411  17.579  1.00  0.00     0.012 A 
ATOM     91  C   UNL     1      12.430  10.449  16.088  1.00  0.00     0.148 A 
ATOM     92  C   UNL     1      11.776  12.058  18.293  1.00  0.00     0.002 A 
ATOM     93  C   UNL     1      13.434  11.052  16.837  1.00  0.00     0.091 A 
ATOM     94  F   UNL     1      12.710   9.703  15.009  1.00  0.00    -0.205 F 
ATOM     95  C   UNL     1      13.108  11.869  17.930  1.00  0.00     0.022 A 
BRANCH  93  96
ATOM     96  S   UNL     1      15.179  10.781  16.505  1.00  0.00     0.127 S 
ATOM     97  O   UNL     1      15.581  12.073  15.952  1.00  0.00    -0.237 OA
ATOM     98  O   UNL     1      15.707  10.498  17.840  1.00  0.00    -0.237 OA
ATOM     99  O   UNL     1      15.243   9.658  15.580  1.00  0.00    -0.744 OA
ENDBRANCH  93  96
ENDBRANCH  66  89
ENDBRANCH  40  41
ENDBRANCH  33  35
ENDBRANCH  32  33
ENDBRANCH  31  32
ENDBRANCH  30  31
ENDBRANCH  29  30
ENDBRANCH  28  29
ENDBRANCH   1  28
TORSDOF 24
