REMARK SMILES CC(=O)Nc1nc(C[N@@H+]2CCO[C@@H](CC(=O)OCCOCCOCCOC(=O)c3ccc(-c4c5nc(c(-c6cccc(S(=O)(=O)[O-])c6F)c6ccc([nH]6)c(-c6cccc(S(=O)(=O)[O-])c6F)c6nc(c(-c7cccc(S(=O)(=O)[O-])c7F)c7ccc4[nH]7)C=C6)C=C5)cc3)C2)cs1
REMARK SMILES IDX 21 1 20 2 19 3 18 4 17 5 15 6 16 7 14 8 13 9 9 10 10 11
REMARK SMILES IDX 92 12 11 14 12 15 8 16 7 17 5 18 6 19 94 20 93 21 4 22 1 23
REMARK SMILES IDX 2 24 3 25 22 27 23 28 24 29 25 30 26 31 27 32 28 33 29 34
REMARK SMILES IDX 30 35 91 36 31 37 90 38 32 39 33 40 34 41 84 42 35 43 89 44
REMARK SMILES IDX 83 45 85 46 36 47 88 48 82 49 81 50 37 52 69 53 49 54 68 55
REMARK SMILES IDX 50 56 53 57 67 58 86 59 51 60 52 61 66 63 87 64 54 65 38 66
REMARK SMILES IDX 39 67 47 68 40 69 42 70 48 71 41 72 43 73 44 74 45 75 46 76
REMARK SMILES IDX 70 77 71 78 79 79 72 80 74 81 80 82 73 83 75 84 76 85 77 86
REMARK SMILES IDX 78 87 55 88 56 89 64 90 57 91 59 92 65 93 58 94 60 95 61 96
REMARK SMILES IDX 62 97 63 98
REMARK H PARENT 9 13 4 26 85 51 53 62
REMARK Flexibility Score: inf
ROOT
ATOM      1  C   UNL     1       4.260   0.679   3.215  1.00  0.00     0.188 C 
ENDROOT
BRANCH   1   2
ATOM      2  O   UNL     1       5.167   1.756   3.426  1.00  0.00    -0.376 OA
BRANCH   2   3
ATOM      3  C   UNL     1       6.565   1.496   3.329  1.00  0.00     0.202 C 
BRANCH   3   4
ATOM      4  C   UNL     1       7.108   0.315   4.139  1.00  0.00     0.261 C 
BRANCH   4   5
ATOM      5  O   UNL     1       6.508  -0.924   3.723  1.00  0.00    -0.463 OA
BRANCH   5   6
ATOM      6  C   UNL     1       6.751  -1.976   4.540  1.00  0.00     0.308 C 
ATOM      7  O   UNL     1       7.628  -1.994   5.395  1.00  0.00    -0.252 OA
BRANCH   6   8
ATOM      8  C   UNL     1       5.678  -3.030   4.426  1.00  0.00     0.160 C 
BRANCH   8   9
ATOM      9  C   UNL     1       5.354  -3.696   3.081  1.00  0.00     0.184 C 
ATOM     10  N   UNL     1       5.867  -4.123   0.644  1.00  0.00    -0.326 N 
ATOM     11  C   UNL     1       5.803  -5.554   0.948  1.00  0.00     0.291 C 
ATOM     12  C   UNL     1       6.224  -3.352   1.852  1.00  0.00     0.295 C 
ATOM     13  H   UNL     1       6.644  -4.020  -0.010  1.00  0.00     0.348 HD
ATOM     14  C   UNL     1       4.998  -5.885   2.216  1.00  0.00     0.222 C 
ATOM     15  O   UNL     1       5.450  -5.122   3.335  1.00  0.00    -0.366 OA
BRANCH  10  16
ATOM     16  C   UNL     1       4.853  -3.549  -0.261  1.00  0.00     0.320 C 
BRANCH  16  17
ATOM     17  C   UNL     1       3.403  -3.917  -0.030  1.00  0.00     0.108 A 
ATOM     18  C   UNL     1       1.264  -3.462   0.332  1.00  0.00     0.189 A 
ATOM     19  N   UNL     1       2.442  -2.912   0.152  1.00  0.00    -0.219 NA
ATOM     20  S   UNL     1       1.213  -5.162   0.372  1.00  0.00    -0.105 S 
ATOM     21  C   UNL     1       2.840  -5.179  -0.158  1.00  0.00     0.098 A 
BRANCH  18  22
ATOM     22  N   UNL     1       0.032  -2.899   0.450  1.00  0.00    -0.302 N 
ATOM     23  C   UNL     1       0.377  -1.246  -1.380  1.00  0.00     0.114 C 
ATOM     24  C   UNL     1      -0.441  -1.854  -0.277  1.00  0.00     0.223 C 
ATOM     25  O   UNL     1      -1.609  -1.502  -0.100  1.00  0.00    -0.275 OA
ATOM     26  H   UNL     1      -0.573  -3.284   1.124  1.00  0.00     0.172 HD
ENDBRANCH  18  22
ENDBRANCH  16  17
ENDBRANCH  10  16
ENDBRANCH   8   9
ENDBRANCH   6   8
ENDBRANCH   5   6
ENDBRANCH   4   5
ENDBRANCH   3   4
ENDBRANCH   2   3
ENDBRANCH   1   2
BRANCH   1  27
ATOM     27  C   UNL     1       4.385  -0.149   1.921  1.00  0.00     0.188 C 
BRANCH  27  28
ATOM     28  O   UNL     1       5.390   0.265   1.007  1.00  0.00    -0.376 OA
BRANCH  28  29
ATOM     29  C   UNL     1       4.879   0.877  -0.180  1.00  0.00     0.202 C 
BRANCH  29  30
ATOM     30  C   UNL     1       4.180   2.220   0.065  1.00  0.00     0.261 C 
BRANCH  30  31
ATOM     31  O   UNL     1       2.978   2.070   0.846  1.00  0.00    -0.460 OA
BRANCH  31  32
ATOM     32  C   UNL     1       1.861   1.731   0.167  1.00  0.00     0.338 C 
ATOM     33  O   UNL     1       1.751   1.612  -1.039  1.00  0.00    -0.246 OA
BRANCH  32  34
ATOM     34  C   UNL     1       0.775   1.481   1.137  1.00  0.00     0.060 A 
ATOM     35  C   UNL     1       0.734   0.287   1.868  1.00  0.00     0.016 A 
ATOM     36  C   UNL     1      -0.264   2.402   1.247  1.00  0.00     0.016 A 
ATOM     37  C   UNL     1      -0.358  -0.003   2.685  1.00  0.00     0.010 A 
ATOM     38  C   UNL     1      -1.350   2.118   2.082  1.00  0.00     0.010 A 
ATOM     39  C   UNL     1      -1.423   0.898   2.779  1.00  0.00    -0.014 A 
BRANCH  39  40
ATOM     40  C   UNL     1      -2.653   0.527   3.523  1.00  0.00     0.031 A 
ATOM     41  C   UNL     1      -3.921   0.229   2.769  1.00  0.00     0.074 A 
ATOM     42  C   UNL     1      -2.638   0.442   4.866  1.00  0.00     0.049 A 
ATOM     43  N   UNL     1      -5.110  -0.058   3.234  1.00  0.00    -0.248 NA
ATOM     44  C   UNL     1      -3.837   0.234   1.301  1.00  0.00     0.031 C 
ATOM     45  C   UNL     1      -1.467   0.656   5.715  1.00  0.00     0.029 A 
ATOM     46  N   UNL     1      -3.655   0.187   5.754  1.00  0.00    -0.354 N 
ATOM     47  C   UNL     1      -5.911  -0.269   2.117  1.00  0.00     0.074 A 
ATOM     48  C   UNL     1      -5.078  -0.072   0.952  1.00  0.00     0.031 C 
ATOM     49  C   UNL     1      -1.839   0.567   7.002  1.00  0.00     0.029 A 
ATOM     50  C   UNL     1      -3.281   0.342   7.068  1.00  0.00     0.049 A 
ATOM     51  H   UNL     1      -4.561  -0.080   5.477  1.00  0.00     0.167 HD
ATOM     52  C   UNL     1      -7.220  -0.606   2.062  1.00  0.00     0.034 A 
ATOM     53  C   UNL     1      -4.024   0.359   8.193  1.00  0.00     0.034 A 
ATOM     54  C   UNL     1      -8.064  -0.765   3.213  1.00  0.00     0.049 A 
ATOM     55  C   UNL     1      -5.509   0.135   8.100  1.00  0.00     0.074 A 
ATOM     56  C   UNL     1      -9.409  -1.088   3.256  1.00  0.00     0.029 A 
ATOM     57  N   UNL     1      -7.654  -0.577   4.523  1.00  0.00    -0.354 N 
ATOM     58  N   UNL     1      -6.235  -0.156   7.048  1.00  0.00    -0.248 NA
ATOM     59  C   UNL     1      -6.277   0.231   9.350  1.00  0.00     0.031 C 
ATOM     60  C   UNL     1      -9.820  -1.060   4.593  1.00  0.00     0.029 A 
ATOM     61  C   UNL     1      -8.726  -0.743   5.382  1.00  0.00     0.049 A 
ATOM     62  H   UNL     1      -6.735  -0.359   4.801  1.00  0.00     0.167 HD
ATOM     63  C   UNL     1      -7.538  -0.300   7.511  1.00  0.00     0.074 A 
ATOM     64  C   UNL     1      -7.499  -0.086   8.943  1.00  0.00     0.031 C 
ATOM     65  C   UNL     1      -8.668  -0.569   6.810  1.00  0.00     0.034 A 
BRANCH  52  66
ATOM     66  C   UNL     1      -7.822  -0.832   0.704  1.00  0.00     0.023 A 
ATOM     67  C   UNL     1      -7.598  -2.057   0.045  1.00  0.00     0.012 A 
ATOM     68  C   UNL     1      -8.648   0.139   0.107  1.00  0.00     0.148 A 
ATOM     69  C   UNL     1      -8.182  -2.309  -1.196  1.00  0.00     0.002 A 
ATOM     70  C   UNL     1      -9.248  -0.130  -1.117  1.00  0.00     0.091 A 
ATOM     71  F   UNL     1      -8.822   1.307   0.741  1.00  0.00    -0.205 F 
ATOM     72  C   UNL     1      -9.013  -1.351  -1.772  1.00  0.00     0.022 A 
BRANCH  70  73
ATOM     73  S   UNL     1     -10.372   1.020  -1.917  1.00  0.00     0.127 S 
ATOM     74  O   UNL     1      -9.565   1.488  -3.043  1.00  0.00    -0.237 OA
ATOM     75  O   UNL     1     -11.490   0.153  -2.288  1.00  0.00    -0.237 OA
ATOM     76  O   UNL     1     -10.692   2.029  -0.916  1.00  0.00    -0.744 OA
ENDBRANCH  70  73
ENDBRANCH  52  66
BRANCH  53  77
ATOM     77  C   UNL     1      -3.367   0.621   9.505  1.00  0.00     0.023 A 
ATOM     78  C   UNL     1      -3.295  -0.402  10.469  1.00  0.00     0.012 A 
ATOM     79  C   UNL     1      -2.779   1.871   9.786  1.00  0.00     0.148 A 
ATOM     80  C   UNL     1      -2.658  -0.181  11.691  1.00  0.00     0.002 A 
ATOM     81  C   UNL     1      -2.093   2.063  10.979  1.00  0.00     0.091 A 
ATOM     82  F   UNL     1      -2.892   2.848   8.874  1.00  0.00    -0.205 F 
ATOM     83  C   UNL     1      -2.044   1.044  11.940  1.00  0.00     0.022 A 
BRANCH  81  84
ATOM     84  S   UNL     1      -1.152   3.560  11.296  1.00  0.00     0.127 S 
ATOM     85  O   UNL     1      -2.050   4.300  12.177  1.00  0.00    -0.237 OA
ATOM     86  O   UNL     1       0.053   3.037  11.942  1.00  0.00    -0.237 OA
ATOM     87  O   UNL     1      -0.913   4.147   9.984  1.00  0.00    -0.744 OA
ENDBRANCH  81  84
ENDBRANCH  53  77
BRANCH  65  88
ATOM     88  C   UNL     1      -9.961  -0.661   7.575  1.00  0.00     0.023 A 
ATOM     89  C   UNL     1     -10.577   0.517   8.042  1.00  0.00     0.012 A 
ATOM     90  C   UNL     1     -10.605  -1.899   7.762  1.00  0.00     0.148 A 
ATOM     91  C   UNL     1     -11.802   0.461   8.705  1.00  0.00     0.002 A 
ATOM     92  C   UNL     1     -11.846  -1.943   8.386  1.00  0.00     0.091 A 
ATOM     93  F   UNL     1      -9.993  -3.012   7.330  1.00  0.00    -0.205 F 
ATOM     94  C   UNL     1     -12.442  -0.766   8.866  1.00  0.00     0.022 A 
BRANCH  92  95
ATOM     95  S   UNL     1     -12.777  -3.471   8.550  1.00  0.00     0.127 S 
ATOM     96  O   UNL     1     -12.535  -3.820   9.948  1.00  0.00    -0.237 OA
ATOM     97  O   UNL     1     -14.145  -3.041   8.256  1.00  0.00    -0.237 OA
ATOM     98  O   UNL     1     -12.213  -4.385   7.565  1.00  0.00    -0.744 OA
ENDBRANCH  92  95
ENDBRANCH  65  88
ENDBRANCH  39  40
ENDBRANCH  32  34
ENDBRANCH  31  32
ENDBRANCH  30  31
ENDBRANCH  29  30
ENDBRANCH  28  29
ENDBRANCH  27  28
ENDBRANCH   1  27
TORSDOF 24
