REMARK SMILES O=C(COc1ncc(C(F)(F)F)cc1Cl)OCCOCCOCCOC(=O)c1ccc(-c2c3nc(c(-c4cccc(S(=O)(=O)[O-])c4F)c4ccc([nH]4)c(-c4cccc(S(=O)(=O)[O-])c4F)c4nc(c(-c5cccc(S(=O)(=O)[O-])c5F)c5ccc2[nH]5)C=C4)C=C3)cc1
REMARK SMILES IDX 20 1 19 2 18 3 17 4 16 5 2 6 1 7 3 8 4 9 5 10 6 11 14 12
REMARK SMILES IDX 7 13 13 14 15 15 8 16 9 17 10 18 11 19 12 20 21 21 22 22
REMARK SMILES IDX 23 23 24 24 25 25 26 26 27 27 28 28 29 29 90 30 30 31 89 32
REMARK SMILES IDX 31 33 32 34 33 35 83 36 34 37 88 38 82 39 84 40 35 41 87 42
REMARK SMILES IDX 81 43 80 44 36 46 68 47 48 48 67 49 49 50 52 51 66 52 85 53
REMARK SMILES IDX 50 54 51 55 65 57 86 58 53 59 37 60 38 61 46 62 39 63 41 64
REMARK SMILES IDX 47 65 40 66 42 67 43 68 44 69 45 70 69 71 70 72 78 73 71 74
REMARK SMILES IDX 73 75 79 76 72 77 74 78 75 79 76 80 77 81 54 82 55 83 63 84
REMARK SMILES IDX 56 85 58 86 64 87 57 88 59 89 60 90 61 91 62 92
REMARK H PARENT 84 45 52 56
REMARK Flexibility Score: inf
ROOT
ATOM      1  C   UNL     1       3.482   0.138   2.239  1.00  0.00     0.188 C 
ENDROOT
BRANCH   1   2
ATOM      2  O   UNL     1       4.803   0.444   1.831  1.00  0.00    -0.376 OA
BRANCH   2   3
ATOM      3  C   UNL     1       5.182   0.142   0.504  1.00  0.00     0.202 C 
BRANCH   3   4
ATOM      4  C   UNL     1       4.377   0.848  -0.585  1.00  0.00     0.261 C 
BRANCH   4   5
ATOM      5  O   UNL     1       2.945   0.644  -0.568  1.00  0.00    -0.461 OA
BRANCH   5   6
ATOM      6  C   UNL     1       2.272  -0.526  -0.641  1.00  0.00     0.344 C 
ATOM      7  O   UNL     1       1.047  -0.535  -0.537  1.00  0.00    -0.248 OA
BRANCH   6   8
ATOM      8  C   UNL     1       3.056  -1.811  -0.804  1.00  0.00     0.353 C 
BRANCH   8   9
ATOM      9  O   UNL     1       3.968  -1.732  -1.896  1.00  0.00    -0.465 OA
BRANCH   9  10
ATOM     10  C   UNL     1       3.329  -2.283  -2.974  1.00  0.00     0.233 A 
ATOM     11  N   UNL     1       3.364  -3.632  -3.004  1.00  0.00    -0.220 NA
ATOM     12  C   UNL     1       2.585  -1.495  -3.846  1.00  0.00     0.103 A 
ATOM     13  C   UNL     1       2.567  -4.240  -3.905  1.00  0.00     0.128 A 
ATOM     14  C   UNL     1       1.748  -2.149  -4.737  1.00  0.00     0.041 A 
ATOM     15  Cl  UNL     1       2.628   0.223  -3.844  1.00  0.00    -0.078 Cl
ATOM     16  C   UNL     1       1.723  -3.550  -4.764  1.00  0.00     0.076 A 
BRANCH  16  17
ATOM     17  C   UNL     1       0.855  -4.300  -5.721  1.00  0.00     0.417 C 
ATOM     18  F   UNL     1       1.528  -4.642  -6.853  1.00  0.00    -0.166 F 
ATOM     19  F   UNL     1       0.356  -5.453  -5.208  1.00  0.00    -0.166 F 
ATOM     20  F   UNL     1      -0.222  -3.575  -6.135  1.00  0.00    -0.166 F 
ENDBRANCH  16  17
ENDBRANCH   9  10
ENDBRANCH   8   9
ENDBRANCH   6   8
ENDBRANCH   5   6
ENDBRANCH   4   5
ENDBRANCH   3   4
ENDBRANCH   2   3
ENDBRANCH   1   2
BRANCH   1  21
ATOM     21  C   UNL     1       2.545   1.358   2.372  1.00  0.00     0.188 C 
BRANCH  21  22
ATOM     22  O   UNL     1       3.078   2.670   2.506  1.00  0.00    -0.376 OA
BRANCH  22  23
ATOM     23  C   UNL     1       4.339   2.862   3.126  1.00  0.00     0.202 C 
BRANCH  23  24
ATOM     24  C   UNL     1       4.514   2.439   4.593  1.00  0.00     0.261 C 
BRANCH  24  25
ATOM     25  O   UNL     1       4.170   1.075   4.899  1.00  0.00    -0.460 OA
BRANCH  25  26
ATOM     26  C   UNL     1       2.990   0.896   5.547  1.00  0.00     0.338 C 
ATOM     27  O   UNL     1       2.231   1.769   5.926  1.00  0.00    -0.246 OA
BRANCH  26  28
ATOM     28  C   UNL     1       2.625  -0.544   5.591  1.00  0.00     0.060 A 
ATOM     29  C   UNL     1       1.363  -0.917   5.099  1.00  0.00     0.016 A 
ATOM     30  C   UNL     1       3.461  -1.507   6.160  1.00  0.00     0.016 A 
ATOM     31  C   UNL     1       0.902  -2.227   5.247  1.00  0.00     0.010 A 
ATOM     32  C   UNL     1       2.988  -2.818   6.327  1.00  0.00     0.010 A 
ATOM     33  C   UNL     1       1.683  -3.168   5.927  1.00  0.00    -0.014 A 
BRANCH  33  34
ATOM     34  C   UNL     1       1.030  -4.393   6.467  1.00  0.00     0.031 A 
ATOM     35  C   UNL     1       0.568  -4.369   7.905  1.00  0.00     0.074 A 
ATOM     36  C   UNL     1       0.810  -5.489   5.719  1.00  0.00     0.049 A 
ATOM     37  N   UNL     1      -0.028  -5.298   8.606  1.00  0.00    -0.248 NA
ATOM     38  C   UNL     1       0.821  -3.125   8.652  1.00  0.00     0.031 C 
ATOM     39  C   UNL     1       1.175  -5.646   4.314  1.00  0.00     0.029 A 
ATOM     40  N   UNL     1       0.233  -6.692   6.054  1.00  0.00    -0.354 N 
ATOM     41  C   UNL     1      -0.183  -4.769   9.882  1.00  0.00     0.074 A 
ATOM     42  C   UNL     1       0.391  -3.442   9.863  1.00  0.00     0.031 C 
ATOM     43  C   UNL     1       0.831  -6.883   3.911  1.00  0.00     0.029 A 
ATOM     44  C   UNL     1       0.240  -7.613   5.034  1.00  0.00     0.049 A 
ATOM     45  H   UNL     1      -0.149  -6.876   6.943  1.00  0.00     0.167 HD
ATOM     46  C   UNL     1      -0.762  -5.323  10.974  1.00  0.00     0.034 A 
ATOM     47  C   UNL     1      -0.172  -8.898   5.011  1.00  0.00     0.034 A 
ATOM     48  C   UNL     1      -1.356  -6.631  10.997  1.00  0.00     0.049 A 
ATOM     49  C   UNL     1      -0.794  -9.504   6.247  1.00  0.00     0.074 A 
ATOM     50  C   UNL     1      -2.012  -7.259  12.041  1.00  0.00     0.029 A 
ATOM     51  N   UNL     1      -1.352  -7.520   9.935  1.00  0.00    -0.354 N 
ATOM     52  N   UNL     1      -1.033  -8.952   7.412  1.00  0.00    -0.248 NA
ATOM     53  C   UNL     1      -1.237 -10.904   6.150  1.00  0.00     0.031 C 
ATOM     54  C   UNL     1      -2.370  -8.545  11.622  1.00  0.00     0.029 A 
ATOM     55  C   UNL     1      -1.981  -8.698  10.301  1.00  0.00     0.049 A 
ATOM     56  H   UNL     1      -0.960  -7.341   9.050  1.00  0.00     0.167 HD
ATOM     57  C   UNL     1      -1.703  -9.914   8.163  1.00  0.00     0.074 A 
ATOM     58  C   UNL     1      -1.837 -11.083   7.320  1.00  0.00     0.031 C 
ATOM     59  C   UNL     1      -2.165  -9.836   9.437  1.00  0.00     0.034 A 
BRANCH  46  60
ATOM     60  C   UNL     1      -0.775  -4.508  12.242  1.00  0.00     0.023 A 
ATOM     61  C   UNL     1      -1.596  -3.366  12.341  1.00  0.00     0.012 A 
ATOM     62  C   UNL     1       0.010  -4.893  13.347  1.00  0.00     0.148 A 
ATOM     63  C   UNL     1      -1.600  -2.594  13.503  1.00  0.00     0.002 A 
ATOM     64  C   UNL     1      -0.040  -4.149  14.519  1.00  0.00     0.091 A 
ATOM     65  F   UNL     1       0.802  -5.967  13.226  1.00  0.00    -0.205 F 
ATOM     66  C   UNL     1      -0.831  -2.991  14.593  1.00  0.00     0.022 A 
BRANCH  64  67
ATOM     67  S   UNL     1       0.849  -4.629  16.003  1.00  0.00     0.127 S 
ATOM     68  O   UNL     1       1.907  -3.622  16.054  1.00  0.00    -0.237 OA
ATOM     69  O   UNL     1      -0.179  -4.486  17.036  1.00  0.00    -0.237 OA
ATOM     70  O   UNL     1       1.295  -5.997  15.779  1.00  0.00    -0.744 OA
ENDBRANCH  64  67
ENDBRANCH  46  60
BRANCH  47  71
ATOM     71  C   UNL     1      -0.064  -9.699   3.757  1.00  0.00     0.023 A 
ATOM     72  C   UNL     1      -1.236 -10.080   3.074  1.00  0.00     0.012 A 
ATOM     73  C   UNL     1       1.187 -10.089   3.242  1.00  0.00     0.148 A 
ATOM     74  C   UNL     1      -1.167 -10.863   1.921  1.00  0.00     0.002 A 
ATOM     75  C   UNL     1       1.252 -10.821   2.061  1.00  0.00     0.091 A 
ATOM     76  F   UNL     1       2.289  -9.730   3.914  1.00  0.00    -0.205 F 
ATOM     77  C   UNL     1       0.076 -11.225   1.410  1.00  0.00     0.022 A 
BRANCH  75  78
ATOM     78  S   UNL     1       2.806 -11.233   1.260  1.00  0.00     0.127 S 
ATOM     79  O   UNL     1       2.817 -12.690   1.357  1.00  0.00    -0.237 OA
ATOM     80  O   UNL     1       2.594 -10.705  -0.088  1.00  0.00    -0.237 OA
ATOM     81  O   UNL     1       3.839 -10.546   2.023  1.00  0.00    -0.744 OA
ENDBRANCH  75  78
ENDBRANCH  47  71
BRANCH  59  82
ATOM     82  C   UNL     1      -2.928 -11.015   9.989  1.00  0.00     0.023 A 
ATOM     83  C   UNL     1      -2.264 -12.220  10.290  1.00  0.00     0.012 A 
ATOM     84  C   UNL     1      -4.305 -10.899  10.274  1.00  0.00     0.148 A 
ATOM     85  C   UNL     1      -2.964 -13.302  10.826  1.00  0.00     0.002 A 
ATOM     86  C   UNL     1      -4.984 -11.961  10.859  1.00  0.00     0.091 A 
ATOM     87  F   UNL     1      -4.927  -9.751   9.966  1.00  0.00    -0.205 F 
ATOM     88  C   UNL     1      -4.319 -13.169  11.121  1.00  0.00     0.022 A 
BRANCH  86  89
ATOM     89  S   UNL     1      -6.703 -11.839  11.368  1.00  0.00     0.127 S 
ATOM     90  O   UNL     1      -7.374 -12.634  10.342  1.00  0.00    -0.237 OA
ATOM     91  O   UNL     1      -6.679 -12.452  12.696  1.00  0.00    -0.237 OA
ATOM     92  O   UNL     1      -7.020 -10.417  11.367  1.00  0.00    -0.744 OA
ENDBRANCH  86  89
ENDBRANCH  59  82
ENDBRANCH  33  34
ENDBRANCH  26  28
ENDBRANCH  25  26
ENDBRANCH  24  25
ENDBRANCH  23  24
ENDBRANCH  22  23
ENDBRANCH  21  22
ENDBRANCH   1  21
TORSDOF 23
