REMARK SMILES O=C(OCCOCCOCCOC(=O)c1ccc(-n2cc(CSc3nc4ccccc4c(=O)n3-c3ccccc3)nn2)cc1)c1ccc(-c2c3nc(c(-c4cccc(S(=O)(=O)[O-])c4F)c4ccc([nH]4)c(-c4cccc(S(=O)(=O)[O-])c4F)c4nc(c(-c5cccc(S(=O)(=O)[O-])c5F)c5ccc2[nH]5)C=C4)C=C3)cc1
REMARK SMILES IDX 8 1 7 2 6 3 5 4 4 5 3 6 2 7 1 8 45 9 46 10 107 11 47 12
REMARK SMILES IDX 106 13 48 14 49 15 50 16 100 17 51 18 105 19 99 20 101 21
REMARK SMILES IDX 52 22 104 23 98 24 97 25 53 27 85 28 65 29 84 30 66 31 69 32
REMARK SMILES IDX 83 33 102 34 67 35 68 36 82 38 103 39 70 40 54 41 55 42
REMARK SMILES IDX 63 43 56 44 58 45 64 46 57 47 59 48 60 49 61 50 62 51 86 52
REMARK SMILES IDX 87 53 95 54 88 55 90 56 96 57 89 58 91 59 92 60 93 61 94 62
REMARK SMILES IDX 71 63 72 64 80 65 73 66 75 67 81 68 74 69 76 70 77 71 78 72
REMARK SMILES IDX 79 73 9 74 10 75 11 76 12 77 13 78 14 79 15 80 16 81 44 82
REMARK SMILES IDX 17 83 43 84 18 85 19 86 20 87 42 88 21 89 41 90 22 91 23 92
REMARK SMILES IDX 24 93 25 94 34 95 26 96 32 97 27 98 31 99 33 100 28 101
REMARK SMILES IDX 30 102 29 103 35 104 36 105 40 106 37 107 39 108 38 109
REMARK H PARENT 101 26 69 37
REMARK Flexibility Score: inf
ROOT
ATOM      1  C   UNL     1       2.494   0.162  -2.495  1.00  0.00     0.188 C 
ENDROOT
BRANCH   1   2
ATOM      2  C   UNL     1       3.437   0.863  -1.494  1.00  0.00     0.188 C 
BRANCH   2   3
ATOM      3  O   UNL     1       4.766   0.362  -1.504  1.00  0.00    -0.376 OA
BRANCH   3   4
ATOM      4  C   UNL     1       5.222  -0.177  -0.276  1.00  0.00     0.202 C 
BRANCH   4   5
ATOM      5  C   UNL     1       4.694  -1.584   0.019  1.00  0.00     0.261 C 
BRANCH   5   6
ATOM      6  O   UNL     1       3.281  -1.785  -0.177  1.00  0.00    -0.460 OA
BRANCH   6   7
ATOM      7  C   UNL     1       2.190  -1.498   0.557  1.00  0.00     0.338 C 
ATOM      8  O   UNL     1       1.109  -1.964   0.202  1.00  0.00    -0.246 OA
BRANCH   7   9
ATOM      9  C   UNL     1       2.193  -0.557   1.708  1.00  0.00     0.060 A 
ATOM     10  C   UNL     1       3.314  -0.211   2.464  1.00  0.00     0.016 A 
ATOM     11  C   UNL     1       0.938  -0.030   2.076  1.00  0.00     0.016 A 
ATOM     12  C   UNL     1       3.186   0.594   3.586  1.00  0.00     0.010 A 
ATOM     13  C   UNL     1       0.800   0.757   3.212  1.00  0.00     0.010 A 
ATOM     14  C   UNL     1       1.924   1.020   3.990  1.00  0.00    -0.014 A 
BRANCH  14  15
ATOM     15  C   UNL     1       1.827   1.673   5.287  1.00  0.00     0.031 A 
ATOM     16  C   UNL     1       2.372   3.050   5.389  1.00  0.00     0.074 A 
ATOM     17  C   UNL     1       1.211   1.065   6.321  1.00  0.00     0.049 A 
ATOM     18  N   UNL     1       3.300   3.483   6.181  1.00  0.00    -0.248 NA
ATOM     19  C   UNL     1       1.878   4.051   4.435  1.00  0.00     0.031 C 
ATOM     20  C   UNL     1       0.415  -0.166   6.260  1.00  0.00     0.029 A 
ATOM     21  N   UNL     1       1.030   1.498   7.604  1.00  0.00    -0.354 N 
ATOM     22  C   UNL     1       3.330   4.865   5.995  1.00  0.00     0.074 A 
ATOM     23  C   UNL     1       2.571   5.129   4.801  1.00  0.00     0.031 C 
ATOM     24  C   UNL     1      -0.372  -0.230   7.353  1.00  0.00     0.029 A 
ATOM     25  C   UNL     1      -0.046   0.879   8.231  1.00  0.00     0.049 A 
ATOM     26  H   UNL     1       1.599   2.175   8.037  1.00  0.00     0.167 HD
ATOM     27  C   UNL     1       3.743   5.705   6.984  1.00  0.00     0.034 A 
ATOM     28  C   UNL     1      -0.697   1.302   9.338  1.00  0.00     0.034 A 
ATOM     29  C   UNL     1       4.555   5.026   7.964  1.00  0.00     0.049 A 
ATOM     30  C   UNL     1       0.194   2.229  10.069  1.00  0.00     0.074 A 
ATOM     31  C   UNL     1       5.718   4.282   7.947  1.00  0.00     0.029 A 
ATOM     32  N   UNL     1       4.006   4.833   9.207  1.00  0.00    -0.354 N 
ATOM     33  N   UNL     1       1.279   1.863  10.692  1.00  0.00    -0.248 NA
ATOM     34  C   UNL     1       0.055   3.658   9.841  1.00  0.00     0.031 C 
ATOM     35  C   UNL     1       5.590   3.353   9.021  1.00  0.00     0.029 A 
ATOM     36  C   UNL     1       4.363   3.590   9.643  1.00  0.00     0.049 A 
ATOM     37  H   UNL     1       3.450   5.480   9.699  1.00  0.00     0.167 HD
ATOM     38  C   UNL     1       2.145   2.938  10.540  1.00  0.00     0.074 A 
ATOM     39  C   UNL     1       1.288   4.055  10.159  1.00  0.00     0.031 C 
ATOM     40  C   UNL     1       3.495   2.745  10.436  1.00  0.00     0.034 A 
BRANCH  27  41
ATOM     41  C   UNL     1       3.075   7.035   7.314  1.00  0.00     0.023 A 
ATOM     42  C   UNL     1       3.654   7.802   8.355  1.00  0.00     0.012 A 
ATOM     43  C   UNL     1       1.766   7.395   6.917  1.00  0.00     0.148 A 
ATOM     44  C   UNL     1       2.926   8.777   9.046  1.00  0.00     0.002 A 
ATOM     45  C   UNL     1       1.071   8.413   7.561  1.00  0.00     0.091 A 
ATOM     46  F   UNL     1       1.117   6.681   5.995  1.00  0.00    -0.205 F 
ATOM     47  C   UNL     1       1.629   9.078   8.654  1.00  0.00     0.022 A 
BRANCH  45  48
ATOM     48  S   UNL     1      -0.599   8.865   7.071  1.00  0.00     0.127 S 
ATOM     49  O   UNL     1      -1.388   8.233   8.124  1.00  0.00    -0.237 OA
ATOM     50  O   UNL     1      -0.544  10.326   7.128  1.00  0.00    -0.237 OA
ATOM     51  O   UNL     1      -0.770   8.328   5.727  1.00  0.00    -0.744 OA
ENDBRANCH  45  48
ENDBRANCH  27  41
BRANCH  28  52
ATOM     52  C   UNL     1      -2.115   1.100   9.711  1.00  0.00     0.023 A 
ATOM     53  C   UNL     1      -2.504   1.221  11.058  1.00  0.00     0.012 A 
ATOM     54  C   UNL     1      -3.130   1.005   8.732  1.00  0.00     0.148 A 
ATOM     55  C   UNL     1      -3.857   1.262  11.416  1.00  0.00     0.002 A 
ATOM     56  C   UNL     1      -4.473   1.014   9.095  1.00  0.00     0.091 A 
ATOM     57  F   UNL     1      -2.788   0.999   7.436  1.00  0.00    -0.205 F 
ATOM     58  C   UNL     1      -4.841   1.156  10.437  1.00  0.00     0.022 A 
BRANCH  56  59
ATOM     59  S   UNL     1      -5.782   0.846   7.873  1.00  0.00     0.127 S 
ATOM     60  O   UNL     1      -6.734  -0.030   8.558  1.00  0.00    -0.237 OA
ATOM     61  O   UNL     1      -6.229   2.225   7.710  1.00  0.00    -0.237 OA
ATOM     62  O   UNL     1      -5.151   0.236   6.709  1.00  0.00    -0.744 OA
ENDBRANCH  56  59
ENDBRANCH  28  52
BRANCH  40  63
ATOM     63  C   UNL     1       4.070   1.423  10.876  1.00  0.00     0.023 A 
ATOM     64  C   UNL     1       3.686   0.207  10.274  1.00  0.00     0.012 A 
ATOM     65  C   UNL     1       5.133   1.417  11.797  1.00  0.00     0.148 A 
ATOM     66  C   UNL     1       4.318  -0.991  10.612  1.00  0.00     0.002 A 
ATOM     67  C   UNL     1       5.793   0.229  12.094  1.00  0.00     0.091 A 
ATOM     68  F   UNL     1       5.500   2.580  12.359  1.00  0.00    -0.205 F 
ATOM     69  C   UNL     1       5.380  -0.979  11.513  1.00  0.00     0.022 A 
BRANCH  67  70
ATOM     70  S   UNL     1       7.254   0.212  13.138  1.00  0.00     0.127 S 
ATOM     71  O   UNL     1       6.699  -0.139  14.443  1.00  0.00    -0.237 OA
ATOM     72  O   UNL     1       8.077  -0.832  12.524  1.00  0.00    -0.237 OA
ATOM     73  O   UNL     1       7.825   1.550  13.028  1.00  0.00    -0.744 OA
ENDBRANCH  67  70
ENDBRANCH  40  63
ENDBRANCH  14  15
ENDBRANCH   7   9
ENDBRANCH   6   7
ENDBRANCH   5   6
ENDBRANCH   4   5
ENDBRANCH   3   4
ENDBRANCH   2   3
ENDBRANCH   1   2
BRANCH   1  74
ATOM     74  O   UNL     1       3.021  -0.704  -3.495  1.00  0.00    -0.376 OA
BRANCH  74  75
ATOM     75  C   UNL     1       4.228  -0.353  -4.154  1.00  0.00     0.202 C 
BRANCH  75  76
ATOM     76  C   UNL     1       4.254   0.970  -4.928  1.00  0.00     0.261 C 
BRANCH  76  77
ATOM     77  O   UNL     1       3.893   2.117  -4.140  1.00  0.00    -0.460 OA
BRANCH  77  78
ATOM     78  C   UNL     1       2.856   2.852  -4.614  1.00  0.00     0.338 C 
ATOM     79  O   UNL     1       2.262   2.707  -5.665  1.00  0.00    -0.246 OA
BRANCH  78  80
ATOM     80  C   UNL     1       2.452   3.848  -3.602  1.00  0.00     0.060 A 
ATOM     81  C   UNL     1       1.212   3.695  -2.966  1.00  0.00     0.018 A 
ATOM     82  C   UNL     1       3.248   4.968  -3.350  1.00  0.00     0.018 A 
ATOM     83  C   UNL     1       0.740   4.684  -2.103  1.00  0.00     0.029 A 
ATOM     84  C   UNL     1       2.791   5.948  -2.463  1.00  0.00     0.029 A 
ATOM     85  C   UNL     1       1.525   5.815  -1.868  1.00  0.00     0.066 A 
BRANCH  85  86
ATOM     86  N   UNL     1       0.992   6.907  -1.149  1.00  0.00    -0.220 N 
ATOM     87  C   UNL     1      -0.235   7.504  -1.376  1.00  0.00     0.141 A 
ATOM     88  N   UNL     1       1.758   7.708  -0.389  1.00  0.00    -0.062 NA
ATOM     89  C   UNL     1      -0.132   8.758  -0.820  1.00  0.00     0.093 A 
ATOM     90  N   UNL     1       1.062   8.800  -0.125  1.00  0.00    -0.134 NA
BRANCH  89  91
ATOM     91  C   UNL     1      -0.837  10.060  -0.929  1.00  0.00     0.138 C 
BRANCH  91  92
ATOM     92  S   UNL     1      -2.410  10.479  -1.644  1.00  0.00    -0.081 SA
BRANCH  92  93
ATOM     93  C   UNL     1      -3.226   9.172  -2.431  1.00  0.00     0.176 A 
ATOM     94  N   UNL     1      -4.483   9.130  -2.095  1.00  0.00    -0.223 NA
ATOM     95  N   UNL     1      -2.678   8.296  -3.361  1.00  0.00    -0.255 N 
ATOM     96  C   UNL     1      -5.286   8.107  -2.594  1.00  0.00     0.079 A 
ATOM     97  C   UNL     1      -3.263   7.018  -3.351  1.00  0.00     0.266 A 
ATOM     98  C   UNL     1      -6.676   8.173  -2.498  1.00  0.00     0.029 A 
ATOM     99  C   UNL     1      -4.708   6.961  -3.111  1.00  0.00     0.066 A 
ATOM    100  O   UNL     1      -2.673   5.945  -3.480  1.00  0.00    -0.268 OA
ATOM    101  C   UNL     1      -7.461   7.075  -2.868  1.00  0.00     0.002 A 
ATOM    102  C   UNL     1      -5.471   5.836  -3.436  1.00  0.00     0.016 A 
ATOM    103  C   UNL     1      -6.857   5.895  -3.308  1.00  0.00     0.001 A 
BRANCH  95 104
ATOM    104  C   UNL     1      -1.547   8.536  -4.252  1.00  0.00     0.051 A 
ATOM    105  C   UNL     1      -1.159   7.553  -5.188  1.00  0.00     0.027 A 
ATOM    106  C   UNL     1      -0.806   9.724  -4.301  1.00  0.00     0.027 A 
ATOM    107  C   UNL     1      -0.011   7.671  -5.980  1.00  0.00     0.002 A 
ATOM    108  C   UNL     1       0.367   9.841  -5.065  1.00  0.00     0.002 A 
ATOM    109  C   UNL     1       0.779   8.803  -5.885  1.00  0.00     0.000 A 
ENDBRANCH  95 104
ENDBRANCH  92  93
ENDBRANCH  91  92
ENDBRANCH  89  91
ENDBRANCH  85  86
ENDBRANCH  78  80
ENDBRANCH  77  78
ENDBRANCH  76  77
ENDBRANCH  75  76
ENDBRANCH  74  75
ENDBRANCH   1  74
TORSDOF 25
