REMARK SMILES C[C@H](CNS(=O)(=O)c1ccc(C(=O)OCCOCCOCCOC(=O)c2ccc(-c3c4nc(c(-c5cccc(S(=O)(=O)[O-])c5F)c5ccc([nH]5)c(-c5cccc(S(=O)(=O)[O-])c5F)c5nc(c(-c6cccc(S(=O)(=O)[O-])c6F)c6ccc3[nH]6)C=C5)C=C4)cc2)cc1F)[NH+](C)C
REMARK SMILES IDX 18 1 17 2 16 3 15 4 14 5 12 6 13 7 11 8 8 9 9 10 90 11 10 12
REMARK SMILES IDX 89 13 91 14 5 15 6 16 7 17 4 18 3 20 2 21 1 22 92 23 93 24
REMARK SMILES IDX 94 25 19 27 20 28 21 29 22 30 23 31 24 32 25 33 26 34 27 35
REMARK SMILES IDX 88 36 28 37 87 38 29 39 30 40 31 41 81 42 32 43 86 44 80 45
REMARK SMILES IDX 82 46 33 47 85 48 79 49 78 50 34 52 66 53 46 54 65 55 47 56
REMARK SMILES IDX 50 57 64 58 83 59 48 60 49 61 63 63 84 64 51 65 35 66 36 67
REMARK SMILES IDX 44 68 37 69 39 70 45 71 38 72 40 73 41 74 42 75 43 76 67 77
REMARK SMILES IDX 68 78 76 79 69 80 71 81 77 82 70 83 72 84 73 85 74 86 75 87
REMARK SMILES IDX 52 88 53 89 61 90 54 91 56 92 62 93 55 94 57 95 58 96 59 97
REMARK SMILES IDX 60 98
REMARK H PARENT 4 19 92 26 82 51 50 62
REMARK Flexibility Score: inf
ROOT
ATOM      1  C   UNL     1       7.192   4.052  -2.661  1.00  0.00     0.188 C 
ENDROOT
BRANCH   1   2
ATOM      2  O   UNL     1       8.532   4.086  -3.120  1.00  0.00    -0.376 OA
BRANCH   2   3
ATOM      3  C   UNL     1       8.902   3.463  -4.340  1.00  0.00     0.202 C 
BRANCH   3   4
ATOM      4  C   UNL     1       8.477   2.024  -4.624  1.00  0.00     0.261 C 
BRANCH   4   5
ATOM      5  O   UNL     1       7.060   1.828  -4.535  1.00  0.00    -0.460 OA
BRANCH   5   6
ATOM      6  C   UNL     1       6.693   0.810  -3.722  1.00  0.00     0.338 C 
ATOM      7  O   UNL     1       7.419   0.019  -3.146  1.00  0.00    -0.246 OA
BRANCH   6   8
ATOM      8  C   UNL     1       5.240   0.839  -3.497  1.00  0.00     0.063 A 
ATOM      9  C   UNL     1       2.533   0.540  -2.954  1.00  0.00     0.118 A 
ATOM     10  C   UNL     1       3.427   0.732  -1.899  1.00  0.00     0.026 A 
ATOM     11  C   UNL     1       2.985   0.585  -4.273  1.00  0.00     0.144 A 
ATOM     12  C   UNL     1       4.788   0.857  -2.171  1.00  0.00     0.017 A 
ATOM     13  C   UNL     1       4.339   0.752  -4.557  1.00  0.00     0.056 A 
ATOM     14  F   UNL     1       2.144   0.410  -5.301  1.00  0.00    -0.205 F 
BRANCH   9  15
ATOM     15  S   UNL     1       0.852   0.104  -2.676  1.00  0.00     0.243 S 
ATOM     16  O   UNL     1       0.767  -1.350  -2.709  1.00  0.00    -0.207 OA
ATOM     17  O   UNL     1       0.029   0.939  -3.518  1.00  0.00    -0.207 OA
BRANCH  15  18
ATOM     18  N   UNL     1       0.499   0.615  -1.113  1.00  0.00    -0.205 NA
ATOM     19  H   UNL     1       1.097   1.418  -0.918  1.00  0.00     0.141 HD
BRANCH  18  20
ATOM     20  C   UNL     1       0.670  -0.335   0.008  1.00  0.00     0.163 C 
BRANCH  20  21
ATOM     21  C   UNL     1       0.328   0.316   1.383  1.00  0.00     0.195 C 
ATOM     22  C   UNL     1       1.202   1.544   1.674  1.00  0.00     0.076 C 
BRANCH  21  23
ATOM     23  N   UNL     1      -1.138   0.516   1.543  1.00  0.00    -0.337 N 
ATOM     24  C   UNL     1      -1.542   0.242   2.932  1.00  0.00     0.332 C 
ATOM     25  C   UNL     1      -1.643   1.841   1.174  1.00  0.00     0.332 C 
ATOM     26  H   UNL     1      -1.552  -0.143   0.884  1.00  0.00     0.347 HD
ENDBRANCH  21  23
ENDBRANCH  20  21
ENDBRANCH  18  20
ENDBRANCH  15  18
ENDBRANCH   9  15
ENDBRANCH   6   8
ENDBRANCH   5   6
ENDBRANCH   4   5
ENDBRANCH   3   4
ENDBRANCH   2   3
ENDBRANCH   1   2
BRANCH   1  27
ATOM     27  C   UNL     1       6.028   4.532  -3.554  1.00  0.00     0.188 C 
BRANCH  27  28
ATOM     28  O   UNL     1       6.277   5.221  -4.767  1.00  0.00    -0.376 OA
BRANCH  28  29
ATOM     29  C   UNL     1       7.143   6.347  -4.757  1.00  0.00     0.202 C 
BRANCH  29  30
ATOM     30  C   UNL     1       6.779   7.547  -3.886  1.00  0.00     0.261 C 
BRANCH  30  31
ATOM     31  O   UNL     1       6.750   7.222  -2.490  1.00  0.00    -0.460 OA
BRANCH  31  32
ATOM     32  C   UNL     1       5.561   7.438  -1.881  1.00  0.00     0.338 C 
ATOM     33  O   UNL     1       4.545   7.889  -2.382  1.00  0.00    -0.246 OA
BRANCH  32  34
ATOM     34  C   UNL     1       5.594   6.885  -0.516  1.00  0.00     0.060 A 
ATOM     35  C   UNL     1       4.586   5.983  -0.154  1.00  0.00     0.016 A 
ATOM     36  C   UNL     1       6.546   7.306   0.415  1.00  0.00     0.016 A 
ATOM     37  C   UNL     1       4.496   5.533   1.161  1.00  0.00     0.010 A 
ATOM     38  C   UNL     1       6.443   6.867   1.737  1.00  0.00     0.010 A 
ATOM     39  C   UNL     1       5.397   6.010   2.121  1.00  0.00    -0.014 A 
BRANCH  39  40
ATOM     40  C   UNL     1       5.151   5.747   3.557  1.00  0.00     0.031 A 
ATOM     41  C   UNL     1       4.391   6.768   4.357  1.00  0.00     0.074 A 
ATOM     42  C   UNL     1       5.610   4.628   4.142  1.00  0.00     0.049 A 
ATOM     43  N   UNL     1       4.101   6.769   5.631  1.00  0.00    -0.248 NA
ATOM     44  C   UNL     1       3.889   7.943   3.622  1.00  0.00     0.031 C 
ATOM     45  C   UNL     1       6.351   3.566   3.466  1.00  0.00     0.029 A 
ATOM     46  N   UNL     1       5.542   4.217   5.449  1.00  0.00    -0.354 N 
ATOM     47  C   UNL     1       3.403   7.949   5.857  1.00  0.00     0.074 A 
ATOM     48  C   UNL     1       3.315   8.642   4.591  1.00  0.00     0.031 C 
ATOM     49  C   UNL     1       6.699   2.636   4.372  1.00  0.00     0.029 A 
ATOM     50  C   UNL     1       6.226   3.050   5.693  1.00  0.00     0.049 A 
ATOM     51  H   UNL     1       5.051   4.710   6.146  1.00  0.00     0.167 HD
ATOM     52  C   UNL     1       2.870   8.406   7.013  1.00  0.00     0.034 A 
ATOM     53  C   UNL     1       6.463   2.405   6.853  1.00  0.00     0.034 A 
ATOM     54  C   UNL     1       2.949   7.713   8.269  1.00  0.00     0.049 A 
ATOM     55  C   UNL     1       5.896   2.958   8.135  1.00  0.00     0.074 A 
ATOM     56  C   UNL     1       2.405   8.079   9.487  1.00  0.00     0.029 A 
ATOM     57  N   UNL     1       3.624   6.520   8.472  1.00  0.00    -0.354 N 
ATOM     58  N   UNL     1       5.136   4.012   8.314  1.00  0.00    -0.248 NA
ATOM     59  C   UNL     1       6.196   2.220   9.372  1.00  0.00     0.031 C 
ATOM     60  C   UNL     1       2.766   7.114  10.432  1.00  0.00     0.029 A 
ATOM     61  C   UNL     1       3.520   6.139   9.798  1.00  0.00     0.049 A 
ATOM     62  H   UNL     1       4.105   6.017   7.776  1.00  0.00     0.167 HD
ATOM     63  C   UNL     1       4.848   4.050   9.675  1.00  0.00     0.074 A 
ATOM     64  C   UNL     1       5.496   2.901  10.271  1.00  0.00     0.031 C 
ATOM     65  C   UNL     1       4.126   4.964  10.370  1.00  0.00     0.034 A 
BRANCH  52  66
ATOM     66  C   UNL     1       2.114   9.704   6.968  1.00  0.00     0.023 A 
ATOM     67  C   UNL     1       0.812   9.724   6.428  1.00  0.00     0.012 A 
ATOM     68  C   UNL     1       2.655  10.880   7.521  1.00  0.00     0.148 A 
ATOM     69  C   UNL     1       0.066  10.901   6.423  1.00  0.00     0.002 A 
ATOM     70  C   UNL     1       1.891  12.041   7.545  1.00  0.00     0.091 A 
ATOM     71  F   UNL     1       3.905  10.843   8.004  1.00  0.00    -0.205 F 
ATOM     72  C   UNL     1       0.600  12.055   6.991  1.00  0.00     0.022 A 
BRANCH  70  73
ATOM     73  S   UNL     1       2.463  13.560   8.314  1.00  0.00     0.127 S 
ATOM     74  O   UNL     1       2.708  14.406   7.147  1.00  0.00    -0.237 OA
ATOM     75  O   UNL     1       1.307  13.953   9.120  1.00  0.00    -0.237 OA
ATOM     76  O   UNL     1       3.645  13.198   9.084  1.00  0.00    -0.744 OA
ENDBRANCH  70  73
ENDBRANCH  52  66
BRANCH  53  77
ATOM     77  C   UNL     1       7.245   1.138   6.845  1.00  0.00     0.023 A 
ATOM     78  C   UNL     1       6.588  -0.080   7.104  1.00  0.00     0.012 A 
ATOM     79  C   UNL     1       8.621   1.127   6.543  1.00  0.00     0.148 A 
ATOM     80  C   UNL     1       7.290  -1.286   7.075  1.00  0.00     0.002 A 
ATOM     81  C   UNL     1       9.303  -0.082   6.465  1.00  0.00     0.091 A 
ATOM     82  F   UNL     1       9.231   2.300   6.322  1.00  0.00    -0.205 F 
ATOM     83  C   UNL     1       8.642  -1.288   6.744  1.00  0.00     0.022 A 
BRANCH  81  84
ATOM     84  S   UNL     1      11.011  -0.192   5.922  1.00  0.00     0.127 S 
ATOM     85  O   UNL     1      11.693  -0.574   7.156  1.00  0.00    -0.237 OA
ATOM     86  O   UNL     1      10.936  -1.244   4.907  1.00  0.00    -0.237 OA
ATOM     87  O   UNL     1      11.342   1.126   5.398  1.00  0.00    -0.744 OA
ENDBRANCH  81  84
ENDBRANCH  53  77
BRANCH  65  88
ATOM     88  C   UNL     1       3.975   4.769  11.855  1.00  0.00     0.023 A 
ATOM     89  C   UNL     1       5.059   5.063  12.706  1.00  0.00     0.012 A 
ATOM     90  C   UNL     1       2.731   4.415  12.415  1.00  0.00     0.148 A 
ATOM     91  C   UNL     1       4.911   4.993  14.091  1.00  0.00     0.002 A 
ATOM     92  C   UNL     1       2.579   4.391  13.797  1.00  0.00     0.091 A 
ATOM     93  F   UNL     1       1.718   4.120  11.588  1.00  0.00    -0.205 F 
ATOM     94  C   UNL     1       3.670   4.672  14.636  1.00  0.00     0.022 A 
BRANCH  92  95
ATOM     95  S   UNL     1       0.991   4.086  14.581  1.00  0.00     0.127 S 
ATOM     96  O   UNL     1       1.148   2.709  15.046  1.00  0.00    -0.237 OA
ATOM     97  O   UNL     1       0.968   5.090  15.645  1.00  0.00    -0.237 OA
ATOM     98  O   UNL     1      -0.010   4.288  13.541  1.00  0.00    -0.744 OA
ENDBRANCH  92  95
ENDBRANCH  65  88
ENDBRANCH  39  40
ENDBRANCH  32  34
ENDBRANCH  31  32
ENDBRANCH  30  31
ENDBRANCH  29  30
ENDBRANCH  28  29
ENDBRANCH  27  28
ENDBRANCH   1  27
TORSDOF 25
