REMARK SMILES COC[C@H]1CC[N@@H+](Cc2ccc(C(=O)OCCOCCOCCOC(=O)c3ccc(-c4c5nc(c(-c6cccc(S(=O)(=O)[O-])c6F)c6ccc([nH]6)c(-c6cccc(S(=O)(=O)[O-])c6F)c6nc(c(-c7cccc(S(=O)(=O)[O-])c7F)c7ccc4[nH]7)C=C6)C=C5)cc3)cn2)C1
REMARK SMILES IDX 19 1 18 2 17 3 16 4 15 5 13 6 14 7 12 8 9 9 10 10 91 11
REMARK SMILES IDX 11 12 90 13 8 14 7 15 4 16 5 17 92 18 6 19 3 21 2 22 1 23
REMARK SMILES IDX 20 24 21 25 22 26 23 27 24 28 25 29 26 30 27 31 28 32 89 33
REMARK SMILES IDX 29 34 88 35 30 36 31 37 32 38 82 39 33 40 87 41 81 42 83 43
REMARK SMILES IDX 34 44 86 45 80 46 79 47 35 49 67 50 47 51 66 52 48 53 51 54
REMARK SMILES IDX 65 55 84 56 49 57 50 58 64 60 85 61 52 62 36 63 37 64 45 65
REMARK SMILES IDX 38 66 40 67 46 68 39 69 41 70 42 71 43 72 44 73 68 74 69 75
REMARK SMILES IDX 77 76 70 77 72 78 78 79 71 80 73 81 74 82 75 83 76 84 53 85
REMARK SMILES IDX 54 86 62 87 55 88 57 89 63 90 56 91 58 92 59 93 60 94 61 95
REMARK H PARENT 7 20 83 48 51 59
REMARK Flexibility Score: inf
ROOT
ATOM      1  C   UNL     1      -2.222   2.495   7.000  1.00  0.00     0.188 C 
ENDROOT
BRANCH   1   2
ATOM      2  O   UNL     1      -2.018   1.359   7.817  1.00  0.00    -0.376 OA
BRANCH   2   3
ATOM      3  C   UNL     1      -1.077   0.357   7.466  1.00  0.00     0.202 C 
BRANCH   3   4
ATOM      4  C   UNL     1      -0.863  -0.078   6.015  1.00  0.00     0.261 C 
BRANCH   4   5
ATOM      5  O   UNL     1      -0.660   1.016   5.115  1.00  0.00    -0.460 OA
BRANCH   5   6
ATOM      6  C   UNL     1      -1.512   1.053   4.064  1.00  0.00     0.339 C 
ATOM      7  O   UNL     1      -2.322   0.195   3.750  1.00  0.00    -0.246 OA
BRANCH   6   8
ATOM      8  C   UNL     1      -1.393   2.326   3.338  1.00  0.00     0.078 A 
ATOM      9  C   UNL     1      -1.268   4.488   1.658  1.00  0.00     0.095 A 
ATOM     10  C   UNL     1      -0.164   4.196   2.457  1.00  0.00     0.031 A 
ATOM     11  N   UNL     1      -2.453   3.838   1.795  1.00  0.00    -0.254 NA
ATOM     12  C   UNL     1      -0.220   3.081   3.289  1.00  0.00     0.019 A 
ATOM     13  C   UNL     1      -2.494   2.774   2.628  1.00  0.00     0.127 A 
BRANCH   9  14
ATOM     14  C   UNL     1      -1.110   5.373   0.431  1.00  0.00     0.319 C 
BRANCH  14  15
ATOM     15  N   UNL     1      -0.670   4.691  -0.814  1.00  0.00    -0.330 N 
ATOM     16  C   UNL     1       0.561   2.592  -0.862  1.00  0.00     0.076 C 
ATOM     17  C   UNL     1      -0.930   2.318  -0.752  1.00  0.00     0.073 C 
ATOM     18  C   UNL     1       0.683   4.121  -0.767  1.00  0.00     0.268 C 
ATOM     19  C   UNL     1      -1.571   3.609  -1.237  1.00  0.00     0.263 C 
ATOM     20  H   UNL     1      -0.683   5.460  -1.485  1.00  0.00     0.348 HD
BRANCH  16  21
ATOM     21  C   UNL     1       1.447   1.871   0.157  1.00  0.00     0.169 C 
BRANCH  21  22
ATOM     22  O   UNL     1       1.356   0.449   0.090  1.00  0.00    -0.384 OA
ATOM     23  C   UNL     1       0.422  -0.114   1.007  1.00  0.00     0.194 C 
ENDBRANCH  21  22
ENDBRANCH  16  21
ENDBRANCH  14  15
ENDBRANCH   9  14
ENDBRANCH   6   8
ENDBRANCH   5   6
ENDBRANCH   4   5
ENDBRANCH   3   4
ENDBRANCH   2   3
ENDBRANCH   1   2
BRANCH   1  24
ATOM     24  C   UNL     1      -1.066   3.480   6.729  1.00  0.00     0.188 C 
BRANCH  24  25
ATOM     25  O   UNL     1       0.200   3.322   7.336  1.00  0.00    -0.376 OA
BRANCH  25  26
ATOM     26  C   UNL     1       0.263   3.251   8.752  1.00  0.00     0.202 C 
BRANCH  26  27
ATOM     27  C   UNL     1      -0.424   4.311   9.621  1.00  0.00     0.261 C 
BRANCH  27  28
ATOM     28  O   UNL     1      -1.793   4.572   9.280  1.00  0.00    -0.460 OA
BRANCH  28  29
ATOM     29  C   UNL     1      -2.039   5.820   8.802  1.00  0.00     0.338 C 
ATOM     30  O   UNL     1      -1.236   6.728   8.673  1.00  0.00    -0.246 OA
BRANCH  29  31
ATOM     31  C   UNL     1      -3.403   5.872   8.241  1.00  0.00     0.060 A 
ATOM     32  C   UNL     1      -3.550   6.208   6.886  1.00  0.00     0.016 A 
ATOM     33  C   UNL     1      -4.522   5.638   9.039  1.00  0.00     0.016 A 
ATOM     34  C   UNL     1      -4.821   6.340   6.331  1.00  0.00     0.010 A 
ATOM     35  C   UNL     1      -5.797   5.798   8.487  1.00  0.00     0.010 A 
ATOM     36  C   UNL     1      -5.950   6.180   7.142  1.00  0.00    -0.014 A 
BRANCH  36  37
ATOM     37  C   UNL     1      -7.282   6.592   6.640  1.00  0.00     0.031 A 
ATOM     38  C   UNL     1      -7.783   7.967   6.982  1.00  0.00     0.074 A 
ATOM     39  C   UNL     1      -8.048   5.753   5.922  1.00  0.00     0.049 A 
ATOM     40  N   UNL     1      -8.934   8.522   6.710  1.00  0.00    -0.248 NA
ATOM     41  C   UNL     1      -6.862   8.828   7.742  1.00  0.00     0.031 C 
ATOM     42  C   UNL     1      -7.677   4.395   5.532  1.00  0.00     0.029 A 
ATOM     43  N   UNL     1      -9.319   5.915   5.428  1.00  0.00    -0.354 N 
ATOM     44  C   UNL     1      -8.889   9.785   7.287  1.00  0.00     0.074 A 
ATOM     45  C   UNL     1      -7.601   9.910   7.935  1.00  0.00     0.031 C 
ATOM     46  C   UNL     1      -8.720   3.826   4.902  1.00  0.00     0.029 A 
ATOM     47  C   UNL     1      -9.834   4.773   4.862  1.00  0.00     0.049 A 
ATOM     48  H   UNL     1      -9.813   6.765   5.475  1.00  0.00     0.167 HD
ATOM     49  C   UNL     1      -9.828  10.761   7.269  1.00  0.00     0.034 A 
ATOM     50  C   UNL     1     -11.071   4.514   4.395  1.00  0.00     0.034 A 
ATOM     51  C   UNL     1     -11.104  10.640   6.619  1.00  0.00     0.049 A 
ATOM     52  C   UNL     1     -12.109   5.607   4.399  1.00  0.00     0.074 A 
ATOM     53  C   UNL     1     -12.102  11.591   6.499  1.00  0.00     0.029 A 
ATOM     54  N   UNL     1     -11.569   9.492   5.997  1.00  0.00    -0.354 N 
ATOM     55  N   UNL     1     -12.006   6.843   4.824  1.00  0.00    -0.248 NA
ATOM     56  C   UNL     1     -13.424   5.280   3.825  1.00  0.00     0.031 C 
ATOM     57  C   UNL     1     -13.181  11.008   5.826  1.00  0.00     0.029 A 
ATOM     58  C   UNL     1     -12.845   9.702   5.504  1.00  0.00     0.049 A 
ATOM     59  H   UNL     1     -11.065   8.649   5.918  1.00  0.00     0.167 HD
ATOM     60  C   UNL     1     -13.228   7.449   4.545  1.00  0.00     0.074 A 
ATOM     61  C   UNL     1     -14.049   6.449   3.895  1.00  0.00     0.031 C 
ATOM     62  C   UNL     1     -13.637   8.714   4.816  1.00  0.00     0.034 A 
BRANCH  49  63
ATOM     63  C   UNL     1      -9.489  12.054   7.959  1.00  0.00     0.023 A 
ATOM     64  C   UNL     1      -8.541  12.925   7.381  1.00  0.00     0.012 A 
ATOM     65  C   UNL     1     -10.116  12.418   9.166  1.00  0.00     0.148 A 
ATOM     66  C   UNL     1      -8.195  14.118   8.013  1.00  0.00     0.002 A 
ATOM     67  C   UNL     1      -9.797  13.630   9.768  1.00  0.00     0.091 A 
ATOM     68  F   UNL     1     -10.992  11.565   9.716  1.00  0.00    -0.205 F 
ATOM     69  C   UNL     1      -8.829  14.475   9.200  1.00  0.00     0.022 A 
BRANCH  67  70
ATOM     70  S   UNL     1     -10.616  14.206  11.259  1.00  0.00     0.127 S 
ATOM     71  O   UNL     1      -9.593  13.955  12.273  1.00  0.00    -0.237 OA
ATOM     72  O   UNL     1     -10.845  15.620  10.962  1.00  0.00    -0.237 OA
ATOM     73  O   UNL     1     -11.830  13.411  11.377  1.00  0.00    -0.744 OA
ENDBRANCH  67  70
ENDBRANCH  49  63
BRANCH  50  74
ATOM     74  C   UNL     1     -11.386   3.158   3.865  1.00  0.00     0.023 A 
ATOM     75  C   UNL     1     -11.578   2.976   2.483  1.00  0.00     0.012 A 
ATOM     76  C   UNL     1     -11.457   2.042   4.723  1.00  0.00     0.148 A 
ATOM     77  C   UNL     1     -11.855   1.709   1.966  1.00  0.00     0.002 A 
ATOM     78  C   UNL     1     -11.679   0.776   4.196  1.00  0.00     0.091 A 
ATOM     79  F   UNL     1     -11.288   2.242   6.038  1.00  0.00    -0.205 F 
ATOM     80  C   UNL     1     -11.894   0.609   2.820  1.00  0.00     0.022 A 
BRANCH  78  81
ATOM     81  S   UNL     1     -11.621  -0.712   5.200  1.00  0.00     0.127 S 
ATOM     82  O   UNL     1     -13.015  -1.145   5.176  1.00  0.00    -0.237 OA
ATOM     83  O   UNL     1     -10.700  -1.554   4.435  1.00  0.00    -0.237 OA
ATOM     84  O   UNL     1     -11.113  -0.292   6.500  1.00  0.00    -0.744 OA
ENDBRANCH  78  81
ENDBRANCH  50  74
BRANCH  62  85
ATOM     85  C   UNL     1     -15.029   9.110   4.392  1.00  0.00     0.023 A 
ATOM     86  C   UNL     1     -16.143   8.616   5.099  1.00  0.00     0.012 A 
ATOM     87  C   UNL     1     -15.229  10.039   3.351  1.00  0.00     0.148 A 
ATOM     88  C   UNL     1     -17.435   9.016   4.758  1.00  0.00     0.002 A 
ATOM     89  C   UNL     1     -16.516  10.469   3.047  1.00  0.00     0.091 A 
ATOM     90  F   UNL     1     -14.159  10.486   2.677  1.00  0.00    -0.205 F 
ATOM     91  C   UNL     1     -17.620   9.951   3.742  1.00  0.00     0.022 A 
BRANCH  89  92
ATOM     92  S   UNL     1     -16.841  11.741   1.820  1.00  0.00     0.127 S 
ATOM     93  O   UNL     1     -17.402  10.957   0.720  1.00  0.00    -0.237 OA
ATOM     94  O   UNL     1     -17.805  12.601   2.508  1.00  0.00    -0.237 OA
ATOM     95  O   UNL     1     -15.557  12.373   1.548  1.00  0.00    -0.744 OA
ENDBRANCH  89  92
ENDBRANCH  62  85
ENDBRANCH  36  37
ENDBRANCH  29  31
ENDBRANCH  28  29
ENDBRANCH  27  28
ENDBRANCH  26  27
ENDBRANCH  25  26
ENDBRANCH  24  25
ENDBRANCH   1  24
TORSDOF 24
