REMARK SMILES C[C@@H](NC1=[NH+]CCC1)C(=O)OCCOCCOCCOC(=O)c1ccc(-c2c3nc(c(-c4cccc(S(=O)(=O)[O-])c4F)c4ccc([nH]4)c(-c4cccc(S(=O)(=O)[O-])c4F)c4nc(c(-c5cccc(S(=O)(=O)[O-])c5F)c5ccc2[nH]5)C=C4)C=C3)cc1
REMARK SMILES IDX 16 1 15 2 14 3 13 4 12 5 11 6 9 7 10 8 2 9 1 10 3 11 4 12
REMARK SMILES IDX 5 14 8 15 6 16 7 18 17 19 18 20 19 21 20 22 21 23 22 24
REMARK SMILES IDX 23 25 24 26 85 27 25 28 84 29 26 30 27 31 28 32 78 33 29 34
REMARK SMILES IDX 83 35 77 36 79 37 30 38 82 39 76 40 75 41 31 43 63 44 43 45
REMARK SMILES IDX 62 46 44 47 47 48 61 49 80 50 45 51 46 52 60 54 81 55 48 56
REMARK SMILES IDX 32 57 33 58 41 59 34 60 36 61 42 62 35 63 37 64 38 65 39 66
REMARK SMILES IDX 40 67 64 68 65 69 73 70 66 71 68 72 74 73 67 74 69 75 70 76
REMARK SMILES IDX 71 77 72 78 49 79 50 80 58 81 51 82 53 83 59 84 52 85 54 86
REMARK SMILES IDX 55 87 56 88 57 89
REMARK H PARENT 3 13 5 17 79 42 47 53
REMARK Flexibility Score: inf
ROOT
ATOM      1  C   UNL     1      -1.622   1.348   0.366  1.00  0.00     0.188 C 
ENDROOT
BRANCH   1   2
ATOM      2  C   UNL     1      -2.650   1.778  -0.691  1.00  0.00     0.188 C 
BRANCH   2   3
ATOM      3  O   UNL     1      -3.921   1.169  -0.678  1.00  0.00    -0.376 OA
BRANCH   3   4
ATOM      4  C   UNL     1      -4.034  -0.227  -0.878  1.00  0.00     0.202 C 
BRANCH   4   5
ATOM      5  C   UNL     1      -3.065  -1.008  -1.770  1.00  0.00     0.261 C 
BRANCH   5   6
ATOM      6  O   UNL     1      -1.679  -1.041  -1.377  1.00  0.00    -0.460 OA
BRANCH   6   7
ATOM      7  C   UNL     1      -0.792  -0.481  -2.257  1.00  0.00     0.350 C 
ATOM      8  O   UNL     1      -1.121   0.221  -3.208  1.00  0.00    -0.247 OA
BRANCH   7   9
ATOM      9  C   UNL     1       0.664  -0.904  -2.023  1.00  0.00     0.279 C 
ATOM     10  C   UNL     1       1.121  -0.825  -0.565  1.00  0.00     0.071 C 
BRANCH   9  11
ATOM     11  N   UNL     1       0.984  -2.236  -2.547  1.00  0.00    -0.265 N 
ATOM     12  C   UNL     1       0.095  -3.195  -2.924  1.00  0.00     0.243 C 
ATOM     13  H   UNL     1       1.938  -2.459  -2.635  1.00  0.00     0.305 HD
ATOM     14  N   UNL     1       0.176  -4.390  -2.414  1.00  0.00    -0.279 N 
ATOM     15  C   UNL     1      -0.953  -3.018  -3.990  1.00  0.00     0.131 C 
ATOM     16  C   UNL     1      -0.934  -5.150  -3.022  1.00  0.00     0.234 C 
ATOM     17  H   UNL     1       0.836  -4.717  -1.761  1.00  0.00     0.304 HD
ATOM     18  C   UNL     1      -1.897  -4.108  -3.555  1.00  0.00     0.058 C 
ENDBRANCH   9  11
ENDBRANCH   7   9
ENDBRANCH   6   7
ENDBRANCH   5   6
ENDBRANCH   4   5
ENDBRANCH   3   4
ENDBRANCH   2   3
ENDBRANCH   1   2
BRANCH   1  19
ATOM     19  O   UNL     1      -1.966   0.500   1.440  1.00  0.00    -0.376 OA
BRANCH  19  20
ATOM     20  C   UNL     1      -3.070   0.829   2.264  1.00  0.00     0.202 C 
BRANCH  20  21
ATOM     21  C   UNL     1      -3.355   2.261   2.747  1.00  0.00     0.261 C 
BRANCH  21  22
ATOM     22  O   UNL     1      -3.021   3.325   1.851  1.00  0.00    -0.460 OA
BRANCH  22  23
ATOM     23  C   UNL     1      -1.863   3.982   2.117  1.00  0.00     0.338 C 
ATOM     24  O   UNL     1      -1.090   3.768   3.038  1.00  0.00    -0.246 OA
BRANCH  23  25
ATOM     25  C   UNL     1      -1.553   4.855   0.965  1.00  0.00     0.060 A 
ATOM     26  C   UNL     1      -0.353   4.654   0.261  1.00  0.00     0.016 A 
ATOM     27  C   UNL     1      -2.450   5.844   0.565  1.00  0.00     0.016 A 
ATOM     28  C   UNL     1      -0.041   5.449  -0.841  1.00  0.00     0.010 A 
ATOM     29  C   UNL     1      -2.119   6.665  -0.512  1.00  0.00     0.010 A 
ATOM     30  C   UNL     1      -0.902   6.490  -1.199  1.00  0.00    -0.014 A 
BRANCH  30  31
ATOM     31  C   UNL     1      -0.449   7.564  -2.112  1.00  0.00     0.031 A 
ATOM     32  C   UNL     1       0.087   8.820  -1.488  1.00  0.00     0.074 A 
ATOM     33  C   UNL     1      -0.592   7.473  -3.445  1.00  0.00     0.049 A 
ATOM     34  N   UNL     1       0.344   9.977  -2.035  1.00  0.00    -0.248 NA
ATOM     35  C   UNL     1       0.345   8.763  -0.039  1.00  0.00     0.031 C 
ATOM     36  C   UNL     1      -1.075   6.300  -4.167  1.00  0.00     0.029 A 
ATOM     37  N   UNL     1      -0.396   8.419  -4.420  1.00  0.00    -0.354 N 
ATOM     38  C   UNL     1       0.735  10.804  -0.990  1.00  0.00     0.074 A 
ATOM     39  C   UNL     1       0.690  10.014   0.221  1.00  0.00     0.031 C 
ATOM     40  C   UNL     1      -1.197   6.614  -5.468  1.00  0.00     0.029 A 
ATOM     41  C   UNL     1      -0.842   8.021  -5.658  1.00  0.00     0.049 A 
ATOM     42  H   UNL     1       0.023   9.294  -4.250  1.00  0.00     0.167 HD
ATOM     43  C   UNL     1       1.093  12.108  -1.032  1.00  0.00     0.034 A 
ATOM     44  C   UNL     1      -0.998   8.727  -6.796  1.00  0.00     0.034 A 
ATOM     45  C   UNL     1       1.141  12.884  -2.239  1.00  0.00     0.049 A 
ATOM     46  C   UNL     1      -0.616  10.185  -6.824  1.00  0.00     0.074 A 
ATOM     47  C   UNL     1       1.542  14.197  -2.401  1.00  0.00     0.029 A 
ATOM     48  N   UNL     1       0.752  12.425  -3.488  1.00  0.00    -0.354 N 
ATOM     49  N   UNL     1      -0.154  10.937  -5.853  1.00  0.00    -0.248 NA
ATOM     50  C   UNL     1      -0.752  10.889  -8.108  1.00  0.00     0.031 C 
ATOM     51  C   UNL     1       1.358  14.545  -3.743  1.00  0.00     0.029 A 
ATOM     52  C   UNL     1       0.888  13.433  -4.425  1.00  0.00     0.049 A 
ATOM     53  H   UNL     1       0.426  11.516  -3.679  1.00  0.00     0.167 HD
ATOM     54  C   UNL     1       0.096  12.184  -6.417  1.00  0.00     0.074 A 
ATOM     55  C   UNL     1      -0.265  12.088  -7.816  1.00  0.00     0.031 C 
ATOM     56  C   UNL     1       0.579  13.307  -5.828  1.00  0.00     0.034 A 
BRANCH  43  57
ATOM     57  C   UNL     1       1.444  12.769   0.273  1.00  0.00     0.023 A 
ATOM     58  C   UNL     1       2.626  12.411   0.954  1.00  0.00     0.012 A 
ATOM     59  C   UNL     1       0.601  13.753   0.825  1.00  0.00     0.148 A 
ATOM     60  C   UNL     1       2.937  12.983   2.186  1.00  0.00     0.002 A 
ATOM     61  C   UNL     1       0.944  14.358   2.028  1.00  0.00     0.091 A 
ATOM     62  F   UNL     1      -0.534  14.061   0.180  1.00  0.00    -0.205 F 
ATOM     63  C   UNL     1       2.102  13.963   2.718  1.00  0.00     0.022 A 
BRANCH  61  64
ATOM     64  S   UNL     1      -0.025  15.688   2.746  1.00  0.00     0.127 S 
ATOM     65  O   UNL     1      -0.687  15.005   3.856  1.00  0.00    -0.237 OA
ATOM     66  O   UNL     1       1.010  16.642   3.147  1.00  0.00    -0.237 OA
ATOM     67  O   UNL     1      -0.903  16.160   1.685  1.00  0.00    -0.744 OA
ENDBRANCH  61  64
ENDBRANCH  43  57
BRANCH  44  68
ATOM     68  C   UNL     1      -1.537   8.051  -8.010  1.00  0.00     0.023 A 
ATOM     69  C   UNL     1      -0.681   7.788  -9.097  1.00  0.00     0.012 A 
ATOM     70  C   UNL     1      -2.878   7.624  -8.070  1.00  0.00     0.148 A 
ATOM     71  C   UNL     1      -1.156   7.126 -10.229  1.00  0.00     0.002 A 
ATOM     72  C   UNL     1      -3.330   6.917  -9.178  1.00  0.00     0.091 A 
ATOM     73  F   UNL     1      -3.677   7.896  -7.028  1.00  0.00    -0.205 F 
ATOM     74  C   UNL     1      -2.475   6.680 -10.265  1.00  0.00     0.022 A 
BRANCH  72  75
ATOM     75  S   UNL     1      -4.973   6.195  -9.264  1.00  0.00     0.127 S 
ATOM     76  O   UNL     1      -5.558   6.918 -10.392  1.00  0.00    -0.237 OA
ATOM     77  O   UNL     1      -4.666   4.789  -9.526  1.00  0.00    -0.237 OA
ATOM     78  O   UNL     1      -5.589   6.451  -7.970  1.00  0.00    -0.744 OA
ENDBRANCH  72  75
ENDBRANCH  44  68
BRANCH  56  79
ATOM     79  C   UNL     1       0.818  14.520  -6.691  1.00  0.00     0.023 A 
ATOM     80  C   UNL     1      -0.266  15.288  -7.156  1.00  0.00     0.012 A 
ATOM     81  C   UNL     1       2.135  14.960  -6.939  1.00  0.00     0.148 A 
ATOM     82  C   UNL     1      -0.043  16.466  -7.871  1.00  0.00     0.002 A 
ATOM     83  C   UNL     1       2.349  16.159  -7.606  1.00  0.00     0.091 A 
ATOM     84  F   UNL     1       3.153  14.205  -6.501  1.00  0.00    -0.205 F 
ATOM     85  C   UNL     1       1.262  16.908  -8.083  1.00  0.00     0.022 A 
BRANCH  83  86
ATOM     86  S   UNL     1       3.989  16.859  -7.831  1.00  0.00     0.127 S 
ATOM     87  O   UNL     1       4.173  16.725  -9.275  1.00  0.00    -0.237 OA
ATOM     88  O   UNL     1       3.805  18.233  -7.364  1.00  0.00    -0.237 OA
ATOM     89  O   UNL     1       4.887  16.056  -7.013  1.00  0.00    -0.744 OA
ENDBRANCH  83  86
ENDBRANCH  56  79
ENDBRANCH  30  31
ENDBRANCH  23  25
ENDBRANCH  22  23
ENDBRANCH  21  22
ENDBRANCH  20  21
ENDBRANCH  19  20
ENDBRANCH   1  19
TORSDOF 21
