REMARK SMILES COc1ccccc1N1CC[NH+]([C@@H](C(=O)OCCOCCOCCOC(=O)c2ccc(-c3c4nc(c(-c5cccc(S(=O)(=O)[O-])c5F)c5ccc([nH]5)c(-c5cccc(S(=O)(=O)[O-])c5F)c5nc(c(-c6cccc(S(=O)(=O)[O-])c6F)c6ccc3[nH]6)C=C5)C=C4)cc2)c2c[nH]c3ccc(OCC#N)cc23)CC1
REMARK SMILES IDX 20 1 19 2 18 3 17 4 16 5 14 6 15 7 13 8 12 9 9 10 10 11
REMARK SMILES IDX 105 12 11 13 104 14 8 16 3 17 4 18 5 19 7 20 6 21 2 22 1 23
REMARK SMILES IDX 91 24 92 25 103 26 93 27 94 28 102 29 95 31 97 32 96 33
REMARK SMILES IDX 98 34 99 35 100 36 101 37 21 38 22 39 23 40 24 41 25 42
REMARK SMILES IDX 26 43 27 44 28 45 29 46 90 47 30 48 89 49 31 50 32 51 33 52
REMARK SMILES IDX 83 53 34 54 88 55 82 56 84 57 35 58 87 59 81 60 80 61 36 63
REMARK SMILES IDX 68 64 48 65 67 66 49 67 52 68 66 69 85 70 50 71 51 72 65 74
REMARK SMILES IDX 86 75 53 76 37 77 38 78 46 79 39 80 41 81 47 82 40 83 42 84
REMARK SMILES IDX 43 85 44 86 45 87 69 88 70 89 78 90 71 91 73 92 79 93 72 94
REMARK SMILES IDX 74 95 75 96 76 97 77 98 54 99 55 100 63 101 56 102 58 103
REMARK SMILES IDX 64 104 57 105 59 106 60 107 61 108 62 109
REMARK H PARENT 12 15 93 30 84 62 52 73
REMARK Flexibility Score: inf
ROOT
ATOM      1  C   UNL     1       7.482  -3.276   0.661  1.00  0.00     0.188 C 
ENDROOT
BRANCH   1   2
ATOM      2  O   UNL     1       7.759  -3.619   2.003  1.00  0.00    -0.376 OA
BRANCH   2   3
ATOM      3  C   UNL     1       6.878  -3.061   2.976  1.00  0.00     0.202 C 
BRANCH   3   4
ATOM      4  C   UNL     1       6.627  -1.550   2.886  1.00  0.00     0.261 C 
BRANCH   4   5
ATOM      5  O   UNL     1       5.841  -1.197   1.723  1.00  0.00    -0.459 OA
BRANCH   5   6
ATOM      6  C   UNL     1       6.346  -0.233   0.907  1.00  0.00     0.370 C 
ATOM      7  O   UNL     1       7.396   0.363   1.136  1.00  0.00    -0.245 OA
BRANCH   6   8
ATOM      8  C   UNL     1       5.442   0.093  -0.288  1.00  0.00     0.328 C 
BRANCH   8   9
ATOM      9  N   UNL     1       4.105   0.763   0.013  1.00  0.00    -0.316 N 
ATOM     10  N   UNL     1       1.893  -0.806   1.226  1.00  0.00    -0.357 N 
ATOM     11  C   UNL     1       2.387  -1.014  -0.140  1.00  0.00     0.178 C 
ATOM     12  C   UNL     1       2.919  -0.249   2.129  1.00  0.00     0.178 C 
ATOM     13  C   UNL     1       2.865   0.340  -0.633  1.00  0.00     0.284 C 
ATOM     14  C   UNL     1       3.741   0.918   1.449  1.00  0.00     0.284 C 
ATOM     15  H   UNL     1       4.406   1.627  -0.437  1.00  0.00     0.349 HD
BRANCH  10  16
ATOM     16  C   UNL     1       1.035  -1.851   1.583  1.00  0.00     0.080 A 
ATOM     17  C   UNL     1      -0.340  -1.860   1.245  1.00  0.00     0.142 A 
ATOM     18  C   UNL     1      -1.089  -3.040   1.382  1.00  0.00     0.048 A 
ATOM     19  C   UNL     1      -0.507  -4.216   1.844  1.00  0.00     0.004 A 
ATOM     20  C   UNL     1       1.580  -3.037   2.114  1.00  0.00     0.030 A 
ATOM     21  C   UNL     1       0.824  -4.208   2.233  1.00  0.00     0.002 A 
BRANCH  17  22
ATOM     22  O   UNL     1      -1.131  -0.818   0.825  1.00  0.00    -0.495 OA
ATOM     23  C   UNL     1      -0.550   0.232   0.076  1.00  0.00     0.278 C 
ENDBRANCH  17  22
ENDBRANCH  10  16
ENDBRANCH   8   9
BRANCH   8  24
ATOM     24  C   UNL     1       5.733  -0.647  -1.686  1.00  0.00     0.046 A 
ATOM     25  C   UNL     1       5.700   0.214  -2.791  1.00  0.00     0.094 A 
ATOM     26  C   UNL     1       5.238  -1.845  -2.375  1.00  0.00     0.013 A 
ATOM     27  N   UNL     1       4.337   0.213  -3.154  1.00  0.00    -0.361 N 
ATOM     28  C   UNL     1       3.825  -1.113  -3.101  1.00  0.00     0.046 A 
ATOM     29  C   UNL     1       5.700  -3.560  -2.883  1.00  0.00     0.057 A 
ATOM     30  H   UNL     1       3.818   1.010  -3.405  1.00  0.00     0.166 HD
ATOM     31  C   UNL     1       2.689  -2.057  -4.195  1.00  0.00     0.030 A 
ATOM     32  C   UNL     1       4.628  -4.507  -4.087  1.00  0.00     0.121 A 
ATOM     33  C   UNL     1       3.129  -3.732  -4.689  1.00  0.00     0.048 A 
BRANCH  32  34
ATOM     34  O   UNL     1       4.857  -5.627  -4.853  1.00  0.00    -0.479 OA
BRANCH  34  35
ATOM     35  C   UNL     1       6.096  -6.182  -5.341  1.00  0.00     0.349 C 
BRANCH  35  36
ATOM     36  C   UNL     1       6.695  -5.591  -6.559  1.00  0.00     0.104 C 
ATOM     37  N   UNL     1       7.250  -5.208  -7.506  1.00  0.00    -0.195 NA
ENDBRANCH  35  36
ENDBRANCH  34  35
ENDBRANCH  32  34
ENDBRANCH   8  24
ENDBRANCH   6   8
ENDBRANCH   5   6
ENDBRANCH   4   5
ENDBRANCH   3   4
ENDBRANCH   2   3
ENDBRANCH   1   2
BRANCH   1  38
ATOM     38  C   UNL     1       6.101  -3.656   0.123  1.00  0.00     0.188 C 
BRANCH  38  39
ATOM     39  O   UNL     1       5.002  -3.875   0.991  1.00  0.00    -0.376 OA
BRANCH  39  40
ATOM     40  C   UNL     1       4.202  -4.976   0.551  1.00  0.00     0.202 C 
BRANCH  40  41
ATOM     41  C   UNL     1       3.325  -4.770  -0.709  1.00  0.00     0.261 C 
BRANCH  41  42
ATOM     42  O   UNL     1       4.074  -4.398  -1.898  1.00  0.00    -0.460 OA
BRANCH  42  43
ATOM     43  C   UNL     1       3.697  -3.189  -2.779  1.00  0.00     0.338 C 
ATOM     44  O   UNL     1       2.610  -2.862  -2.238  1.00  0.00    -0.246 OA
BRANCH  43  45
ATOM     45  C   UNL     1       4.825  -2.428  -4.450  1.00  0.00     0.060 A 
ATOM     46  C   UNL     1       4.524  -1.240  -5.420  1.00  0.00     0.016 A 
ATOM     47  C   UNL     1       6.141  -2.887  -4.985  1.00  0.00     0.016 A 
ATOM     48  C   UNL     1       5.286  -0.651  -6.411  1.00  0.00     0.010 A 
ATOM     49  C   UNL     1       6.857  -2.422  -6.032  1.00  0.00     0.010 A 
ATOM     50  C   UNL     1       6.426  -1.307  -6.703  1.00  0.00    -0.014 A 
BRANCH  50  51
ATOM     51  C   UNL     1       7.162  -1.124  -7.905  1.00  0.00     0.031 A 
ATOM     52  C   UNL     1       6.572  -1.882  -9.046  1.00  0.00     0.074 A 
ATOM     53  C   UNL     1       8.444  -0.833  -7.623  1.00  0.00     0.049 A 
ATOM     54  N   UNL     1       7.059  -2.027 -10.228  1.00  0.00    -0.248 NA
ATOM     55  C   UNL     1       5.278  -2.598  -8.838  1.00  0.00     0.031 C 
ATOM     56  C   UNL     1       8.962  -0.474  -6.270  1.00  0.00     0.029 A 
ATOM     57  N   UNL     1       9.553  -1.123  -8.327  1.00  0.00    -0.354 N 
ATOM     58  C   UNL     1       6.129  -2.789 -10.914  1.00  0.00     0.074 A 
ATOM     59  C   UNL     1       5.065  -3.149 -10.021  1.00  0.00     0.031 C 
ATOM     60  C   UNL     1      10.277  -0.733  -6.226  1.00  0.00     0.029 A 
ATOM     61  C   UNL     1      10.694  -1.100  -7.563  1.00  0.00     0.049 A 
ATOM     62  H   UNL     1       9.547  -1.330  -9.289  1.00  0.00     0.167 HD
ATOM     63  C   UNL     1       6.211  -3.107 -12.216  1.00  0.00     0.034 A 
ATOM     64  C   UNL     1      11.945  -1.303  -7.988  1.00  0.00     0.034 A 
ATOM     65  C   UNL     1       7.438  -2.842 -12.906  1.00  0.00     0.049 A 
ATOM     66  C   UNL     1      12.023  -1.479  -9.474  1.00  0.00     0.074 A 
ATOM     67  C   UNL     1       7.741  -2.899 -14.243  1.00  0.00     0.029 A 
ATOM     68  N   UNL     1       8.613  -2.499 -12.228  1.00  0.00    -0.354 N 
ATOM     69  N   UNL     1      11.061  -1.836 -10.302  1.00  0.00    -0.248 NA
ATOM     70  C   UNL     1      13.283  -1.127 -10.113  1.00  0.00     0.031 C 
ATOM     71  C   UNL     1       9.108  -2.607 -14.365  1.00  0.00     0.029 A 
ATOM     72  C   UNL     1       9.644  -2.319 -13.110  1.00  0.00     0.049 A 
ATOM     73  H   UNL     1       8.688  -2.401 -11.251  1.00  0.00     0.167 HD
ATOM     74  C   UNL     1      11.564  -1.669 -11.574  1.00  0.00     0.074 A 
ATOM     75  C   UNL     1      12.933  -1.196 -11.391  1.00  0.00     0.031 C 
ATOM     76  C   UNL     1      10.978  -1.867 -12.783  1.00  0.00     0.034 A 
BRANCH  63  77
ATOM     77  C   UNL     1       4.993  -3.679 -12.871  1.00  0.00     0.023 A 
ATOM     78  C   UNL     1       3.790  -2.931 -12.883  1.00  0.00     0.012 A 
ATOM     79  C   UNL     1       5.013  -4.945 -13.474  1.00  0.00     0.148 A 
ATOM     80  C   UNL     1       2.627  -3.442 -13.456  1.00  0.00     0.002 A 
ATOM     81  C   UNL     1       3.865  -5.428 -14.091  1.00  0.00     0.091 A 
ATOM     82  F   UNL     1       6.140  -5.665 -13.408  1.00  0.00    -0.205 F 
ATOM     83  C   UNL     1       2.669  -4.687 -14.072  1.00  0.00     0.022 A 
BRANCH  81  84
ATOM     84  S   UNL     1       3.829  -6.990 -14.971  1.00  0.00     0.127 S 
ATOM     85  O   UNL     1       2.790  -7.719 -14.243  1.00  0.00    -0.237 OA
ATOM     86  O   UNL     1       3.446  -6.565 -16.317  1.00  0.00    -0.237 OA
ATOM     87  O   UNL     1       5.167  -7.552 -14.858  1.00  0.00    -0.744 OA
ENDBRANCH  81  84
ENDBRANCH  63  77
BRANCH  64  88
ATOM     88  C   UNL     1      13.081  -0.969  -7.100  1.00  0.00     0.023 A 
ATOM     89  C   UNL     1      13.655   0.316  -7.189  1.00  0.00     0.012 A 
ATOM     90  C   UNL     1      13.529  -1.851  -6.103  1.00  0.00     0.148 A 
ATOM     91  C   UNL     1      14.716   0.685  -6.364  1.00  0.00     0.002 A 
ATOM     92  C   UNL     1      14.574  -1.472  -5.266  1.00  0.00     0.091 A 
ATOM     93  F   UNL     1      12.909  -3.033  -5.976  1.00  0.00    -0.205 F 
ATOM     94  C   UNL     1      15.183  -0.213  -5.409  1.00  0.00     0.022 A 
BRANCH  92  95
ATOM     95  S   UNL     1      15.189  -2.524  -3.947  1.00  0.00     0.127 S 
ATOM     96  O   UNL     1      16.503  -2.902  -4.460  1.00  0.00    -0.237 OA
ATOM     97  O   UNL     1      15.213  -1.604  -2.809  1.00  0.00    -0.237 OA
ATOM     98  O   UNL     1      14.224  -3.608  -3.825  1.00  0.00    -0.744 OA
ENDBRANCH  92  95
ENDBRANCH  64  88
BRANCH  76  99
ATOM     99  C   UNL     1      11.851  -1.590 -13.956  1.00  0.00     0.023 A 
ATOM    100  C   UNL     1      12.902  -2.475 -14.249  1.00  0.00     0.012 A 
ATOM    101  C   UNL     1      11.549  -0.518 -14.810  1.00  0.00     0.148 A 
ATOM    102  C   UNL     1      13.680  -2.270 -15.378  1.00  0.00     0.002 A 
ATOM    103  C   UNL     1      12.278  -0.368 -15.972  1.00  0.00     0.091 A 
ATOM    104  F   UNL     1      10.544   0.308 -14.479  1.00  0.00    -0.205 F 
ATOM    105  C   UNL     1      13.355  -1.230 -16.248  1.00  0.00     0.022 A 
BRANCH 103 106
ATOM    106  S   UNL     1      11.846   0.849 -17.212  1.00  0.00     0.127 S 
ATOM    107  O   UNL     1      12.980   1.767 -17.130  1.00  0.00    -0.237 OA
ATOM    108  O   UNL     1      11.799   0.037 -18.428  1.00  0.00    -0.237 OA
ATOM    109  O   UNL     1      10.564   1.408 -16.806  1.00  0.00    -0.744 OA
ENDBRANCH 103 106
ENDBRANCH  76  99
ENDBRANCH  50  51
ENDBRANCH  43  45
ENDBRANCH  42  43
ENDBRANCH  41  42
ENDBRANCH  40  41
ENDBRANCH  39  40
ENDBRANCH  38  39
ENDBRANCH   1  38
TORSDOF 27
