REMARK SMILES CCC[C@](C)([NH2+][C@H]1CCOC2(CCCC2)C1)C(=O)OCCOCCOCCOC(=O)c1ccc(-c2c3nc(c(-c4cccc(S(=O)(=O)[O-])c4F)c4ccc([nH]4)c(-c4cccc(S(=O)(=O)[O-])c4F)c4nc(c(-c5cccc(S(=O)(=O)[O-])c5F)c5ccc2[nH]5)C=C4)C=C3)cc1
REMARK SMILES IDX 24 1 23 2 22 3 21 4 20 5 19 6 17 7 18 8 4 9 5 10 3 11 2 12
REMARK SMILES IDX 1 13 6 14 7 17 8 18 16 19 9 20 11 21 10 22 12 23 15 24 13 25
REMARK SMILES IDX 14 26 25 27 26 28 27 29 28 30 29 31 30 32 31 33 32 34 93 35
REMARK SMILES IDX 33 36 92 37 34 38 35 39 36 40 86 41 37 42 91 43 85 44 87 45
REMARK SMILES IDX 38 46 90 47 84 48 83 49 39 51 71 52 51 53 70 54 52 55 55 56
REMARK SMILES IDX 69 57 88 58 53 59 54 60 68 62 89 63 56 64 40 65 41 66 49 67
REMARK SMILES IDX 42 68 44 69 50 70 43 71 45 72 46 73 47 74 48 75 72 76 73 77
REMARK SMILES IDX 81 78 74 79 76 80 82 81 75 82 77 83 78 84 79 85 80 86 57 87
REMARK SMILES IDX 58 88 66 89 59 90 61 91 67 92 60 93 62 94 63 95 64 96 65 97
REMARK H PARENT 6 15 6 16 87 50 55 61
REMARK Flexibility Score: inf
ROOT
ATOM      1  C   UNL     1      -2.057  -7.289   1.132  1.00  0.00     0.188 C 
ENDROOT
BRANCH   1   2
ATOM      2  C   UNL     1      -2.001  -8.584   1.950  1.00  0.00     0.188 C 
BRANCH   2   3
ATOM      3  O   UNL     1      -1.822  -8.485   3.347  1.00  0.00    -0.376 OA
BRANCH   3   4
ATOM      4  C   UNL     1      -0.590  -7.991   3.854  1.00  0.00     0.202 C 
BRANCH   4   5
ATOM      5  C   UNL     1       0.716  -8.098   3.055  1.00  0.00     0.261 C 
BRANCH   5   6
ATOM      6  O   UNL     1       0.646  -7.537   1.734  1.00  0.00    -0.459 OA
BRANCH   6   7
ATOM      7  C   UNL     1       1.280  -8.206   0.739  1.00  0.00     0.367 C 
ATOM      8  O   UNL     1       1.848  -9.282   0.919  1.00  0.00    -0.245 OA
BRANCH   7   9
ATOM      9  C   UNL     1       1.235  -7.529  -0.668  1.00  0.00     0.191 C 
ATOM     10  C   UNL     1       0.365  -8.529  -1.522  1.00  0.00     0.092 C 
BRANCH   9  11
ATOM     11  C   UNL     1       2.667  -7.556  -1.283  1.00  0.00     0.080 C 
BRANCH  11  12
ATOM     12  C   UNL     1       3.842  -6.845  -0.600  1.00  0.00     0.004 C 
ATOM     13  C   UNL     1       4.282  -7.403   0.750  1.00  0.00     0.004 C 
ENDBRANCH  11  12
ENDBRANCH   9  11
BRANCH   9  14
ATOM     14  N   UNL     1       0.491  -6.237  -0.799  1.00  0.00    -0.330 N 
ATOM     15  H   UNL     1      -0.410  -6.399  -0.350  1.00  0.00     0.347 HD
ATOM     16  H   UNL     1       0.581  -6.081  -1.803  1.00  0.00     0.347 HD
BRANCH  14  17
ATOM     17  C   UNL     1       0.944  -4.937  -0.298  1.00  0.00     0.188 C 
ATOM     18  C   UNL     1      -0.237  -3.939  -0.265  1.00  0.00     0.093 C 
ATOM     19  C   UNL     1       1.542  -4.950   1.088  1.00  0.00     0.100 C 
ATOM     20  C   UNL     1       0.013  -2.655   0.551  1.00  0.00     0.167 C 
ATOM     21  C   UNL     1       2.011  -3.571   1.522  1.00  0.00     0.074 C 
ATOM     22  O   UNL     1       0.835  -2.786   1.720  1.00  0.00    -0.375 OA
ATOM     23  C   UNL     1       2.784  -3.739   2.852  1.00  0.00     0.036 C 
ATOM     24  C   UNL     1       3.007  -2.864   0.571  1.00  0.00     0.036 C 
ATOM     25  C   UNL     1       4.248  -3.556   2.469  1.00  0.00     0.003 C 
ATOM     26  C   UNL     1       4.176  -2.440   1.450  1.00  0.00     0.003 C 
ENDBRANCH  14  17
ENDBRANCH   9  14
ENDBRANCH   7   9
ENDBRANCH   6   7
ENDBRANCH   5   6
ENDBRANCH   4   5
ENDBRANCH   3   4
ENDBRANCH   2   3
ENDBRANCH   1   2
BRANCH   1  27
ATOM     27  O   UNL     1      -1.957  -6.016   1.730  1.00  0.00    -0.376 OA
BRANCH  27  28
ATOM     28  C   UNL     1      -2.860  -5.627   2.743  1.00  0.00     0.202 C 
BRANCH  28  29
ATOM     29  C   UNL     1      -4.377  -5.785   2.578  1.00  0.00     0.261 C 
BRANCH  29  30
ATOM     30  O   UNL     1      -4.808  -6.949   1.875  1.00  0.00    -0.460 OA
BRANCH  30  31
ATOM     31  C   UNL     1      -5.143  -6.755   0.568  1.00  0.00     0.338 C 
ATOM     32  O   UNL     1      -5.142  -5.718  -0.052  1.00  0.00    -0.246 OA
BRANCH  31  33
ATOM     33  C   UNL     1      -5.272  -8.102  -0.036  1.00  0.00     0.060 A 
ATOM     34  C   UNL     1      -4.483  -8.429  -1.153  1.00  0.00     0.016 A 
ATOM     35  C   UNL     1      -6.103  -9.051   0.554  1.00  0.00     0.016 A 
ATOM     36  C   UNL     1      -4.526  -9.717  -1.685  1.00  0.00     0.010 A 
ATOM     37  C   UNL     1      -6.173 -10.325   0.002  1.00  0.00     0.010 A 
ATOM     38  C   UNL     1      -5.407 -10.652  -1.132  1.00  0.00    -0.014 A 
BRANCH  38  39
ATOM     39  C   UNL     1      -5.767 -11.882  -1.867  1.00  0.00     0.031 A 
ATOM     40  C   UNL     1      -7.009 -11.821  -2.709  1.00  0.00     0.074 A 
ATOM     41  C   UNL     1      -5.087 -13.030  -1.708  1.00  0.00     0.049 A 
ATOM     42  N   UNL     1      -7.693 -12.789  -3.251  1.00  0.00    -0.248 NA
ATOM     43  C   UNL     1      -7.567 -10.477  -2.949  1.00  0.00     0.031 C 
ATOM     44  C   UNL     1      -3.853 -13.190  -0.942  1.00  0.00     0.029 A 
ATOM     45  N   UNL     1      -5.381 -14.296  -2.148  1.00  0.00    -0.354 N 
ATOM     46  C   UNL     1      -8.786 -12.179  -3.854  1.00  0.00     0.074 A 
ATOM     47  C   UNL     1      -8.677 -10.759  -3.612  1.00  0.00     0.031 C 
ATOM     48  C   UNL     1      -3.519 -14.494  -0.926  1.00  0.00     0.029 A 
ATOM     49  C   UNL     1      -4.541 -15.259  -1.638  1.00  0.00     0.049 A 
ATOM     50  H   UNL     1      -6.120 -14.496  -2.768  1.00  0.00     0.167 HD
ATOM     51  C   UNL     1      -9.791 -12.753  -4.551  1.00  0.00     0.034 A 
ATOM     52  C   UNL     1      -4.625 -16.603  -1.705  1.00  0.00     0.034 A 
ATOM     53  C   UNL     1      -9.888 -14.166  -4.780  1.00  0.00     0.049 A 
ATOM     54  C   UNL     1      -5.787 -17.224  -2.444  1.00  0.00     0.074 A 
ATOM     55  C   UNL     1     -10.856 -14.859  -5.482  1.00  0.00     0.029 A 
ATOM     56  N   UNL     1      -8.984 -15.102  -4.303  1.00  0.00    -0.354 N 
ATOM     57  N   UNL     1      -6.780 -16.638  -3.071  1.00  0.00    -0.248 NA
ATOM     58  C   UNL     1      -5.830 -18.694  -2.506  1.00  0.00     0.031 C 
ATOM     59  C   UNL     1     -10.551 -16.221  -5.405  1.00  0.00     0.029 A 
ATOM     60  C   UNL     1      -9.368 -16.369  -4.697  1.00  0.00     0.049 A 
ATOM     61  H   UNL     1      -8.187 -14.895  -3.763  1.00  0.00     0.167 HD
ATOM     62  C   UNL     1      -7.526 -17.660  -3.650  1.00  0.00     0.074 A 
ATOM     63  C   UNL     1      -6.872 -18.904  -3.299  1.00  0.00     0.031 C 
ATOM     64  C   UNL     1      -8.651 -17.582  -4.402  1.00  0.00     0.034 A 
BRANCH  51  65
ATOM     65  C   UNL     1     -10.853 -11.851  -5.115  1.00  0.00     0.023 A 
ATOM     66  C   UNL     1     -10.543 -10.995  -6.192  1.00  0.00     0.012 A 
ATOM     67  C   UNL     1     -12.166 -11.875  -4.606  1.00  0.00     0.148 A 
ATOM     68  C   UNL     1     -11.513 -10.153  -6.732  1.00  0.00     0.002 A 
ATOM     69  C   UNL     1     -13.140 -11.071  -5.183  1.00  0.00     0.091 A 
ATOM     70  F   UNL     1     -12.433 -12.676  -3.565  1.00  0.00    -0.205 F 
ATOM     71  C   UNL     1     -12.813 -10.200  -6.235  1.00  0.00     0.022 A 
BRANCH  69  72
ATOM     72  S   UNL     1     -14.861 -11.114  -4.671  1.00  0.00     0.127 S 
ATOM     73  O   UNL     1     -15.028  -9.784  -4.085  1.00  0.00    -0.237 OA
ATOM     74  O   UNL     1     -15.552 -11.310  -5.945  1.00  0.00    -0.237 OA
ATOM     75  O   UNL     1     -14.977 -12.223  -3.735  1.00  0.00    -0.744 OA
ENDBRANCH  69  72
ENDBRANCH  51  65
BRANCH  52  76
ATOM     76  C   UNL     1      -3.583 -17.465  -1.076  1.00  0.00     0.023 A 
ATOM     77  C   UNL     1      -2.745 -18.244  -1.899  1.00  0.00     0.012 A 
ATOM     78  C   UNL     1      -3.428 -17.540   0.322  1.00  0.00     0.148 A 
ATOM     79  C   UNL     1      -1.806 -19.113  -1.344  1.00  0.00     0.002 A 
ATOM     80  C   UNL     1      -2.453 -18.368   0.868  1.00  0.00     0.091 A 
ATOM     81  F   UNL     1      -4.242 -16.803   1.092  1.00  0.00    -0.205 F 
ATOM     82  C   UNL     1      -1.655 -19.170   0.038  1.00  0.00     0.022 A 
BRANCH  80  83
ATOM     83  S   UNL     1      -2.109 -18.426   2.630  1.00  0.00     0.127 S 
ATOM     84  O   UNL     1      -2.576 -19.765   2.982  1.00  0.00    -0.237 OA
ATOM     85  O   UNL     1      -0.656 -18.254   2.658  1.00  0.00    -0.237 OA
ATOM     86  O   UNL     1      -2.857 -17.322   3.215  1.00  0.00    -0.744 OA
ENDBRANCH  80  83
ENDBRANCH  52  76
BRANCH  64  87
ATOM     87  C   UNL     1      -9.205 -18.853  -4.989  1.00  0.00     0.023 A 
ATOM     88  C   UNL     1      -9.881 -19.781  -4.176  1.00  0.00     0.012 A 
ATOM     89  C   UNL     1      -9.155 -19.056  -6.384  1.00  0.00     0.148 A 
ATOM     90  C   UNL     1     -10.482 -20.905  -4.741  1.00  0.00     0.002 A 
ATOM     91  C   UNL     1      -9.803 -20.148  -6.944  1.00  0.00     0.091 A 
ATOM     92  F   UNL     1      -8.493 -18.164  -7.135  1.00  0.00    -0.205 F 
ATOM     93  C   UNL     1     -10.457 -21.081  -6.123  1.00  0.00     0.022 A 
BRANCH  91  94
ATOM     94  S   UNL     1      -9.916 -20.395  -8.720  1.00  0.00     0.127 S 
ATOM     95  O   UNL     1      -9.095 -21.590  -8.906  1.00  0.00    -0.237 OA
ATOM     96  O   UNL     1     -11.351 -20.604  -8.910  1.00  0.00    -0.237 OA
ATOM     97  O   UNL     1      -9.393 -19.181  -9.332  1.00  0.00    -0.744 OA
ENDBRANCH  91  94
ENDBRANCH  64  87
ENDBRANCH  38  39
ENDBRANCH  31  33
ENDBRANCH  30  31
ENDBRANCH  29  30
ENDBRANCH  28  29
ENDBRANCH  27  28
ENDBRANCH   1  27
TORSDOF 24
