REMARK SMILES O=C(Nc1cccc(C(=O)OCCOCCOCCOC(=O)c2ccc(-c3c4nc(c(-c5cccc(S(=O)(=O)[O-])c5F)c5ccc([nH]5)c(-c5cccc(S(=O)(=O)[O-])c5F)c5nc(c(-c6cccc(S(=O)(=O)[O-])c6F)c6ccc3[nH]6)C=C5)C=C4)cc2)c1)Nc1cc(Cl)c(Cl)cc1Cl
REMARK SMILES IDX 16 1 15 2 14 3 13 4 12 5 11 6 9 7 10 8 8 9 4 10 5 11 86 12
REMARK SMILES IDX 6 13 7 14 3 15 1 16 2 17 87 18 88 21 89 22 95 23 90 24 94 25
REMARK SMILES IDX 96 26 91 27 92 28 93 29 17 30 18 31 19 32 20 33 21 34 22 35
REMARK SMILES IDX 23 36 24 37 85 38 25 39 84 40 26 41 27 42 28 43 78 44 29 45
REMARK SMILES IDX 83 46 77 47 79 48 30 49 82 50 76 51 75 52 31 54 63 55 43 56
REMARK SMILES IDX 62 57 44 58 47 59 61 60 80 61 45 62 46 63 60 65 81 66 48 67
REMARK SMILES IDX 32 68 33 69 41 70 34 71 36 72 42 73 35 74 37 75 38 76 39 77
REMARK SMILES IDX 40 78 64 79 65 80 73 81 66 82 68 83 74 84 67 85 69 86 70 87
REMARK SMILES IDX 71 88 72 89 49 90 50 91 58 92 51 93 53 94 59 95 52 96 54 97
REMARK SMILES IDX 55 98 56 99 57 100
REMARK H PARENT 3 19 87 20 79 53 47 64
REMARK Flexibility Score: inf
ROOT
ATOM      1  C   UNL     1       7.017   3.350  -2.111  1.00  0.00     0.188 C 
ENDROOT
BRANCH   1   2
ATOM      2  C   UNL     1       8.435   2.772  -2.301  1.00  0.00     0.188 C 
BRANCH   2   3
ATOM      3  O   UNL     1       8.901   2.424  -3.592  1.00  0.00    -0.376 OA
BRANCH   3   4
ATOM      4  C   UNL     1       8.155   1.516  -4.389  1.00  0.00     0.202 C 
BRANCH   4   5
ATOM      5  C   UNL     1       7.716   0.174  -3.803  1.00  0.00     0.261 C 
BRANCH   5   6
ATOM      6  O   UNL     1       6.896   0.328  -2.636  1.00  0.00    -0.460 OA
BRANCH   6   7
ATOM      7  C   UNL     1       7.306  -0.360  -1.544  1.00  0.00     0.338 C 
ATOM      8  O   UNL     1       8.205  -1.181  -1.479  1.00  0.00    -0.246 OA
BRANCH   7   9
ATOM      9  C   UNL     1       6.574   0.125  -0.359  1.00  0.00     0.062 A 
ATOM     10  C   UNL     1       4.501   0.666   0.768  1.00  0.00     0.043 A 
ATOM     11  C   UNL     1       5.237   1.075   1.887  1.00  0.00     0.026 A 
ATOM     12  C   UNL     1       5.182   0.250  -0.379  1.00  0.00     0.041 A 
ATOM     13  C   UNL     1       6.631   0.972   1.897  1.00  0.00     0.003 A 
ATOM     14  C   UNL     1       7.300   0.469   0.784  1.00  0.00     0.016 A 
BRANCH  10  15
ATOM     15  N   UNL     1       3.097   0.697   0.864  1.00  0.00    -0.308 N 
ATOM     16  O   UNL     1       0.955   0.322   0.301  1.00  0.00    -0.248 OA
ATOM     17  C   UNL     1       2.137   0.031   0.141  1.00  0.00     0.323 C 
ATOM     18  N   UNL     1       2.586  -1.033  -0.595  1.00  0.00    -0.306 N 
ATOM     19  H   UNL     1       2.745   1.293   1.564  1.00  0.00     0.171 HD
ATOM     20  H   UNL     1       3.492  -1.352  -0.376  1.00  0.00     0.171 HD
BRANCH  18  21
ATOM     21  C   UNL     1       1.924  -1.732  -1.624  1.00  0.00     0.063 A 
ATOM     22  C   UNL     1       2.348  -3.060  -1.806  1.00  0.00     0.049 A 
ATOM     23  C   UNL     1       0.949  -1.212  -2.492  1.00  0.00     0.066 A 
ATOM     24  C   UNL     1       1.761  -3.880  -2.775  1.00  0.00     0.061 A 
ATOM     25  C   UNL     1       0.353  -2.041  -3.453  1.00  0.00     0.044 A 
ATOM     26  Cl  UNL     1       0.543   0.464  -2.601  1.00  0.00    -0.082 Cl
ATOM     27  Cl  UNL     1       2.338  -5.502  -2.913  1.00  0.00    -0.083 Cl
ATOM     28  C   UNL     1       0.746  -3.373  -3.588  1.00  0.00     0.061 A 
ATOM     29  Cl  UNL     1      -0.036  -4.327  -4.797  1.00  0.00    -0.083 Cl
ENDBRANCH  18  21
ENDBRANCH  10  15
ENDBRANCH   7   9
ENDBRANCH   6   7
ENDBRANCH   5   6
ENDBRANCH   4   5
ENDBRANCH   3   4
ENDBRANCH   2   3
ENDBRANCH   1   2
BRANCH   1  30
ATOM     30  O   UNL     1       6.184   3.639  -3.214  1.00  0.00    -0.376 OA
BRANCH  30  31
ATOM     31  C   UNL     1       6.578   4.566  -4.210  1.00  0.00     0.202 C 
BRANCH  31  32
ATOM     32  C   UNL     1       7.381   5.841  -3.924  1.00  0.00     0.261 C 
BRANCH  32  33
ATOM     33  O   UNL     1       8.381   5.750  -2.909  1.00  0.00    -0.460 OA
BRANCH  33  34
ATOM     34  C   UNL     1       8.109   6.448  -1.779  1.00  0.00     0.338 C 
ATOM     35  O   UNL     1       7.108   7.100  -1.535  1.00  0.00    -0.246 OA
BRANCH  34  36
ATOM     36  C   UNL     1       9.150   6.166  -0.778  1.00  0.00     0.060 A 
ATOM     37  C   UNL     1       8.762   5.586   0.437  1.00  0.00     0.016 A 
ATOM     38  C   UNL     1      10.482   6.512  -1.013  1.00  0.00     0.016 A 
ATOM     39  C   UNL     1       9.708   5.377   1.439  1.00  0.00     0.010 A 
ATOM     40  C   UNL     1      11.424   6.318  -0.001  1.00  0.00     0.010 A 
ATOM     41  C   UNL     1      11.035   5.778   1.238  1.00  0.00    -0.014 A 
BRANCH  41  42
ATOM     42  C   UNL     1      11.982   5.787   2.377  1.00  0.00     0.031 A 
ATOM     43  C   UNL     1      12.190   7.072   3.131  1.00  0.00     0.074 A 
ATOM     44  C   UNL     1      12.658   4.679   2.724  1.00  0.00     0.049 A 
ATOM     45  N   UNL     1      12.987   7.321   4.136  1.00  0.00    -0.248 NA
ATOM     46  C   UNL     1      11.394   8.230   2.690  1.00  0.00     0.031 C 
ATOM     47  C   UNL     1      12.544   3.378   2.068  1.00  0.00     0.029 A 
ATOM     48  N   UNL     1      13.601   4.483   3.703  1.00  0.00    -0.354 N 
ATOM     49  C   UNL     1      12.808   8.666   4.434  1.00  0.00     0.074 A 
ATOM     50  C   UNL     1      11.835   9.184   3.496  1.00  0.00     0.031 C 
ATOM     51  C   UNL     1      13.409   2.524   2.643  1.00  0.00     0.029 A 
ATOM     52  C   UNL     1      14.150   3.224   3.692  1.00  0.00     0.049 A 
ATOM     53  H   UNL     1      13.858   5.179   4.350  1.00  0.00     0.167 HD
ATOM     54  C   UNL     1      13.389   9.403   5.410  1.00  0.00     0.034 A 
ATOM     55  C   UNL     1      15.151   2.705   4.431  1.00  0.00     0.034 A 
ATOM     56  C   UNL     1      14.348   8.888   6.348  1.00  0.00     0.049 A 
ATOM     57  C   UNL     1      15.804   3.556   5.492  1.00  0.00     0.074 A 
ATOM     58  C   UNL     1      14.960   9.544   7.400  1.00  0.00     0.029 A 
ATOM     59  N   UNL     1      14.848   7.595   6.337  1.00  0.00    -0.354 N 
ATOM     60  N   UNL     1      15.528   4.787   5.850  1.00  0.00    -0.248 NA
ATOM     61  C   UNL     1      16.884   2.933   6.273  1.00  0.00     0.031 C 
ATOM     62  C   UNL     1      15.846   8.653   8.014  1.00  0.00     0.029 A 
ATOM     63  C   UNL     1      15.769   7.435   7.357  1.00  0.00     0.049 A 
ATOM     64  H   UNL     1      14.586   6.894   5.697  1.00  0.00     0.167 HD
ATOM     65  C   UNL     1      16.372   5.072   6.919  1.00  0.00     0.074 A 
ATOM     66  C   UNL     1      17.156   3.879   7.162  1.00  0.00     0.031 C 
ATOM     67  C   UNL     1      16.498   6.223   7.627  1.00  0.00     0.034 A 
BRANCH  54  68
ATOM     68  C   UNL     1      12.975  10.845   5.530  1.00  0.00     0.023 A 
ATOM     69  C   UNL     1      11.707  11.160   6.059  1.00  0.00     0.012 A 
ATOM     70  C   UNL     1      13.851  11.884   5.164  1.00  0.00     0.148 A 
ATOM     71  C   UNL     1      11.305  12.488   6.194  1.00  0.00     0.002 A 
ATOM     72  C   UNL     1      13.459  13.206   5.340  1.00  0.00     0.091 A 
ATOM     73  F   UNL     1      15.041  11.562   4.638  1.00  0.00    -0.205 F 
ATOM     74  C   UNL     1      12.184  13.509   5.845  1.00  0.00     0.022 A 
BRANCH  72  75
ATOM     75  S   UNL     1      14.547  14.590   4.986  1.00  0.00     0.127 S 
ATOM     76  O   UNL     1      13.957  15.122   3.758  1.00  0.00    -0.237 OA
ATOM     77  O   UNL     1      14.366  15.436   6.166  1.00  0.00    -0.237 OA
ATOM     78  O   UNL     1      15.881  14.024   4.846  1.00  0.00    -0.744 OA
ENDBRANCH  72  75
ENDBRANCH  54  68
BRANCH  55  79
ATOM     79  C   UNL     1      15.576   1.292   4.226  1.00  0.00     0.023 A 
ATOM     80  C   UNL     1      15.309   0.336   5.226  1.00  0.00     0.012 A 
ATOM     81  C   UNL     1      16.235   0.888   3.048  1.00  0.00     0.148 A 
ATOM     82  C   UNL     1      15.717  -0.989   5.070  1.00  0.00     0.002 A 
ATOM     83  C   UNL     1      16.593  -0.444   2.877  1.00  0.00     0.091 A 
ATOM     84  F   UNL     1      16.498   1.817   2.118  1.00  0.00    -0.205 F 
ATOM     85  C   UNL     1      16.349  -1.381   3.893  1.00  0.00     0.022 A 
BRANCH  83  86
ATOM     86  S   UNL     1      17.303  -1.061   1.347  1.00  0.00     0.127 S 
ATOM     87  O   UNL     1      18.684  -1.324   1.743  1.00  0.00    -0.237 OA
ATOM     88  O   UNL     1      16.494  -2.256   1.099  1.00  0.00    -0.237 OA
ATOM     89  O   UNL     1      17.115   0.004   0.371  1.00  0.00    -0.744 OA
ENDBRANCH  83  86
ENDBRANCH  55  79
BRANCH  67  90
ATOM     90  C   UNL     1      17.490   6.247   8.761  1.00  0.00     0.023 A 
ATOM     91  C   UNL     1      18.870   6.293   8.483  1.00  0.00     0.012 A 
ATOM     92  C   UNL     1      17.052   6.309  10.099  1.00  0.00     0.148 A 
ATOM     93  C   UNL     1      19.800   6.372   9.520  1.00  0.00     0.002 A 
ATOM     94  C   UNL     1      17.982   6.435  11.125  1.00  0.00     0.091 A 
ATOM     95  F   UNL     1      15.735   6.244  10.345  1.00  0.00    -0.205 F 
ATOM     96  C   UNL     1      19.356   6.456  10.838  1.00  0.00     0.022 A 
BRANCH  94  97
ATOM     97  S   UNL     1      17.495   6.644  12.842  1.00  0.00     0.127 S 
ATOM     98  O   UNL     1      17.796   5.327  13.400  1.00  0.00    -0.237 OA
ATOM     99  O   UNL     1      18.386   7.715  13.291  1.00  0.00    -0.237 OA
ATOM    100  O   UNL     1      16.084   7.007  12.815  1.00  0.00    -0.744 OA
ENDBRANCH  94  97
ENDBRANCH  67  90
ENDBRANCH  41  42
ENDBRANCH  34  36
ENDBRANCH  33  34
ENDBRANCH  32  33
ENDBRANCH  31  32
ENDBRANCH  30  31
ENDBRANCH   1  30
TORSDOF 22
