REMARK SMILES Cc1nc(S(=O)(=O)N2C[C@@H](C(=O)OCCOCCOCCOC(=O)c3ccc(-c4c5nc(c(-c6cccc(S(=O)(=O)[O-])c6F)c6ccc([nH]6)c(-c6cccc(S(=O)(=O)[O-])c6F)c6nc(c(-c7cccc(S(=O)(=O)[O-])c7F)c7ccc4[nH]7)C=C6)C=C5)cc3)c3ccccc32)cn1C
REMARK SMILES IDX 18 1 17 2 16 3 15 4 14 5 13 6 11 7 12 8 10 9 8 10 9 11 93 12
REMARK SMILES IDX 88 13 92 14 89 15 91 16 90 17 5 18 6 19 7 20 4 21 1 22 2 23
REMARK SMILES IDX 3 24 95 25 94 26 96 27 19 28 20 29 21 30 22 31 23 32 24 33
REMARK SMILES IDX 25 34 26 35 87 36 27 37 86 38 28 39 29 40 30 41 80 42 31 43
REMARK SMILES IDX 85 44 79 45 81 46 32 47 84 48 78 49 77 50 33 52 65 53 45 54
REMARK SMILES IDX 64 55 46 56 49 57 63 58 82 59 47 60 48 61 62 63 83 64 50 65
REMARK SMILES IDX 34 66 35 67 43 68 36 69 38 70 44 71 37 72 39 73 40 74 41 75
REMARK SMILES IDX 42 76 66 77 67 78 75 79 68 80 70 81 76 82 69 83 71 84 72 85
REMARK SMILES IDX 73 86 74 87 51 88 52 89 60 90 53 91 55 92 61 93 54 94 56 95
REMARK SMILES IDX 57 96 58 97 59 98
REMARK H PARENT 81 51 49 62
REMARK Flexibility Score: inf
ROOT
ATOM      1  C   UNL     1       5.483   7.226  -0.755  1.00  0.00     0.188 C 
ENDROOT
BRANCH   1   2
ATOM      2  C   UNL     1       6.419   7.287  -1.960  1.00  0.00     0.188 C 
BRANCH   2   3
ATOM      3  O   UNL     1       5.849   7.553  -3.234  1.00  0.00    -0.376 OA
BRANCH   3   4
ATOM      4  C   UNL     1       4.611   6.949  -3.592  1.00  0.00     0.202 C 
BRANCH   4   5
ATOM      5  C   UNL     1       4.539   5.421  -3.544  1.00  0.00     0.261 C 
BRANCH   5   6
ATOM      6  O   UNL     1       4.394   4.850  -2.214  1.00  0.00    -0.463 OA
BRANCH   6   7
ATOM      7  C   UNL     1       5.284   3.870  -1.922  1.00  0.00     0.315 C 
ATOM      8  O   UNL     1       6.179   3.527  -2.694  1.00  0.00    -0.251 OA
BRANCH   7   9
ATOM      9  C   UNL     1       5.120   3.126  -0.628  1.00  0.00     0.152 C 
ATOM     10  N   UNL     1       4.099   1.110   0.162  1.00  0.00    -0.263 N 
ATOM     11  C   UNL     1       4.725   1.689  -1.041  1.00  0.00     0.156 C 
ATOM     12  C   UNL     1       3.641   2.174   0.982  1.00  0.00     0.056 A 
ATOM     13  C   UNL     1       4.140   3.395   0.497  1.00  0.00    -0.008 A 
ATOM     14  C   UNL     1       2.935   2.076   2.172  1.00  0.00     0.027 A 
ATOM     15  C   UNL     1       3.907   4.543   1.242  1.00  0.00     0.007 A 
ATOM     16  C   UNL     1       2.673   3.242   2.887  1.00  0.00     0.002 A 
ATOM     17  C   UNL     1       3.156   4.468   2.424  1.00  0.00     0.000 A 
BRANCH  10  18
ATOM     18  S   UNL     1       3.343  -0.384   0.072  1.00  0.00     0.283 S 
ATOM     19  O   UNL     1       3.435  -1.011   1.381  1.00  0.00    -0.199 OA
ATOM     20  O   UNL     1       3.801  -1.052  -1.125  1.00  0.00    -0.199 OA
BRANCH  18  21
ATOM     21  C   UNL     1       1.612  -0.215  -0.162  1.00  0.00     0.194 A 
ATOM     22  C   UNL     1      -1.707  -1.623  -0.050  1.00  0.00     0.088 C 
ATOM     23  C   UNL     1      -0.469  -0.809  -0.141  1.00  0.00     0.106 A 
ATOM     24  N   UNL     1       0.751  -1.300  -0.094  1.00  0.00    -0.220 NA
ATOM     25  N   UNL     1      -0.429   0.561  -0.248  1.00  0.00    -0.337 N 
ATOM     26  C   UNL     1       0.883   0.947  -0.326  1.00  0.00     0.129 A 
ATOM     27  C   UNL     1      -1.559   1.457  -0.200  1.00  0.00     0.151 C 
ENDBRANCH  18  21
ENDBRANCH  10  18
ENDBRANCH   7   9
ENDBRANCH   6   7
ENDBRANCH   5   6
ENDBRANCH   4   5
ENDBRANCH   3   4
ENDBRANCH   2   3
ENDBRANCH   1   2
BRANCH   1  28
ATOM     28  O   UNL     1       4.243   7.873  -0.988  1.00  0.00    -0.376 OA
BRANCH  28  29
ATOM     29  C   UNL     1       3.590   8.448   0.134  1.00  0.00     0.202 C 
BRANCH  29  30
ATOM     30  C   UNL     1       4.192   9.819   0.456  1.00  0.00     0.261 C 
BRANCH  30  31
ATOM     31  O   UNL     1       5.508   9.732   1.025  1.00  0.00    -0.460 OA
BRANCH  31  32
ATOM     32  C   UNL     1       5.604   9.059   2.196  1.00  0.00     0.338 C 
ATOM     33  O   UNL     1       4.681   8.661   2.888  1.00  0.00    -0.246 OA
BRANCH  32  34
ATOM     34  C   UNL     1       7.014   8.654   2.370  1.00  0.00     0.060 A 
ATOM     35  C   UNL     1       7.285   7.337   2.768  1.00  0.00     0.016 A 
ATOM     36  C   UNL     1       8.056   9.544   2.095  1.00  0.00     0.016 A 
ATOM     37  C   UNL     1       8.605   6.923   2.943  1.00  0.00     0.010 A 
ATOM     38  C   UNL     1       9.374   9.130   2.277  1.00  0.00     0.010 A 
ATOM     39  C   UNL     1       9.651   7.833   2.738  1.00  0.00    -0.014 A 
BRANCH  39  40
ATOM     40  C   UNL     1      11.021   7.511   3.196  1.00  0.00     0.031 A 
ATOM     41  C   UNL     1      11.447   8.005   4.549  1.00  0.00     0.074 A 
ATOM     42  C   UNL     1      11.881   6.837   2.414  1.00  0.00     0.049 A 
ATOM     43  N   UNL     1      12.603   7.894   5.146  1.00  0.00    -0.248 NA
ATOM     44  C   UNL     1      10.431   8.732   5.331  1.00  0.00     0.031 C 
ATOM     45  C   UNL     1      11.585   6.314   1.082  1.00  0.00     0.029 A 
ATOM     46  N   UNL     1      13.194   6.503   2.626  1.00  0.00    -0.354 N 
ATOM     47  C   UNL     1      12.464   8.556   6.359  1.00  0.00     0.074 A 
ATOM     48  C   UNL     1      11.117   9.080   6.408  1.00  0.00     0.031 C 
ATOM     49  C   UNL     1      12.696   5.741   0.585  1.00  0.00     0.029 A 
ATOM     50  C   UNL     1      13.782   5.877   1.554  1.00  0.00     0.049 A 
ATOM     51  H   UNL     1      13.670   6.695   3.467  1.00  0.00     0.167 HD
ATOM     52  C   UNL     1      13.368   8.700   7.355  1.00  0.00     0.034 A 
ATOM     53  C   UNL     1      15.056   5.473   1.376  1.00  0.00     0.034 A 
ATOM     54  C   UNL     1      14.702   8.169   7.313  1.00  0.00     0.049 A 
ATOM     55  C   UNL     1      16.056   5.673   2.486  1.00  0.00     0.074 A 
ATOM     56  C   UNL     1      15.678   8.215   8.292  1.00  0.00     0.029 A 
ATOM     57  N   UNL     1      15.253   7.509   6.226  1.00  0.00    -0.354 N 
ATOM     58  N   UNL     1      15.875   6.181   3.682  1.00  0.00    -0.248 NA
ATOM     59  C   UNL     1      17.432   5.219   2.231  1.00  0.00     0.031 C 
ATOM     60  C   UNL     1      16.828   7.598   7.787  1.00  0.00     0.029 A 
ATOM     61  C   UNL     1      16.562   7.154   6.501  1.00  0.00     0.049 A 
ATOM     62  H   UNL     1      14.783   7.320   5.382  1.00  0.00     0.167 HD
ATOM     63  C   UNL     1      17.100   6.075   4.334  1.00  0.00     0.074 A 
ATOM     64  C   UNL     1      18.013   5.442   3.403  1.00  0.00     0.031 C 
ATOM     65  C   UNL     1      17.443   6.477   5.583  1.00  0.00     0.034 A 
BRANCH  52  66
ATOM     66  C   UNL     1      12.921   9.443   8.583  1.00  0.00     0.023 A 
ATOM     67  C   UNL     1      12.026   8.824   9.480  1.00  0.00     0.012 A 
ATOM     68  C   UNL     1      13.385  10.743   8.854  1.00  0.00     0.148 A 
ATOM     69  C   UNL     1      11.571   9.503  10.609  1.00  0.00     0.002 A 
ATOM     70  C   UNL     1      12.957  11.398  10.004  1.00  0.00     0.091 A 
ATOM     71  F   UNL     1      14.206  11.329   7.972  1.00  0.00    -0.205 F 
ATOM     72  C   UNL     1      12.043  10.785  10.876  1.00  0.00     0.022 A 
BRANCH  70  73
ATOM     73  S   UNL     1      13.566  13.026  10.454  1.00  0.00     0.127 S 
ATOM     74  O   UNL     1      12.468  13.885  10.016  1.00  0.00    -0.237 OA
ATOM     75  O   UNL     1      13.711  12.916  11.907  1.00  0.00    -0.237 OA
ATOM     76  O   UNL     1      14.823  13.187   9.736  1.00  0.00    -0.744 OA
ENDBRANCH  70  73
ENDBRANCH  52  66
BRANCH  53  77
ATOM     77  C   UNL     1      15.445   4.782   0.115  1.00  0.00     0.023 A 
ATOM     78  C   UNL     1      15.729   3.403   0.147  1.00  0.00     0.012 A 
ATOM     79  C   UNL     1      15.505   5.469  -1.113  1.00  0.00     0.148 A 
ATOM     80  C   UNL     1      16.086   2.724  -1.018  1.00  0.00     0.002 A 
ATOM     81  C   UNL     1      15.815   4.777  -2.278  1.00  0.00     0.091 A 
ATOM     82  F   UNL     1      15.245   6.784  -1.117  1.00  0.00    -0.205 F 
ATOM     83  C   UNL     1      16.119   3.407  -2.231  1.00  0.00     0.022 A 
BRANCH  81  84
ATOM     84  S   UNL     1      15.776   5.545  -3.901  1.00  0.00     0.127 S 
ATOM     85  O   UNL     1      17.185   5.511  -4.283  1.00  0.00    -0.237 OA
ATOM     86  O   UNL     1      14.912   4.628  -4.645  1.00  0.00    -0.237 OA
ATOM     87  O   UNL     1      15.212   6.872  -3.696  1.00  0.00    -0.744 OA
ENDBRANCH  81  84
ENDBRANCH  53  77
BRANCH  65  88
ATOM     88  C   UNL     1      18.857   6.225   6.040  1.00  0.00     0.023 A 
ATOM     89  C   UNL     1      19.904   7.019   5.534  1.00  0.00     0.012 A 
ATOM     90  C   UNL     1      19.134   5.267   7.036  1.00  0.00     0.148 A 
ATOM     91  C   UNL     1      21.210   6.846   5.993  1.00  0.00     0.002 A 
ATOM     92  C   UNL     1      20.430   5.131   7.521  1.00  0.00     0.091 A 
ATOM     93  F   UNL     1      18.127   4.508   7.492  1.00  0.00    -0.205 F 
ATOM     94  C   UNL     1      21.470   5.913   6.994  1.00  0.00     0.022 A 
BRANCH  92  95
ATOM     95  S   UNL     1      20.835   4.024   8.877  1.00  0.00     0.127 S 
ATOM     96  O   UNL     1      21.485   2.919   8.175  1.00  0.00    -0.237 OA
ATOM     97  O   UNL     1      21.733   4.841   9.693  1.00  0.00    -0.237 OA
ATOM     98  O   UNL     1      19.567   3.701   9.519  1.00  0.00    -0.744 OA
ENDBRANCH  92  95
ENDBRANCH  65  88
ENDBRANCH  39  40
ENDBRANCH  32  34
ENDBRANCH  31  32
ENDBRANCH  30  31
ENDBRANCH  29  30
ENDBRANCH  28  29
ENDBRANCH   1  28
TORSDOF 22
