REMARK SMILES CC(C)[C@@H](CNC(=O)[C@@H]1CC[C@@H]2CCCC[C@@H]2[NH2+]1)C(=O)OCCOCCOCCOC(=O)c1ccc(-c2c3nc(c(-c4cccc(S(=O)(=O)[O-])c4F)c4ccc([nH]4)c(-c4cccc(S(=O)(=O)[O-])c4F)c4nc(c(-c5cccc(S(=O)(=O)[O-])c5F)c5ccc2[nH]5)C=C4)C=C3)cc1
REMARK SMILES IDX 25 1 24 2 23 3 22 4 21 5 19 6 20 7 4 8 2 9 1 10 3 11 5 12
REMARK SMILES IDX 6 13 7 14 8 16 9 17 10 18 18 19 11 20 17 21 12 24 16 25
REMARK SMILES IDX 13 26 15 27 14 28 26 29 27 30 28 31 29 32 30 33 31 34 32 35
REMARK SMILES IDX 33 36 34 37 95 38 35 39 94 40 36 41 37 42 38 43 88 44 39 45
REMARK SMILES IDX 93 46 87 47 89 48 40 49 92 50 86 51 85 52 41 54 73 55 53 56
REMARK SMILES IDX 72 57 54 58 57 59 71 60 90 61 55 62 56 63 70 65 91 66 58 67
REMARK SMILES IDX 42 68 43 69 51 70 44 71 46 72 52 73 45 74 47 75 48 76 49 77
REMARK SMILES IDX 50 78 74 79 75 80 83 81 76 82 78 83 84 84 77 85 79 86 80 87
REMARK SMILES IDX 81 88 82 89 59 90 60 91 68 92 61 93 63 94 69 95 62 96 64 97
REMARK SMILES IDX 65 98 66 99 67 100
REMARK H PARENT 6 15 18 22 18 23 89 53 57 64
REMARK Flexibility Score: inf
ROOT
ATOM      1  C   UNL     1      -1.973  -1.251  -5.175  1.00  0.00     0.188 C 
ENDROOT
BRANCH   1   2
ATOM      2  O   UNL     1      -2.522  -0.297  -6.068  1.00  0.00    -0.376 OA
BRANCH   2   3
ATOM      3  C   UNL     1      -2.283   1.088  -5.842  1.00  0.00     0.202 C 
BRANCH   3   4
ATOM      4  C   UNL     1      -2.504   1.672  -4.434  1.00  0.00     0.261 C 
BRANCH   4   5
ATOM      5  O   UNL     1      -1.507   1.355  -3.419  1.00  0.00    -0.463 OA
BRANCH   5   6
ATOM      6  C   UNL     1      -1.923   0.546  -2.411  1.00  0.00     0.311 C 
ATOM      7  O   UNL     1      -3.026   0.003  -2.394  1.00  0.00    -0.252 OA
BRANCH   6   8
ATOM      8  C   UNL     1      -1.023   0.466  -1.172  1.00  0.00     0.121 C 
BRANCH   8   9
ATOM      9  C   UNL     1       0.534   0.581  -1.152  1.00  0.00    -0.001 C 
ATOM     10  C   UNL     1       1.044   0.542   0.310  1.00  0.00     0.008 C 
ATOM     11  C   UNL     1       1.277  -0.545  -1.868  1.00  0.00     0.008 C 
ENDBRANCH   8   9
BRANCH   8  12
ATOM     12  C   UNL     1      -1.670   1.522  -0.273  1.00  0.00     0.131 C 
BRANCH  12  13
ATOM     13  N   UNL     1      -1.345   2.856  -0.751  1.00  0.00    -0.350 N 
ATOM     14  C   UNL     1      -2.166   3.771  -1.341  1.00  0.00     0.278 C 
ATOM     15  H   UNL     1      -0.409   3.135  -0.633  1.00  0.00     0.163 HD
ATOM     16  O   UNL     1      -1.626   4.650  -2.018  1.00  0.00    -0.268 OA
BRANCH  14  17
ATOM     17  C   UNL     1      -3.695   3.661  -1.162  1.00  0.00     0.272 C 
ATOM     18  C   UNL     1      -4.408   4.888  -1.734  1.00  0.00     0.076 C 
ATOM     19  N   UNL     1      -4.109   3.486   0.242  1.00  0.00    -0.333 N 
ATOM     20  C   UNL     1      -4.097   6.144  -0.920  1.00  0.00     0.016 C 
ATOM     21  C   UNL     1      -3.840   4.602   1.139  1.00  0.00     0.186 C 
ATOM     22  H   UNL     1      -3.623   2.667   0.610  1.00  0.00     0.347 HD
ATOM     23  H   UNL     1      -5.125   3.396   0.217  1.00  0.00     0.347 HD
ATOM     24  C   UNL     1      -4.357   5.937   0.581  1.00  0.00     0.048 C 
ATOM     25  C   UNL     1      -2.423   4.642   1.756  1.00  0.00     0.065 C 
ATOM     26  C   UNL     1      -3.802   7.082   1.429  1.00  0.00     0.010 C 
ATOM     27  C   UNL     1      -1.558   5.830   1.355  1.00  0.00     0.006 C 
ATOM     28  C   UNL     1      -2.278   7.177   1.381  1.00  0.00     0.001 C 
ENDBRANCH  14  17
ENDBRANCH  12  13
ENDBRANCH   8  12
ENDBRANCH   6   8
ENDBRANCH   5   6
ENDBRANCH   4   5
ENDBRANCH   3   4
ENDBRANCH   2   3
ENDBRANCH   1   2
BRANCH   1  29
ATOM     29  C   UNL     1      -0.544  -1.040  -4.688  1.00  0.00     0.188 C 
BRANCH  29  30
ATOM     30  O   UNL     1       0.132   0.040  -5.297  1.00  0.00    -0.376 OA
BRANCH  30  31
ATOM     31  C   UNL     1       1.412  -0.185  -5.863  1.00  0.00     0.202 C 
BRANCH  31  32
ATOM     32  C   UNL     1       1.451  -1.253  -6.965  1.00  0.00     0.261 C 
BRANCH  32  33
ATOM     33  O   UNL     1       1.150  -2.597  -6.535  1.00  0.00    -0.460 OA
BRANCH  33  34
ATOM     34  C   UNL     1       1.877  -3.102  -5.508  1.00  0.00     0.338 C 
ATOM     35  O   UNL     1       2.884  -2.614  -5.018  1.00  0.00    -0.246 OA
BRANCH  34  36
ATOM     36  C   UNL     1       1.081  -4.183  -4.870  1.00  0.00     0.060 A 
ATOM     37  C   UNL     1       0.915  -4.153  -3.476  1.00  0.00     0.016 A 
ATOM     38  C   UNL     1       0.449  -5.169  -5.628  1.00  0.00     0.016 A 
ATOM     39  C   UNL     1       0.178  -5.145  -2.830  1.00  0.00     0.010 A 
ATOM     40  C   UNL     1      -0.270  -6.178  -4.979  1.00  0.00     0.010 A 
ATOM     41  C   UNL     1      -0.361  -6.201  -3.574  1.00  0.00    -0.014 A 
BRANCH  41  42
ATOM     42  C   UNL     1      -0.745  -7.455  -2.877  1.00  0.00     0.031 A 
ATOM     43  C   UNL     1       0.261  -8.578  -2.868  1.00  0.00     0.074 A 
ATOM     44  C   UNL     1      -1.921  -7.599  -2.239  1.00  0.00     0.049 A 
ATOM     45  N   UNL     1       0.161  -9.783  -2.372  1.00  0.00    -0.248 NA
ATOM     46  C   UNL     1       1.557  -8.300  -3.512  1.00  0.00     0.031 C 
ATOM     47  C   UNL     1      -2.966  -6.583  -2.141  1.00  0.00     0.029 A 
ATOM     48  N   UNL     1      -2.435  -8.680  -1.566  1.00  0.00    -0.354 N 
ATOM     49  C   UNL     1       1.359 -10.417  -2.680  1.00  0.00     0.074 A 
ATOM     50  C   UNL     1       2.166  -9.471  -3.417  1.00  0.00     0.031 C 
ATOM     51  C   UNL     1      -4.011  -7.100  -1.469  1.00  0.00     0.029 A 
ATOM     52  C   UNL     1      -3.720  -8.489  -1.115  1.00  0.00     0.049 A 
ATOM     53  H   UNL     1      -1.931  -9.513  -1.420  1.00  0.00     0.167 HD
ATOM     54  C   UNL     1       1.765 -11.669  -2.368  1.00  0.00     0.034 A 
ATOM     55  C   UNL     1      -4.568  -9.346  -0.510  1.00  0.00     0.034 A 
ATOM     56  C   UNL     1       0.976 -12.605  -1.617  1.00  0.00     0.049 A 
ATOM     57  C   UNL     1      -4.105 -10.750  -0.202  1.00  0.00     0.074 A 
ATOM     58  C   UNL     1       1.309 -13.889  -1.223  1.00  0.00     0.029 A 
ATOM     59  N   UNL     1      -0.308 -12.365  -1.155  1.00  0.00    -0.354 N 
ATOM     60  N   UNL     1      -2.939 -11.307  -0.423  1.00  0.00    -0.248 NA
ATOM     61  C   UNL     1      -5.069 -11.633   0.473  1.00  0.00     0.031 C 
ATOM     62  C   UNL     1       0.212 -14.437  -0.551  1.00  0.00     0.029 A 
ATOM     63  C   UNL     1      -0.786 -13.478  -0.486  1.00  0.00     0.049 A 
ATOM     64  H   UNL     1      -0.806 -11.525  -1.283  1.00  0.00     0.167 HD
ATOM     65  C   UNL     1      -3.015 -12.586   0.122  1.00  0.00     0.074 A 
ATOM     66  C   UNL     1      -4.335 -12.712   0.704  1.00  0.00     0.031 C 
ATOM     67  C   UNL     1      -2.083 -13.572   0.133  1.00  0.00     0.034 A 
BRANCH  54  68
ATOM     68  C   UNL     1       3.130 -12.095  -2.841  1.00  0.00     0.023 A 
ATOM     69  C   UNL     1       4.285 -11.541  -2.251  1.00  0.00     0.012 A 
ATOM     70  C   UNL     1       3.267 -13.067  -3.850  1.00  0.00     0.148 A 
ATOM     71  C   UNL     1       5.555 -11.920  -2.685  1.00  0.00     0.002 A 
ATOM     72  C   UNL     1       4.535 -13.478  -4.241  1.00  0.00     0.091 A 
ATOM     73  F   UNL     1       2.157 -13.562  -4.416  1.00  0.00    -0.205 F 
ATOM     74  C   UNL     1       5.679 -12.896  -3.671  1.00  0.00     0.022 A 
BRANCH  72  75
ATOM     75  S   UNL     1       4.801 -14.785  -5.443  1.00  0.00     0.127 S 
ATOM     76  O   UNL     1       5.370 -14.041  -6.566  1.00  0.00    -0.237 OA
ATOM     77  O   UNL     1       5.750 -15.653  -4.744  1.00  0.00    -0.237 OA
ATOM     78  O   UNL     1       3.496 -15.380  -5.687  1.00  0.00    -0.744 OA
ENDBRANCH  72  75
ENDBRANCH  54  68
BRANCH  55  79
ATOM     79  C   UNL     1      -5.943  -8.907  -0.132  1.00  0.00     0.023 A 
ATOM     80  C   UNL     1      -6.295  -8.806   1.229  1.00  0.00     0.012 A 
ATOM     81  C   UNL     1      -6.908  -8.609  -1.113  1.00  0.00     0.148 A 
ATOM     82  C   UNL     1      -7.593  -8.454   1.604  1.00  0.00     0.002 A 
ATOM     83  C   UNL     1      -8.182  -8.203  -0.732  1.00  0.00     0.091 A 
ATOM     84  F   UNL     1      -6.560  -8.730  -2.402  1.00  0.00    -0.205 F 
ATOM     85  C   UNL     1      -8.533  -8.144   0.625  1.00  0.00     0.022 A 
BRANCH  83  86
ATOM     86  S   UNL     1      -9.421  -7.672  -1.919  1.00  0.00     0.127 S 
ATOM     87  O   UNL     1     -10.419  -8.733  -1.804  1.00  0.00    -0.237 OA
ATOM     88  O   UNL     1      -9.828  -6.380  -1.366  1.00  0.00    -0.237 OA
ATOM     89  O   UNL     1      -8.732  -7.591  -3.199  1.00  0.00    -0.744 OA
ENDBRANCH  83  86
ENDBRANCH  55  79
BRANCH  67  90
ATOM     90  C   UNL     1      -2.427 -14.857   0.845  1.00  0.00     0.023 A 
ATOM     91  C   UNL     1      -3.393 -15.730   0.307  1.00  0.00     0.012 A 
ATOM     92  C   UNL     1      -1.748 -15.223   2.025  1.00  0.00     0.148 A 
ATOM     93  C   UNL     1      -3.714 -16.922   0.959  1.00  0.00     0.002 A 
ATOM     94  C   UNL     1      -2.032 -16.438   2.638  1.00  0.00     0.091 A 
ATOM     95  F   UNL     1      -0.842 -14.375   2.532  1.00  0.00    -0.205 F 
ATOM     96  C   UNL     1      -3.027 -17.280   2.116  1.00  0.00     0.022 A 
BRANCH  94  97
ATOM     97  S   UNL     1      -1.125 -17.025   4.072  1.00  0.00     0.127 S 
ATOM     98  O   UNL     1      -2.106 -16.843   5.141  1.00  0.00    -0.237 OA
ATOM     99  O   UNL     1      -0.857 -18.420   3.721  1.00  0.00    -0.237 OA
ATOM    100  O   UNL     1       0.064 -16.189   4.164  1.00  0.00    -0.744 OA
ENDBRANCH  94  97
ENDBRANCH  67  90
ENDBRANCH  41  42
ENDBRANCH  34  36
ENDBRANCH  33  34
ENDBRANCH  32  33
ENDBRANCH  31  32
ENDBRANCH  30  31
ENDBRANCH  29  30
ENDBRANCH   1  29
TORSDOF 24
