REMARK SMILES Cc1ccc(-c2[nH]c3ccccc3c2[C@@H]2c3ccccc3C(=O)N2[C@H](C)C(=O)OCCOCCOCCOC(=O)c2ccc(-c3c4nc(c(-c5cccc(S(=O)(=O)[O-])c5F)c5ccc([nH]5)c(-c5cccc(S(=O)(=O)[O-])c5F)c5nc(c(-c6cccc(S(=O)(=O)[O-])c6F)c6ccc3[nH]6)C=C5)C=C4)cc2)cc1
REMARK SMILES IDX 33 1 32 2 31 3 30 4 29 5 27 6 28 7 25 8 26 9 24 10 15 11
REMARK SMILES IDX 16 12 17 13 21 14 22 15 18 16 20 17 23 18 19 19 14 20 6 21
REMARK SMILES IDX 7 22 8 23 13 25 9 26 12 27 10 28 11 29 5 30 1 31 2 32 3 33
REMARK SMILES IDX 105 34 4 35 104 36 34 37 35 38 36 39 37 40 38 41 39 42 40 43
REMARK SMILES IDX 41 44 42 45 103 46 43 47 102 48 44 49 45 50 46 51 96 52
REMARK SMILES IDX 47 53 101 54 95 55 97 56 48 57 100 58 94 59 93 60 49 62
REMARK SMILES IDX 81 63 61 64 80 65 62 66 65 67 79 68 98 69 63 70 64 71 78 73
REMARK SMILES IDX 99 74 66 75 50 76 51 77 59 78 52 79 54 80 60 81 53 82 55 83
REMARK SMILES IDX 56 84 57 85 58 86 82 87 83 88 91 89 84 90 86 91 92 92 85 93
REMARK SMILES IDX 87 94 88 95 89 96 90 97 67 98 68 99 76 100 69 101 71 102
REMARK SMILES IDX 77 103 70 104 72 105 73 106 74 107 75 108
REMARK H PARENT 7 24 97 61 65 72
REMARK Flexibility Score: inf
ROOT
ATOM      1  C   UNL     1      -6.274  -5.910   5.002  1.00  0.00     0.188 C 
ENDROOT
BRANCH   1   2
ATOM      2  O   UNL     1      -6.766  -5.585   3.699  1.00  0.00    -0.376 OA
BRANCH   2   3
ATOM      3  C   UNL     1      -6.133  -5.592   2.405  1.00  0.00     0.202 C 
BRANCH   3   4
ATOM      4  C   UNL     1      -5.181  -4.452   1.469  1.00  0.00     0.261 C 
BRANCH   4   5
ATOM      5  O   UNL     1      -4.788  -2.782   1.869  1.00  0.00    -0.462 OA
BRANCH   5   6
ATOM      6  C   UNL     1      -4.963  -1.379   1.705  1.00  0.00     0.328 C 
ATOM      7  O   UNL     1      -5.534  -0.840   0.754  1.00  0.00    -0.250 OA
BRANCH   6   8
ATOM      8  C   UNL     1      -4.631  -0.383   2.875  1.00  0.00     0.193 C 
ATOM      9  C   UNL     1      -3.483  -0.719   3.824  1.00  0.00     0.044 C 
BRANCH   8  10
ATOM     10  N   UNL     1      -4.401   1.032   2.488  1.00  0.00    -0.314 N 
ATOM     11  C   UNL     1      -4.083   1.635   1.177  1.00  0.00     0.151 C 
ATOM     12  C   UNL     1      -3.320   2.875   1.617  1.00  0.00    -0.008 A 
ATOM     13  C   UNL     1      -3.301   4.182   1.167  1.00  0.00     0.007 A 
ATOM     14  C   UNL     1      -3.033   2.758   2.968  1.00  0.00     0.045 A 
ATOM     15  C   UNL     1      -4.050   1.883   3.514  1.00  0.00     0.255 C 
ATOM     16  C   UNL     1      -2.793   5.198   2.025  1.00  0.00     0.000 A 
ATOM     17  C   UNL     1      -2.348   3.637   3.780  1.00  0.00     0.014 A 
ATOM     18  O   UNL     1      -4.376   1.909   4.673  1.00  0.00    -0.269 OA
ATOM     19  C   UNL     1      -2.235   4.911   3.286  1.00  0.00     0.001 A 
BRANCH  11  20
ATOM     20  C   UNL     1      -3.274   0.729   0.250  1.00  0.00     0.013 A 
ATOM     21  C   UNL     1      -3.612   0.494  -1.091  1.00  0.00     0.052 A 
ATOM     22  N   UNL     1      -3.221  -0.794  -1.393  1.00  0.00    -0.354 N 
ATOM     23  C   UNL     1      -2.458  -1.316  -0.379  1.00  0.00     0.046 A 
ATOM     24  H   UNL     1      -3.457  -1.272  -2.220  1.00  0.00     0.167 HD
ATOM     25  C   UNL     1      -2.293  -0.292   0.560  1.00  0.00     0.006 A 
ATOM     26  C   UNL     1      -1.942  -2.611  -0.207  1.00  0.00     0.027 A 
ATOM     27  C   UNL     1      -1.410  -0.544   1.627  1.00  0.00     0.011 A 
ATOM     28  C   UNL     1      -1.170  -2.857   0.930  1.00  0.00     0.002 A 
ATOM     29  C   UNL     1      -0.871  -1.826   1.814  1.00  0.00     0.001 A 
BRANCH  21  30
ATOM     30  C   UNL     1      -4.442   1.266  -2.010  1.00  0.00    -0.002 A 
ATOM     31  C   UNL     1      -6.920   3.602  -4.655  1.00  0.00     0.044 C 
ATOM     32  C   UNL     1      -6.041   2.798  -3.749  1.00  0.00    -0.051 A 
ATOM     33  C   UNL     1      -4.925   3.366  -3.127  1.00  0.00     0.004 A 
ATOM     34  C   UNL     1      -6.334   1.456  -3.512  1.00  0.00     0.004 A 
ATOM     35  C   UNL     1      -4.134   2.605  -2.262  1.00  0.00     0.010 A 
ATOM     36  C   UNL     1      -5.529   0.694  -2.669  1.00  0.00     0.010 A 
ENDBRANCH  21  30
ENDBRANCH  11  20
ENDBRANCH   8  10
ENDBRANCH   6   8
ENDBRANCH   5   6
ENDBRANCH   4   5
ENDBRANCH   3   4
ENDBRANCH   2   3
ENDBRANCH   1   2
BRANCH   1  37
ATOM     37  C   UNL     1      -4.999  -6.693   5.227  1.00  0.00     0.188 C 
BRANCH  37  38
ATOM     38  O   UNL     1      -4.075  -6.363   4.218  1.00  0.00    -0.376 OA
BRANCH  38  39
ATOM     39  C   UNL     1      -2.773  -6.884   4.355  1.00  0.00     0.202 C 
BRANCH  39  40
ATOM     40  C   UNL     1      -2.027  -6.512   5.660  1.00  0.00     0.261 C 
BRANCH  40  41
ATOM     41  O   UNL     1      -1.796  -5.084   5.821  1.00  0.00    -0.460 OA
BRANCH  41  42
ATOM     42  C   UNL     1      -2.563  -4.371   6.733  1.00  0.00     0.338 C 
ATOM     43  O   UNL     1      -2.538  -4.583   7.931  1.00  0.00    -0.246 OA
BRANCH  42  44
ATOM     44  C   UNL     1      -3.537  -3.476   6.005  1.00  0.00     0.060 A 
ATOM     45  C   UNL     1      -4.671  -2.766   6.436  1.00  0.00     0.016 A 
ATOM     46  C   UNL     1      -3.478  -3.626   4.678  1.00  0.00     0.016 A 
ATOM     47  C   UNL     1      -5.801  -2.413   5.515  1.00  0.00     0.010 A 
ATOM     48  C   UNL     1      -4.683  -3.549   3.988  1.00  0.00     0.010 A 
ATOM     49  C   UNL     1      -5.907  -2.885   4.196  1.00  0.00    -0.014 A 
BRANCH  49  50
ATOM     50  C   UNL     1      -7.262  -2.898   3.159  1.00  0.00     0.031 A 
ATOM     51  C   UNL     1      -7.606  -2.618   1.505  1.00  0.00     0.074 A 
ATOM     52  C   UNL     1      -8.371  -3.394   3.760  1.00  0.00     0.049 A 
ATOM     53  N   UNL     1      -8.757  -2.139   1.042  1.00  0.00    -0.248 NA
ATOM     54  C   UNL     1      -6.769  -2.821   0.282  1.00  0.00     0.031 C 
ATOM     55  C   UNL     1      -9.664  -3.785   3.192  1.00  0.00     0.029 A 
ATOM     56  N   UNL     1      -8.538  -3.650   5.124  1.00  0.00    -0.354 N 
ATOM     57  C   UNL     1      -8.684  -1.972  -0.366  1.00  0.00     0.074 A 
ATOM     58  C   UNL     1      -7.369  -2.207  -0.712  1.00  0.00     0.031 C 
ATOM     59  C   UNL     1     -10.556  -3.894   4.194  1.00  0.00     0.029 A 
ATOM     60  C   UNL     1      -9.888  -3.451   5.406  1.00  0.00     0.049 A 
ATOM     61  H   UNL     1      -7.838  -3.919   5.761  1.00  0.00     0.167 HD
ATOM     62  C   UNL     1      -9.664  -1.691  -1.264  1.00  0.00     0.034 A 
ATOM     63  C   UNL     1     -10.238  -2.400   6.197  1.00  0.00     0.034 A 
ATOM     64  C   UNL     1     -10.894  -1.584  -0.522  1.00  0.00     0.049 A 
ATOM     65  C   UNL     1     -11.091  -1.415   5.422  1.00  0.00     0.074 A 
ATOM     66  C   UNL     1     -11.789  -2.564  -0.141  1.00  0.00     0.029 A 
ATOM     67  N   UNL     1     -11.042  -0.523   0.366  1.00  0.00    -0.354 N 
ATOM     68  N   UNL     1     -11.166  -1.349   4.116  1.00  0.00    -0.248 NA
ATOM     69  C   UNL     1     -11.984  -0.475   6.083  1.00  0.00     0.031 C 
ATOM     70  C   UNL     1     -12.345  -2.156   1.102  1.00  0.00     0.029 A 
ATOM     71  C   UNL     1     -11.890  -0.880   1.403  1.00  0.00     0.049 A 
ATOM     72  H   UNL     1     -10.606   0.355   0.272  1.00  0.00     0.167 HD
ATOM     73  C   UNL     1     -12.017  -0.340   3.756  1.00  0.00     0.074 A 
ATOM     74  C   UNL     1     -12.544   0.135   5.027  1.00  0.00     0.031 C 
ATOM     75  C   UNL     1     -12.223   0.065   2.463  1.00  0.00     0.034 A 
BRANCH  62  76
ATOM     76  C   UNL     1      -9.485  -1.583  -2.822  1.00  0.00     0.023 A 
ATOM     77  C   UNL     1     -10.575  -1.090  -3.566  1.00  0.00     0.012 A 
ATOM     78  C   UNL     1      -8.338  -1.910  -3.631  1.00  0.00     0.148 A 
ATOM     79  C   UNL     1     -10.516  -0.880  -4.965  1.00  0.00     0.002 A 
ATOM     80  C   UNL     1      -8.230  -1.567  -4.992  1.00  0.00     0.091 A 
ATOM     81  F   UNL     1      -7.375  -2.717  -3.168  1.00  0.00    -0.205 F 
ATOM     82  C   UNL     1      -9.332  -1.066  -5.670  1.00  0.00     0.022 A 
BRANCH  80  83
ATOM     83  S   UNL     1      -6.649  -1.641  -5.888  1.00  0.00     0.127 S 
ATOM     84  O   UNL     1      -6.798  -2.843  -6.705  1.00  0.00    -0.237 OA
ATOM     85  O   UNL     1      -6.651  -0.389  -6.646  1.00  0.00    -0.237 OA
ATOM     86  O   UNL     1      -5.615  -1.716  -4.858  1.00  0.00    -0.744 OA
ENDBRANCH  80  83
ENDBRANCH  62  76
BRANCH  63  87
ATOM     87  C   UNL     1      -9.252  -2.093   7.302  1.00  0.00     0.023 A 
ATOM     88  C   UNL     1      -8.759  -3.193   8.067  1.00  0.00     0.012 A 
ATOM     89  C   UNL     1      -8.596  -0.863   7.454  1.00  0.00     0.148 A 
ATOM     90  C   UNL     1      -7.602  -3.106   8.847  1.00  0.00     0.002 A 
ATOM     91  C   UNL     1      -7.438  -0.779   8.246  1.00  0.00     0.091 A 
ATOM     92  F   UNL     1      -9.053   0.204   6.786  1.00  0.00    -0.205 F 
ATOM     93  C   UNL     1      -6.934  -1.896   8.931  1.00  0.00     0.022 A 
BRANCH  91  94
ATOM     94  S   UNL     1      -6.403   0.695   8.181  1.00  0.00     0.127 S 
ATOM     95  O   UNL     1      -5.094   0.197   8.615  1.00  0.00    -0.237 OA
ATOM     96  O   UNL     1      -6.476   1.073   6.781  1.00  0.00    -0.237 OA
ATOM     97  O   UNL     1      -7.069   1.570   9.140  1.00  0.00    -0.744 OA
ENDBRANCH  91  94
ENDBRANCH  63  87
BRANCH  75  98
ATOM     98  C   UNL     1     -12.840   1.404   2.102  1.00  0.00     0.023 A 
ATOM     99  C   UNL     1     -12.868   2.474   3.019  1.00  0.00     0.012 A 
ATOM    100  C   UNL     1     -13.277   1.694   0.785  1.00  0.00     0.148 A 
ATOM    101  C   UNL     1     -13.414   3.718   2.697  1.00  0.00     0.002 A 
ATOM    102  C   UNL     1     -13.678   2.978   0.429  1.00  0.00     0.091 A 
ATOM    103  F   UNL     1     -13.328   0.727  -0.142  1.00  0.00    -0.205 F 
ATOM    104  C   UNL     1     -13.801   3.979   1.393  1.00  0.00     0.022 A 
BRANCH 102 105
ATOM    105  S   UNL     1     -13.865   3.422  -1.303  1.00  0.00     0.127 S 
ATOM    106  O   UNL     1     -15.267   3.102  -1.556  1.00  0.00    -0.237 OA
ATOM    107  O   UNL     1     -13.559   4.854  -1.301  1.00  0.00    -0.237 OA
ATOM    108  O   UNL     1     -12.878   2.607  -2.003  1.00  0.00    -0.744 OA
ENDBRANCH 102 105
ENDBRANCH  75  98
ENDBRANCH  49  50
ENDBRANCH  42  44
ENDBRANCH  41  42
ENDBRANCH  40  41
ENDBRANCH  39  40
ENDBRANCH  38  39
ENDBRANCH  37  38
ENDBRANCH   1  37
TORSDOF 23
