REMARK SMILES Cc1ccc(C(=O)OCCOCCOCCOC(=O)c2ccc(-c3c4nc(c(-c5cccc(S(=O)(=O)[O-])c5F)c5ccc([nH]5)c(-c5cccc(S(=O)(=O)[O-])c5F)c5nc(c(-c6cccc(S(=O)(=O)[O-])c6F)c6ccc3[nH]6)C=C5)C=C4)cc2)c2c1N[C@H](c1ccccc1F)[C@H]1CC=C[C@@H]21
REMARK SMILES IDX 13 1 12 2 11 3 10 4 9 5 8 6 6 7 7 8 5 9 1 10 2 11 3 12 84 13
REMARK SMILES IDX 4 14 83 15 85 16 98 17 86 18 94 20 97 21 95 22 96 23 87 24
REMARK SMILES IDX 88 25 92 26 89 27 91 28 93 29 90 30 14 31 15 32 16 33 17 34
REMARK SMILES IDX 18 35 19 36 20 37 21 38 82 39 22 40 81 41 23 42 24 43 25 44
REMARK SMILES IDX 75 45 26 46 80 47 74 48 76 49 27 50 79 51 73 52 72 53 28 55
REMARK SMILES IDX 60 56 40 57 59 58 41 59 44 60 58 61 77 62 42 63 43 64 57 66
REMARK SMILES IDX 78 67 45 68 29 69 30 70 38 71 31 72 33 73 39 74 32 75 34 76
REMARK SMILES IDX 35 77 36 78 37 79 61 80 62 81 70 82 63 83 65 84 71 85 64 86
REMARK SMILES IDX 66 87 67 88 68 89 69 90 46 91 47 92 55 93 48 94 50 95 56 96
REMARK SMILES IDX 49 97 51 98 52 99 53 100 54 101
REMARK H PARENT 85 19 76 54 44 65
REMARK Flexibility Score: inf
ROOT
ATOM      1  C   UNL     1       0.684   2.868   5.837  1.00  0.00     0.188 C 
ENDROOT
BRANCH   1   2
ATOM      2  C   UNL     1       0.695   4.410   5.839  1.00  0.00     0.188 C 
BRANCH   2   3
ATOM      3  O   UNL     1      -0.336   5.004   6.619  1.00  0.00    -0.376 OA
BRANCH   3   4
ATOM      4  C   UNL     1      -1.354   5.665   5.877  1.00  0.00     0.202 C 
BRANCH   4   5
ATOM      5  C   UNL     1      -2.359   4.690   5.266  1.00  0.00     0.261 C 
BRANCH   5   6
ATOM      6  O   UNL     1      -1.761   3.795   4.313  1.00  0.00    -0.460 OA
BRANCH   6   7
ATOM      7  C   UNL     1      -1.533   4.281   3.070  1.00  0.00     0.338 C 
ATOM      8  O   UNL     1      -1.842   5.388   2.673  1.00  0.00    -0.246 OA
BRANCH   7   9
ATOM      9  C   UNL     1      -0.840   3.222   2.282  1.00  0.00     0.065 A 
ATOM     10  C   UNL     1       0.909  -0.081   0.127  1.00  0.00     0.046 C 
ATOM     11  C   UNL     1       0.342   1.089   0.890  1.00  0.00    -0.028 A 
ATOM     12  C   UNL     1      -0.848   0.897   1.604  1.00  0.00     0.006 A 
ATOM     13  C   UNL     1       0.964   2.361   0.874  1.00  0.00     0.042 A 
ATOM     14  C   UNL     1      -1.436   1.953   2.288  1.00  0.00     0.016 A 
ATOM     15  C   UNL     1       0.378   3.438   1.589  1.00  0.00    -0.003 A 
ATOM     16  N   UNL     1       2.167   2.531   0.198  1.00  0.00    -0.377 N 
ATOM     17  C   UNL     1       1.141   4.740   1.718  1.00  0.00     0.050 C 
ATOM     18  C   UNL     1       2.656   3.871  -0.104  1.00  0.00     0.117 C 
ATOM     19  H   UNL     1       2.690   1.744  -0.077  1.00  0.00     0.161 HD
ATOM     20  C   UNL     1       2.594   4.710   1.186  1.00  0.00     0.031 C 
ATOM     21  C   UNL     1       0.593   5.942   1.002  1.00  0.00    -0.023 C 
ATOM     22  C   UNL     1       2.918   6.193   0.939  1.00  0.00     0.034 C 
ATOM     23  C   UNL     1       1.576   6.761   0.611  1.00  0.00    -0.030 C 
BRANCH  18  24
ATOM     24  C   UNL     1       3.993   3.763  -0.825  1.00  0.00     0.010 A 
ATOM     25  C   UNL     1       3.997   3.413  -2.190  1.00  0.00     0.009 A 
ATOM     26  C   UNL     1       5.230   4.027  -0.226  1.00  0.00     0.128 A 
ATOM     27  C   UNL     1       5.187   3.373  -2.924  1.00  0.00     0.001 A 
ATOM     28  C   UNL     1       6.419   4.000  -0.953  1.00  0.00     0.039 A 
ATOM     29  F   UNL     1       5.307   4.341   1.072  1.00  0.00    -0.207 F 
ATOM     30  C   UNL     1       6.398   3.678  -2.307  1.00  0.00     0.003 A 
ENDBRANCH  18  24
ENDBRANCH   7   9
ENDBRANCH   6   7
ENDBRANCH   5   6
ENDBRANCH   4   5
ENDBRANCH   3   4
ENDBRANCH   2   3
ENDBRANCH   1   2
BRANCH   1  31
ATOM     31  O   UNL     1       0.062   2.162   6.905  1.00  0.00    -0.376 OA
BRANCH  31  32
ATOM     32  C   UNL     1       0.222   2.653   8.228  1.00  0.00     0.202 C 
BRANCH  32  33
ATOM     33  C   UNL     1       1.638   2.683   8.813  1.00  0.00     0.261 C 
BRANCH  33  34
ATOM     34  O   UNL     1       2.581   3.435   8.031  1.00  0.00    -0.460 OA
BRANCH  34  35
ATOM     35  C   UNL     1       3.610   2.718   7.517  1.00  0.00     0.338 C 
ATOM     36  O   UNL     1       3.834   1.530   7.674  1.00  0.00    -0.246 OA
BRANCH  35  37
ATOM     37  C   UNL     1       4.389   3.552   6.582  1.00  0.00     0.060 A 
ATOM     38  C   UNL     1       4.357   3.224   5.223  1.00  0.00     0.016 A 
ATOM     39  C   UNL     1       5.236   4.560   7.048  1.00  0.00     0.016 A 
ATOM     40  C   UNL     1       5.190   3.888   4.327  1.00  0.00     0.010 A 
ATOM     41  C   UNL     1       6.094   5.206   6.148  1.00  0.00     0.010 A 
ATOM     42  C   UNL     1       6.094   4.853   4.788  1.00  0.00    -0.014 A 
BRANCH  42  43
ATOM     43  C   UNL     1       7.160   5.330   3.874  1.00  0.00     0.031 A 
ATOM     44  C   UNL     1       8.410   4.505   3.736  1.00  0.00     0.074 A 
ATOM     45  C   UNL     1       7.012   6.451   3.148  1.00  0.00     0.049 A 
ATOM     46  N   UNL     1       9.467   4.727   3.000  1.00  0.00    -0.248 NA
ATOM     47  C   UNL     1       8.474   3.264   4.527  1.00  0.00     0.031 C 
ATOM     48  C   UNL     1       5.835   7.315   3.161  1.00  0.00     0.029 A 
ATOM     49  N   UNL     1       7.865   7.054   2.256  1.00  0.00    -0.354 N 
ATOM     50  C   UNL     1      10.333   3.673   3.261  1.00  0.00     0.074 A 
ATOM     51  C   UNL     1       9.671   2.797   4.202  1.00  0.00     0.031 C 
ATOM     52  C   UNL     1       6.039   8.341   2.316  1.00  0.00     0.029 A 
ATOM     53  C   UNL     1       7.373   8.224   1.728  1.00  0.00     0.049 A 
ATOM     54  H   UNL     1       8.745   6.684   2.017  1.00  0.00     0.167 HD
ATOM     55  C   UNL     1      11.571   3.454   2.765  1.00  0.00     0.034 A 
ATOM     56  C   UNL     1       7.942   9.110   0.885  1.00  0.00     0.034 A 
ATOM     57  C   UNL     1      12.236   4.316   1.831  1.00  0.00     0.049 A 
ATOM     58  C   UNL     1       9.338   8.862   0.376  1.00  0.00     0.074 A 
ATOM     59  C   UNL     1      13.492   4.165   1.272  1.00  0.00     0.029 A 
ATOM     60  N   UNL     1      11.710   5.495   1.331  1.00  0.00    -0.354 N 
ATOM     61  N   UNL     1      10.115   7.825   0.574  1.00  0.00    -0.248 NA
ATOM     62  C   UNL     1       9.936   9.903  -0.476  1.00  0.00     0.031 C 
ATOM     63  C   UNL     1      13.731   5.261   0.439  1.00  0.00     0.029 A 
ATOM     64  C   UNL     1      12.619   6.087   0.474  1.00  0.00     0.049 A 
ATOM     65  H   UNL     1      10.822   5.857   1.553  1.00  0.00     0.167 HD
ATOM     66  C   UNL     1      11.287   8.085  -0.129  1.00  0.00     0.074 A 
ATOM     67  C   UNL     1      11.111   9.365  -0.782  1.00  0.00     0.031 C 
ATOM     68  C   UNL     1      12.415   7.338  -0.207  1.00  0.00     0.034 A 
BRANCH  55  69
ATOM     69  C   UNL     1      12.297   2.222   3.217  1.00  0.00     0.023 A 
ATOM     70  C   UNL     1      12.021   0.991   2.592  1.00  0.00     0.012 A 
ATOM     71  C   UNL     1      13.307   2.301   4.194  1.00  0.00     0.148 A 
ATOM     72  C   UNL     1      12.741  -0.150   2.938  1.00  0.00     0.002 A 
ATOM     73  C   UNL     1      14.038   1.165   4.514  1.00  0.00     0.091 A 
ATOM     74  F   UNL     1      13.533   3.485   4.782  1.00  0.00    -0.205 F 
ATOM     75  C   UNL     1      13.754  -0.061   3.890  1.00  0.00     0.022 A 
BRANCH  73  76
ATOM     76  S   UNL     1      15.393   1.182   5.691  1.00  0.00     0.127 S 
ATOM     77  O   UNL     1      14.893   0.281   6.730  1.00  0.00    -0.237 OA
ATOM     78  O   UNL     1      16.495   0.643   4.894  1.00  0.00    -0.237 OA
ATOM     79  O   UNL     1      15.554   2.568   6.105  1.00  0.00    -0.744 OA
ENDBRANCH  73  76
ENDBRANCH  55  69
BRANCH  56  80
ATOM     80  C   UNL     1       7.183  10.317   0.459  1.00  0.00     0.023 A 
ATOM     81  C   UNL     1       6.694  10.398  -0.859  1.00  0.00     0.012 A 
ATOM     82  C   UNL     1       6.918  11.367   1.359  1.00  0.00     0.148 A 
ATOM     83  C   UNL     1       5.960  11.510  -1.275  1.00  0.00     0.002 A 
ATOM     84  C   UNL     1       6.151  12.450   0.951  1.00  0.00     0.091 A 
ATOM     85  F   UNL     1       7.410  11.273   2.602  1.00  0.00    -0.205 F 
ATOM     86  C   UNL     1       5.680  12.530  -0.369  1.00  0.00     0.022 A 
BRANCH  84  87
ATOM     87  S   UNL     1       5.654  13.763   2.072  1.00  0.00     0.127 S 
ATOM     88  O   UNL     1       6.340  14.920   1.500  1.00  0.00    -0.237 OA
ATOM     89  O   UNL     1       4.200  13.763   1.905  1.00  0.00    -0.237 OA
ATOM     90  O   UNL     1       6.112  13.353   3.392  1.00  0.00    -0.744 OA
ENDBRANCH  84  87
ENDBRANCH  56  80
BRANCH  68  91
ATOM     91  C   UNL     1      13.565   7.861  -1.021  1.00  0.00     0.023 A 
ATOM     92  C   UNL     1      14.414   8.836  -0.464  1.00  0.00     0.012 A 
ATOM     93  C   UNL     1      13.890   7.282  -2.264  1.00  0.00     0.148 A 
ATOM     94  C   UNL     1      15.572   9.230  -1.134  1.00  0.00     0.002 A 
ATOM     95  C   UNL     1      15.063   7.655  -2.909  1.00  0.00     0.091 A 
ATOM     96  F   UNL     1      13.060   6.361  -2.774  1.00  0.00    -0.205 F 
ATOM     97  C   UNL     1      15.903   8.631  -2.347  1.00  0.00     0.022 A 
BRANCH  95  98
ATOM     98  S   UNL     1      15.616   6.882  -4.434  1.00  0.00     0.127 S 
ATOM     99  O   UNL     1      15.481   7.980  -5.390  1.00  0.00    -0.237 OA
ATOM    100  O   UNL     1      16.996   6.516  -4.114  1.00  0.00    -0.237 OA
ATOM    101  O   UNL     1      14.725   5.751  -4.660  1.00  0.00    -0.744 OA
ENDBRANCH  95  98
ENDBRANCH  68  91
ENDBRANCH  42  43
ENDBRANCH  35  37
ENDBRANCH  34  35
ENDBRANCH  33  34
ENDBRANCH  32  33
ENDBRANCH  31  32
ENDBRANCH   1  31
TORSDOF 21
