REMARK SMILES C[C@H]1SCCC[C@@]1(C(=O)OCCOCCOCCOC(=O)c1ccc(-c2c3nc(c(-c4cccc(S(=O)(=O)[O-])c4F)c4ccc([nH]4)c(-c4cccc(S(=O)(=O)[O-])c4F)c4nc(c(-c5cccc(S(=O)(=O)[O-])c5F)c5ccc2[nH]5)C=C4)C=C3)cc1)[NH+]1CCCC1
REMARK SMILES IDX 15 1 14 2 13 3 12 4 11 5 10 6 8 7 9 8 7 9 1 10 2 11 3 12
REMARK SMILES IDX 4 13 6 14 5 15 85 16 86 17 89 18 87 20 88 21 16 22 17 23
REMARK SMILES IDX 18 24 19 25 20 26 21 27 22 28 23 29 84 30 24 31 83 32 25 33
REMARK SMILES IDX 26 34 27 35 77 36 28 37 82 38 76 39 78 40 29 41 81 42 75 43
REMARK SMILES IDX 74 44 30 46 62 47 42 48 61 49 43 50 46 51 60 52 79 53 44 54
REMARK SMILES IDX 45 55 59 57 80 58 47 59 31 60 32 61 40 62 33 63 35 64 41 65
REMARK SMILES IDX 34 66 36 67 37 68 38 69 39 70 63 71 64 72 72 73 65 74 67 75
REMARK SMILES IDX 73 76 66 77 68 78 69 79 70 80 71 81 48 82 49 83 57 84 50 85
REMARK SMILES IDX 52 86 58 87 51 88 53 89 54 90 55 91 56 92
REMARK H PARENT 85 19 78 45 46 56
REMARK Flexibility Score: inf
ROOT
ATOM      1  C   UNL     1       1.229   4.601   2.615  1.00  0.00     0.188 C 
ENDROOT
BRANCH   1   2
ATOM      2  C   UNL     1       2.340   3.653   3.086  1.00  0.00     0.188 C 
BRANCH   2   3
ATOM      3  O   UNL     1       3.660   4.170   3.182  1.00  0.00    -0.376 OA
BRANCH   3   4
ATOM      4  C   UNL     1       4.184   4.879   2.064  1.00  0.00     0.202 C 
BRANCH   4   5
ATOM      5  C   UNL     1       4.007   4.310   0.643  1.00  0.00     0.261 C 
BRANCH   5   6
ATOM      6  O   UNL     1       2.643   4.056   0.230  1.00  0.00    -0.459 OA
BRANCH   6   7
ATOM      7  C   UNL     1       2.403   2.872  -0.401  1.00  0.00     0.369 C 
ATOM      8  O   UNL     1       3.307   2.069  -0.634  1.00  0.00    -0.245 OA
BRANCH   7   9
ATOM      9  C   UNL     1       0.904   2.586  -0.869  1.00  0.00     0.207 C 
ATOM     10  C   UNL     1       0.396   1.149   1.304  1.00  0.00     0.027 C 
ATOM     11  C   UNL     1       0.614   1.156  -0.214  1.00  0.00     0.117 C 
ATOM     12  S   UNL     1      -0.730   0.154  -0.966  1.00  0.00    -0.152 SA
ATOM     13  C   UNL     1      -0.145   0.187  -2.667  1.00  0.00     0.070 C 
ATOM     14  C   UNL     1       1.025   2.452  -2.422  1.00  0.00     0.083 C 
ATOM     15  C   UNL     1      -0.021   1.617  -3.160  1.00  0.00     0.018 C 
BRANCH   9  16
ATOM     16  N   UNL     1      -0.071   3.665  -0.473  1.00  0.00    -0.320 N 
ATOM     17  C   UNL     1      -1.504   3.493  -0.721  1.00  0.00     0.263 C 
ATOM     18  C   UNL     1       0.237   5.058  -0.836  1.00  0.00     0.263 C 
ATOM     19  H   UNL     1       0.107   3.499   0.518  1.00  0.00     0.349 HD
ATOM     20  C   UNL     1      -1.866   4.453  -1.841  1.00  0.00     0.067 C 
ATOM     21  C   UNL     1      -0.933   5.620  -1.635  1.00  0.00     0.067 C 
ENDBRANCH   9  16
ENDBRANCH   7   9
ENDBRANCH   6   7
ENDBRANCH   5   6
ENDBRANCH   4   5
ENDBRANCH   3   4
ENDBRANCH   2   3
ENDBRANCH   1   2
BRANCH   1  22
ATOM     22  O   UNL     1       1.643   5.932   2.417  1.00  0.00    -0.376 OA
BRANCH  22  23
ATOM     23  C   UNL     1       1.398   6.891   3.426  1.00  0.00     0.202 C 
BRANCH  23  24
ATOM     24  C   UNL     1       1.329   6.556   4.929  1.00  0.00     0.261 C 
BRANCH  24  25
ATOM     25  O   UNL     1       0.917   5.240   5.319  1.00  0.00    -0.460 OA
BRANCH  25  26
ATOM     26  C   UNL     1      -0.410   4.978   5.331  1.00  0.00     0.338 C 
ATOM     27  O   UNL     1      -1.309   5.749   5.031  1.00  0.00    -0.246 OA
BRANCH  26  28
ATOM     28  C   UNL     1      -0.579   3.521   5.551  1.00  0.00     0.060 A 
ATOM     29  C   UNL     1      -1.262   2.759   4.591  1.00  0.00     0.016 A 
ATOM     30  C   UNL     1      -0.051   2.907   6.689  1.00  0.00     0.016 A 
ATOM     31  C   UNL     1      -1.455   1.389   4.789  1.00  0.00     0.010 A 
ATOM     32  C   UNL     1      -0.263   1.540   6.895  1.00  0.00     0.010 A 
ATOM     33  C   UNL     1      -0.998   0.781   5.965  1.00  0.00    -0.014 A 
BRANCH  33  34
ATOM     34  C   UNL     1      -1.457  -0.583   6.331  1.00  0.00     0.031 A 
ATOM     35  C   UNL     1      -2.623  -0.713   7.274  1.00  0.00     0.074 A 
ATOM     36  C   UNL     1      -0.843  -1.689   5.875  1.00  0.00     0.049 A 
ATOM     37  N   UNL     1      -3.157  -1.786   7.796  1.00  0.00    -0.248 NA
ATOM     38  C   UNL     1      -3.265   0.545   7.690  1.00  0.00     0.031 C 
ATOM     39  C   UNL     1       0.295  -1.709   4.960  1.00  0.00     0.029 A 
ATOM     40  N   UNL     1      -1.075  -3.013   6.161  1.00  0.00    -0.354 N 
ATOM     41  C   UNL     1      -4.181  -1.335   8.619  1.00  0.00     0.074 A 
ATOM     42  C   UNL     1      -4.178   0.111   8.544  1.00  0.00     0.031 C 
ATOM     43  C   UNL     1       0.694  -2.983   4.796  1.00  0.00     0.029 A 
ATOM     44  C   UNL     1      -0.144  -3.862   5.612  1.00  0.00     0.049 A 
ATOM     45  H   UNL     1      -1.834  -3.323   6.706  1.00  0.00     0.167 HD
ATOM     46  C   UNL     1      -5.057  -2.053   9.363  1.00  0.00     0.034 A 
ATOM     47  C   UNL     1       0.032  -5.190   5.775  1.00  0.00     0.034 A 
ATOM     48  C   UNL     1      -5.058  -3.488   9.450  1.00  0.00     0.049 A 
ATOM     49  C   UNL     1      -0.927  -5.972   6.637  1.00  0.00     0.074 A 
ATOM     50  C   UNL     1      -5.926  -4.307  10.149  1.00  0.00     0.029 A 
ATOM     51  N   UNL     1      -4.131  -4.319   8.839  1.00  0.00    -0.354 N 
ATOM     52  N   UNL     1      -1.963  -5.547   7.319  1.00  0.00    -0.248 NA
ATOM     53  C   UNL     1      -0.713  -7.425   6.723  1.00  0.00     0.031 C 
ATOM     54  C   UNL     1      -5.500  -5.631   9.994  1.00  0.00     0.029 A 
ATOM     55  C   UNL     1      -4.396  -5.640   9.158  1.00  0.00     0.049 A 
ATOM     56  H   UNL     1      -3.393  -4.014   8.264  1.00  0.00     0.167 HD
ATOM     57  C   UNL     1      -2.544  -6.679   7.883  1.00  0.00     0.074 A 
ATOM     58  C   UNL     1      -1.753  -7.812   7.451  1.00  0.00     0.031 C 
ATOM     59  C   UNL     1      -3.631  -6.770   8.691  1.00  0.00     0.034 A 
BRANCH  46  60
ATOM     60  C   UNL     1      -6.093  -1.280  10.138  1.00  0.00     0.023 A 
ATOM     61  C   UNL     1      -7.123  -0.605   9.450  1.00  0.00     0.012 A 
ATOM     62  C   UNL     1      -6.053  -1.227  11.545  1.00  0.00     0.148 A 
ATOM     63  C   UNL     1      -8.065   0.152  10.145  1.00  0.00     0.002 A 
ATOM     64  C   UNL     1      -7.026  -0.513  12.234  1.00  0.00     0.091 A 
ATOM     65  F   UNL     1      -5.055  -1.855  12.182  1.00  0.00    -0.205 F 
ATOM     66  C   UNL     1      -8.021   0.192  11.536  1.00  0.00     0.022 A 
BRANCH  64  67
ATOM     67  S   UNL     1      -7.103  -0.469  14.027  1.00  0.00     0.127 S 
ATOM     68  O   UNL     1      -6.660   0.896  14.309  1.00  0.00    -0.237 OA
ATOM     69  O   UNL     1      -8.523  -0.714  14.280  1.00  0.00    -0.237 OA
ATOM     70  O   UNL     1      -6.215  -1.525  14.492  1.00  0.00    -0.744 OA
ENDBRANCH  64  67
ENDBRANCH  46  60
BRANCH  47  71
ATOM     71  C   UNL     1       1.168  -5.870   5.090  1.00  0.00     0.023 A 
ATOM     72  C   UNL     1       0.916  -6.753   4.022  1.00  0.00     0.012 A 
ATOM     73  C   UNL     1       2.499  -5.622   5.479  1.00  0.00     0.148 A 
ATOM     74  C   UNL     1       1.969  -7.396   3.370  1.00  0.00     0.002 A 
ATOM     75  C   UNL     1       3.545  -6.222   4.788  1.00  0.00     0.091 A 
ATOM     76  F   UNL     1       2.714  -4.789   6.507  1.00  0.00    -0.205 F 
ATOM     77  C   UNL     1       3.282  -7.122   3.745  1.00  0.00     0.022 A 
BRANCH  75  78
ATOM     78  S   UNL     1       5.268  -5.839   5.119  1.00  0.00     0.127 S 
ATOM     79  O   UNL     1       5.777  -7.126   5.588  1.00  0.00    -0.237 OA
ATOM     80  O   UNL     1       5.741  -5.435   3.794  1.00  0.00    -0.237 OA
ATOM     81  O   UNL     1       5.256  -4.771   6.109  1.00  0.00    -0.744 OA
ENDBRANCH  75  78
ENDBRANCH  47  71
BRANCH  59  82
ATOM     82  C   UNL     1      -4.073  -8.145   9.134  1.00  0.00     0.023 A 
ATOM     83  C   UNL     1      -3.306  -8.870  10.068  1.00  0.00     0.012 A 
ATOM     84  C   UNL     1      -5.295  -8.684   8.681  1.00  0.00     0.148 A 
ATOM     85  C   UNL     1      -3.729 -10.122  10.515  1.00  0.00     0.002 A 
ATOM     86  C   UNL     1      -5.736  -9.908   9.170  1.00  0.00     0.091 A 
ATOM     87  F   UNL     1      -6.005  -7.989   7.781  1.00  0.00    -0.205 F 
ATOM     88  C   UNL     1      -4.948 -10.635  10.077  1.00  0.00     0.022 A 
BRANCH  86  89
ATOM     89  S   UNL     1      -7.336 -10.601   8.738  1.00  0.00     0.127 S 
ATOM     90  O   UNL     1      -6.953 -11.729   7.890  1.00  0.00    -0.237 OA
ATOM     91  O   UNL     1      -7.874 -10.977  10.046  1.00  0.00    -0.237 OA
ATOM     92  O   UNL     1      -8.069  -9.537   8.066  1.00  0.00    -0.744 OA
ENDBRANCH  86  89
ENDBRANCH  59  82
ENDBRANCH  33  34
ENDBRANCH  26  28
ENDBRANCH  25  26
ENDBRANCH  24  25
ENDBRANCH  23  24
ENDBRANCH  22  23
ENDBRANCH   1  22
TORSDOF 21
