REMARK SMILES O=C(OCCOCCOCCOC(=O)c1cc(NC(=O)c2cccnc2Cl)ccc1O)c1ccc(-c2c3nc(c(-c4cccc(S(=O)(=O)[O-])c4F)c4ccc([nH]4)c(-c4cccc(S(=O)(=O)[O-])c4F)c4nc(c(-c5cccc(S(=O)(=O)[O-])c5F)c5ccc2[nH]5)C=C4)C=C3)cc1
REMARK SMILES IDX 7 1 6 2 5 3 4 4 3 5 2 6 1 7 32 8 33 9 94 10 34 11 93 12
REMARK SMILES IDX 35 13 36 14 37 15 87 16 38 17 92 18 86 19 88 20 39 21 91 22
REMARK SMILES IDX 85 23 84 24 40 26 72 27 52 28 71 29 53 30 56 31 70 32 89 33
REMARK SMILES IDX 54 34 55 35 69 37 90 38 57 39 41 40 42 41 50 42 43 43 45 44
REMARK SMILES IDX 51 45 44 46 46 47 47 48 48 49 49 50 73 51 74 52 82 53 75 54
REMARK SMILES IDX 77 55 83 56 76 57 78 58 79 59 80 60 81 61 58 62 59 63 67 64
REMARK SMILES IDX 60 65 62 66 68 67 61 68 63 69 64 70 65 71 66 72 8 73 9 74
REMARK SMILES IDX 10 75 11 76 12 77 13 78 14 79 15 80 16 81 30 82 17 83 29 84
REMARK SMILES IDX 28 85 31 86 18 88 19 89 20 91 21 92 22 93 26 94 23 95 25 96
REMARK SMILES IDX 27 97 24 98
REMARK H PARENT 88 25 56 36 31 87 18 90
REMARK Flexibility Score: inf
ROOT
ATOM      1  C   UNL     1       3.021   1.793  -0.075  1.00  0.00     0.188 C 
ENDROOT
BRANCH   1   2
ATOM      2  O   UNL     1       4.440   1.684  -0.116  1.00  0.00    -0.376 OA
BRANCH   2   3
ATOM      3  C   UNL     1       4.958   1.341  -1.402  1.00  0.00     0.202 C 
BRANCH   3   4
ATOM      4  C   UNL     1       4.910  -0.162  -1.726  1.00  0.00     0.261 C 
BRANCH   4   5
ATOM      5  O   UNL     1       3.586  -0.706  -1.578  1.00  0.00    -0.460 OA
BRANCH   5   6
ATOM      6  C   UNL     1       3.148  -1.606  -0.661  1.00  0.00     0.338 C 
ATOM      7  O   UNL     1       2.175  -2.296  -0.967  1.00  0.00    -0.246 OA
BRANCH   6   8
ATOM      8  C   UNL     1       3.747  -1.767   0.709  1.00  0.00     0.060 A 
ATOM      9  C   UNL     1       4.818  -1.036   1.223  1.00  0.00     0.016 A 
ATOM     10  C   UNL     1       3.156  -2.719   1.560  1.00  0.00     0.016 A 
ATOM     11  C   UNL     1       5.342  -1.287   2.488  1.00  0.00     0.010 A 
ATOM     12  C   UNL     1       3.644  -2.942   2.857  1.00  0.00     0.010 A 
ATOM     13  C   UNL     1       4.772  -2.252   3.312  1.00  0.00    -0.014 A 
BRANCH  13  14
ATOM     14  C   UNL     1       5.502  -2.629   4.545  1.00  0.00     0.031 A 
ATOM     15  C   UNL     1       6.191  -3.964   4.577  1.00  0.00     0.074 A 
ATOM     16  C   UNL     1       5.684  -1.737   5.538  1.00  0.00     0.049 A 
ATOM     17  N   UNL     1       6.977  -4.467   5.490  1.00  0.00    -0.248 NA
ATOM     18  C   UNL     1       5.979  -4.847   3.416  1.00  0.00     0.031 C 
ATOM     19  C   UNL     1       5.106  -0.392   5.585  1.00  0.00     0.029 A 
ATOM     20  N   UNL     1       6.440  -1.812   6.682  1.00  0.00    -0.354 N 
ATOM     21  C   UNL     1       7.330  -5.727   5.024  1.00  0.00     0.074 A 
ATOM     22  C   UNL     1       6.648  -5.930   3.769  1.00  0.00     0.031 C 
ATOM     23  C   UNL     1       5.555   0.239   6.683  1.00  0.00     0.029 A 
ATOM     24  C   UNL     1       6.414  -0.664   7.440  1.00  0.00     0.049 A 
ATOM     25  H   UNL     1       6.954  -2.613   6.935  1.00  0.00     0.167 HD
ATOM     26  C   UNL     1       8.178  -6.627   5.571  1.00  0.00     0.034 A 
ATOM     27  C   UNL     1       7.014  -0.379   8.613  1.00  0.00     0.034 A 
ATOM     28  C   UNL     1       8.881  -6.412   6.801  1.00  0.00     0.049 A 
ATOM     29  C   UNL     1       7.928  -1.413   9.220  1.00  0.00     0.074 A 
ATOM     30  C   UNL     1       9.726  -7.272   7.474  1.00  0.00     0.029 A 
ATOM     31  N   UNL     1       8.823  -5.238   7.538  1.00  0.00    -0.354 N 
ATOM     32  N   UNL     1       8.284  -2.581   8.739  1.00  0.00    -0.248 NA
ATOM     33  C   UNL     1       8.548  -1.082  10.511  1.00  0.00     0.031 C 
ATOM     34  C   UNL     1      10.179  -6.617   8.624  1.00  0.00     0.029 A 
ATOM     35  C   UNL     1       9.626  -5.345   8.657  1.00  0.00     0.049 A 
ATOM     36  H   UNL     1       8.288  -4.447   7.299  1.00  0.00     0.167 HD
ATOM     37  C   UNL     1       9.190  -3.109   9.651  1.00  0.00     0.074 A 
ATOM     38  C   UNL     1       9.352  -2.120  10.697  1.00  0.00     0.031 C 
ATOM     39  C   UNL     1       9.814  -4.313   9.643  1.00  0.00     0.034 A 
BRANCH  26  40
ATOM     40  C   UNL     1       8.387  -7.904   4.808  1.00  0.00     0.023 A 
ATOM     41  C   UNL     1       9.167  -7.890   3.633  1.00  0.00     0.012 A 
ATOM     42  C   UNL     1       7.773  -9.101   5.219  1.00  0.00     0.148 A 
ATOM     43  C   UNL     1       9.297  -9.039   2.854  1.00  0.00     0.002 A 
ATOM     44  C   UNL     1       7.937 -10.252   4.457  1.00  0.00     0.091 A 
ATOM     45  F   UNL     1       7.014  -9.083   6.324  1.00  0.00    -0.205 F 
ATOM     46  C   UNL     1       8.686 -10.219   3.268  1.00  0.00     0.022 A 
BRANCH  44  47
ATOM     47  S   UNL     1       7.229 -11.834   4.925  1.00  0.00     0.127 S 
ATOM     48  O   UNL     1       6.223 -12.027   3.882  1.00  0.00    -0.237 OA
ATOM     49  O   UNL     1       8.385 -12.725   4.830  1.00  0.00    -0.237 OA
ATOM     50  O   UNL     1       6.705 -11.658   6.272  1.00  0.00    -0.744 OA
ENDBRANCH  44  47
ENDBRANCH  26  40
BRANCH  27  51
ATOM     51  C   UNL     1       6.796   0.939   9.281  1.00  0.00     0.023 A 
ATOM     52  C   UNL     1       7.871   1.834   9.452  1.00  0.00     0.012 A 
ATOM     53  C   UNL     1       5.523   1.310   9.756  1.00  0.00     0.148 A 
ATOM     54  C   UNL     1       7.691   3.049  10.119  1.00  0.00     0.002 A 
ATOM     55  C   UNL     1       5.337   2.549  10.359  1.00  0.00     0.091 A 
ATOM     56  F   UNL     1       4.508   0.448   9.604  1.00  0.00    -0.205 F 
ATOM     57  C   UNL     1       6.423   3.411  10.563  1.00  0.00     0.022 A 
BRANCH  55  58
ATOM     58  S   UNL     1       3.701   3.159  10.781  1.00  0.00     0.127 S 
ATOM     59  O   UNL     1       3.678   2.992  12.230  1.00  0.00    -0.237 OA
ATOM     60  O   UNL     1       3.772   4.542  10.309  1.00  0.00    -0.237 OA
ATOM     61  O   UNL     1       2.776   2.329  10.020  1.00  0.00    -0.744 OA
ENDBRANCH  55  58
ENDBRANCH  27  51
BRANCH  39  62
ATOM     62  C   UNL     1      10.749  -4.617  10.779  1.00  0.00     0.023 A 
ATOM     63  C   UNL     1      10.223  -4.939  12.045  1.00  0.00     0.012 A 
ATOM     64  C   UNL     1      12.139  -4.678  10.566  1.00  0.00     0.148 A 
ATOM     65  C   UNL     1      11.071  -5.295  13.091  1.00  0.00     0.002 A 
ATOM     66  C   UNL     1      12.974  -5.081  11.600  1.00  0.00     0.091 A 
ATOM     67  F   UNL     1      12.619  -4.343   9.359  1.00  0.00    -0.205 F 
ATOM     68  C   UNL     1      12.444  -5.380  12.865  1.00  0.00     0.022 A 
BRANCH  66  69
ATOM     69  S   UNL     1      14.739  -5.314  11.361  1.00  0.00     0.127 S 
ATOM     70  O   UNL     1      15.284  -4.102  11.968  1.00  0.00    -0.237 OA
ATOM     71  O   UNL     1      14.997  -6.543  12.113  1.00  0.00    -0.237 OA
ATOM     72  O   UNL     1      14.929  -5.440   9.922  1.00  0.00    -0.744 OA
ENDBRANCH  66  69
ENDBRANCH  39  62
ENDBRANCH  13  14
ENDBRANCH   6   8
ENDBRANCH   5   6
ENDBRANCH   4   5
ENDBRANCH   3   4
ENDBRANCH   2   3
ENDBRANCH   1   2
BRANCH   1  73
ATOM     73  C   UNL     1       2.456   3.209   0.086  1.00  0.00     0.188 C 
BRANCH  73  74
ATOM     74  O   UNL     1       3.204   4.297  -0.436  1.00  0.00    -0.376 OA
BRANCH  74  75
ATOM     75  C   UNL     1       4.459   4.577   0.183  1.00  0.00     0.202 C 
BRANCH  75  76
ATOM     76  C   UNL     1       4.489   4.987   1.663  1.00  0.00     0.261 C 
BRANCH  76  77
ATOM     77  O   UNL     1       3.955   4.029   2.591  1.00  0.00    -0.460 OA
BRANCH  77  78
ATOM     78  C   UNL     1       2.827   4.426   3.231  1.00  0.00     0.342 C 
ATOM     79  O   UNL     1       2.111   5.380   2.926  1.00  0.00    -0.246 OA
BRANCH  78  80
ATOM     80  C   UNL     1       2.456   3.493   4.302  1.00  0.00     0.103 A 
ATOM     81  C   UNL     1       1.239   2.791   4.191  1.00  0.00     0.045 A 
ATOM     82  C   UNL     1       3.191   3.456   5.487  1.00  0.00     0.130 A 
ATOM     83  C   UNL     1       0.767   2.039   5.269  1.00  0.00     0.042 A 
ATOM     84  C   UNL     1       2.716   2.717   6.564  1.00  0.00     0.049 A 
ATOM     85  C   UNL     1       1.510   2.022   6.456  1.00  0.00     0.030 A 
BRANCH  82  86
ATOM     86  O   UNL     1       4.339   4.184   5.625  1.00  0.00    -0.507 OA
ATOM     87  H   UNL     1       4.665   4.684   4.903  1.00  0.00     0.293 HD
ENDBRANCH  82  86
BRANCH  83  88
ATOM     88  N   UNL     1      -0.454   1.337   5.288  1.00  0.00    -0.322 N 
ATOM     89  C   UNL     1      -1.294   0.891   4.297  1.00  0.00     0.258 C 
ATOM     90  H   UNL     1      -0.769   1.123   6.195  1.00  0.00     0.170 HD
ATOM     91  O   UNL     1      -2.446   0.551   4.570  1.00  0.00    -0.269 OA
BRANCH  89  92
ATOM     92  C   UNL     1      -0.862   0.723   2.905  1.00  0.00     0.077 A 
ATOM     93  C   UNL     1      -1.697   1.179   1.878  1.00  0.00     0.018 A 
ATOM     94  C   UNL     1       0.252  -0.015   2.545  1.00  0.00     0.141 A 
ATOM     95  C   UNL     1      -1.360   0.929   0.549  1.00  0.00     0.021 A 
ATOM     96  N   UNL     1       0.616  -0.247   1.260  1.00  0.00    -0.244 NA
ATOM     97  Cl  UNL     1       1.262  -0.817   3.676  1.00  0.00    -0.061 Cl
ATOM     98  C   UNL     1      -0.201   0.219   0.292  1.00  0.00     0.113 A 
ENDBRANCH  89  92
ENDBRANCH  83  88
ENDBRANCH  78  80
ENDBRANCH  77  78
ENDBRANCH  76  77
ENDBRANCH  75  76
ENDBRANCH  74  75
ENDBRANCH  73  74
ENDBRANCH   1  73
TORSDOF 23
