REMARK SMILES C[C@@H]1CCC[C@H]1NC(=O)c1csc(/C=C/C(=O)OCCOCCOCCOC(=O)c2ccc(-c3c4nc(c(-c5cccc(S(=O)(=O)[O-])c5F)c5ccc([nH]5)c(-c5cccc(S(=O)(=O)[O-])c5F)c5nc(c(-c6cccc(S(=O)(=O)[O-])c6F)c6ccc3[nH]6)C=C5)C=C4)cc2)c1
REMARK SMILES IDX 22 1 21 2 20 3 19 4 18 5 16 6 17 7 15 8 14 9 13 10 10 11
REMARK SMILES IDX 11 12 93 13 12 14 8 15 7 16 9 18 6 19 1 20 2 21 3 22 4 23
REMARK SMILES IDX 5 24 23 25 24 26 25 27 26 28 27 29 28 30 29 31 30 32 31 33
REMARK SMILES IDX 92 34 32 35 91 36 33 37 34 38 35 39 85 40 36 41 90 42 84 43
REMARK SMILES IDX 86 44 37 45 89 46 83 47 82 48 38 50 70 51 50 52 69 53 51 54
REMARK SMILES IDX 54 55 68 56 87 57 52 58 53 59 67 61 88 62 55 63 39 64 40 65
REMARK SMILES IDX 48 66 41 67 43 68 49 69 42 70 44 71 45 72 46 73 47 74 71 75
REMARK SMILES IDX 72 76 80 77 73 78 75 79 81 80 74 81 76 82 77 83 78 84 79 85
REMARK SMILES IDX 56 86 57 87 65 88 58 89 60 90 66 91 59 92 61 93 62 94 63 95
REMARK SMILES IDX 64 96
REMARK H PARENT 7 17 86 49 54 60
REMARK Flexibility Score: inf
ROOT
ATOM      1  C   UNL     1       5.765   9.031   1.095  1.00  0.00     0.188 C 
ENDROOT
BRANCH   1   2
ATOM      2  O   UNL     1       6.583   9.921   1.817  1.00  0.00    -0.376 OA
BRANCH   2   3
ATOM      3  C   UNL     1       6.153  10.471   3.049  1.00  0.00     0.202 C 
BRANCH   3   4
ATOM      4  C   UNL     1       4.807  10.197   3.750  1.00  0.00     0.261 C 
BRANCH   4   5
ATOM      5  O   UNL     1       4.027   9.087   3.301  1.00  0.00    -0.460 OA
BRANCH   5   6
ATOM      6  C   UNL     1       2.867   9.411   2.677  1.00  0.00     0.330 C 
ATOM      7  O   UNL     1       2.445  10.539   2.475  1.00  0.00    -0.247 OA
BRANCH   6   8
ATOM      8  C   UNL     1       2.174   8.227   2.135  1.00  0.00     0.095 C 
ATOM      9  C   UNL     1       2.279   6.984   2.631  1.00  0.00     0.026 C 
BRANCH   9  10
ATOM     10  C   UNL     1       1.537   5.881   2.105  1.00  0.00     0.028 A 
ATOM     11  C   UNL     1       0.341   3.827   2.001  1.00  0.00     0.051 A 
ATOM     12  C   UNL     1       0.112   4.364   0.751  1.00  0.00     0.079 A 
ATOM     13  C   UNL     1       1.174   4.720   2.768  1.00  0.00     0.033 A 
ATOM     14  S   UNL     1       0.965   5.816   0.481  1.00  0.00    -0.144 S 
BRANCH  11  15
ATOM     15  C   UNL     1      -0.262   2.616   2.549  1.00  0.00     0.252 C 
ATOM     16  N   UNL     1      -0.496   1.514   1.768  1.00  0.00    -0.349 N 
ATOM     17  H   UNL     1      -1.070   0.834   2.188  1.00  0.00     0.164 HD
ATOM     18  O   UNL     1      -0.572   2.545   3.739  1.00  0.00    -0.269 OA
BRANCH  16  19
ATOM     19  C   UNL     1      -0.044   1.171   0.422  1.00  0.00     0.085 C 
ATOM     20  C   UNL     1       1.794  -0.106  -0.769  1.00  0.00     0.010 C 
ATOM     21  C   UNL     1       0.877  -0.059   0.454  1.00  0.00     0.008 C 
ATOM     22  C   UNL     1      -0.101  -1.233   0.474  1.00  0.00     0.005 C 
ATOM     23  C   UNL     1      -1.278  -0.791  -0.389  1.00  0.00     0.002 C 
ATOM     24  C   UNL     1      -1.235   0.738  -0.439  1.00  0.00     0.025 C 
ENDBRANCH  16  19
ENDBRANCH  11  15
ENDBRANCH   9  10
ENDBRANCH   6   8
ENDBRANCH   5   6
ENDBRANCH   4   5
ENDBRANCH   3   4
ENDBRANCH   2   3
ENDBRANCH   1   2
BRANCH   1  25
ATOM     25  C   UNL     1       5.819   7.554   1.529  1.00  0.00     0.188 C 
BRANCH  25  26
ATOM     26  O   UNL     1       6.440   7.192   2.748  1.00  0.00    -0.376 OA
BRANCH  26  27
ATOM     27  C   UNL     1       7.814   7.482   2.956  1.00  0.00     0.202 C 
BRANCH  27  28
ATOM     28  C   UNL     1       8.884   7.484   1.845  1.00  0.00     0.261 C 
BRANCH  28  29
ATOM     29  O   UNL     1       8.475   7.881   0.533  1.00  0.00    -0.460 OA
BRANCH  29  30
ATOM     30  C   UNL     1       8.397   6.879  -0.380  1.00  0.00     0.338 C 
ATOM     31  O   UNL     1       8.607   5.696  -0.200  1.00  0.00    -0.246 OA
BRANCH  30  32
ATOM     32  C   UNL     1       7.836   7.427  -1.629  1.00  0.00     0.060 A 
ATOM     33  C   UNL     1       6.544   7.044  -2.016  1.00  0.00     0.016 A 
ATOM     34  C   UNL     1       8.594   8.283  -2.427  1.00  0.00     0.016 A 
ATOM     35  C   UNL     1       6.003   7.521  -3.209  1.00  0.00     0.010 A 
ATOM     36  C   UNL     1       8.059   8.738  -3.634  1.00  0.00     0.010 A 
ATOM     37  C   UNL     1       6.770   8.345  -4.040  1.00  0.00    -0.014 A 
BRANCH  37  38
ATOM     38  C   UNL     1       6.294   8.687  -5.401  1.00  0.00     0.031 A 
ATOM     39  C   UNL     1       6.840   7.914  -6.569  1.00  0.00     0.074 A 
ATOM     40  C   UNL     1       5.417   9.687  -5.597  1.00  0.00     0.049 A 
ATOM     41  N   UNL     1       6.656   8.106  -7.848  1.00  0.00    -0.248 NA
ATOM     42  C   UNL     1       7.716   6.774  -6.250  1.00  0.00     0.031 C 
ATOM     43  C   UNL     1       4.800  10.491  -4.543  1.00  0.00     0.029 A 
ATOM     44  N   UNL     1       4.922  10.220  -6.761  1.00  0.00    -0.354 N 
ATOM     45  C   UNL     1       7.413   7.133  -8.489  1.00  0.00     0.074 A 
ATOM     46  C   UNL     1       8.067   6.357  -7.457  1.00  0.00     0.031 C 
ATOM     47  C   UNL     1       4.036  11.441  -5.111  1.00  0.00     0.029 A 
ATOM     48  C   UNL     1       4.140  11.334  -6.565  1.00  0.00     0.049 A 
ATOM     49  H   UNL     1       5.108   9.840  -7.651  1.00  0.00     0.167 HD
ATOM     50  C   UNL     1       7.543   6.899  -9.816  1.00  0.00     0.034 A 
ATOM     51  C   UNL     1       3.603  12.189  -7.459  1.00  0.00     0.034 A 
ATOM     52  C   UNL     1       6.888   7.671 -10.836  1.00  0.00     0.049 A 
ATOM     53  C   UNL     1       3.819  11.945  -8.933  1.00  0.00     0.074 A 
ATOM     54  C   UNL     1       6.933   7.495 -12.208  1.00  0.00     0.029 A 
ATOM     55  N   UNL     1       6.082   8.773 -10.600  1.00  0.00    -0.354 N 
ATOM     56  N   UNL     1       4.453  10.963  -9.525  1.00  0.00    -0.248 NA
ATOM     57  C   UNL     1       3.225  12.919  -9.862  1.00  0.00     0.031 C 
ATOM     58  C   UNL     1       6.182   8.513 -12.803  1.00  0.00     0.029 A 
ATOM     59  C   UNL     1       5.637   9.299 -11.800  1.00  0.00     0.049 A 
ATOM     60  H   UNL     1       5.860   9.130  -9.710  1.00  0.00     0.167 HD
ATOM     61  C   UNL     1       4.299  11.176 -10.892  1.00  0.00     0.074 A 
ATOM     62  C   UNL     1       3.497  12.372 -11.040  1.00  0.00     0.031 C 
ATOM     63  C   UNL     1       4.788  10.456 -11.932  1.00  0.00     0.034 A 
BRANCH  50  64
ATOM     64  C   UNL     1       8.414   5.747 -10.241  1.00  0.00     0.023 A 
ATOM     65  C   UNL     1       7.973   4.425 -10.032  1.00  0.00     0.012 A 
ATOM     66  C   UNL     1       9.640   5.971 -10.897  1.00  0.00     0.148 A 
ATOM     67  C   UNL     1       8.752   3.343 -10.440  1.00  0.00     0.002 A 
ATOM     68  C   UNL     1      10.389   4.889 -11.343  1.00  0.00     0.091 A 
ATOM     69  F   UNL     1      10.052   7.235 -11.069  1.00  0.00    -0.205 F 
ATOM     70  C   UNL     1       9.953   3.575 -11.104  1.00  0.00     0.022 A 
BRANCH  68  71
ATOM     71  S   UNL     1      11.912   5.080 -12.276  1.00  0.00     0.127 S 
ATOM     72  O   UNL     1      12.904   4.576 -11.328  1.00  0.00    -0.237 OA
ATOM     73  O   UNL     1      11.674   4.211 -13.429  1.00  0.00    -0.237 OA
ATOM     74  O   UNL     1      12.017   6.497 -12.592  1.00  0.00    -0.744 OA
ENDBRANCH  68  71
ENDBRANCH  50  64
BRANCH  51  75
ATOM     75  C   UNL     1       2.794  13.354  -6.999  1.00  0.00     0.023 A 
ATOM     76  C   UNL     1       1.416  13.399  -7.288  1.00  0.00     0.012 A 
ATOM     77  C   UNL     1       3.381  14.425  -6.296  1.00  0.00     0.148 A 
ATOM     78  C   UNL     1       0.646  14.504  -6.922  1.00  0.00     0.002 A 
ATOM     79  C   UNL     1       2.598  15.497  -5.886  1.00  0.00     0.091 A 
ATOM     80  F   UNL     1       4.697  14.374  -6.045  1.00  0.00    -0.205 F 
ATOM     81  C   UNL     1       1.234  15.548  -6.214  1.00  0.00     0.022 A 
BRANCH  79  82
ATOM     82  S   UNL     1       3.243  16.833  -4.873  1.00  0.00     0.127 S 
ATOM     83  O   UNL     1       3.220  17.955  -5.809  1.00  0.00    -0.237 OA
ATOM     84  O   UNL     1       2.250  16.904  -3.801  1.00  0.00    -0.237 OA
ATOM     85  O   UNL     1       4.565  16.398  -4.442  1.00  0.00    -0.744 OA
ENDBRANCH  79  82
ENDBRANCH  51  75
BRANCH  63  86
ATOM     86  C   UNL     1       4.434  10.900 -13.328  1.00  0.00     0.023 A 
ATOM     87  C   UNL     1       5.023  12.060 -13.870  1.00  0.00     0.012 A 
ATOM     88  C   UNL     1       3.588  10.113 -14.136  1.00  0.00     0.148 A 
ATOM     89  C   UNL     1       4.753  12.444 -15.183  1.00  0.00     0.002 A 
ATOM     90  C   UNL     1       3.366  10.473 -15.459  1.00  0.00     0.091 A 
ATOM     91  F   UNL     1       3.028   9.020 -13.598  1.00  0.00    -0.205 F 
ATOM     92  C   UNL     1       3.937  11.646 -15.980  1.00  0.00     0.022 A 
BRANCH  90  93
ATOM     93  S   UNL     1       2.410   9.458 -16.592  1.00  0.00     0.127 S 
ATOM     94  O   UNL     1       1.242  10.304 -16.837  1.00  0.00    -0.237 OA
ATOM     95  O   UNL     1       3.319   9.329 -17.731  1.00  0.00    -0.237 OA
ATOM     96  O   UNL     1       2.137   8.213 -15.888  1.00  0.00    -0.744 OA
ENDBRANCH  90  93
ENDBRANCH  63  86
ENDBRANCH  37  38
ENDBRANCH  30  32
ENDBRANCH  29  30
ENDBRANCH  28  29
ENDBRANCH  27  28
ENDBRANCH  26  27
ENDBRANCH  25  26
ENDBRANCH   1  25
TORSDOF 23
