REMARK SMILES O=C(CNC(=O)[C@H]1CC[C@@H](Cn2cnc3ccccc3c2=O)CC1)OCCOCCOCCOC(=O)c1ccc(-c2c3nc(c(-c4cccc(S(=O)(=O)[O-])c4F)c4ccc([nH]4)c(-c4cccc(S(=O)(=O)[O-])c4F)c4nc(c(-c5cccc(S(=O)(=O)[O-])c5F)c5ccc2[nH]5)C=C4)C=C3)cc1
REMARK SMILES IDX 29 1 28 2 27 3 26 4 25 5 2 6 1 7 3 8 4 9 5 10 6 12 7 13
REMARK SMILES IDX 24 14 8 15 23 16 9 17 10 18 11 19 12 20 13 21 21 22 14 23
REMARK SMILES IDX 20 24 22 25 15 26 19 27 16 28 18 29 17 30 30 31 31 32 32 33
REMARK SMILES IDX 33 34 34 35 35 36 36 37 37 38 38 39 99 40 39 41 98 42 40 43
REMARK SMILES IDX 41 44 42 45 92 46 43 47 97 48 91 49 93 50 44 51 96 52 90 53
REMARK SMILES IDX 89 54 45 56 77 57 57 58 76 59 58 60 61 61 75 62 94 63 59 64
REMARK SMILES IDX 60 65 74 67 95 68 62 69 46 70 47 71 55 72 48 73 50 74 56 75
REMARK SMILES IDX 49 76 51 77 52 78 53 79 54 80 78 81 79 82 87 83 80 84 82 85
REMARK SMILES IDX 88 86 81 87 83 88 84 89 85 90 86 91 63 92 64 93 72 94 65 95
REMARK SMILES IDX 67 96 73 97 66 98 68 99 69 100 70 101 71 102
REMARK H PARENT 4 11 93 55 61 66
REMARK Flexibility Score: inf
ROOT
ATOM      1  C   UNL     1       2.244  -0.558   1.218  1.00  0.00     0.188 C 
ENDROOT
BRANCH   1   2
ATOM      2  O   UNL     1       3.655  -0.475   1.032  1.00  0.00    -0.376 OA
BRANCH   2   3
ATOM      3  C   UNL     1       4.183   0.769   1.459  1.00  0.00     0.202 C 
BRANCH   3   4
ATOM      4  C   UNL     1       4.288   1.723   0.269  1.00  0.00     0.261 C 
BRANCH   4   5
ATOM      5  O   UNL     1       3.069   1.841  -0.495  1.00  0.00    -0.462 OA
BRANCH   5   6
ATOM      6  C   UNL     1       2.557   0.873  -1.303  1.00  0.00     0.325 C 
ATOM      7  O   UNL     1       1.331   0.798  -1.417  1.00  0.00    -0.250 OA
BRANCH   6   8
ATOM      8  C   UNL     1       3.475  -0.179  -1.958  1.00  0.00     0.238 C 
BRANCH   8   9
ATOM      9  N   UNL     1       4.695   0.359  -2.538  1.00  0.00    -0.345 N 
ATOM     10  C   UNL     1       5.982  -0.057  -2.582  1.00  0.00     0.223 C 
ATOM     11  H   UNL     1       4.553   1.216  -3.002  1.00  0.00     0.164 HD
ATOM     12  O   UNL     1       6.754   0.686  -3.202  1.00  0.00    -0.275 OA
BRANCH  10  13
ATOM     13  C   UNL     1       6.557  -1.295  -1.868  1.00  0.00     0.078 C 
ATOM     14  C   UNL     1       6.562  -1.138  -0.353  1.00  0.00     0.014 C 
ATOM     15  C   UNL     1       5.985  -2.639  -2.303  1.00  0.00     0.014 C 
ATOM     16  C   UNL     1       7.032  -2.353   0.463  1.00  0.00     0.006 C 
ATOM     17  C   UNL     1       6.684  -3.797  -1.579  1.00  0.00     0.006 C 
ATOM     18  C   UNL     1       6.589  -3.750  -0.053  1.00  0.00     0.009 C 
BRANCH  18  19
ATOM     19  C   UNL     1       5.231  -4.145   0.557  1.00  0.00     0.130 C 
BRANCH  19  20
ATOM     20  N   UNL     1       4.491  -5.311   0.041  1.00  0.00    -0.298 N 
ATOM     21  C   UNL     1       4.765  -6.883   0.629  1.00  0.00     0.203 A 
ATOM     22  C   UNL     1       2.885  -4.810  -0.603  1.00  0.00     0.261 A 
ATOM     23  N   UNL     1       3.820  -7.973   0.702  1.00  0.00    -0.238 NA
ATOM     24  C   UNL     1       1.427  -6.409  -0.475  1.00  0.00     0.066 A 
ATOM     25  O   UNL     1       3.001  -3.617  -0.968  1.00  0.00    -0.269 OA
ATOM     26  C   UNL     1       2.098  -7.902   0.215  1.00  0.00     0.077 A 
ATOM     27  C   UNL     1       0.073  -6.629  -0.951  1.00  0.00     0.016 A 
ATOM     28  C   UNL     1       1.347  -9.070   0.246  1.00  0.00     0.029 A 
ATOM     29  C   UNL     1      -0.501  -7.912  -0.977  1.00  0.00     0.001 A 
ATOM     30  C   UNL     1       0.092  -9.059  -0.397  1.00  0.00     0.002 A 
ENDBRANCH  19  20
ENDBRANCH  18  19
ENDBRANCH  10  13
ENDBRANCH   8   9
ENDBRANCH   6   8
ENDBRANCH   5   6
ENDBRANCH   4   5
ENDBRANCH   3   4
ENDBRANCH   2   3
ENDBRANCH   1   2
BRANCH   1  31
ATOM     31  C   UNL     1       1.985  -1.524   2.328  1.00  0.00     0.188 C 
BRANCH  31  32
ATOM     32  O   UNL     1       2.690  -1.278   3.540  1.00  0.00    -0.376 OA
BRANCH  32  33
ATOM     33  C   UNL     1       3.824  -2.139   3.693  1.00  0.00     0.202 C 
BRANCH  33  34
ATOM     34  C   UNL     1       3.474  -3.620   3.953  1.00  0.00     0.261 C 
BRANCH  34  35
ATOM     35  O   UNL     1       2.912  -4.294   2.801  1.00  0.00    -0.460 OA
BRANCH  35  36
ATOM     36  C   UNL     1       1.570  -4.367   2.514  1.00  0.00     0.338 C 
ATOM     37  O   UNL     1       0.643  -4.008   3.204  1.00  0.00    -0.246 OA
BRANCH  36  38
ATOM     38  C   UNL     1       1.550  -4.811   1.088  1.00  0.00     0.060 A 
ATOM     39  C   UNL     1       2.752  -6.001   0.832  1.00  0.00     0.016 A 
ATOM     40  C   UNL     1       0.801  -4.156  -0.326  1.00  0.00     0.016 A 
ATOM     41  C   UNL     1       3.254  -6.586  -1.018  1.00  0.00     0.010 A 
ATOM     42  C   UNL     1       1.213  -4.674  -1.998  1.00  0.00     0.010 A 
ATOM     43  C   UNL     1       2.399  -5.921  -2.379  1.00  0.00    -0.014 A 
BRANCH  43  44
ATOM     44  C   UNL     1       2.398  -6.670  -3.683  1.00  0.00     0.031 A 
ATOM     45  C   UNL     1       2.475  -5.887  -4.939  1.00  0.00     0.074 A 
ATOM     46  C   UNL     1       2.233  -8.018  -3.780  1.00  0.00     0.049 A 
ATOM     47  N   UNL     1       2.288  -6.300  -6.159  1.00  0.00    -0.248 NA
ATOM     48  C   UNL     1       2.893  -4.483  -4.815  1.00  0.00     0.031 C 
ATOM     49  C   UNL     1       2.401  -9.004  -2.724  1.00  0.00     0.029 A 
ATOM     50  N   UNL     1       1.794  -8.816  -4.823  1.00  0.00    -0.354 N 
ATOM     51  C   UNL     1       2.619  -5.226  -6.958  1.00  0.00     0.074 A 
ATOM     52  C   UNL     1       2.904  -4.106  -6.085  1.00  0.00     0.031 C 
ATOM     53  C   UNL     1       1.836 -10.171  -3.050  1.00  0.00     0.029 A 
ATOM     54  C   UNL     1       1.380 -10.077  -4.413  1.00  0.00     0.049 A 
ATOM     55  H   UNL     1       1.776  -8.519  -5.761  1.00  0.00     0.167 HD
ATOM     56  C   UNL     1       2.768  -5.216  -8.298  1.00  0.00     0.034 A 
ATOM     57  C   UNL     1       0.753 -11.091  -5.042  1.00  0.00     0.034 A 
ATOM     58  C   UNL     1       2.494  -6.342  -9.144  1.00  0.00     0.049 A 
ATOM     59  C   UNL     1       0.703 -11.001  -6.526  1.00  0.00     0.074 A 
ATOM     60  C   UNL     1       2.599  -6.424 -10.519  1.00  0.00     0.029 A 
ATOM     61  N   UNL     1       2.045  -7.578  -8.698  1.00  0.00    -0.354 N 
ATOM     62  N   UNL     1       1.063  -9.986  -7.272  1.00  0.00    -0.248 NA
ATOM     63  C   UNL     1       0.319 -12.205  -7.268  1.00  0.00     0.031 C 
ATOM     64  C   UNL     1       2.169  -7.694 -10.909  1.00  0.00     0.029 A 
ATOM     65  C   UNL     1       1.834  -8.419  -9.775  1.00  0.00     0.049 A 
ATOM     66  H   UNL     1       1.898  -7.819  -7.755  1.00  0.00     0.167 HD
ATOM     67  C   UNL     1       1.025 -10.445  -8.572  1.00  0.00     0.074 A 
ATOM     68  C   UNL     1       0.577 -11.826  -8.515  1.00  0.00     0.031 C 
ATOM     69  C   UNL     1       1.365  -9.781  -9.701  1.00  0.00     0.034 A 
BRANCH  56  70
ATOM     70  C   UNL     1       3.289  -3.950  -8.897  1.00  0.00     0.023 A 
ATOM     71  C   UNL     1       4.643  -3.599  -8.715  1.00  0.00     0.012 A 
ATOM     72  C   UNL     1       2.436  -3.100  -9.618  1.00  0.00     0.148 A 
ATOM     73  C   UNL     1       5.136  -2.402  -9.228  1.00  0.00     0.002 A 
ATOM     74  C   UNL     1       2.939  -1.922 -10.147  1.00  0.00     0.091 A 
ATOM     75  F   UNL     1       1.150  -3.454  -9.750  1.00  0.00    -0.205 F 
ATOM     76  C   UNL     1       4.286  -1.569  -9.951  1.00  0.00     0.022 A 
BRANCH  74  77
ATOM     77  S   UNL     1       1.923  -0.776 -11.079  1.00  0.00     0.127 S 
ATOM     78  O   UNL     1       2.004   0.427 -10.251  1.00  0.00    -0.237 OA
ATOM     79  O   UNL     1       2.643  -0.697 -12.348  1.00  0.00    -0.237 OA
ATOM     80  O   UNL     1       0.599  -1.378 -11.156  1.00  0.00    -0.744 OA
ENDBRANCH  74  77
ENDBRANCH  56  70
BRANCH  57  81
ATOM     81  C   UNL     1       0.345 -12.314  -4.283  1.00  0.00     0.023 A 
ATOM     82  C   UNL     1       1.239 -13.397  -4.175  1.00  0.00     0.012 A 
ATOM     83  C   UNL     1      -0.871 -12.360  -3.565  1.00  0.00     0.148 A 
ATOM     84  C   UNL     1       0.947 -14.488  -3.351  1.00  0.00     0.002 A 
ATOM     85  C   UNL     1      -1.159 -13.455  -2.750  1.00  0.00     0.091 A 
ATOM     86  F   UNL     1      -1.708 -11.319  -3.670  1.00  0.00    -0.205 F 
ATOM     87  C   UNL     1      -0.245 -14.514  -2.634  1.00  0.00     0.022 A 
BRANCH  85  88
ATOM     88  S   UNL     1      -2.668 -13.596  -1.778  1.00  0.00     0.127 S 
ATOM     89  O   UNL     1      -3.255 -14.824  -2.312  1.00  0.00    -0.237 OA
ATOM     90  O   UNL     1      -2.138 -13.708  -0.419  1.00  0.00    -0.237 OA
ATOM     91  O   UNL     1      -3.425 -12.381  -2.042  1.00  0.00    -0.744 OA
ENDBRANCH  85  88
ENDBRANCH  57  81
BRANCH  69  92
ATOM     92  C   UNL     1       1.225 -10.523 -10.991  1.00  0.00     0.023 A 
ATOM     93  C   UNL     1      -0.060 -10.738 -11.522  1.00  0.00     0.012 A 
ATOM     94  C   UNL     1       2.365 -10.903 -11.722  1.00  0.00     0.148 A 
ATOM     95  C   UNL     1      -0.209 -11.328 -12.773  1.00  0.00     0.002 A 
ATOM     96  C   UNL     1       2.210 -11.461 -12.980  1.00  0.00     0.091 A 
ATOM     97  F   UNL     1       3.573 -10.686 -11.180  1.00  0.00    -0.205 F 
ATOM     98  C   UNL     1       0.924 -11.675 -13.507  1.00  0.00     0.022 A 
BRANCH  96  99
ATOM     99  S   UNL     1       3.605 -11.910 -14.014  1.00  0.00     0.127 S 
ATOM    100  O   UNL     1       3.452 -13.362 -14.099  1.00  0.00    -0.237 OA
ATOM    101  O   UNL     1       3.313 -11.189 -15.252  1.00  0.00    -0.237 OA
ATOM    102  O   UNL     1       4.797 -11.457 -13.309  1.00  0.00    -0.744 OA
ENDBRANCH  96  99
ENDBRANCH  69  92
ENDBRANCH  43  44
ENDBRANCH  36  38
ENDBRANCH  35  36
ENDBRANCH  34  35
ENDBRANCH  33  34
ENDBRANCH  32  33
ENDBRANCH  31  32
ENDBRANCH   1  31
TORSDOF 24
