REMARK SMILES CS(=O)(=O)c1ccc(C2=NN(c3ccc(C(=O)OCCOCCOCCOC(=O)c4ccc(-c5c6nc(c(-c7cccc(S(=O)(=O)[O-])c7F)c7ccc([nH]7)c(-c7cccc(S(=O)(=O)[O-])c7F)c7nc(c(-c8cccc(S(=O)(=O)[O-])c8F)c8ccc5[nH]8)C=C7)C=C6)cc4)cc3)[C@H](c3cccs3)C2)cc1
REMARK SMILES IDX 22 1 21 2 20 3 19 4 18 5 16 6 17 7 15 8 12 9 13 10 94 11
REMARK SMILES IDX 14 12 93 13 11 14 9 15 10 16 101 17 95 18 8 19 5 20 6 21
REMARK SMILES IDX 103 22 7 23 102 24 2 25 1 26 3 27 4 28 96 29 97 30 100 31
REMARK SMILES IDX 98 32 99 33 23 34 24 35 25 36 26 37 27 38 28 39 29 40 30 41
REMARK SMILES IDX 31 42 92 43 32 44 91 45 33 46 34 47 35 48 85 49 36 50 90 51
REMARK SMILES IDX 84 52 86 53 37 54 89 55 83 56 82 57 38 59 70 60 50 61 69 62
REMARK SMILES IDX 51 63 54 64 68 65 87 66 52 67 53 68 67 70 88 71 55 72 39 73
REMARK SMILES IDX 40 74 48 75 41 76 43 77 49 78 42 79 44 80 45 81 46 82 47 83
REMARK SMILES IDX 71 84 72 85 80 86 73 87 75 88 81 89 74 90 76 91 77 92 78 93
REMARK SMILES IDX 79 94 56 95 57 96 65 97 58 98 60 99 66 100 59 101 61 102
REMARK SMILES IDX 62 103 63 104 64 105
REMARK H PARENT 86 58 54 69
REMARK Flexibility Score: inf
ROOT
ATOM      1  C   UNL     1       9.131  10.596  -5.393  1.00  0.00     0.188 C 
ENDROOT
BRANCH   1   2
ATOM      2  O   UNL     1      10.120  11.562  -5.661  1.00  0.00    -0.376 OA
BRANCH   2   3
ATOM      3  C   UNL     1      10.113  12.816  -5.003  1.00  0.00     0.202 C 
BRANCH   3   4
ATOM      4  C   UNL     1       9.088  13.284  -3.953  1.00  0.00     0.261 C 
BRANCH   4   5
ATOM      5  O   UNL     1       8.274  12.290  -3.330  1.00  0.00    -0.460 OA
BRANCH   5   6
ATOM      6  C   UNL     1       6.958  12.312  -3.665  1.00  0.00     0.338 C 
ATOM      7  O   UNL     1       6.404  13.110  -4.399  1.00  0.00    -0.246 OA
BRANCH   6   8
ATOM      8  C   UNL     1       6.275  11.124  -3.101  1.00  0.00     0.060 A 
ATOM      9  C   UNL     1       4.821   8.974  -2.025  1.00  0.00     0.060 A 
ATOM     10  C   UNL     1       4.575   9.405  -3.333  1.00  0.00     0.029 A 
ATOM     11  C   UNL     1       5.885   9.553  -1.316  1.00  0.00     0.029 A 
ATOM     12  C   UNL     1       5.291  10.484  -3.867  1.00  0.00     0.018 A 
ATOM     13  C   UNL     1       6.601  10.631  -1.836  1.00  0.00     0.018 A 
BRANCH   9  14
ATOM     14  N   UNL     1       3.941   8.123  -1.352  1.00  0.00    -0.257 N 
ATOM     15  C   UNL     1       2.550   6.517  -1.276  1.00  0.00     0.071 C 
ATOM     16  N   UNL     1       3.703   6.854  -1.770  1.00  0.00    -0.176 NA
ATOM     17  C   UNL     1       1.787   7.609  -0.576  1.00  0.00     0.091 C 
ATOM     18  C   UNL     1       2.833   8.728  -0.595  1.00  0.00     0.154 C 
BRANCH  15  19
ATOM     19  C   UNL     1       2.009   5.147  -1.345  1.00  0.00    -0.002 A 
ATOM     20  C   UNL     1       1.052   2.528  -1.400  1.00  0.00     0.067 A 
ATOM     21  C   UNL     1       2.399   2.765  -1.109  1.00  0.00     0.021 A 
ATOM     22  C   UNL     1       0.183   3.593  -1.667  1.00  0.00     0.021 A 
ATOM     23  C   UNL     1       2.875   4.078  -1.087  1.00  0.00     0.011 A 
ATOM     24  C   UNL     1       0.661   4.908  -1.632  1.00  0.00     0.011 A 
BRANCH  20  25
ATOM     25  S   UNL     1       0.434   0.860  -1.464  1.00  0.00     0.175 S 
ATOM     26  C   UNL     1       1.029   0.075   0.009  1.00  0.00     0.163 C 
ATOM     27  O   UNL     1       1.065   0.221  -2.600  1.00  0.00    -0.224 OA
ATOM     28  O   UNL     1      -1.010   0.931  -1.342  1.00  0.00    -0.224 OA
ENDBRANCH  20  25
ENDBRANCH  15  19
BRANCH  18  29
ATOM     29  C   UNL     1       3.247   9.305   0.750  1.00  0.00     0.030 A 
ATOM     30  C   UNL     1       3.807  10.558   0.957  1.00  0.00     0.017 A 
ATOM     31  S   UNL     1       3.192   8.421   2.217  1.00  0.00    -0.147 S 
ATOM     32  C   UNL     1       4.245  10.758   2.295  1.00  0.00     0.012 A 
ATOM     33  C   UNL     1       3.938   9.684   3.095  1.00  0.00     0.065 A 
ENDBRANCH  18  29
ENDBRANCH   9  14
ENDBRANCH   6   8
ENDBRANCH   5   6
ENDBRANCH   4   5
ENDBRANCH   3   4
ENDBRANCH   2   3
ENDBRANCH   1   2
BRANCH   1  34
ATOM     34  C   UNL     1       9.364   9.704  -4.155  1.00  0.00     0.188 C 
BRANCH  34  35
ATOM     35  O   UNL     1      10.407  10.002  -3.246  1.00  0.00    -0.376 OA
BRANCH  35  36
ATOM     36  C   UNL     1      11.744  10.065  -3.719  1.00  0.00     0.202 C 
BRANCH  36  37
ATOM     37  C   UNL     1      12.310   9.123  -4.799  1.00  0.00     0.261 C 
BRANCH  37  38
ATOM     38  O   UNL     1      11.436   8.760  -5.874  1.00  0.00    -0.460 OA
BRANCH  38  39
ATOM     39  C   UNL     1      10.989   7.481  -5.861  1.00  0.00     0.338 C 
ATOM     40  O   UNL     1      11.245   6.616  -5.033  1.00  0.00    -0.246 OA
BRANCH  39  41
ATOM     41  C   UNL     1       9.983   7.313  -6.923  1.00  0.00     0.060 A 
ATOM     42  C   UNL     1       8.641   7.100  -6.570  1.00  0.00     0.016 A 
ATOM     43  C   UNL     1      10.369   7.333  -8.262  1.00  0.00     0.016 A 
ATOM     44  C   UNL     1       7.680   6.899  -7.559  1.00  0.00     0.010 A 
ATOM     45  C   UNL     1       9.410   7.103  -9.250  1.00  0.00     0.010 A 
ATOM     46  C   UNL     1       8.068   6.861  -8.903  1.00  0.00    -0.014 A 
BRANCH  46  47
ATOM     47  C   UNL     1       7.122   6.396  -9.945  1.00  0.00     0.031 A 
ATOM     48  C   UNL     1       7.231   4.975 -10.422  1.00  0.00     0.074 A 
ATOM     49  C   UNL     1       6.223   7.231 -10.494  1.00  0.00     0.049 A 
ATOM     50  N   UNL     1       6.615   4.382 -11.410  1.00  0.00    -0.248 NA
ATOM     51  C   UNL     1       8.172   4.109  -9.691  1.00  0.00     0.031 C 
ATOM     52  C   UNL     1       6.011   8.623 -10.104  1.00  0.00     0.029 A 
ATOM     53  N   UNL     1       5.347   7.033 -11.534  1.00  0.00    -0.354 N 
ATOM     54  C   UNL     1       7.122   3.089 -11.448  1.00  0.00     0.074 A 
ATOM     55  C   UNL     1       8.098   2.983 -10.385  1.00  0.00     0.031 C 
ATOM     56  C   UNL     1       5.096   9.169 -10.923  1.00  0.00     0.029 A 
ATOM     57  C   UNL     1       4.686   8.177 -11.916  1.00  0.00     0.049 A 
ATOM     58  H   UNL     1       5.205   6.158 -11.962  1.00  0.00     0.167 HD
ATOM     59  C   UNL     1       6.801   2.079 -12.289  1.00  0.00     0.034 A 
ATOM     60  C   UNL     1       3.878   8.405 -12.971  1.00  0.00     0.034 A 
ATOM     61  C   UNL     1       5.822   2.186 -13.336  1.00  0.00     0.049 A 
ATOM     62  C   UNL     1       3.564   7.274 -13.919  1.00  0.00     0.074 A 
ATOM     63  C   UNL     1       5.391   1.206 -14.211  1.00  0.00     0.029 A 
ATOM     64  N   UNL     1       5.136   3.346 -13.662  1.00  0.00    -0.354 N 
ATOM     65  N   UNL     1       3.971   6.027 -13.884  1.00  0.00    -0.248 NA
ATOM     66  C   UNL     1       2.658   7.573 -15.039  1.00  0.00     0.031 C 
ATOM     67  C   UNL     1       4.474   1.784 -15.094  1.00  0.00     0.029 A 
ATOM     68  C   UNL     1       4.297   3.111 -14.737  1.00  0.00     0.049 A 
ATOM     69  H   UNL     1       5.232   4.208 -13.197  1.00  0.00     0.167 HD
ATOM     70  C   UNL     1       3.337   5.386 -14.943  1.00  0.00     0.074 A 
ATOM     71  C   UNL     1       2.512   6.379 -15.598  1.00  0.00     0.031 C 
ATOM     72  C   UNL     1       3.434   4.093 -15.342  1.00  0.00     0.034 A 
BRANCH  59  73
ATOM     73  C   UNL     1       7.514   0.765 -12.111  1.00  0.00     0.023 A 
ATOM     74  C   UNL     1       7.228  -0.044 -10.993  1.00  0.00     0.012 A 
ATOM     75  C   UNL     1       8.428   0.308 -13.080  1.00  0.00     0.148 A 
ATOM     76  C   UNL     1       7.867  -1.272 -10.824  1.00  0.00     0.002 A 
ATOM     77  C   UNL     1       9.024  -0.938 -12.931  1.00  0.00     0.091 A 
ATOM     78  F   UNL     1       8.703   1.102 -14.125  1.00  0.00    -0.205 F 
ATOM     79  C   UNL     1       8.755  -1.723 -11.797  1.00  0.00     0.022 A 
BRANCH  77  80
ATOM     80  S   UNL     1      10.117  -1.644 -14.168  1.00  0.00     0.127 S 
ATOM     81  O   UNL     1      11.403  -1.625 -13.472  1.00  0.00    -0.237 OA
ATOM     82  O   UNL     1       9.546  -2.978 -14.356  1.00  0.00    -0.237 OA
ATOM     83  O   UNL     1      10.027  -0.773 -15.332  1.00  0.00    -0.744 OA
ENDBRANCH  77  80
ENDBRANCH  59  73
BRANCH  60  84
ATOM     84  C   UNL     1       3.291   9.758 -13.186  1.00  0.00     0.023 A 
ATOM     85  C   UNL     1       1.904   9.947 -13.031  1.00  0.00     0.012 A 
ATOM     86  C   UNL     1       4.098  10.857 -13.542  1.00  0.00     0.148 A 
ATOM     87  C   UNL     1       1.326  11.197 -13.260  1.00  0.00     0.002 A 
ATOM     88  C   UNL     1       3.524  12.111 -13.714  1.00  0.00     0.091 A 
ATOM     89  F   UNL     1       5.414  10.654 -13.699  1.00  0.00    -0.205 F 
ATOM     90  C   UNL     1       2.136  12.279 -13.592  1.00  0.00     0.022 A 
BRANCH  88  91
ATOM     91  S   UNL     1       4.498  13.587 -14.027  1.00  0.00     0.127 S 
ATOM     92  O   UNL     1       4.092  13.930 -15.388  1.00  0.00    -0.237 OA
ATOM     93  O   UNL     1       4.006  14.496 -12.991  1.00  0.00    -0.237 OA
ATOM     94  O   UNL     1       5.888  13.186 -13.867  1.00  0.00    -0.744 OA
ENDBRANCH  88  91
ENDBRANCH  60  84
BRANCH  72  95
ATOM     95  C   UNL     1       2.585   3.641 -16.503  1.00  0.00     0.023 A 
ATOM     96  C   UNL     1       2.904   4.042 -17.814  1.00  0.00     0.012 A 
ATOM     97  C   UNL     1       1.532   2.726 -16.296  1.00  0.00     0.148 A 
ATOM     98  C   UNL     1       2.171   3.560 -18.899  1.00  0.00     0.002 A 
ATOM     99  C   UNL     1       0.841   2.210 -17.385  1.00  0.00     0.091 A 
ATOM    100  F   UNL     1       1.236   2.368 -15.038  1.00  0.00    -0.205 F 
ATOM    101  C   UNL     1       1.151   2.635 -18.686  1.00  0.00     0.022 A 
BRANCH  99 102
ATOM    102  S   UNL     1      -0.417   0.939 -17.218  1.00  0.00     0.127 S 
ATOM    103  O   UNL     1      -1.627   1.666 -17.602  1.00  0.00    -0.237 OA
ATOM    104  O   UNL     1       0.026  -0.063 -18.187  1.00  0.00    -0.237 OA
ATOM    105  O   UNL     1      -0.372   0.503 -15.829  1.00  0.00    -0.744 OA
ENDBRANCH  99 102
ENDBRANCH  72  95
ENDBRANCH  46  47
ENDBRANCH  39  41
ENDBRANCH  38  39
ENDBRANCH  37  38
ENDBRANCH  36  37
ENDBRANCH  35  36
ENDBRANCH  34  35
ENDBRANCH   1  34
TORSDOF 24
