REMARK SMILES CCc1cccc(C)c1Nc1ccccc1CC(=O)OCCOCCOCCOC(=O)c1ccc(-c2c3nc(c(-c4cccc(S(=O)(=O)[O-])c4F)c4ccc([nH]4)c(-c4cccc(S(=O)(=O)[O-])c4F)c4nc(c(-c5cccc(S(=O)(=O)[O-])c5F)c5ccc2[nH]5)C=C4)C=C3)cc1
REMARK SMILES IDX 24 1 23 2 22 3 21 4 20 5 18 6 19 7 17 8 16 9 11 10 12 11
REMARK SMILES IDX 13 12 15 13 14 14 10 15 9 17 3 18 4 19 5 20 7 21 6 22 8 23
REMARK SMILES IDX 2 24 1 25 25 26 26 27 27 28 28 29 29 30 30 31 31 32 32 33
REMARK SMILES IDX 33 34 94 35 34 36 93 37 35 38 36 39 37 40 87 41 38 42 92 43
REMARK SMILES IDX 86 44 88 45 39 46 91 47 85 48 84 49 40 51 72 52 52 53 71 54
REMARK SMILES IDX 53 55 56 56 70 57 89 58 54 59 55 60 69 62 90 63 57 64 41 65
REMARK SMILES IDX 42 66 50 67 43 68 45 69 51 70 44 71 46 72 47 73 48 74 49 75
REMARK SMILES IDX 73 76 74 77 82 78 75 79 77 80 83 81 76 82 78 83 79 84 80 85
REMARK SMILES IDX 81 86 58 87 59 88 67 89 60 90 62 91 68 92 61 93 63 94 64 95
REMARK SMILES IDX 65 96 66 97
REMARK H PARENT 10 16 88 50 56 61
REMARK Flexibility Score: inf
ROOT
ATOM      1  C   UNL     1      -2.207   4.813   2.453  1.00  0.00     0.188 C 
ENDROOT
BRANCH   1   2
ATOM      2  O   UNL     1      -1.503   6.195   2.641  1.00  0.00    -0.376 OA
BRANCH   2   3
ATOM      3  C   UNL     1       0.004   6.707   2.978  1.00  0.00     0.202 C 
BRANCH   3   4
ATOM      4  C   UNL     1       1.593   7.320   2.118  1.00  0.00     0.261 C 
BRANCH   4   5
ATOM      5  O   UNL     1       3.394   6.798   2.226  1.00  0.00    -0.463 OA
BRANCH   5   6
ATOM      6  C   UNL     1       4.663   5.779   1.563  1.00  0.00     0.310 C 
ATOM      7  O   UNL     1       5.731   5.739   2.200  1.00  0.00    -0.252 OA
BRANCH   6   8
ATOM      8  C   UNL     1       4.703   4.945  -0.161  1.00  0.00     0.160 C 
BRANCH   8   9
ATOM      9  C   UNL     1       3.710   4.558  -1.701  1.00  0.00    -0.013 A 
ATOM     10  C   UNL     1       2.348   3.561  -2.112  1.00  0.00     0.042 A 
ATOM     11  C   UNL     1       2.147   3.469  -3.596  1.00  0.00     0.026 A 
ATOM     12  C   UNL     1       2.825   4.272  -4.516  1.00  0.00     0.002 A 
ATOM     13  C   UNL     1       4.345   5.206  -2.806  1.00  0.00     0.006 A 
ATOM     14  C   UNL     1       3.857   5.122  -4.131  1.00  0.00     0.000 A 
BRANCH  10  15
ATOM     15  N   UNL     1       0.972   2.901  -0.796  1.00  0.00    -0.355 N 
ATOM     16  H   UNL     1       0.075   3.032  -1.182  1.00  0.00     0.167 HD
BRANCH  15  17
ATOM     17  C   UNL     1       0.804   2.186   0.775  1.00  0.00     0.045 A 
ATOM     18  C   UNL     1       1.230   0.503   1.437  1.00  0.00    -0.024 A 
ATOM     19  C   UNL     1       1.423   0.421   3.326  1.00  0.00     0.006 A 
ATOM     20  C   UNL     1       0.864   2.200   4.136  1.00  0.00     0.001 A 
ATOM     21  C   UNL     1       0.280   3.550   1.718  1.00  0.00    -0.027 A 
ATOM     22  C   UNL     1       0.140   3.490   3.247  1.00  0.00     0.005 A 
ATOM     23  C   UNL     1      -0.004   4.856   1.016  1.00  0.00     0.046 C 
BRANCH  18  24
ATOM     24  C   UNL     1       0.798  -0.833   0.876  1.00  0.00     0.034 C 
ATOM     25  C   UNL     1       0.995  -1.185  -0.571  1.00  0.00     0.009 C 
ENDBRANCH  18  24
ENDBRANCH  15  17
ENDBRANCH  10  15
ENDBRANCH   8   9
ENDBRANCH   6   8
ENDBRANCH   5   6
ENDBRANCH   4   5
ENDBRANCH   3   4
ENDBRANCH   2   3
ENDBRANCH   1   2
BRANCH   1  26
ATOM     26  C   UNL     1      -2.359   3.995   1.064  1.00  0.00     0.188 C 
BRANCH  26  27
ATOM     27  O   UNL     1      -2.548   4.920   0.000  1.00  0.00    -0.376 OA
BRANCH  27  28
ATOM     28  C   UNL     1      -3.663   4.608  -0.779  1.00  0.00     0.202 C 
BRANCH  28  29
ATOM     29  C   UNL     1      -3.566   3.181  -1.408  1.00  0.00     0.261 C 
BRANCH  29  30
ATOM     30  O   UNL     1      -2.298   3.003  -2.205  1.00  0.00    -0.460 OA
BRANCH  30  31
ATOM     31  C   UNL     1      -1.390   1.931  -2.146  1.00  0.00     0.338 C 
ATOM     32  O   UNL     1      -1.675   0.865  -1.624  1.00  0.00    -0.246 OA
BRANCH  31  33
ATOM     33  C   UNL     1       0.188   2.365  -2.616  1.00  0.00     0.060 A 
ATOM     34  C   UNL     1       1.702   1.490  -1.946  1.00  0.00     0.016 A 
ATOM     35  C   UNL     1       0.064   4.092  -2.276  1.00  0.00     0.016 A 
ATOM     36  C   UNL     1       2.790   2.298  -0.632  1.00  0.00     0.010 A 
ATOM     37  C   UNL     1       1.099   4.907  -1.107  1.00  0.00     0.010 A 
ATOM     38  C   UNL     1       2.342   4.035  -0.040  1.00  0.00    -0.014 A 
BRANCH  38  39
ATOM     39  C   UNL     1       2.617   5.098   1.133  1.00  0.00     0.031 A 
ATOM     40  C   UNL     1       2.982   6.684   0.108  1.00  0.00     0.074 A 
ATOM     41  C   UNL     1       2.588   5.001   2.747  1.00  0.00     0.049 A 
ATOM     42  N   UNL     1       4.003   7.477   0.442  1.00  0.00    -0.248 NA
ATOM     43  C   UNL     1       2.605   7.283  -1.204  1.00  0.00     0.031 C 
ATOM     44  C   UNL     1       2.391   6.053   4.087  1.00  0.00     0.029 A 
ATOM     45  N   UNL     1       2.617   4.014   3.692  1.00  0.00    -0.354 N 
ATOM     46  C   UNL     1       3.896   8.730   0.033  1.00  0.00     0.074 A 
ATOM     47  C   UNL     1       3.284   8.456  -1.233  1.00  0.00     0.031 C 
ATOM     48  C   UNL     1       2.227   5.507   5.319  1.00  0.00     0.029 A 
ATOM     49  C   UNL     1       2.490   4.117   5.144  1.00  0.00     0.049 A 
ATOM     50  H   UNL     1       2.743   3.101   3.345  1.00  0.00     0.167 HD
ATOM     51  C   UNL     1       4.259   9.727   0.906  1.00  0.00     0.034 A 
ATOM     52  C   UNL     1       2.965   3.161   6.015  1.00  0.00     0.034 A 
ATOM     53  C   UNL     1       4.465   9.303   2.392  1.00  0.00     0.049 A 
ATOM     54  C   UNL     1       4.444   3.956   5.959  1.00  0.00     0.074 A 
ATOM     55  C   UNL     1       3.719   9.581   3.542  1.00  0.00     0.029 A 
ATOM     56  N   UNL     1       5.419   8.353   2.861  1.00  0.00    -0.354 N 
ATOM     57  N   UNL     1       4.627   5.096   5.291  1.00  0.00    -0.248 NA
ATOM     58  C   UNL     1       5.610   3.722   6.796  1.00  0.00     0.031 C 
ATOM     59  C   UNL     1       4.141   8.731   4.630  1.00  0.00     0.029 A 
ATOM     60  C   UNL     1       5.179   7.904   4.208  1.00  0.00     0.049 A 
ATOM     61  H   UNL     1       6.172   8.033   2.313  1.00  0.00     0.167 HD
ATOM     62  C   UNL     1       5.771   5.758   5.545  1.00  0.00     0.074 A 
ATOM     63  C   UNL     1       6.357   4.829   6.539  1.00  0.00     0.031 C 
ATOM     64  C   UNL     1       6.131   6.975   4.956  1.00  0.00     0.034 A 
BRANCH  51  65
ATOM     65  C   UNL     1       4.156  11.197   0.505  1.00  0.00     0.023 A 
ATOM     66  C   UNL     1       4.380  12.186   1.486  1.00  0.00     0.012 A 
ATOM     67  C   UNL     1       3.896  11.684  -0.800  1.00  0.00     0.148 A 
ATOM     68  C   UNL     1       4.311  13.557   1.196  1.00  0.00     0.002 A 
ATOM     69  C   UNL     1       3.865  13.043  -1.103  1.00  0.00     0.091 A 
ATOM     70  F   UNL     1       3.652  10.842  -1.796  1.00  0.00    -0.205 F 
ATOM     71  C   UNL     1       4.061  13.989  -0.102  1.00  0.00     0.022 A 
BRANCH  69  72
ATOM     72  S   UNL     1       3.606  13.636  -2.788  1.00  0.00     0.127 S 
ATOM     73  O   UNL     1       2.334  14.348  -2.667  1.00  0.00    -0.237 OA
ATOM     74  O   UNL     1       4.769  14.495  -3.001  1.00  0.00    -0.237 OA
ATOM     75  O   UNL     1       3.561  12.459  -3.649  1.00  0.00    -0.744 OA
ENDBRANCH  69  72
ENDBRANCH  51  65
BRANCH  52  76
ATOM     76  C   UNL     1       2.518   1.492   5.475  1.00  0.00     0.023 A 
ATOM     77  C   UNL     1       0.864   0.721   5.636  1.00  0.00     0.012 A 
ATOM     78  C   UNL     1       3.055   1.806   4.018  1.00  0.00     0.148 A 
ATOM     79  C   UNL     1      -0.431   0.662   4.338  1.00  0.00     0.002 A 
ATOM     80  C   UNL     1       1.988   2.010   2.580  1.00  0.00     0.091 A 
ATOM     81  F   UNL     1       4.338   2.246   3.974  1.00  0.00    -0.205 F 
ATOM     82  C   UNL     1       0.016   1.404   2.715  1.00  0.00     0.022 A 
BRANCH  80  83
ATOM     83  S   UNL     1       3.813   0.945   1.770  1.00  0.00     0.127 S 
ATOM     84  O   UNL     1       3.463   0.107   0.624  1.00  0.00    -0.237 OA
ATOM     85  O   UNL     1       4.654   2.100   1.448  1.00  0.00    -0.237 OA
ATOM     86  O   UNL     1       4.311   0.089   2.858  1.00  0.00    -0.744 OA
ENDBRANCH  80  83
ENDBRANCH  52  76
BRANCH  64  87
ATOM     87  C   UNL     1       7.540   7.499   5.126  1.00  0.00     0.023 A 
ATOM     88  C   UNL     1       8.599   6.633   5.446  1.00  0.00     0.012 A 
ATOM     89  C   UNL     1       7.874   8.850   4.862  1.00  0.00     0.148 A 
ATOM     90  C   UNL     1       9.884   7.102   5.691  1.00  0.00     0.002 A 
ATOM     91  C   UNL     1       9.190   9.275   4.930  1.00  0.00     0.091 A 
ATOM     92  F   UNL     1       6.925   9.748   4.570  1.00  0.00    -0.205 F 
ATOM     93  C   UNL     1      10.185   8.424   5.415  1.00  0.00     0.022 A 
BRANCH  91  94
ATOM     94  S   UNL     1       9.711  10.869   4.294  1.00  0.00     0.127 S 
ATOM     95  O   UNL     1      10.079  11.569   5.524  1.00  0.00    -0.237 OA
ATOM     96  O   UNL     1      10.842  10.495   3.443  1.00  0.00    -0.237 OA
ATOM     97  O   UNL     1       8.571  11.422   3.576  1.00  0.00    -0.744 OA
ENDBRANCH  91  94
ENDBRANCH  64  87
ENDBRANCH  38  39
ENDBRANCH  31  33
ENDBRANCH  30  31
ENDBRANCH  29  30
ENDBRANCH  28  29
ENDBRANCH  27  28
ENDBRANCH  26  27
ENDBRANCH   1  26
TORSDOF 24
