REMARK SMILES O=C(CC1(NC(=O)C2(c3ccccc3)CC2)CCC1)OCCOCCOCCOC(=O)c1ccc(-c2c3nc(c(-c4cccc(S(=O)(=O)[O-])c4F)c4ccc([nH]4)c(-c4cccc(S(=O)(=O)[O-])c4F)c4nc(c(-c5cccc(S(=O)(=O)[O-])c5F)c5ccc2[nH]5)C=C4)C=C3)cc1
REMARK SMILES IDX 24 1 23 2 22 3 21 4 20 5 2 6 1 7 3 8 4 9 17 10 19 11 18 12
REMARK SMILES IDX 5 13 6 14 7 16 8 17 15 18 16 19 9 20 10 21 14 22 11 23 13 24
REMARK SMILES IDX 12 25 25 26 26 27 27 28 28 29 29 30 30 31 31 32 32 33 33 34
REMARK SMILES IDX 94 35 34 36 93 37 35 38 36 39 37 40 87 41 38 42 92 43 86 44
REMARK SMILES IDX 88 45 39 46 91 47 85 48 84 49 40 51 72 52 52 53 71 54 53 55
REMARK SMILES IDX 56 56 70 57 89 58 54 59 55 60 69 62 90 63 57 64 41 65 42 66
REMARK SMILES IDX 50 67 43 68 45 69 51 70 44 71 46 72 47 73 48 74 49 75 73 76
REMARK SMILES IDX 74 77 82 78 75 79 77 80 83 81 76 82 78 83 79 84 80 85 81 86
REMARK SMILES IDX 58 87 59 88 67 89 60 90 62 91 68 92 61 93 63 94 64 95 65 96
REMARK SMILES IDX 66 97
REMARK H PARENT 5 15 88 50 56 61
REMARK Flexibility Score: inf
ROOT
ATOM      1  C   UNL     1       2.470   0.146  -2.867  1.00  0.00     0.188 C 
ENDROOT
BRANCH   1   2
ATOM      2  O   UNL     1       3.671  -0.439  -2.346  1.00  0.00    -0.376 OA
BRANCH   2   3
ATOM      3  C   UNL     1       3.606  -1.815  -1.950  1.00  0.00     0.202 C 
BRANCH   3   4
ATOM      4  C   UNL     1       2.523  -2.147  -0.918  1.00  0.00     0.261 C 
BRANCH   4   5
ATOM      5  O   UNL     1       2.265  -0.930  -0.230  1.00  0.00    -0.463 OA
BRANCH   5   6
ATOM      6  C   UNL     1       1.962  -0.973   1.085  1.00  0.00     0.308 C 
ATOM      7  O   UNL     1       1.422  -1.927   1.630  1.00  0.00    -0.252 OA
BRANCH   6   8
ATOM      8  C   UNL     1       2.412   0.495   1.727  1.00  0.00     0.151 C 
BRANCH   8   9
ATOM      9  C   UNL     1       3.986   1.097   3.110  1.00  0.00     0.051 C 
ATOM     10  C   UNL     1       4.129   2.558   4.236  1.00  0.00     0.029 C 
ATOM     11  C   UNL     1       4.462   0.432   4.767  1.00  0.00     0.029 C 
ATOM     12  C   UNL     1       5.052   1.782   5.175  1.00  0.00     0.005 C 
BRANCH   9  13
ATOM     13  N   UNL     1       5.745   1.274   2.601  1.00  0.00    -0.349 N 
ATOM     14  C   UNL     1       6.235   2.127   1.618  1.00  0.00     0.231 C 
ATOM     15  H   UNL     1       6.403   0.711   3.070  1.00  0.00     0.164 HD
ATOM     16  O   UNL     1       7.420   2.392   1.470  1.00  0.00    -0.274 OA
BRANCH  14  17
ATOM     17  C   UNL     1       5.170   2.517   0.665  1.00  0.00     0.074 C 
ATOM     18  C   UNL     1       5.075   3.893   0.072  1.00  0.00     0.023 C 
ATOM     19  C   UNL     1       5.475   2.731  -0.795  1.00  0.00     0.023 C 
BRANCH  17  20
ATOM     20  C   UNL     1       3.984   1.728   1.101  1.00  0.00    -0.032 A 
ATOM     21  C   UNL     1       2.748   2.525   2.145  1.00  0.00     0.005 A 
ATOM     22  C   UNL     1       4.358  -0.042   1.357  1.00  0.00     0.005 A 
ATOM     23  C   UNL     1       1.939   1.603   3.461  1.00  0.00     0.000 A 
ATOM     24  C   UNL     1       3.609  -0.927   2.720  1.00  0.00     0.000 A 
ATOM     25  C   UNL     1       2.337  -0.125   3.710  1.00  0.00     0.000 A 
ENDBRANCH  17  20
ENDBRANCH  14  17
ENDBRANCH   9  13
ENDBRANCH   8   9
ENDBRANCH   6   8
ENDBRANCH   5   6
ENDBRANCH   4   5
ENDBRANCH   3   4
ENDBRANCH   2   3
ENDBRANCH   1   2
BRANCH   1  26
ATOM     26  C   UNL     1       2.138  -0.370  -4.265  1.00  0.00     0.188 C 
BRANCH  26  27
ATOM     27  O   UNL     1       2.617   0.479  -5.301  1.00  0.00    -0.376 OA
BRANCH  27  28
ATOM     28  C   UNL     1       4.028   0.675  -5.341  1.00  0.00     0.202 C 
BRANCH  28  29
ATOM     29  C   UNL     1       4.314   2.099  -5.821  1.00  0.00     0.261 C 
BRANCH  29  30
ATOM     30  O   UNL     1       3.889   3.058  -4.829  1.00  0.00    -0.460 OA
BRANCH  30  31
ATOM     31  C   UNL     1       2.608   3.487  -4.951  1.00  0.00     0.338 C 
ATOM     32  O   UNL     1       1.812   3.187  -5.827  1.00  0.00    -0.246 OA
BRANCH  31  33
ATOM     33  C   UNL     1       2.248   4.398  -3.840  1.00  0.00     0.060 A 
ATOM     34  C   UNL     1       0.913   4.417  -3.417  1.00  0.00     0.016 A 
ATOM     35  C   UNL     1       3.164   5.313  -3.308  1.00  0.00     0.016 A 
ATOM     36  C   UNL     1       0.476   5.392  -2.520  1.00  0.00     0.010 A 
ATOM     37  C   UNL     1       2.723   6.298  -2.417  1.00  0.00     0.010 A 
ATOM     38  C   UNL     1       1.368   6.369  -2.058  1.00  0.00    -0.014 A 
BRANCH  38  39
ATOM     39  C   UNL     1       0.833   7.559  -1.355  1.00  0.00     0.031 A 
ATOM     40  C   UNL     1       0.347   8.725  -2.175  1.00  0.00     0.074 A 
ATOM     41  C   UNL     1       0.753   7.602  -0.014  1.00  0.00     0.049 A 
ATOM     42  N   UNL     1      -0.292   9.797  -1.786  1.00  0.00    -0.248 NA
ATOM     43  C   UNL     1       0.608   8.669  -3.623  1.00  0.00     0.031 C 
ATOM     44  C   UNL     1       1.213   6.556   0.896  1.00  0.00     0.029 A 
ATOM     45  N   UNL     1       0.257   8.578   0.813  1.00  0.00    -0.354 N 
ATOM     46  C   UNL     1      -0.530  10.532  -2.940  1.00  0.00     0.074 A 
ATOM     47  C   UNL     1       0.060   9.802  -4.041  1.00  0.00     0.031 C 
ATOM     48  C   UNL     1       0.986   6.952   2.162  1.00  0.00     0.029 A 
ATOM     49  C   UNL     1       0.353   8.270   2.148  1.00  0.00     0.049 A 
ATOM     50  H   UNL     1      -0.131   9.419   0.481  1.00  0.00     0.167 HD
ATOM     51  C   UNL     1      -1.215  11.691  -3.080  1.00  0.00     0.034 A 
ATOM     52  C   UNL     1      -0.044   8.967   3.231  1.00  0.00     0.034 A 
ATOM     53  C   UNL     1      -1.814  12.416  -1.995  1.00  0.00     0.049 A 
ATOM     54  C   UNL     1      -0.755  10.282   3.053  1.00  0.00     0.074 A 
ATOM     55  C   UNL     1      -2.588  13.563  -2.047  1.00  0.00     0.029 A 
ATOM     56  N   UNL     1      -1.690  12.075  -0.659  1.00  0.00    -0.354 N 
ATOM     57  N   UNL     1      -1.137  10.869   1.945  1.00  0.00    -0.248 NA
ATOM     58  C   UNL     1      -1.117  11.015   4.277  1.00  0.00     0.031 C 
ATOM     59  C   UNL     1      -2.933  13.914  -0.736  1.00  0.00     0.029 A 
ATOM     60  C   UNL     1      -2.358  12.996   0.127  1.00  0.00     0.049 A 
ATOM     61  H   UNL     1      -1.199  11.292  -0.320  1.00  0.00     0.167 HD
ATOM     62  C   UNL     1      -1.811  12.021   2.337  1.00  0.00     0.074 A 
ATOM     63  C   UNL     1      -1.793  12.046   3.785  1.00  0.00     0.031 C 
ATOM     64  C   UNL     1      -2.381  12.979   1.566  1.00  0.00     0.034 A 
BRANCH  51  65
ATOM     65  C   UNL     1      -1.433  12.192  -4.477  1.00  0.00     0.023 A 
ATOM     66  C   UNL     1      -2.547  11.710  -5.192  1.00  0.00     0.012 A 
ATOM     67  C   UNL     1      -0.582  13.139  -5.071  1.00  0.00     0.148 A 
ATOM     68  C   UNL     1      -2.809  12.161  -6.484  1.00  0.00     0.002 A 
ATOM     69  C   UNL     1      -0.856  13.593  -6.357  1.00  0.00     0.091 A 
ATOM     70  F   UNL     1       0.498  13.553  -4.392  1.00  0.00    -0.205 F 
ATOM     71  C   UNL     1      -1.968  13.107  -7.065  1.00  0.00     0.022 A 
BRANCH  69  72
ATOM     72  S   UNL     1       0.181  14.828  -7.147  1.00  0.00     0.127 S 
ATOM     73  O   UNL     1       1.188  13.998  -7.803  1.00  0.00    -0.237 OA
ATOM     74  O   UNL     1      -0.747  15.495  -8.063  1.00  0.00    -0.237 OA
ATOM     75  O   UNL     1       0.654  15.674  -6.059  1.00  0.00    -0.744 OA
ENDBRANCH  69  72
ENDBRANCH  51  65
BRANCH  52  76
ATOM     76  C   UNL     1       0.143   8.390   4.588  1.00  0.00     0.023 A 
ATOM     77  C   UNL     1      -0.971   7.872   5.274  1.00  0.00     0.012 A 
ATOM     78  C   UNL     1       1.410   8.331   5.194  1.00  0.00     0.148 A 
ATOM     79  C   UNL     1      -0.827   7.318   6.547  1.00  0.00     0.002 A 
ATOM     80  C   UNL     1       1.551   7.744   6.447  1.00  0.00     0.091 A 
ATOM     81  F   UNL     1       2.464   8.842   4.540  1.00  0.00    -0.205 F 
ATOM     82  C   UNL     1       0.435   7.246   7.132  1.00  0.00     0.022 A 
BRANCH  80  83
ATOM     83  S   UNL     1       3.187   7.550   7.160  1.00  0.00     0.127 S 
ATOM     84  O   UNL     1       3.506   8.908   7.586  1.00  0.00    -0.237 OA
ATOM     85  O   UNL     1       2.962   6.602   8.253  1.00  0.00    -0.237 OA
ATOM     86  O   UNL     1       3.971   7.005   6.056  1.00  0.00    -0.744 OA
ENDBRANCH  80  83
ENDBRANCH  52  76
BRANCH  64  87
ATOM     87  C   UNL     1      -3.031  14.141   2.261  1.00  0.00     0.023 A 
ATOM     88  C   UNL     1      -2.227  15.207   2.706  1.00  0.00     0.012 A 
ATOM     89  C   UNL     1      -4.429  14.226   2.394  1.00  0.00     0.148 A 
ATOM     90  C   UNL     1      -2.805  16.338   3.283  1.00  0.00     0.002 A 
ATOM     91  C   UNL     1      -5.000  15.368   2.947  1.00  0.00     0.091 A 
ATOM     92  F   UNL     1      -5.186  13.198   1.980  1.00  0.00    -0.205 F 
ATOM     93  C   UNL     1      -4.192  16.424   3.395  1.00  0.00     0.022 A 
BRANCH  91  94
ATOM     94  S   UNL     1      -6.786  15.525   3.041  1.00  0.00     0.127 S 
ATOM     95  O   UNL     1      -7.118  14.655   4.165  1.00  0.00    -0.237 OA
ATOM     96  O   UNL     1      -6.985  16.952   3.302  1.00  0.00    -0.237 OA
ATOM     97  O   UNL     1      -7.250  15.093   1.727  1.00  0.00    -0.744 OA
ENDBRANCH  91  94
ENDBRANCH  64  87
ENDBRANCH  38  39
ENDBRANCH  31  33
ENDBRANCH  30  31
ENDBRANCH  29  30
ENDBRANCH  28  29
ENDBRANCH  27  28
ENDBRANCH  26  27
ENDBRANCH   1  26
TORSDOF 24
