REMARK SMILES O=C(OCCOCCOCCOC(=O)c1sccc1S(=O)(=O)N1CCO[C@@H]2CCCC[C@@H]21)c1ccc(-c2c3nc(c(-c4cccc(S(=O)(=O)[O-])c4F)c4ccc([nH]4)c(-c4cccc(S(=O)(=O)[O-])c4F)c4nc(c(-c5cccc(S(=O)(=O)[O-])c5F)c5ccc2[nH]5)C=C4)C=C3)cc1
REMARK SMILES IDX 7 1 6 2 5 3 4 4 3 5 2 6 1 7 33 8 34 9 95 10 35 11 94 12
REMARK SMILES IDX 36 13 37 14 38 15 88 16 39 17 93 18 87 19 89 20 40 21 92 22
REMARK SMILES IDX 86 23 85 24 41 26 73 27 53 28 72 29 54 30 57 31 71 32 90 33
REMARK SMILES IDX 55 34 56 35 70 37 91 38 58 39 42 40 43 41 51 42 44 43 46 44
REMARK SMILES IDX 52 45 45 46 47 47 48 48 49 49 50 50 74 51 75 52 83 53 76 54
REMARK SMILES IDX 78 55 84 56 77 57 79 58 80 59 81 60 82 61 59 62 60 63 68 64
REMARK SMILES IDX 61 65 63 66 69 67 62 68 64 69 65 70 66 71 67 72 8 73 9 74
REMARK SMILES IDX 10 75 11 76 12 77 13 78 14 79 15 80 16 81 19 82 17 83 18 84
REMARK SMILES IDX 20 85 21 86 22 87 23 88 24 89 32 90 25 91 27 92 31 93 26 94
REMARK SMILES IDX 28 95 30 96 29 97
REMARK H PARENT 89 25 57 36
REMARK Flexibility Score: inf
ROOT
ATOM      1  C   UNL     1       1.799  -0.901  -0.643  1.00  0.00     0.188 C 
ENDROOT
BRANCH   1   2
ATOM      2  O   UNL     1       3.226  -0.831  -0.621  1.00  0.00    -0.376 OA
BRANCH   2   3
ATOM      3  C   UNL     1       3.816  -1.478   0.512  1.00  0.00     0.202 C 
BRANCH   3   4
ATOM      4  C   UNL     1       3.951  -0.573   1.746  1.00  0.00     0.261 C 
BRANCH   4   5
ATOM      5  O   UNL     1       2.717   0.074   2.099  1.00  0.00    -0.460 OA
BRANCH   5   6
ATOM      6  C   UNL     1       2.149   1.196   1.593  1.00  0.00     0.338 C 
ATOM      7  O   UNL     1       0.988   1.439   1.925  1.00  0.00    -0.246 OA
BRANCH   6   8
ATOM      8  C   UNL     1       2.833   2.172   0.678  1.00  0.00     0.060 A 
ATOM      9  C   UNL     1       4.027   1.963  -0.016  1.00  0.00     0.016 A 
ATOM     10  C   UNL     1       2.191   3.414   0.502  1.00  0.00     0.016 A 
ATOM     11  C   UNL     1       4.619   2.973  -0.768  1.00  0.00     0.010 A 
ATOM     12  C   UNL     1       2.764   4.426  -0.275  1.00  0.00     0.010 A 
ATOM     13  C   UNL     1       4.009   4.216  -0.871  1.00  0.00    -0.014 A 
BRANCH  13  14
ATOM     14  C   UNL     1       4.811   5.339  -1.382  1.00  0.00     0.031 A 
ATOM     15  C   UNL     1       5.502   6.202  -0.373  1.00  0.00     0.074 A 
ATOM     16  C   UNL     1       5.005   5.519  -2.698  1.00  0.00     0.049 A 
ATOM     17  N   UNL     1       6.208   7.283  -0.554  1.00  0.00    -0.248 NA
ATOM     18  C   UNL     1       5.403   5.769   1.033  1.00  0.00     0.031 C 
ATOM     19  C   UNL     1       4.501   4.639  -3.749  1.00  0.00     0.029 A 
ATOM     20  N   UNL     1       5.673   6.505  -3.373  1.00  0.00    -0.354 N 
ATOM     21  C   UNL     1       6.596   7.686   0.716  1.00  0.00     0.074 A 
ATOM     22  C   UNL     1       6.069   6.726   1.657  1.00  0.00     0.031 C 
ATOM     23  C   UNL     1       4.844   5.149  -4.944  1.00  0.00     0.029 A 
ATOM     24  C   UNL     1       5.532   6.418  -4.737  1.00  0.00     0.049 A 
ATOM     25  H   UNL     1       6.200   7.206  -2.926  1.00  0.00     0.167 HD
ATOM     26  C   UNL     1       7.319   8.774   1.062  1.00  0.00     0.034 A 
ATOM     27  C   UNL     1       5.874   7.297  -5.698  1.00  0.00     0.034 A 
ATOM     28  C   UNL     1       7.809   9.727   0.110  1.00  0.00     0.049 A 
ATOM     29  C   UNL     1       6.576   8.562  -5.284  1.00  0.00     0.074 A 
ATOM     30  C   UNL     1       8.511  10.893   0.339  1.00  0.00     0.029 A 
ATOM     31  N   UNL     1       7.623   9.628  -1.263  1.00  0.00    -0.354 N 
ATOM     32  N   UNL     1       6.949   8.941  -4.084  1.00  0.00    -0.248 NA
ATOM     33  C   UNL     1       6.928   9.510  -6.349  1.00  0.00     0.031 C 
ATOM     34  C   UNL     1       8.712  11.523  -0.894  1.00  0.00     0.029 A 
ATOM     35  C   UNL     1       8.183  10.721  -1.895  1.00  0.00     0.049 A 
ATOM     36  H   UNL     1       7.160   8.888  -1.718  1.00  0.00     0.167 HD
ATOM     37  C   UNL     1       7.618  10.146  -4.252  1.00  0.00     0.074 A 
ATOM     38  C   UNL     1       7.602  10.432  -5.673  1.00  0.00     0.031 C 
ATOM     39  C   UNL     1       8.191  10.947  -3.319  1.00  0.00     0.034 A 
BRANCH  26  40
ATOM     40  C   UNL     1       7.540   9.001   2.531  1.00  0.00     0.023 A 
ATOM     41  C   UNL     1       8.411   8.165   3.259  1.00  0.00     0.012 A 
ATOM     42  C   UNL     1       6.837  10.021   3.200  1.00  0.00     0.148 A 
ATOM     43  C   UNL     1       8.541   8.311   4.641  1.00  0.00     0.002 A 
ATOM     44  C   UNL     1       7.009  10.191   4.567  1.00  0.00     0.091 A 
ATOM     45  F   UNL     1       5.988  10.780   2.494  1.00  0.00    -0.205 F 
ATOM     46  C   UNL     1       7.846   9.327   5.292  1.00  0.00     0.022 A 
BRANCH  44  47
ATOM     47  S   UNL     1       6.206  11.509   5.482  1.00  0.00     0.127 S 
ATOM     48  O   UNL     1       5.258  10.761   6.306  1.00  0.00    -0.237 OA
ATOM     49  O   UNL     1       7.327  12.093   6.220  1.00  0.00    -0.237 OA
ATOM     50  O   UNL     1       5.609  12.387   4.486  1.00  0.00    -0.744 OA
ENDBRANCH  44  47
ENDBRANCH  26  40
BRANCH  27  51
ATOM     51  C   UNL     1       5.532   7.024  -7.123  1.00  0.00     0.023 A 
ATOM     52  C   UNL     1       6.554   6.793  -8.062  1.00  0.00     0.012 A 
ATOM     53  C   UNL     1       4.189   6.984  -7.550  1.00  0.00     0.148 A 
ATOM     54  C   UNL     1       6.247   6.554  -9.404  1.00  0.00     0.002 A 
ATOM     55  C   UNL     1       3.887   6.696  -8.875  1.00  0.00     0.091 A 
ATOM     56  F   UNL     1       3.229   7.223  -6.645  1.00  0.00    -0.205 F 
ATOM     57  C   UNL     1       4.915   6.496  -9.809  1.00  0.00     0.022 A 
BRANCH  55  58
ATOM     58  S   UNL     1       2.198   6.497  -9.453  1.00  0.00     0.127 S 
ATOM     59  O   UNL     1       2.022   7.692 -10.275  1.00  0.00    -0.237 OA
ATOM     60  O   UNL     1       2.277   5.242 -10.198  1.00  0.00    -0.237 OA
ATOM     61  O   UNL     1       1.379   6.429  -8.250  1.00  0.00    -0.744 OA
ENDBRANCH  55  58
ENDBRANCH  27  51
BRANCH  39  62
ATOM     62  C   UNL     1       8.909  12.177  -3.803  1.00  0.00     0.023 A 
ATOM     63  C   UNL     1       8.180  13.290  -4.262  1.00  0.00     0.012 A 
ATOM     64  C   UNL     1      10.311  12.258  -3.693  1.00  0.00     0.148 A 
ATOM     65  C   UNL     1       8.842  14.462  -4.627  1.00  0.00     0.002 A 
ATOM     66  C   UNL     1      10.957  13.446  -4.004  1.00  0.00     0.091 A 
ATOM     67  F   UNL     1      10.982  11.176  -3.272  1.00  0.00    -0.205 F 
ATOM     68  C   UNL     1      10.226  14.545  -4.483  1.00  0.00     0.022 A 
BRANCH  66  69
ATOM     69  S   UNL     1      12.717  13.677  -3.738  1.00  0.00     0.127 S 
ATOM     70  O   UNL     1      13.221  13.725  -5.110  1.00  0.00    -0.237 OA
ATOM     71  O   UNL     1      12.757  14.955  -3.028  1.00  0.00    -0.237 OA
ATOM     72  O   UNL     1      13.161  12.534  -2.951  1.00  0.00    -0.744 OA
ENDBRANCH  66  69
ENDBRANCH  39  62
ENDBRANCH  13  14
ENDBRANCH   6   8
ENDBRANCH   5   6
ENDBRANCH   4   5
ENDBRANCH   3   4
ENDBRANCH   2   3
ENDBRANCH   1   2
BRANCH   1  73
ATOM     73  C   UNL     1       1.201  -1.944  -1.587  1.00  0.00     0.188 C 
BRANCH  73  74
ATOM     74  O   UNL     1       1.916  -3.169  -1.691  1.00  0.00    -0.376 OA
BRANCH  74  75
ATOM     75  C   UNL     1       3.113  -3.121  -2.474  1.00  0.00     0.202 C 
BRANCH  75  76
ATOM     76  C   UNL     1       2.943  -2.611  -3.904  1.00  0.00     0.261 C 
BRANCH  76  77
ATOM     77  O   UNL     1       2.807  -1.176  -3.976  1.00  0.00    -0.459 OA
BRANCH  77  78
ATOM     78  C   UNL     1       1.959  -0.722  -4.947  1.00  0.00     0.349 C 
ATOM     79  O   UNL     1       1.294  -1.449  -5.674  1.00  0.00    -0.245 OA
BRANCH  78  80
ATOM     80  C   UNL     1       1.957   0.717  -5.013  1.00  0.00     0.132 A 
ATOM     81  S   UNL     1       0.905   1.603  -3.993  1.00  0.00    -0.136 S 
ATOM     82  C   UNL     1       2.611   1.544  -5.903  1.00  0.00     0.108 A 
ATOM     83  C   UNL     1       1.216   3.063  -4.832  1.00  0.00     0.067 A 
ATOM     84  C   UNL     1       2.135   2.889  -5.845  1.00  0.00     0.034 A 
BRANCH  82  85
ATOM     85  S   UNL     1       3.819   1.011  -7.023  1.00  0.00     0.245 S 
ATOM     86  O   UNL     1       3.032   0.512  -8.137  1.00  0.00    -0.207 OA
ATOM     87  O   UNL     1       4.731   2.116  -7.136  1.00  0.00    -0.207 OA
BRANCH  85  88
ATOM     88  N   UNL     1       4.652  -0.308  -6.316  1.00  0.00    -0.190 NA
ATOM     89  C   UNL     1       4.485  -1.589  -7.046  1.00  0.00     0.131 C 
ATOM     90  C   UNL     1       5.963  -0.024  -5.636  1.00  0.00     0.102 C 
ATOM     91  C   UNL     1       5.435  -2.704  -6.627  1.00  0.00     0.177 C 
ATOM     92  C   UNL     1       6.803  -1.298  -5.356  1.00  0.00     0.136 C 
ATOM     93  C   UNL     1       5.787   0.871  -4.392  1.00  0.00     0.023 C 
ATOM     94  O   UNL     1       6.014  -2.495  -5.343  1.00  0.00    -0.375 OA
ATOM     95  C   UNL     1       7.582  -1.245  -4.044  1.00  0.00     0.034 C 
ATOM     96  C   UNL     1       5.750   0.187  -3.030  1.00  0.00     0.002 C 
ATOM     97  C   UNL     1       6.675  -1.005  -2.851  1.00  0.00     0.003 C 
ENDBRANCH  85  88
ENDBRANCH  82  85
ENDBRANCH  78  80
ENDBRANCH  77  78
ENDBRANCH  76  77
ENDBRANCH  75  76
ENDBRANCH  74  75
ENDBRANCH  73  74
ENDBRANCH   1  73
TORSDOF 22
