REMARK SMILES CNC(=O)CCNC(=O)NC[C@@H]1CC[C@@H](C(=O)OCCOCCOCCOC(=O)c2ccc(-c3c4nc(c(-c5cccc(S(=O)(=O)[O-])c5F)c5ccc([nH]5)c(-c5cccc(S(=O)(=O)[O-])c5F)c5nc(c(-c6cccc(S(=O)(=O)[O-])c6F)c6ccc3[nH]6)C=C5)C=C4)cc2)O1
REMARK SMILES IDX 22 1 21 2 20 3 19 4 18 5 16 6 17 7 15 8 12 9 13 10 93 11
REMARK SMILES IDX 14 12 11 13 10 14 7 15 8 16 9 18 6 20 5 21 3 22 1 23 2 24
REMARK SMILES IDX 4 26 23 27 24 28 25 29 26 30 27 31 28 32 29 33 30 34 31 35
REMARK SMILES IDX 92 36 32 37 91 38 33 39 34 40 35 41 85 42 36 43 90 44 84 45
REMARK SMILES IDX 86 46 37 47 89 48 83 49 82 50 38 52 70 53 50 54 69 55 51 56
REMARK SMILES IDX 54 57 68 58 87 59 52 60 53 61 67 63 88 64 55 65 39 66 40 67
REMARK SMILES IDX 48 68 41 69 43 70 49 71 42 72 44 73 45 74 46 75 47 76 71 77
REMARK SMILES IDX 72 78 80 79 73 80 75 81 81 82 74 83 76 84 77 85 78 86 79 87
REMARK SMILES IDX 56 88 57 89 65 90 58 91 60 92 66 93 59 94 61 95 62 96 63 97
REMARK SMILES IDX 64 98
REMARK H PARENT 7 17 10 19 2 25 86 51 54 62
REMARK Flexibility Score: inf
ROOT
ATOM      1  C   UNL     1       5.360   6.566   0.551  1.00  0.00     0.188 C 
ENDROOT
BRANCH   1   2
ATOM      2  O   UNL     1       6.623   7.182   0.377  1.00  0.00    -0.376 OA
BRANCH   2   3
ATOM      3  C   UNL     1       6.673   8.527  -0.072  1.00  0.00     0.202 C 
BRANCH   3   4
ATOM      4  C   UNL     1       5.779   8.969  -1.233  1.00  0.00     0.261 C 
BRANCH   4   5
ATOM      5  O   UNL     1       4.382   8.727  -0.985  1.00  0.00    -0.461 OA
BRANCH   5   6
ATOM      6  C   UNL     1       3.655   8.342  -2.071  1.00  0.00     0.335 C 
ATOM      7  O   UNL     1       4.089   8.327  -3.219  1.00  0.00    -0.249 OA
BRANCH   6   8
ATOM      8  C   UNL     1       2.231   7.884  -1.716  1.00  0.00     0.228 C 
ATOM      9  C   UNL     1       1.064   6.378  -0.331  1.00  0.00     0.138 C 
ATOM     10  C   UNL     1       0.416   7.754  -0.220  1.00  0.00     0.037 C 
ATOM     11  O   UNL     1       2.136   6.519  -1.292  1.00  0.00    -0.361 OA
ATOM     12  C   UNL     1       1.516   8.700  -0.653  1.00  0.00     0.047 C 
BRANCH   9  13
ATOM     13  C   UNL     1       0.063   5.288  -0.765  1.00  0.00     0.149 C 
BRANCH  13  14
ATOM     14  N   UNL     1       0.716   4.159  -1.395  1.00  0.00    -0.336 N 
ATOM     15  N   UNL     1       0.937   2.354   0.114  1.00  0.00    -0.338 N 
ATOM     16  C   UNL     1       1.133   2.948  -1.056  1.00  0.00     0.314 C 
ATOM     17  H   UNL     1       1.443   1.512   0.169  1.00  0.00     0.165 HD
ATOM     18  O   UNL     1       1.778   2.324  -1.900  1.00  0.00    -0.249 OA
ATOM     19  H   UNL     1       0.902   4.344  -2.343  1.00  0.00     0.165 HD
BRANCH  15  20
ATOM     20  C   UNL     1       0.192   2.590   1.333  1.00  0.00     0.127 C 
BRANCH  20  21
ATOM     21  C   UNL     1      -0.938   1.578   1.477  1.00  0.00     0.121 C 
BRANCH  21  22
ATOM     22  C   UNL     1      -0.418   0.272   2.044  1.00  0.00     0.221 C 
ATOM     23  C   UNL     1       0.169  -0.742  -0.224  1.00  0.00     0.142 C 
ATOM     24  N   UNL     1       0.083  -0.688   1.221  1.00  0.00    -0.359 N 
ATOM     25  H   UNL     1       0.447  -1.477   1.684  1.00  0.00     0.163 HD
ATOM     26  O   UNL     1      -0.405   0.094   3.264  1.00  0.00    -0.275 OA
ENDBRANCH  21  22
ENDBRANCH  20  21
ENDBRANCH  15  20
ENDBRANCH  13  14
ENDBRANCH   9  13
ENDBRANCH   6   8
ENDBRANCH   5   6
ENDBRANCH   4   5
ENDBRANCH   3   4
ENDBRANCH   2   3
ENDBRANCH   1   2
BRANCH   1  27
ATOM     27  C   UNL     1       4.345   7.182   1.538  1.00  0.00     0.188 C 
BRANCH  27  28
ATOM     28  O   UNL     1       4.649   8.348   2.279  1.00  0.00    -0.376 OA
BRANCH  28  29
ATOM     29  C   UNL     1       5.721   8.313   3.210  1.00  0.00     0.202 C 
BRANCH  29  30
ATOM     30  C   UNL     1       5.950   7.113   4.138  1.00  0.00     0.261 C 
BRANCH  30  31
ATOM     31  O   UNL     1       5.907   5.831   3.500  1.00  0.00    -0.460 OA
BRANCH  31  32
ATOM     32  C   UNL     1       5.014   4.959   4.011  1.00  0.00     0.338 C 
ATOM     33  O   UNL     1       4.235   5.153   4.954  1.00  0.00    -0.246 OA
BRANCH  32  34
ATOM     34  C   UNL     1       4.982   3.741   3.203  1.00  0.00     0.060 A 
ATOM     35  C   UNL     1       4.056   3.646   2.164  1.00  0.00     0.016 A 
ATOM     36  C   UNL     1       5.805   2.657   3.512  1.00  0.00     0.016 A 
ATOM     37  C   UNL     1       3.962   2.472   1.432  1.00  0.00     0.010 A 
ATOM     38  C   UNL     1       5.661   1.458   2.801  1.00  0.00     0.010 A 
ATOM     39  C   UNL     1       4.702   1.342   1.781  1.00  0.00    -0.014 A 
BRANCH  39  40
ATOM     40  C   UNL     1       4.313   0.023   1.209  1.00  0.00     0.031 A 
ATOM     41  C   UNL     1       3.660  -0.996   2.109  1.00  0.00     0.074 A 
ATOM     42  C   UNL     1       4.425  -0.247  -0.105  1.00  0.00     0.049 A 
ATOM     43  N   UNL     1       3.315  -2.232   1.853  1.00  0.00    -0.248 NA
ATOM     44  C   UNL     1       3.335  -0.555   3.475  1.00  0.00     0.031 C 
ATOM     45  C   UNL     1       4.904   0.684  -1.125  1.00  0.00     0.029 A 
ATOM     46  N   UNL     1       4.127  -1.390  -0.809  1.00  0.00    -0.354 N 
ATOM     47  C   UNL     1       2.822  -2.742   3.048  1.00  0.00     0.074 A 
ATOM     48  C   UNL     1       2.872  -1.671   4.018  1.00  0.00     0.031 C 
ATOM     49  C   UNL     1       4.860   0.080  -2.324  1.00  0.00     0.029 A 
ATOM     50  C   UNL     1       4.419  -1.301  -2.151  1.00  0.00     0.049 A 
ATOM     51  H   UNL     1       3.741  -2.195  -0.393  1.00  0.00     0.167 HD
ATOM     52  C   UNL     1       2.363  -3.988   3.316  1.00  0.00     0.034 A 
ATOM     53  C   UNL     1       4.374  -2.234  -3.123  1.00  0.00     0.034 A 
ATOM     54  C   UNL     1       2.256  -5.041   2.343  1.00  0.00     0.049 A 
ATOM     55  C   UNL     1       3.923  -3.632  -2.786  1.00  0.00     0.074 A 
ATOM     56  C   UNL     1       1.794  -6.333   2.524  1.00  0.00     0.029 A 
ATOM     57  N   UNL     1       2.615  -4.929   1.009  1.00  0.00    -0.354 N 
ATOM     58  N   UNL     1       3.445  -4.100  -1.658  1.00  0.00    -0.248 NA
ATOM     59  C   UNL     1       3.996  -4.631  -3.864  1.00  0.00     0.031 C 
ATOM     60  C   UNL     1       1.893  -7.009   1.303  1.00  0.00     0.029 A 
ATOM     61  C   UNL     1       2.387  -6.128   0.355  1.00  0.00     0.049 A 
ATOM     62  H   UNL     1       2.980  -4.117   0.589  1.00  0.00     0.167 HD
ATOM     63  C   UNL     1       3.138  -5.436  -1.898  1.00  0.00     0.074 A 
ATOM     64  C   UNL     1       3.456  -5.695  -3.287  1.00  0.00     0.031 C 
ATOM     65  C   UNL     1       2.654  -6.368  -1.040  1.00  0.00     0.034 A 
BRANCH  52  66
ATOM     66  C   UNL     1       1.956  -4.286   4.734  1.00  0.00     0.023 A 
ATOM     67  C   UNL     1       0.759  -3.757   5.256  1.00  0.00     0.012 A 
ATOM     68  C   UNL     1       2.754  -5.122   5.541  1.00  0.00     0.148 A 
ATOM     69  C   UNL     1       0.379  -4.031   6.569  1.00  0.00     0.002 A 
ATOM     70  C   UNL     1       2.345  -5.427   6.833  1.00  0.00     0.091 A 
ATOM     71  F   UNL     1       3.904  -5.591   5.036  1.00  0.00    -0.205 F 
ATOM     72  C   UNL     1       1.164  -4.874   7.353  1.00  0.00     0.022 A 
BRANCH  70  73
ATOM     73  S   UNL     1       3.255  -6.562   7.887  1.00  0.00     0.127 S 
ATOM     74  O   UNL     1       3.872  -5.647   8.846  1.00  0.00    -0.237 OA
ATOM     75  O   UNL     1       2.186  -7.395   8.441  1.00  0.00    -0.237 OA
ATOM     76  O   UNL     1       4.178  -7.269   7.011  1.00  0.00    -0.744 OA
ENDBRANCH  70  73
ENDBRANCH  52  66
BRANCH  53  77
ATOM     77  C   UNL     1       4.773  -1.887  -4.518  1.00  0.00     0.023 A 
ATOM     78  C   UNL     1       3.807  -1.912  -5.543  1.00  0.00     0.012 A 
ATOM     79  C   UNL     1       6.101  -1.540  -4.836  1.00  0.00     0.148 A 
ATOM     80  C   UNL     1       4.162  -1.623  -6.862  1.00  0.00     0.002 A 
ATOM     81  C   UNL     1       6.434  -1.196  -6.141  1.00  0.00     0.091 A 
ATOM     82  F   UNL     1       7.014  -1.555  -3.855  1.00  0.00    -0.205 F 
ATOM     83  C   UNL     1       5.471  -1.254  -7.159  1.00  0.00     0.022 A 
BRANCH  81  84
ATOM     84  S   UNL     1       8.067  -0.595  -6.589  1.00  0.00     0.127 S 
ATOM     85  O   UNL     1       8.597  -1.716  -7.361  1.00  0.00    -0.237 OA
ATOM     86  O   UNL     1       7.745   0.597  -7.376  1.00  0.00    -0.237 OA
ATOM     87  O   UNL     1       8.744  -0.318  -5.330  1.00  0.00    -0.744 OA
ENDBRANCH  81  84
ENDBRANCH  53  77
BRANCH  65  88
ATOM     88  C   UNL     1       2.394  -7.753  -1.576  1.00  0.00     0.023 A 
ATOM     89  C   UNL     1       3.475  -8.603  -1.882  1.00  0.00     0.012 A 
ATOM     90  C   UNL     1       1.077  -8.239  -1.705  1.00  0.00     0.148 A 
ATOM     91  C   UNL     1       3.250  -9.902  -2.339  1.00  0.00     0.002 A 
ATOM     92  C   UNL     1       0.861  -9.551  -2.114  1.00  0.00     0.091 A 
ATOM     93  F   UNL     1       0.059  -7.411  -1.427  1.00  0.00    -0.205 F 
ATOM     94  C   UNL     1       1.946 -10.379  -2.443  1.00  0.00     0.022 A 
BRANCH  92  95
ATOM     95  S   UNL     1      -0.779 -10.281  -2.186  1.00  0.00     0.127 S 
ATOM     96  O   UNL     1      -1.003 -10.370  -3.628  1.00  0.00    -0.237 OA
ATOM     97  O   UNL     1      -0.576 -11.568  -1.520  1.00  0.00    -0.237 OA
ATOM     98  O   UNL     1      -1.658  -9.364  -1.473  1.00  0.00    -0.744 OA
ENDBRANCH  92  95
ENDBRANCH  65  88
ENDBRANCH  39  40
ENDBRANCH  32  34
ENDBRANCH  31  32
ENDBRANCH  30  31
ENDBRANCH  29  30
ENDBRANCH  28  29
ENDBRANCH  27  28
ENDBRANCH   1  27
TORSDOF 25
