REMARK SMILES C[C@@H](C(=O)OCCOCCOCCOC(=O)c1ccc(-c2c3nc(c(-c4cccc(S(=O)(=O)[O-])c4F)c4ccc([nH]4)c(-c4cccc(S(=O)(=O)[O-])c4F)c4nc(c(-c5cccc(S(=O)(=O)[O-])c5F)c5ccc2[nH]5)C=C4)C=C3)cc1)c1ccc(-c2ccc3[nH]ccc3c2)cc1
REMARK SMILES IDX 10 1 9 2 8 3 7 4 6 5 5 6 3 7 4 8 2 9 1 10 80 11 81 12 94 13
REMARK SMILES IDX 82 14 93 15 83 16 84 17 85 18 92 19 86 20 91 21 87 22 90 23
REMARK SMILES IDX 88 24 89 25 11 27 12 28 13 29 14 30 15 31 16 32 17 33 18 34
REMARK SMILES IDX 79 35 19 36 78 37 20 38 21 39 22 40 72 41 23 42 77 43 71 44
REMARK SMILES IDX 73 45 24 46 76 47 70 48 69 49 25 51 57 52 37 53 56 54 38 55
REMARK SMILES IDX 41 56 55 57 74 58 39 59 40 60 54 62 75 63 42 64 26 65 27 66
REMARK SMILES IDX 35 67 28 68 30 69 36 70 29 71 31 72 32 73 33 74 34 75 58 76
REMARK SMILES IDX 59 77 67 78 60 79 62 80 68 81 61 82 63 83 64 84 65 85 66 86
REMARK SMILES IDX 43 87 44 88 52 89 45 90 47 91 53 92 46 93 48 94 49 95 50 96
REMARK SMILES IDX 51 97
REMARK H PARENT 88 26 73 50 41 61
REMARK Flexibility Score: inf
ROOT
ATOM      1  C   UNL     1       0.908   1.364  -2.328  1.00  0.00     0.188 C 
ENDROOT
BRANCH   1   2
ATOM      2  C   UNL     1       0.348   2.784  -2.478  1.00  0.00     0.188 C 
BRANCH   2   3
ATOM      3  O   UNL     1       1.214   3.739  -3.047  1.00  0.00    -0.376 OA
BRANCH   3   4
ATOM      4  C   UNL     1       2.276   4.268  -2.270  1.00  0.00     0.202 C 
BRANCH   4   5
ATOM      5  C   UNL     1       2.468   4.030  -0.756  1.00  0.00     0.261 C 
BRANCH   5   6
ATOM      6  O   UNL     1       1.961   2.799  -0.218  1.00  0.00    -0.463 OA
BRANCH   6   7
ATOM      7  C   UNL     1       1.285   2.883   0.962  1.00  0.00     0.313 C 
ATOM      8  O   UNL     1       1.152   3.929   1.591  1.00  0.00    -0.252 OA
BRANCH   7   9
ATOM      9  C   UNL     1       0.675   1.552   1.437  1.00  0.00     0.126 C 
ATOM     10  C   UNL     1       1.521   0.322   1.060  1.00  0.00     0.025 C 
BRANCH   9  11
ATOM     11  C   UNL     1      -0.843   1.412   1.224  1.00  0.00    -0.034 A 
ATOM     12  C   UNL     1      -1.681   2.540   1.206  1.00  0.00     0.005 A 
ATOM     13  C   UNL     1      -1.474   0.154   1.185  1.00  0.00     0.005 A 
ATOM     14  C   UNL     1      -3.079   2.418   1.172  1.00  0.00     0.009 A 
ATOM     15  C   UNL     1      -2.876   0.034   1.154  1.00  0.00     0.009 A 
ATOM     16  C   UNL     1      -3.700   1.164   1.167  1.00  0.00    -0.018 A 
BRANCH  16  17
ATOM     17  C   UNL     1      -5.166   1.054   1.127  1.00  0.00    -0.018 A 
ATOM     18  C   UNL     1      -5.830   1.224  -0.091  1.00  0.00     0.011 A 
ATOM     19  C   UNL     1      -5.933   0.816   2.286  1.00  0.00     0.019 A 
ATOM     20  C   UNL     1      -7.219   1.132  -0.203  1.00  0.00     0.027 A 
ATOM     21  C   UNL     1      -7.348   0.797   2.211  1.00  0.00    -0.000 A 
ATOM     22  C   UNL     1      -7.951   0.939   0.964  1.00  0.00     0.045 A 
ATOM     23  C   UNL     1      -8.405   0.681   3.159  1.00  0.00     0.028 A 
ATOM     24  N   UNL     1      -9.313   0.853   1.140  1.00  0.00    -0.361 N 
ATOM     25  C   UNL     1      -9.600   0.757   2.476  1.00  0.00     0.083 A 
ATOM     26  H   UNL     1      -9.979   0.859   0.415  1.00  0.00     0.166 HD
ENDBRANCH  16  17
ENDBRANCH   9  11
ENDBRANCH   7   9
ENDBRANCH   6   7
ENDBRANCH   5   6
ENDBRANCH   4   5
ENDBRANCH   3   4
ENDBRANCH   2   3
ENDBRANCH   1   2
BRANCH   1  27
ATOM     27  O   UNL     1       2.277   1.103  -2.553  1.00  0.00    -0.376 OA
BRANCH  27  28
ATOM     28  C   UNL     1       2.830   1.258  -3.849  1.00  0.00     0.202 C 
BRANCH  28  29
ATOM     29  C   UNL     1       2.042   1.154  -5.172  1.00  0.00     0.261 C 
BRANCH  29  30
ATOM     30  O   UNL     1       0.620   1.249  -5.122  1.00  0.00    -0.460 OA
BRANCH  30  31
ATOM     31  C   UNL     1      -0.050   0.070  -5.080  1.00  0.00     0.338 C 
ATOM     32  O   UNL     1       0.429  -1.052  -5.057  1.00  0.00    -0.246 OA
BRANCH  31  33
ATOM     33  C   UNL     1      -1.477   0.376  -4.859  1.00  0.00     0.060 A 
ATOM     34  C   UNL     1      -2.092  -0.021  -3.661  1.00  0.00     0.016 A 
ATOM     35  C   UNL     1      -2.199   1.064  -5.834  1.00  0.00     0.016 A 
ATOM     36  C   UNL     1      -3.439   0.263  -3.442  1.00  0.00     0.010 A 
ATOM     37  C   UNL     1      -3.553   1.320  -5.626  1.00  0.00     0.010 A 
ATOM     38  C   UNL     1      -4.184   0.900  -4.442  1.00  0.00    -0.014 A 
BRANCH  38  39
ATOM     39  C   UNL     1      -5.660   0.965  -4.350  1.00  0.00     0.031 A 
ATOM     40  C   UNL     1      -6.457  -0.158  -4.952  1.00  0.00     0.074 A 
ATOM     41  C   UNL     1      -6.277   2.018  -3.787  1.00  0.00     0.049 A 
ATOM     42  N   UNL     1      -7.750  -0.342  -4.964  1.00  0.00    -0.248 NA
ATOM     43  C   UNL     1      -5.691  -1.199  -5.658  1.00  0.00     0.031 C 
ATOM     44  C   UNL     1      -5.599   3.156  -3.171  1.00  0.00     0.029 A 
ATOM     45  N   UNL     1      -7.614   2.279  -3.601  1.00  0.00    -0.354 N 
ATOM     46  C   UNL     1      -7.958  -1.464  -5.759  1.00  0.00     0.074 A 
ATOM     47  C   UNL     1      -6.658  -1.944  -6.169  1.00  0.00     0.031 C 
ATOM     48  C   UNL     1      -6.520   3.951  -2.598  1.00  0.00     0.029 A 
ATOM     49  C   UNL     1      -7.853   3.397  -2.832  1.00  0.00     0.049 A 
ATOM     50  H   UNL     1      -8.331   1.721  -3.981  1.00  0.00     0.167 HD
ATOM     51  C   UNL     1      -9.131  -2.023  -6.136  1.00  0.00     0.034 A 
ATOM     52  C   UNL     1      -9.011   3.865  -2.319  1.00  0.00     0.034 A 
ATOM     53  C   UNL     1     -10.418  -1.557  -5.698  1.00  0.00     0.049 A 
ATOM     54  C   UNL     1     -10.295   3.130  -2.627  1.00  0.00     0.074 A 
ATOM     55  C   UNL     1     -11.667  -2.069  -6.001  1.00  0.00     0.029 A 
ATOM     56  N   UNL     1     -10.623  -0.463  -4.872  1.00  0.00    -0.354 N 
ATOM     57  N   UNL     1     -10.471   1.990  -3.254  1.00  0.00    -0.248 NA
ATOM     58  C   UNL     1     -11.542   3.734  -2.132  1.00  0.00     0.031 C 
ATOM     59  C   UNL     1     -12.629  -1.260  -5.388  1.00  0.00     0.029 A 
ATOM     60  C   UNL     1     -11.977  -0.273  -4.665  1.00  0.00     0.049 A 
ATOM     61  H   UNL     1      -9.909   0.097  -4.490  1.00  0.00     0.167 HD
ATOM     62  C   UNL     1     -11.843   1.751  -3.241  1.00  0.00     0.074 A 
ATOM     63  C   UNL     1     -12.442   2.819  -2.468  1.00  0.00     0.031 C 
ATOM     64  C   UNL     1     -12.552   0.767  -3.850  1.00  0.00     0.034 A 
BRANCH  51  65
ATOM     65  C   UNL     1      -9.079  -3.176  -7.102  1.00  0.00     0.023 A 
ATOM     66  C   UNL     1      -8.621  -4.441  -6.684  1.00  0.00     0.012 A 
ATOM     67  C   UNL     1      -9.531  -3.007  -8.427  1.00  0.00     0.148 A 
ATOM     68  C   UNL     1      -8.583  -5.511  -7.579  1.00  0.00     0.002 A 
ATOM     69  C   UNL     1      -9.539  -4.089  -9.296  1.00  0.00     0.091 A 
ATOM     70  F   UNL     1      -9.938  -1.789  -8.812  1.00  0.00    -0.205 F 
ATOM     71  C   UNL     1      -9.053  -5.338  -8.879  1.00  0.00     0.022 A 
BRANCH  69  72
ATOM     72  S   UNL     1     -10.204  -3.988 -10.962  1.00  0.00     0.127 S 
ATOM     73  O   UNL     1      -8.995  -4.134 -11.771  1.00  0.00    -0.237 OA
ATOM     74  O   UNL     1     -11.107  -5.139 -11.001  1.00  0.00    -0.237 OA
ATOM     75  O   UNL     1     -10.864  -2.693 -11.055  1.00  0.00    -0.744 OA
ENDBRANCH  69  72
ENDBRANCH  51  65
BRANCH  52  76
ATOM     76  C   UNL     1      -9.008   5.006  -1.352  1.00  0.00     0.023 A 
ATOM     77  C   UNL     1      -9.458   4.785  -0.033  1.00  0.00     0.012 A 
ATOM     78  C   UNL     1      -8.549   6.289  -1.701  1.00  0.00     0.148 A 
ATOM     79  C   UNL     1      -9.487   5.821   0.902  1.00  0.00     0.002 A 
ATOM     80  C   UNL     1      -8.504   7.297  -0.742  1.00  0.00     0.091 A 
ATOM     81  F   UNL     1      -8.155   6.503  -2.965  1.00  0.00    -0.205 F 
ATOM     82  C   UNL     1      -8.995   7.073   0.552  1.00  0.00     0.022 A 
BRANCH  80  83
ATOM     83  S   UNL     1      -7.718   8.881  -1.063  1.00  0.00     0.127 S 
ATOM     84  O   UNL     1      -8.872   9.762  -1.222  1.00  0.00    -0.237 OA
ATOM     85  O   UNL     1      -6.944   9.093   0.161  1.00  0.00    -0.237 OA
ATOM     86  O   UNL     1      -6.905   8.672  -2.254  1.00  0.00    -0.744 OA
ENDBRANCH  80  83
ENDBRANCH  52  76
BRANCH  64  87
ATOM     87  C   UNL     1     -14.056   0.792  -3.718  1.00  0.00     0.023 A 
ATOM     88  C   UNL     1     -14.796   1.803  -4.364  1.00  0.00     0.012 A 
ATOM     89  C   UNL     1     -14.741  -0.234  -3.038  1.00  0.00     0.148 A 
ATOM     90  C   UNL     1     -16.189   1.816  -4.301  1.00  0.00     0.002 A 
ATOM     91  C   UNL     1     -16.131  -0.245  -3.025  1.00  0.00     0.091 A 
ATOM     92  F   UNL     1     -14.022  -1.182  -2.420  1.00  0.00    -0.205 F 
ATOM     93  C   UNL     1     -16.856   0.787  -3.642  1.00  0.00     0.022 A 
BRANCH  91  94
ATOM     94  S   UNL     1     -17.082  -1.581  -2.289  1.00  0.00     0.127 S 
ATOM     95  O   UNL     1     -17.658  -0.923  -1.117  1.00  0.00    -0.237 OA
ATOM     96  O   UNL     1     -18.042  -1.896  -3.347  1.00  0.00    -0.237 OA
ATOM     97  O   UNL     1     -16.127  -2.642  -2.001  1.00  0.00    -0.744 OA
ENDBRANCH  91  94
ENDBRANCH  64  87
ENDBRANCH  38  39
ENDBRANCH  31  33
ENDBRANCH  30  31
ENDBRANCH  29  30
ENDBRANCH  28  29
ENDBRANCH  27  28
ENDBRANCH   1  27
TORSDOF 22
