REMARK SMILES Cc1cccc(CS[C@@H]2CC[C@]([NH3+])(C(=O)OCCOCCOCCOC(=O)c3ccc(-c4c5nc(c(-c6cccc(S(=O)(=O)[O-])c6F)c6ccc([nH]6)c(-c6cccc(S(=O)(=O)[O-])c6F)c6nc(c(-c7cccc(S(=O)(=O)[O-])c7F)c7ccc4[nH]7)C=C6)C=C5)cc3)C2)c1
REMARK SMILES IDX 20 1 19 2 18 3 17 4 16 5 14 6 15 7 12 8 9 9 10 10 91 11
REMARK SMILES IDX 11 12 8 13 7 14 6 15 1 16 2 17 3 18 92 19 4 20 5 21 13 22
REMARK SMILES IDX 21 26 22 27 23 28 24 29 25 30 26 31 27 32 28 33 29 34 90 35
REMARK SMILES IDX 30 36 89 37 31 38 32 39 33 40 83 41 34 42 88 43 82 44 84 45
REMARK SMILES IDX 35 46 87 47 81 48 80 49 36 51 68 52 48 53 67 54 49 55 52 56
REMARK SMILES IDX 66 57 85 58 50 59 51 60 65 62 86 63 53 64 37 65 38 66 46 67
REMARK SMILES IDX 39 68 41 69 47 70 40 71 42 72 43 73 44 74 45 75 69 76 70 77
REMARK SMILES IDX 78 78 71 79 73 80 79 81 72 82 74 83 75 84 76 85 77 86 54 87
REMARK SMILES IDX 55 88 63 89 56 90 58 91 64 92 57 93 59 94 60 95 61 96 62 97
REMARK H PARENT 13 23 13 24 13 25 84 50 52 61
REMARK Flexibility Score: inf
ROOT
ATOM      1  C   UNL     1       4.272   3.659  -7.418  1.00  0.00     0.188 C 
ENDROOT
BRANCH   1   2
ATOM      2  O   UNL     1       4.795   2.435  -6.905  1.00  0.00    -0.376 OA
BRANCH   2   3
ATOM      3  C   UNL     1       4.032   2.076  -5.714  1.00  0.00     0.202 C 
BRANCH   3   4
ATOM      4  C   UNL     1       2.601   1.444  -6.111  1.00  0.00     0.261 C 
BRANCH   4   5
ATOM      5  O   UNL     1       1.063   1.634  -5.463  1.00  0.00    -0.459 OA
BRANCH   5   6
ATOM      6  C   UNL     1       0.370   2.116  -4.331  1.00  0.00     0.368 C 
ATOM      7  O   UNL     1       0.818   2.660  -3.336  1.00  0.00    -0.245 OA
BRANCH   6   8
ATOM      8  C   UNL     1      -1.120   1.884  -4.273  1.00  0.00     0.193 C 
ATOM      9  C   UNL     1      -3.031   1.999  -2.733  1.00  0.00     0.054 C 
ATOM     10  C   UNL     1      -2.772   0.541  -3.133  1.00  0.00     0.022 C 
ATOM     11  C   UNL     1      -1.794   2.779  -3.168  1.00  0.00     0.095 C 
ATOM     12  C   UNL     1      -1.350   0.498  -3.675  1.00  0.00     0.082 C 
BRANCH   9  13
ATOM     13  S   UNL     1      -3.679   2.312  -1.033  1.00  0.00    -0.154 SA
BRANCH  13  14
ATOM     14  C   UNL     1      -2.285   1.938   0.111  1.00  0.00     0.105 C 
BRANCH  14  15
ATOM     15  C   UNL     1      -1.940   0.479   0.311  1.00  0.00    -0.038 A 
ATOM     16  C   UNL     1       1.014  -1.674   1.470  1.00  0.00     0.044 C 
ATOM     17  C   UNL     1      -0.307  -1.230   0.924  1.00  0.00    -0.051 A 
ATOM     18  C   UNL     1      -1.232  -2.225   0.606  1.00  0.00     0.003 A 
ATOM     19  C   UNL     1      -0.650   0.118   0.741  1.00  0.00     0.008 A 
ATOM     20  C   UNL     1      -2.529  -1.883   0.260  1.00  0.00     0.001 A 
ATOM     21  C   UNL     1      -2.893  -0.541   0.174  1.00  0.00     0.004 A 
ENDBRANCH  14  15
ENDBRANCH  13  14
ENDBRANCH   9  13
BRANCH   8  22
ATOM     22  N   UNL     1      -1.712   2.134  -5.598  1.00  0.00    -0.343 N 
ATOM     23  H   UNL     1      -2.719   1.977  -5.556  1.00  0.00     0.345 HD
ATOM     24  H   UNL     1      -1.297   1.500  -6.281  1.00  0.00     0.345 HD
ATOM     25  H   UNL     1      -1.530   3.099  -5.875  1.00  0.00     0.345 HD
ENDBRANCH   8  22
ENDBRANCH   6   8
ENDBRANCH   5   6
ENDBRANCH   4   5
ENDBRANCH   3   4
ENDBRANCH   2   3
ENDBRANCH   1   2
BRANCH   1  26
ATOM     26  C   UNL     1       4.489   3.871  -8.907  1.00  0.00     0.188 C 
BRANCH  26  27
ATOM     27  O   UNL     1       5.563   4.708  -9.319  1.00  0.00    -0.376 OA
BRANCH  27  28
ATOM     28  C   UNL     1       5.928   5.764  -8.435  1.00  0.00     0.202 C 
BRANCH  28  29
ATOM     29  C   UNL     1       4.896   6.893  -8.170  1.00  0.00     0.261 C 
BRANCH  29  30
ATOM     30  O   UNL     1       3.529   6.443  -8.174  1.00  0.00    -0.460 OA
BRANCH  30  31
ATOM     31  C   UNL     1       2.609   7.287  -7.630  1.00  0.00     0.338 C 
ATOM     32  O   UNL     1       2.575   8.515  -7.787  1.00  0.00    -0.246 OA
BRANCH  31  33
ATOM     33  C   UNL     1       1.918   6.505  -6.583  1.00  0.00     0.060 A 
ATOM     34  C   UNL     1       1.916   6.868  -5.254  1.00  0.00     0.016 A 
ATOM     35  C   UNL     1       1.534   5.223  -6.830  1.00  0.00     0.016 A 
ATOM     36  C   UNL     1       1.915   5.864  -4.239  1.00  0.00     0.010 A 
ATOM     37  C   UNL     1       1.683   4.276  -5.786  1.00  0.00     0.010 A 
ATOM     38  C   UNL     1       2.163   4.513  -4.482  1.00  0.00    -0.014 A 
BRANCH  38  39
ATOM     39  C   UNL     1       3.009   3.568  -3.347  1.00  0.00     0.031 A 
ATOM     40  C   UNL     1       2.981   1.902  -2.836  1.00  0.00     0.074 A 
ATOM     41  C   UNL     1       3.967   4.252  -2.657  1.00  0.00     0.049 A 
ATOM     42  N   UNL     1       3.325   1.481  -1.627  1.00  0.00    -0.248 NA
ATOM     43  C   UNL     1       2.544   0.667  -3.542  1.00  0.00     0.031 C 
ATOM     44  C   UNL     1       4.930   3.713  -1.699  1.00  0.00     0.029 A 
ATOM     45  N   UNL     1       4.157   5.628  -2.496  1.00  0.00    -0.354 N 
ATOM     46  C   UNL     1       3.245   0.070  -1.550  1.00  0.00     0.074 A 
ATOM     47  C   UNL     1       2.670  -0.366  -2.738  1.00  0.00     0.031 C 
ATOM     48  C   UNL     1       5.237   4.685  -0.825  1.00  0.00     0.029 A 
ATOM     49  C   UNL     1       4.401   5.826  -1.141  1.00  0.00     0.049 A 
ATOM     50  H   UNL     1       4.124   6.317  -3.199  1.00  0.00     0.167 HD
ATOM     51  C   UNL     1       3.700  -0.727  -0.550  1.00  0.00     0.034 A 
ATOM     52  C   UNL     1       3.571   6.517  -0.302  1.00  0.00     0.034 A 
ATOM     53  C   UNL     1       4.210   0.104   0.510  1.00  0.00     0.049 A 
ATOM     54  C   UNL     1       3.266   5.757   0.980  1.00  0.00     0.074 A 
ATOM     55  C   UNL     1       5.457   0.548   0.898  1.00  0.00     0.029 A 
ATOM     56  N   UNL     1       3.292   0.928   1.130  1.00  0.00    -0.354 N 
ATOM     57  N   UNL     1       3.714   4.561   1.263  1.00  0.00    -0.248 NA
ATOM     58  C   UNL     1       2.394   6.274   2.033  1.00  0.00     0.031 C 
ATOM     59  C   UNL     1       5.263   1.673   1.759  1.00  0.00     0.029 A 
ATOM     60  C   UNL     1       3.902   1.871   1.918  1.00  0.00     0.049 A 
ATOM     61  H   UNL     1       2.317   0.847   1.021  1.00  0.00     0.167 HD
ATOM     62  C   UNL     1       3.047   4.075   2.357  1.00  0.00     0.074 A 
ATOM     63  C   UNL     1       2.333   5.227   2.872  1.00  0.00     0.031 C 
ATOM     64  C   UNL     1       3.029   2.747   2.683  1.00  0.00     0.034 A 
BRANCH  51  65
ATOM     65  C   UNL     1       3.836  -2.267  -0.675  1.00  0.00     0.023 A 
ATOM     66  C   UNL     1       4.929  -2.868  -0.025  1.00  0.00     0.012 A 
ATOM     67  C   UNL     1       2.996  -3.172  -1.403  1.00  0.00     0.148 A 
ATOM     68  C   UNL     1       5.236  -4.234  -0.167  1.00  0.00     0.002 A 
ATOM     69  C   UNL     1       3.361  -4.511  -1.632  1.00  0.00     0.091 A 
ATOM     70  F   UNL     1       1.767  -2.787  -1.778  1.00  0.00    -0.205 F 
ATOM     71  C   UNL     1       4.485  -5.045  -1.007  1.00  0.00     0.022 A 
BRANCH  69  72
ATOM     72  S   UNL     1       2.506  -5.577  -2.822  1.00  0.00     0.127 S 
ATOM     73  O   UNL     1       3.620  -6.187  -3.555  1.00  0.00    -0.237 OA
ATOM     74  O   UNL     1       1.772  -6.503  -1.964  1.00  0.00    -0.237 OA
ATOM     75  O   UNL     1       1.694  -4.680  -3.637  1.00  0.00    -0.744 OA
ENDBRANCH  69  72
ENDBRANCH  51  65
BRANCH  52  76
ATOM     76  C   UNL     1       2.686   7.563  -0.939  1.00  0.00     0.023 A 
ATOM     77  C   UNL     1       3.330   8.562  -1.715  1.00  0.00     0.012 A 
ATOM     78  C   UNL     1       1.281   7.459  -1.047  1.00  0.00     0.148 A 
ATOM     79  C   UNL     1       2.628   9.361  -2.625  1.00  0.00     0.002 A 
ATOM     80  C   UNL     1       0.585   8.251  -1.977  1.00  0.00     0.091 A 
ATOM     81  F   UNL     1       0.641   6.535  -0.320  1.00  0.00    -0.205 F 
ATOM     82  C   UNL     1       1.257   9.197  -2.764  1.00  0.00     0.022 A 
BRANCH  80  83
ATOM     83  S   UNL     1      -1.137   7.898  -2.408  1.00  0.00     0.127 S 
ATOM     84  O   UNL     1      -1.213   8.326  -3.807  1.00  0.00    -0.237 OA
ATOM     85  O   UNL     1      -1.263   6.460  -2.224  1.00  0.00    -0.237 OA
ATOM     86  O   UNL     1      -1.857   8.749  -1.467  1.00  0.00    -0.744 OA
ENDBRANCH  80  83
ENDBRANCH  52  76
BRANCH  64  87
ATOM     87  C   UNL     1       2.051   2.101   3.660  1.00  0.00     0.023 A 
ATOM     88  C   UNL     1       0.797   2.676   3.945  1.00  0.00     0.012 A 
ATOM     89  C   UNL     1       2.284   0.795   4.178  1.00  0.00     0.148 A 
ATOM     90  C   UNL     1      -0.142   2.041   4.764  1.00  0.00     0.002 A 
ATOM     91  C   UNL     1       1.305   0.124   4.911  1.00  0.00     0.091 A 
ATOM     92  F   UNL     1       3.460   0.194   3.946  1.00  0.00    -0.205 F 
ATOM     93  C   UNL     1       0.103   0.759   5.232  1.00  0.00     0.022 A 
BRANCH  91  94
ATOM     94  S   UNL     1       1.471  -1.607   5.382  1.00  0.00     0.127 S 
ATOM     95  O   UNL     1       1.830  -1.498   6.795  1.00  0.00    -0.237 OA
ATOM     96  O   UNL     1       0.126  -2.129   5.136  1.00  0.00    -0.237 OA
ATOM     97  O   UNL     1       2.499  -2.158   4.511  1.00  0.00    -0.744 OA
ENDBRANCH  91  94
ENDBRANCH  64  87
ENDBRANCH  38  39
ENDBRANCH  31  33
ENDBRANCH  30  31
ENDBRANCH  29  30
ENDBRANCH  28  29
ENDBRANCH  27  28
ENDBRANCH  26  27
ENDBRANCH   1  26
TORSDOF 24
