REMARK SMILES Cc1ccc(-c2cc(Cl)cc3c2O[C@@H](C(F)(F)F)C(C(=O)OCCOCCOCCOC(=O)c2ccc(-c4c5nc(c(-c6cccc(S(=O)(=O)[O-])c6F)c6ccc([nH]6)c(-c6cccc(S(=O)(=O)[O-])c6F)c6nc(c(-c7cccc(S(=O)(=O)[O-])c7F)c7ccc4[nH]7)C=C6)C=C5)cc2)=C3)cc1
REMARK SMILES IDX 27 1 26 2 25 3 24 4 23 5 22 6 20 7 21 8 19 9 6 10 7 11 12 12
REMARK SMILES IDX 8 13 11 14 13 15 9 16 10 17 97 18 14 19 5 20 1 21 2 22 3 23
REMARK SMILES IDX 99 24 4 25 98 26 15 27 16 28 17 29 18 30 28 31 29 32 30 33
REMARK SMILES IDX 31 34 32 35 33 36 34 37 35 38 96 39 36 40 95 41 37 42 38 43
REMARK SMILES IDX 39 44 89 45 40 46 94 47 88 48 90 49 41 50 93 51 87 52 86 53
REMARK SMILES IDX 42 55 74 56 54 57 73 58 55 59 58 60 72 61 91 62 56 63 57 64
REMARK SMILES IDX 71 66 92 67 59 68 43 69 44 70 52 71 45 72 47 73 53 74 46 75
REMARK SMILES IDX 48 76 49 77 50 78 51 79 75 80 76 81 84 82 77 83 79 84 85 85
REMARK SMILES IDX 78 86 80 87 81 88 82 89 83 90 60 91 61 92 69 93 62 94 64 95
REMARK SMILES IDX 70 96 63 97 65 98 66 99 67 100 68 101
REMARK H PARENT 90 54 58 65
REMARK Flexibility Score: inf
ROOT
ATOM      1  C   UNL     1      -1.046  -4.431   1.348  1.00  0.00     0.188 C 
ENDROOT
BRANCH   1   2
ATOM      2  C   UNL     1      -0.616  -3.333   2.275  1.00  0.00     0.188 C 
BRANCH   2   3
ATOM      3  O   UNL     1      -0.518  -3.788   3.634  1.00  0.00    -0.376 OA
BRANCH   3   4
ATOM      4  C   UNL     1      -1.304  -3.360   4.792  1.00  0.00     0.202 C 
BRANCH   4   5
ATOM      5  C   UNL     1      -3.063  -3.306   5.438  1.00  0.00     0.261 C 
BRANCH   5   6
ATOM      6  O   UNL     1      -4.727  -2.615   4.671  1.00  0.00    -0.460 OA
BRANCH   6   7
ATOM      7  C   UNL     1      -5.904  -1.378   4.482  1.00  0.00     0.338 C 
ATOM      8  O   UNL     1      -6.104  -0.527   5.361  1.00  0.00    -0.246 OA
BRANCH   7   9
ATOM      9  C   UNL     1      -6.852  -0.922   2.964  1.00  0.00     0.087 C 
ATOM     10  C   UNL     1      -4.905   0.395  -0.861  1.00  0.00     0.026 A 
ATOM     11  C   UNL     1      -5.543   1.265  -1.713  1.00  0.00     0.033 A 
ATOM     12  C   UNL     1      -6.013  -0.316   0.237  1.00  0.00     0.135 A 
ATOM     13  C   UNL     1      -6.890   1.609  -1.428  1.00  0.00     0.042 A 
ATOM     14  C   UNL     1      -7.180   0.321   0.710  1.00  0.00     0.019 A 
ATOM     15  O   UNL     1      -6.146  -1.760   0.755  1.00  0.00    -0.475 OA
ATOM     16  Cl  UNL     1      -7.691   2.571  -2.638  1.00  0.00    -0.084 Cl
ATOM     17  C   UNL     1      -7.632   1.268  -0.215  1.00  0.00     0.032 A 
ATOM     18  C   UNL     1      -7.513   0.131   2.326  1.00  0.00     0.027 C 
ATOM     19  C   UNL     1      -7.075  -1.993   2.007  1.00  0.00     0.316 C 
BRANCH  10  20
ATOM     20  C   UNL     1      -3.010   0.585  -0.900  1.00  0.00    -0.015 A 
ATOM     21  C   UNL     1       2.173   1.162  -0.857  1.00  0.00     0.044 C 
ATOM     22  C   UNL     1       0.680   1.009  -0.990  1.00  0.00    -0.051 A 
ATOM     23  C   UNL     1       0.118  -0.359  -0.086  1.00  0.00     0.004 A 
ATOM     24  C   UNL     1      -0.446   2.123  -1.834  1.00  0.00     0.004 A 
ATOM     25  C   UNL     1      -1.656  -0.554   0.100  1.00  0.00     0.009 A 
ATOM     26  C   UNL     1      -2.252   1.944  -1.839  1.00  0.00     0.009 A 
ENDBRANCH  10  20
BRANCH  19  27
ATOM     27  C   UNL     1      -7.488  -3.111   3.060  1.00  0.00     0.430 C 
ATOM     28  F   UNL     1      -8.007  -2.554   4.222  1.00  0.00    -0.167 F 
ATOM     29  F   UNL     1      -8.543  -3.852   2.628  1.00  0.00    -0.167 F 
ATOM     30  F   UNL     1      -6.540  -3.958   3.467  1.00  0.00    -0.167 F 
ENDBRANCH  19  27
ENDBRANCH   7   9
ENDBRANCH   6   7
ENDBRANCH   5   6
ENDBRANCH   4   5
ENDBRANCH   3   4
ENDBRANCH   2   3
ENDBRANCH   1   2
BRANCH   1  31
ATOM     31  O   UNL     1      -1.635  -5.340   2.223  1.00  0.00    -0.376 OA
BRANCH  31  32
ATOM     32  C   UNL     1      -0.963  -6.523   2.501  1.00  0.00     0.202 C 
BRANCH  32  33
ATOM     33  C   UNL     1      -1.418  -7.417   1.365  1.00  0.00     0.261 C 
BRANCH  33  34
ATOM     34  O   UNL     1      -2.879  -7.572   1.387  1.00  0.00    -0.460 OA
BRANCH  34  35
ATOM     35  C   UNL     1      -3.631  -6.660   0.677  1.00  0.00     0.338 C 
ATOM     36  O   UNL     1      -3.792  -6.707  -0.533  1.00  0.00    -0.246 OA
BRANCH  35  37
ATOM     37  C   UNL     1      -4.147  -5.551   1.524  1.00  0.00     0.060 A 
ATOM     38  C   UNL     1      -4.381  -4.270   1.066  1.00  0.00     0.016 A 
ATOM     39  C   UNL     1      -4.107  -5.633   2.865  1.00  0.00     0.016 A 
ATOM     40  C   UNL     1      -4.001  -3.104   1.870  1.00  0.00     0.010 A 
ATOM     41  C   UNL     1      -3.775  -4.436   3.535  1.00  0.00     0.010 A 
ATOM     42  C   UNL     1      -3.380  -3.054   3.081  1.00  0.00    -0.014 A 
BRANCH  42  43
ATOM     43  C   UNL     1      -2.824  -1.511   4.033  1.00  0.00     0.031 A 
ATOM     44  C   UNL     1      -3.525  -1.030   5.700  1.00  0.00     0.074 A 
ATOM     45  C   UNL     1      -1.690  -0.716   3.730  1.00  0.00     0.049 A 
ATOM     46  N   UNL     1      -3.393   0.079   6.360  1.00  0.00    -0.248 NA
ATOM     47  C   UNL     1      -4.467  -1.946   6.753  1.00  0.00     0.031 C 
ATOM     48  C   UNL     1      -0.877   0.131   4.638  1.00  0.00     0.029 A 
ATOM     49  N   UNL     1      -0.889  -0.537   2.564  1.00  0.00    -0.354 N 
ATOM     50  C   UNL     1      -3.967  -0.092   7.657  1.00  0.00     0.074 A 
ATOM     51  C   UNL     1      -4.888  -1.136   7.683  1.00  0.00     0.031 C 
ATOM     52  C   UNL     1       0.036   0.862   3.945  1.00  0.00     0.029 A 
ATOM     53  C   UNL     1      -0.275   0.742   2.529  1.00  0.00     0.049 A 
ATOM     54  H   UNL     1      -0.775  -1.221   1.865  1.00  0.00     0.167 HD
ATOM     55  C   UNL     1      -3.393   0.441   8.759  1.00  0.00     0.034 A 
ATOM     56  C   UNL     1      -0.475   1.749   1.577  1.00  0.00     0.034 A 
ATOM     57  C   UNL     1      -2.456   1.444   8.270  1.00  0.00     0.049 A 
ATOM     58  C   UNL     1      -1.067   3.055   2.586  1.00  0.00     0.074 A 
ATOM     59  C   UNL     1      -1.092   1.491   8.085  1.00  0.00     0.029 A 
ATOM     60  N   UNL     1      -2.969   2.345   7.348  1.00  0.00    -0.354 N 
ATOM     61  N   UNL     1      -1.059   3.103   3.916  1.00  0.00    -0.248 NA
ATOM     62  C   UNL     1      -1.805   4.232   2.082  1.00  0.00     0.031 C 
ATOM     63  C   UNL     1      -0.824   2.481   7.074  1.00  0.00     0.029 A 
ATOM     64  C   UNL     1      -2.014   3.053   6.662  1.00  0.00     0.049 A 
ATOM     65  H   UNL     1      -3.935   2.467   7.199  1.00  0.00     0.167 HD
ATOM     66  C   UNL     1      -2.030   3.994   4.403  1.00  0.00     0.074 A 
ATOM     67  C   UNL     1      -2.422   4.703   3.188  1.00  0.00     0.031 C 
ATOM     68  C   UNL     1      -2.507   4.061   5.718  1.00  0.00     0.034 A 
BRANCH  55  69
ATOM     69  C   UNL     1      -3.530  -0.108  10.209  1.00  0.00     0.023 A 
ATOM     70  C   UNL     1      -2.776   0.615  11.147  1.00  0.00     0.012 A 
ATOM     71  C   UNL     1      -4.194  -1.277  10.748  1.00  0.00     0.148 A 
ATOM     72  C   UNL     1      -2.625   0.212  12.481  1.00  0.00     0.002 A 
ATOM     73  C   UNL     1      -4.073  -1.658  12.098  1.00  0.00     0.091 A 
ATOM     74  F   UNL     1      -4.913  -2.101   9.984  1.00  0.00    -0.205 F 
ATOM     75  C   UNL     1      -3.267  -0.921  12.959  1.00  0.00     0.022 A 
BRANCH  73  76
ATOM     76  S   UNL     1      -4.870  -3.123  12.830  1.00  0.00     0.127 S 
ATOM     77  O   UNL     1      -3.720  -3.902  13.294  1.00  0.00    -0.237 OA
ATOM     78  O   UNL     1      -5.672  -2.544  13.910  1.00  0.00    -0.237 OA
ATOM     79  O   UNL     1      -5.644  -3.765  11.775  1.00  0.00    -0.744 OA
ENDBRANCH  73  76
ENDBRANCH  55  69
BRANCH  56  80
ATOM     80  C   UNL     1      -1.317   1.340  -0.009  1.00  0.00     0.023 A 
ATOM     81  C   UNL     1      -1.282   0.077  -1.591  1.00  0.00     0.012 A 
ATOM     82  C   UNL     1      -2.510   1.326   1.011  1.00  0.00     0.148 A 
ATOM     83  C   UNL     1      -2.458  -1.297  -1.645  1.00  0.00     0.002 A 
ATOM     84  C   UNL     1      -3.464   0.031   1.071  1.00  0.00     0.091 A 
ATOM     85  F   UNL     1      -3.127   2.526   1.045  1.00  0.00    -0.205 F 
ATOM     86  C   UNL     1      -3.534  -1.336  -0.209  1.00  0.00     0.022 A 
BRANCH  84  87
ATOM     87  S   UNL     1      -4.350   0.737   2.436  1.00  0.00     0.127 S 
ATOM     88  O   UNL     1      -4.736  -0.569   2.822  1.00  0.00    -0.237 OA
ATOM     89  O   UNL     1      -3.438   1.365   3.364  1.00  0.00    -0.237 OA
ATOM     90  O   UNL     1      -5.280   1.680   1.830  1.00  0.00    -0.744 OA
ENDBRANCH  84  87
ENDBRANCH  56  80
BRANCH  68  91
ATOM     91  C   UNL     1      -3.518   5.124   6.350  1.00  0.00     0.023 A 
ATOM     92  C   UNL     1      -3.633   6.401   5.783  1.00  0.00     0.012 A 
ATOM     93  C   UNL     1      -4.209   4.985   7.622  1.00  0.00     0.148 A 
ATOM     94  C   UNL     1      -4.371   7.438   6.395  1.00  0.00     0.002 A 
ATOM     95  C   UNL     1      -4.896   6.027   8.251  1.00  0.00     0.091 A 
ATOM     96  F   UNL     1      -4.234   3.837   8.293  1.00  0.00    -0.205 F 
ATOM     97  C   UNL     1      -4.991   7.259   7.628  1.00  0.00     0.022 A 
BRANCH  95  98
ATOM     98  S   UNL     1      -5.602   5.882   9.920  1.00  0.00     0.127 S 
ATOM     99  O   UNL     1      -4.792   6.847  10.668  1.00  0.00    -0.237 OA
ATOM    100  O   UNL     1      -6.988   6.302   9.705  1.00  0.00    -0.237 OA
ATOM    101  O   UNL     1      -5.442   4.499  10.343  1.00  0.00    -0.744 OA
ENDBRANCH  95  98
ENDBRANCH  68  91
ENDBRANCH  42  43
ENDBRANCH  35  37
ENDBRANCH  34  35
ENDBRANCH  33  34
ENDBRANCH  32  33
ENDBRANCH  31  32
ENDBRANCH   1  31
TORSDOF 22
