REMARK SMILES O=C(Cc1ccccc1-c1ccn(C(F)F)c(=O)c1)OCCOCCOCCOC(=O)c1ccc(-c2c3nc(c(-c4cccc(S(=O)(=O)[O-])c4F)c4ccc([nH]4)c(-c4cccc(S(=O)(=O)[O-])c4F)c4nc(c(-c5cccc(S(=O)(=O)[O-])c5F)c5ccc2[nH]5)C=C4)C=C3)cc1
REMARK SMILES IDX 24 1 23 2 22 3 21 4 20 5 2 6 1 7 3 8 4 9 5 10 9 11 6 12 8 13
REMARK SMILES IDX 7 14 10 15 11 16 19 17 12 18 17 19 13 20 18 21 14 22 15 23
REMARK SMILES IDX 16 24 25 25 26 26 27 27 28 28 29 29 30 30 31 31 32 32 33 33
REMARK SMILES IDX 94 34 34 35 93 36 35 37 36 38 37 39 87 40 38 41 92 42 86 43
REMARK SMILES IDX 88 44 39 45 91 46 85 47 84 48 40 50 72 51 52 52 71 53 53 54
REMARK SMILES IDX 56 55 70 56 89 57 54 58 55 59 69 61 90 62 57 63 41 64 42 65
REMARK SMILES IDX 50 66 43 67 45 68 51 69 44 70 46 71 47 72 48 73 49 74 73 75
REMARK SMILES IDX 74 76 82 77 75 78 77 79 83 80 76 81 78 82 79 83 80 84 81 85
REMARK SMILES IDX 58 86 59 87 67 88 60 89 62 90 68 91 61 92 63 93 64 94 65 95
REMARK SMILES IDX 66 96
REMARK H PARENT 88 49 56 60
REMARK Flexibility Score: inf
ROOT
ATOM      1  C   UNL     1       3.171   0.626  -1.839  1.00  0.00     0.188 C 
ENDROOT
BRANCH   1   2
ATOM      2  O   UNL     1       4.455   0.062  -1.644  1.00  0.00    -0.376 OA
BRANCH   2   3
ATOM      3  C   UNL     1       4.960   0.106  -0.326  1.00  0.00     0.202 C 
BRANCH   3   4
ATOM      4  C   UNL     1       4.503  -1.133   0.430  1.00  0.00     0.261 C 
BRANCH   4   5
ATOM      5  O   UNL     1       3.076  -1.247   0.641  1.00  0.00    -0.463 OA
BRANCH   5   6
ATOM      6  C   UNL     1       2.278  -0.480   1.415  1.00  0.00     0.310 C 
ATOM      7  O   UNL     1       1.113  -0.832   1.603  1.00  0.00    -0.252 OA
BRANCH   6   8
ATOM      8  C   UNL     1       2.777   0.839   1.961  1.00  0.00     0.158 C 
BRANCH   8   9
ATOM      9  C   UNL     1       3.956   0.799   2.905  1.00  0.00    -0.029 A 
ATOM     10  C   UNL     1       4.133  -0.327   3.735  1.00  0.00     0.005 A 
ATOM     11  C   UNL     1       4.844   1.893   3.040  1.00  0.00    -0.014 A 
ATOM     12  C   UNL     1       5.187  -0.395   4.643  1.00  0.00     0.000 A 
ATOM     13  C   UNL     1       5.876   1.819   3.994  1.00  0.00     0.009 A 
ATOM     14  C   UNL     1       6.054   0.681   4.778  1.00  0.00     0.001 A 
BRANCH  11  15
ATOM     15  C   UNL     1       4.753   3.143   2.246  1.00  0.00    -0.011 A 
ATOM     16  C   UNL     1       3.695   4.118   2.418  1.00  0.00     0.027 A 
ATOM     17  C   UNL     1       5.758   3.434   1.398  1.00  0.00     0.080 A 
ATOM     18  C   UNL     1       3.728   5.280   1.752  1.00  0.00     0.095 A 
ATOM     19  C   UNL     1       5.780   4.702   0.613  1.00  0.00     0.255 A 
ATOM     20  N   UNL     1       4.727   5.565   0.842  1.00  0.00    -0.258 N 
ATOM     21  O   UNL     1       6.708   4.876  -0.173  1.00  0.00    -0.269 OA
BRANCH  20  22
ATOM     22  C   UNL     1       4.731   6.830   0.144  1.00  0.00     0.451 C 
ATOM     23  F   UNL     1       5.814   7.570   0.481  1.00  0.00    -0.185 F 
ATOM     24  F   UNL     1       4.795   6.621  -1.199  1.00  0.00    -0.185 F 
ENDBRANCH  20  22
ENDBRANCH  11  15
ENDBRANCH   8   9
ENDBRANCH   6   8
ENDBRANCH   5   6
ENDBRANCH   4   5
ENDBRANCH   3   4
ENDBRANCH   2   3
ENDBRANCH   1   2
BRANCH   1  25
ATOM     25  C   UNL     1       2.401  -0.104  -2.951  1.00  0.00     0.188 C 
BRANCH  25  26
ATOM     26  O   UNL     1       3.106  -0.891  -3.906  1.00  0.00    -0.376 OA
BRANCH  26  27
ATOM     27  C   UNL     1       4.374  -0.457  -4.380  1.00  0.00     0.202 C 
BRANCH  27  28
ATOM     28  C   UNL     1       4.432   0.869  -5.143  1.00  0.00     0.261 C 
BRANCH  28  29
ATOM     29  O   UNL     1       3.981   2.012  -4.394  1.00  0.00    -0.460 OA
BRANCH  29  30
ATOM     30  C   UNL     1       2.843   2.588  -4.855  1.00  0.00     0.338 C 
ATOM     31  O   UNL     1       2.173   2.226  -5.806  1.00  0.00    -0.246 OA
BRANCH  30  32
ATOM     32  C   UNL     1       2.401   3.683  -3.966  1.00  0.00     0.060 A 
ATOM     33  C   UNL     1       1.106   3.618  -3.433  1.00  0.00     0.016 A 
ATOM     34  C   UNL     1       3.178   4.825  -3.777  1.00  0.00     0.016 A 
ATOM     35  C   UNL     1       0.562   4.715  -2.758  1.00  0.00     0.010 A 
ATOM     36  C   UNL     1       2.623   5.928  -3.114  1.00  0.00     0.010 A 
ATOM     37  C   UNL     1       1.301   5.896  -2.631  1.00  0.00    -0.014 A 
BRANCH  37  38
ATOM     38  C   UNL     1       0.665   7.146  -2.133  1.00  0.00     0.031 A 
ATOM     39  C   UNL     1       0.282   8.222  -3.117  1.00  0.00     0.074 A 
ATOM     40  C   UNL     1       0.441   7.351  -0.822  1.00  0.00     0.049 A 
ATOM     41  N   UNL     1      -0.227   9.405  -2.888  1.00  0.00    -0.248 NA
ATOM     42  C   UNL     1       0.474   7.915  -4.544  1.00  0.00     0.031 C 
ATOM     43  C   UNL     1       0.690   6.388   0.247  1.00  0.00     0.029 A 
ATOM     44  N   UNL     1      -0.003   8.474  -0.163  1.00  0.00    -0.354 N 
ATOM     45  C   UNL     1      -0.444   9.973  -4.137  1.00  0.00     0.074 A 
ATOM     46  C   UNL     1       0.047   9.030  -5.120  1.00  0.00     0.031 C 
ATOM     47  C   UNL     1       0.490   6.994   1.431  1.00  0.00     0.029 A 
ATOM     48  C   UNL     1       0.120   8.387   1.203  1.00  0.00     0.049 A 
ATOM     49  H   UNL     1      -0.372   9.262  -0.624  1.00  0.00     0.167 HD
ATOM     50  C   UNL     1      -1.045  11.147  -4.446  1.00  0.00     0.034 A 
ATOM     51  C   UNL     1      -0.006   9.329   2.159  1.00  0.00     0.034 A 
ATOM     52  C   UNL     1      -1.544  12.088  -3.480  1.00  0.00     0.049 A 
ATOM     53  C   UNL     1      -0.507  10.699   1.791  1.00  0.00     0.074 A 
ATOM     54  C   UNL     1      -2.236  13.266  -3.703  1.00  0.00     0.029 A 
ATOM     55  N   UNL     1      -1.387  11.973  -2.110  1.00  0.00    -0.354 N 
ATOM     56  N   UNL     1      -0.857  11.156   0.615  1.00  0.00    -0.248 NA
ATOM     57  C   UNL     1      -0.699  11.659   2.889  1.00  0.00     0.031 C 
ATOM     58  C   UNL     1      -2.477  13.876  -2.466  1.00  0.00     0.029 A 
ATOM     59  C   UNL     1      -1.949  13.068  -1.474  1.00  0.00     0.049 A 
ATOM     60  H   UNL     1      -0.940  11.224  -1.654  1.00  0.00     0.167 HD
ATOM     61  C   UNL     1      -1.393  12.419   0.843  1.00  0.00     0.074 A 
ATOM     62  C   UNL     1      -1.299  12.664   2.267  1.00  0.00     0.031 C 
ATOM     63  C   UNL     1      -1.927  13.287  -0.051  1.00  0.00     0.034 A 
BRANCH  50  64
ATOM     64  C   UNL     1      -1.272  11.445  -5.902  1.00  0.00     0.023 A 
ATOM     65  C   UNL     1      -2.292  10.753  -6.588  1.00  0.00     0.012 A 
ATOM     66  C   UNL     1      -0.542  12.445  -6.571  1.00  0.00     0.148 A 
ATOM     67  C   UNL     1      -2.566  11.034  -7.925  1.00  0.00     0.002 A 
ATOM     68  C   UNL     1      -0.845  12.745  -7.894  1.00  0.00     0.091 A 
ATOM     69  F   UNL     1       0.435  13.076  -5.904  1.00  0.00    -0.205 F 
ATOM     70  C   UNL     1      -1.850  12.036  -8.574  1.00  0.00     0.022 A 
BRANCH  68  71
ATOM     71  S   UNL     1      -0.028  14.062  -8.801  1.00  0.00     0.127 S 
ATOM     72  O   UNL     1       0.759  13.305  -9.774  1.00  0.00    -0.237 OA
ATOM     73  O   UNL     1      -1.162  14.792  -9.370  1.00  0.00    -0.237 OA
ATOM     74  O   UNL     1       0.744  14.808  -7.818  1.00  0.00    -0.744 OA
ENDBRANCH  68  71
ENDBRANCH  50  64
BRANCH  51  75
ATOM     75  C   UNL     1       0.345   9.012   3.570  1.00  0.00     0.023 A 
ATOM     76  C   UNL     1      -0.664   8.917   4.545  1.00  0.00     0.012 A 
ATOM     77  C   UNL     1       1.690   8.838   3.949  1.00  0.00     0.148 A 
ATOM     78  C   UNL     1      -0.336   8.697   5.884  1.00  0.00     0.002 A 
ATOM     79  C   UNL     1       2.006   8.581   5.278  1.00  0.00     0.091 A 
ATOM     80  F   UNL     1       2.634   8.930   3.001  1.00  0.00    -0.205 F 
ATOM     81  C   UNL     1       0.997   8.526   6.250  1.00  0.00     0.022 A 
BRANCH  79  82
ATOM     82  S   UNL     1       3.687   8.240   5.809  1.00  0.00     0.127 S 
ATOM     83  O   UNL     1       4.032   9.468   6.519  1.00  0.00    -0.237 OA
ATOM     84  O   UNL     1       3.501   7.062   6.658  1.00  0.00    -0.237 OA
ATOM     85  O   UNL     1       4.426   7.977   4.581  1.00  0.00    -0.744 OA
ENDBRANCH  79  82
ENDBRANCH  51  75
BRANCH  63  86
ATOM     86  C   UNL     1      -2.537  14.557   0.481  1.00  0.00     0.023 A 
ATOM     87  C   UNL     1      -1.710  15.593   0.958  1.00  0.00     0.012 A 
ATOM     88  C   UNL     1      -3.934  14.742   0.460  1.00  0.00     0.148 A 
ATOM     89  C   UNL     1      -2.267  16.779   1.437  1.00  0.00     0.002 A 
ATOM     90  C   UNL     1      -4.478  15.945   0.895  1.00  0.00     0.091 A 
ATOM     91  F   UNL     1      -4.708  13.736   0.027  1.00  0.00    -0.205 F 
ATOM     92  C   UNL     1      -3.647  16.960   1.395  1.00  0.00     0.022 A 
BRANCH  90  93
ATOM     93  S   UNL     1      -6.238  16.293   0.789  1.00  0.00     0.127 S 
ATOM     94  O   UNL     1      -6.662  16.115   2.177  1.00  0.00    -0.237 OA
ATOM     95  O   UNL     1      -6.256  17.680   0.320  1.00  0.00    -0.237 OA
ATOM     96  O   UNL     1      -6.776  15.331  -0.163  1.00  0.00    -0.744 OA
ENDBRANCH  90  93
ENDBRANCH  63  86
ENDBRANCH  37  38
ENDBRANCH  30  32
ENDBRANCH  29  30
ENDBRANCH  28  29
ENDBRANCH  27  28
ENDBRANCH  26  27
ENDBRANCH  25  26
ENDBRANCH   1  25
TORSDOF 23
