REMARK SMILES CC[NH+](CC)[C@](C)(C(=O)OCCOCCOCCOC(=O)c1ccc(-c2c3nc(c(-c4cccc(S(=O)(=O)[O-])c4F)c4ccc([nH]4)c(-c4cccc(S(=O)(=O)[O-])c4F)c4nc(c(-c5cccc(S(=O)(=O)[O-])c5F)c5ccc2[nH]5)C=C4)C=C3)cc1)c1cc(F)c(C)cc1F
REMARK SMILES IDX 15 1 14 2 13 3 12 4 11 5 10 6 8 7 9 8 6 9 7 10 3 11 2 13
REMARK SMILES IDX 1 14 4 15 5 16 85 17 86 18 92 19 87 20 91 21 93 22 88 23
REMARK SMILES IDX 89 24 90 25 16 26 17 27 18 28 19 29 20 30 21 31 22 32 23 33
REMARK SMILES IDX 84 34 24 35 83 36 25 37 26 38 27 39 77 40 28 41 82 42 76 43
REMARK SMILES IDX 78 44 29 45 81 46 75 47 74 48 30 50 62 51 42 52 61 53 43 54
REMARK SMILES IDX 46 55 60 56 79 57 44 58 45 59 59 61 80 62 47 63 31 64 32 65
REMARK SMILES IDX 40 66 33 67 35 68 41 69 34 70 36 71 37 72 38 73 39 74 63 75
REMARK SMILES IDX 64 76 72 77 65 78 67 79 73 80 66 81 68 82 69 83 70 84 71 85
REMARK SMILES IDX 48 86 49 87 57 88 50 89 52 90 58 91 51 92 53 93 54 94 55 95
REMARK SMILES IDX 56 96
REMARK H PARENT 3 12 78 49 46 60
REMARK Flexibility Score: inf
ROOT
ATOM      1  C   UNL     1       1.537  -2.778   0.613  1.00  0.00     0.188 C 
ENDROOT
BRANCH   1   2
ATOM      2  C   UNL     1       2.938  -3.237   1.026  1.00  0.00     0.188 C 
BRANCH   2   3
ATOM      3  O   UNL     1       3.491  -2.662   2.200  1.00  0.00    -0.376 OA
BRANCH   3   4
ATOM      4  C   UNL     1       3.514  -1.240   2.308  1.00  0.00     0.202 C 
BRANCH   4   5
ATOM      5  C   UNL     1       3.933  -0.401   1.088  1.00  0.00     0.261 C 
BRANCH   5   6
ATOM      6  O   UNL     1       3.067  -0.516  -0.068  1.00  0.00    -0.458 OA
BRANCH   6   7
ATOM      7  C   UNL     1       3.703  -0.538  -1.278  1.00  0.00     0.372 C 
ATOM      8  O   UNL     1       4.929  -0.505  -1.371  1.00  0.00    -0.244 OA
BRANCH   7   9
ATOM      9  C   UNL     1       2.726  -0.585  -2.546  1.00  0.00     0.221 C 
ATOM     10  C   UNL     1       1.199  -0.586  -2.251  1.00  0.00     0.098 C 
BRANCH   9  11
ATOM     11  N   UNL     1       2.989   0.679  -3.359  1.00  0.00    -0.318 N 
ATOM     12  H   UNL     1       4.009   0.689  -3.373  1.00  0.00     0.349 HD
BRANCH  11  13
ATOM     13  C   UNL     1       2.583   1.971  -2.751  1.00  0.00     0.259 C 
ATOM     14  C   UNL     1       2.894   2.280  -1.289  1.00  0.00     0.071 C 
ENDBRANCH  11  13
BRANCH  11  15
ATOM     15  C   UNL     1       2.454   0.607  -4.739  1.00  0.00     0.259 C 
ATOM     16  C   UNL     1       3.114   1.612  -5.679  1.00  0.00     0.071 C 
ENDBRANCH  11  15
ENDBRANCH   9  11
BRANCH   9  17
ATOM     17  C   UNL     1       3.164  -1.902  -3.282  1.00  0.00     0.062 A 
ATOM     18  C   UNL     1       2.443  -3.107  -3.179  1.00  0.00     0.053 A 
ATOM     19  C   UNL     1       4.375  -1.971  -4.005  1.00  0.00     0.133 A 
ATOM     20  C   UNL     1       2.896  -4.281  -3.793  1.00  0.00     0.126 A 
ATOM     21  C   UNL     1       4.825  -3.150  -4.616  1.00  0.00     0.046 A 
ATOM     22  F   UNL     1       5.138  -0.881  -4.160  1.00  0.00    -0.206 F 
ATOM     23  F   UNL     1       2.153  -5.387  -3.680  1.00  0.00    -0.207 F 
ATOM     24  C   UNL     1       4.079  -4.324  -4.524  1.00  0.00    -0.012 A 
ATOM     25  C   UNL     1       4.538  -5.607  -5.147  1.00  0.00     0.047 C 
ENDBRANCH   9  17
ENDBRANCH   7   9
ENDBRANCH   6   7
ENDBRANCH   5   6
ENDBRANCH   4   5
ENDBRANCH   3   4
ENDBRANCH   2   3
ENDBRANCH   1   2
BRANCH   1  26
ATOM     26  O   UNL     1       0.986  -1.730   1.382  1.00  0.00    -0.376 OA
BRANCH  26  27
ATOM     27  C   UNL     1      -0.087  -2.021   2.263  1.00  0.00     0.202 C 
BRANCH  27  28
ATOM     28  C   UNL     1      -0.059  -3.280   3.149  1.00  0.00     0.261 C 
BRANCH  28  29
ATOM     29  O   UNL     1       0.360  -4.502   2.523  1.00  0.00    -0.460 OA
BRANCH  29  30
ATOM     30  C   UNL     1      -0.508  -5.099   1.664  1.00  0.00     0.338 C 
ATOM     31  O   UNL     1      -1.633  -4.739   1.409  1.00  0.00    -0.246 OA
BRANCH  30  32
ATOM     32  C   UNL     1       0.279  -6.094   0.877  1.00  0.00     0.060 A 
ATOM     33  C   UNL     1       0.209  -6.031  -0.520  1.00  0.00     0.016 A 
ATOM     34  C   UNL     1       1.155  -6.995   1.490  1.00  0.00     0.016 A 
ATOM     35  C   UNL     1       1.030  -6.851  -1.300  1.00  0.00     0.010 A 
ATOM     36  C   UNL     1       1.961  -7.830   0.703  1.00  0.00     0.010 A 
ATOM     37  C   UNL     1       1.914  -7.758  -0.699  1.00  0.00    -0.014 A 
BRANCH  37  38
ATOM     38  C   UNL     1       2.701  -8.704  -1.535  1.00  0.00     0.031 A 
ATOM     39  C   UNL     1       2.034  -9.950  -2.047  1.00  0.00     0.074 A 
ATOM     40  C   UNL     1       3.996  -8.480  -1.831  1.00  0.00     0.049 A 
ATOM     41  N   UNL     1       2.544 -10.945  -2.724  1.00  0.00    -0.248 NA
ATOM     42  C   UNL     1       0.597 -10.086  -1.761  1.00  0.00     0.031 C 
ATOM     43  C   UNL     1       4.759  -7.292  -1.453  1.00  0.00     0.029 A 
ATOM     44  N   UNL     1       4.906  -9.261  -2.508  1.00  0.00    -0.354 N 
ATOM     45  C   UNL     1       1.503 -11.844  -2.916  1.00  0.00     0.074 A 
ATOM     46  C   UNL     1       0.325 -11.261  -2.309  1.00  0.00     0.031 C 
ATOM     47  C   UNL     1       6.028  -7.436  -1.877  1.00  0.00     0.029 A 
ATOM     48  C   UNL     1       6.180  -8.739  -2.525  1.00  0.00     0.049 A 
ATOM     49  H   UNL     1       4.667 -10.113  -2.940  1.00  0.00     0.167 HD
ATOM     50  C   UNL     1       1.522 -13.052  -3.526  1.00  0.00     0.034 A 
ATOM     51  C   UNL     1       7.338  -9.265  -2.978  1.00  0.00     0.034 A 
ATOM     52  C   UNL     1       2.688 -13.657  -4.107  1.00  0.00     0.049 A 
ATOM     53  C   UNL     1       7.344 -10.650  -3.585  1.00  0.00     0.074 A 
ATOM     54  C   UNL     1       2.793 -14.883  -4.741  1.00  0.00     0.029 A 
ATOM     55  N   UNL     1       3.958 -13.103  -4.100  1.00  0.00    -0.354 N 
ATOM     56  N   UNL     1       6.337 -11.449  -3.841  1.00  0.00    -0.248 NA
ATOM     57  C   UNL     1       8.654 -11.204  -3.972  1.00  0.00     0.031 C 
ATOM     58  C   UNL     1       4.134 -15.089  -5.079  1.00  0.00     0.029 A 
ATOM     59  C   UNL     1       4.858 -13.972  -4.694  1.00  0.00     0.049 A 
ATOM     60  H   UNL     1       4.187 -12.221  -3.727  1.00  0.00     0.167 HD
ATOM     61  C   UNL     1       6.887 -12.585  -4.432  1.00  0.00     0.074 A 
ATOM     62  C   UNL     1       8.312 -12.357  -4.531  1.00  0.00     0.031 C 
ATOM     63  C   UNL     1       6.270 -13.725  -4.833  1.00  0.00     0.034 A 
BRANCH  50  64
ATOM     64  C   UNL     1       0.230 -13.821  -3.561  1.00  0.00     0.023 A 
ATOM     65  C   UNL     1      -0.803 -13.422  -4.432  1.00  0.00     0.012 A 
ATOM     66  C   UNL     1       0.055 -14.957  -2.747  1.00  0.00     0.148 A 
ATOM     67  C   UNL     1      -2.007 -14.124  -4.467  1.00  0.00     0.002 A 
ATOM     68  C   UNL     1      -1.130 -15.677  -2.820  1.00  0.00     0.091 A 
ATOM     69  F   UNL     1       1.043 -15.301  -1.909  1.00  0.00    -0.205 F 
ATOM     70  C   UNL     1      -2.167 -15.255  -3.669  1.00  0.00     0.022 A 
BRANCH  68  71
ATOM     71  S   UNL     1      -1.403 -17.185  -1.886  1.00  0.00     0.127 S 
ATOM     72  O   UNL     1      -2.422 -16.757  -0.928  1.00  0.00    -0.237 OA
ATOM     73  O   UNL     1      -1.884 -18.102  -2.920  1.00  0.00    -0.237 OA
ATOM     74  O   UNL     1      -0.115 -17.540  -1.308  1.00  0.00    -0.744 OA
ENDBRANCH  68  71
ENDBRANCH  50  64
BRANCH  51  75
ATOM     75  C   UNL     1       8.616  -8.499  -2.870  1.00  0.00     0.023 A 
ATOM     76  C   UNL     1       9.291  -8.099  -4.041  1.00  0.00     0.012 A 
ATOM     77  C   UNL     1       9.189  -8.202  -1.617  1.00  0.00     0.148 A 
ATOM     78  C   UNL     1      10.525  -7.450  -3.967  1.00  0.00     0.002 A 
ATOM     79  C   UNL     1      10.389  -7.504  -1.550  1.00  0.00     0.091 A 
ATOM     80  F   UNL     1       8.552  -8.618  -0.514  1.00  0.00    -0.205 F 
ATOM     81  C   UNL     1      11.068  -7.143  -2.723  1.00  0.00     0.022 A 
BRANCH  79  82
ATOM     82  S   UNL     1      11.109  -6.970   0.007  1.00  0.00     0.127 S 
ATOM     83  O   UNL     1      12.308  -7.801   0.082  1.00  0.00    -0.237 OA
ATOM     84  O   UNL     1      11.357  -5.551  -0.249  1.00  0.00    -0.237 OA
ATOM     85  O   UNL     1      10.095  -7.233   1.020  1.00  0.00    -0.744 OA
ENDBRANCH  79  82
ENDBRANCH  51  75
BRANCH  63  86
ATOM     86  C   UNL     1       7.116 -14.821  -5.437  1.00  0.00     0.023 A 
ATOM     87  C   UNL     1       7.984 -15.569  -4.616  1.00  0.00     0.012 A 
ATOM     88  C   UNL     1       6.984 -15.171  -6.796  1.00  0.00     0.148 A 
ATOM     89  C   UNL     1       8.727 -16.627  -5.143  1.00  0.00     0.002 A 
ATOM     90  C   UNL     1       7.689 -16.257  -7.303  1.00  0.00     0.091 A 
ATOM     91  F   UNL     1       6.164 -14.441  -7.566  1.00  0.00    -0.205 F 
ATOM     92  C   UNL     1       8.570 -16.978  -6.481  1.00  0.00     0.022 A 
BRANCH  90  93
ATOM     93  S   UNL     1       7.482 -16.847  -8.988  1.00  0.00     0.127 S 
ATOM     94  O   UNL     1       8.776 -16.516  -9.582  1.00  0.00    -0.237 OA
ATOM     95  O   UNL     1       7.251 -18.278  -8.789  1.00  0.00    -0.237 OA
ATOM     96  O   UNL     1       6.344 -16.120  -9.534  1.00  0.00    -0.744 OA
ENDBRANCH  90  93
ENDBRANCH  63  86
ENDBRANCH  37  38
ENDBRANCH  30  32
ENDBRANCH  29  30
ENDBRANCH  28  29
ENDBRANCH  27  28
ENDBRANCH  26  27
ENDBRANCH   1  26
TORSDOF 24
