REMARK SMILES O=C(CCc1cccnc1)Nc1ccsc1C(=O)OCCOCCOCCOC(=O)c1ccc(-c2c3nc(c(-c4cccc(S(=O)(=O)[O-])c4F)c4ccc([nH]4)c(-c4cccc(S(=O)(=O)[O-])c4F)c4nc(c(-c5cccc(S(=O)(=O)[O-])c5F)c5ccc2[nH]5)C=C4)C=C3)cc1
REMARK SMILES IDX 23 1 22 2 21 3 20 4 19 5 17 6 18 7 16 8 12 9 13 10 14 11
REMARK SMILES IDX 15 12 11 13 1 14 2 15 3 17 4 18 5 19 6 20 10 21 7 22 9 23
REMARK SMILES IDX 8 24 24 25 25 26 26 27 27 28 28 29 29 30 30 31 31 32 32 33
REMARK SMILES IDX 93 34 33 35 92 36 34 37 35 38 36 39 86 40 37 41 91 42 85 43
REMARK SMILES IDX 87 44 38 45 90 46 84 47 83 48 39 50 71 51 51 52 70 53 52 54
REMARK SMILES IDX 55 55 69 56 88 57 53 58 54 59 68 61 89 62 56 63 40 64 41 65
REMARK SMILES IDX 49 66 42 67 44 68 50 69 43 70 45 71 46 72 47 73 48 74 72 75
REMARK SMILES IDX 73 76 81 77 74 78 76 79 82 80 75 81 77 82 78 83 79 84 80 85
REMARK SMILES IDX 57 86 58 87 66 88 59 89 61 90 67 91 60 92 62 93 63 94 64 95
REMARK SMILES IDX 65 96
REMARK H PARENT 11 16 87 49 55 60
REMARK Flexibility Score: inf
ROOT
ATOM      1  C   UNL     1       3.428  -4.320   3.792  1.00  0.00     0.188 C 
ENDROOT
BRANCH   1   2
ATOM      2  O   UNL     1       4.786  -4.491   4.185  1.00  0.00    -0.376 OA
BRANCH   2   3
ATOM      3  C   UNL     1       5.803  -3.903   3.378  1.00  0.00     0.202 C 
BRANCH   3   4
ATOM      4  C   UNL     1       5.836  -4.378   1.925  1.00  0.00     0.261 C 
BRANCH   4   5
ATOM      5  O   UNL     1       4.771  -3.745   1.197  1.00  0.00    -0.459 OA
BRANCH   5   6
ATOM      6  C   UNL     1       4.566  -4.221  -0.059  1.00  0.00     0.350 C 
ATOM      7  O   UNL     1       5.364  -4.901  -0.690  1.00  0.00    -0.245 OA
BRANCH   6   8
ATOM      8  C   UNL     1       3.212  -3.896  -0.443  1.00  0.00     0.136 A 
ATOM      9  C   UNL     1       2.534  -2.684  -0.479  1.00  0.00     0.066 A 
ATOM     10  C   UNL     1       1.137  -2.902  -0.723  1.00  0.00     0.039 A 
ATOM     11  C   UNL     1       0.817  -4.228  -0.903  1.00  0.00     0.068 A 
ATOM     12  S   UNL     1       2.191  -5.227  -0.811  1.00  0.00    -0.135 S 
BRANCH   9  13
ATOM     13  N   UNL     1       3.158  -1.442  -0.315  1.00  0.00    -0.325 N 
ATOM     14  O   UNL     1       1.279  -0.089  -0.054  1.00  0.00    -0.275 OA
ATOM     15  C   UNL     1       2.491  -0.235  -0.193  1.00  0.00     0.224 C 
ATOM     16  H   UNL     1       4.142  -1.425  -0.283  1.00  0.00     0.169 HD
BRANCH  15  17
ATOM     17  C   UNL     1       3.389   0.988  -0.252  1.00  0.00     0.105 C 
BRANCH  17  18
ATOM     18  C   UNL     1       4.097   1.272   1.072  1.00  0.00     0.047 C 
BRANCH  18  19
ATOM     19  C   UNL     1       5.484   0.692   1.089  1.00  0.00    -0.029 A 
ATOM     20  C   UNL     1       6.557   1.339   0.471  1.00  0.00     0.007 A 
ATOM     21  C   UNL     1       5.733  -0.545   1.664  1.00  0.00     0.114 A 
ATOM     22  C   UNL     1       7.802   0.719   0.422  1.00  0.00     0.020 A 
ATOM     23  N   UNL     1       6.923  -1.183   1.605  1.00  0.00    -0.264 NA
ATOM     24  C   UNL     1       7.931  -0.538   0.986  1.00  0.00     0.111 A 
ENDBRANCH  18  19
ENDBRANCH  17  18
ENDBRANCH  15  17
ENDBRANCH   9  13
ENDBRANCH   6   8
ENDBRANCH   5   6
ENDBRANCH   4   5
ENDBRANCH   3   4
ENDBRANCH   2   3
ENDBRANCH   1   2
BRANCH   1  25
ATOM     25  C   UNL     1       2.925  -2.889   3.531  1.00  0.00     0.188 C 
BRANCH  25  26
ATOM     26  O   UNL     1       3.622  -1.885   4.270  1.00  0.00    -0.376 OA
BRANCH  26  27
ATOM     27  C   UNL     1       2.825  -1.172   5.213  1.00  0.00     0.202 C 
BRANCH  27  28
ATOM     28  C   UNL     1       2.800  -1.866   6.577  1.00  0.00     0.261 C 
BRANCH  28  29
ATOM     29  O   UNL     1       2.143  -3.141   6.552  1.00  0.00    -0.460 OA
BRANCH  29  30
ATOM     30  C   UNL     1       0.816  -3.126   6.295  1.00  0.00     0.338 C 
ATOM     31  O   UNL     1       0.113  -2.144   6.132  1.00  0.00    -0.246 OA
BRANCH  30  32
ATOM     32  C   UNL     1       0.383  -4.518   6.066  1.00  0.00     0.060 A 
ATOM     33  C   UNL     1      -0.454  -4.787   4.976  1.00  0.00     0.016 A 
ATOM     34  C   UNL     1       0.817  -5.551   6.903  1.00  0.00     0.016 A 
ATOM     35  C   UNL     1      -0.880  -6.093   4.739  1.00  0.00     0.010 A 
ATOM     36  C   UNL     1       0.381  -6.854   6.671  1.00  0.00     0.010 A 
ATOM     37  C   UNL     1      -0.489  -7.125   5.604  1.00  0.00    -0.014 A 
BRANCH  37  38
ATOM     38  C   UNL     1      -1.116  -8.460   5.503  1.00  0.00     0.031 A 
ATOM     39  C   UNL     1      -2.397  -8.706   6.247  1.00  0.00     0.074 A 
ATOM     40  C   UNL     1      -0.531  -9.449   4.804  1.00  0.00     0.049 A 
ATOM     41  N   UNL     1      -3.136  -9.782   6.284  1.00  0.00    -0.248 NA
ATOM     42  C   UNL     1      -2.912  -7.589   7.058  1.00  0.00     0.031 C 
ATOM     43  C   UNL     1       0.729  -9.339   4.071  1.00  0.00     0.029 A 
ATOM     44  N   UNL     1      -0.915 -10.753   4.625  1.00  0.00    -0.354 N 
ATOM     45  C   UNL     1      -4.207  -9.472   7.112  1.00  0.00     0.074 A 
ATOM     46  C   UNL     1      -4.011  -8.116   7.577  1.00  0.00     0.031 C 
ATOM     47  C   UNL     1       1.029 -10.539   3.542  1.00  0.00     0.029 A 
ATOM     48  C   UNL     1      -0.016 -11.497   3.899  1.00  0.00     0.049 A 
ATOM     49  H   UNL     1      -1.756 -11.121   4.981  1.00  0.00     0.167 HD
ATOM     50  C   UNL     1      -5.274 -10.237   7.435  1.00  0.00     0.034 A 
ATOM     51  C   UNL     1      -0.040 -12.803   3.566  1.00  0.00     0.034 A 
ATOM     52  C   UNL     1      -5.467 -11.585   6.984  1.00  0.00     0.049 A 
ATOM     53  C   UNL     1      -1.217 -13.648   3.979  1.00  0.00     0.074 A 
ATOM     54  C   UNL     1      -6.538 -12.428   7.218  1.00  0.00     0.029 A 
ATOM     55  N   UNL     1      -4.554 -12.296   6.221  1.00  0.00    -0.354 N 
ATOM     56  N   UNL     1      -2.308 -13.291   4.613  1.00  0.00    -0.248 NA
ATOM     57  C   UNL     1      -1.180 -15.069   3.602  1.00  0.00     0.031 C 
ATOM     58  C   UNL     1      -6.268 -13.654   6.600  1.00  0.00     0.029 A 
ATOM     59  C   UNL     1      -5.028 -13.573   5.986  1.00  0.00     0.049 A 
ATOM     60  H   UNL     1      -3.695 -11.943   5.894  1.00  0.00     0.167 HD
ATOM     61  C   UNL     1      -3.099 -14.433   4.685  1.00  0.00     0.074 A 
ATOM     62  C   UNL     1      -2.369 -15.490   4.017  1.00  0.00     0.031 C 
ATOM     63  C   UNL     1      -4.313 -14.596   5.268  1.00  0.00     0.034 A 
BRANCH  50  64
ATOM     64  C   UNL     1      -6.344  -9.594   8.268  1.00  0.00     0.023 A 
ATOM     65  C   UNL     1      -7.271  -8.741   7.636  1.00  0.00     0.012 A 
ATOM     66  C   UNL     1      -6.447  -9.830   9.650  1.00  0.00     0.148 A 
ATOM     67  C   UNL     1      -8.276  -8.117   8.372  1.00  0.00     0.002 A 
ATOM     68  C   UNL     1      -7.467  -9.222  10.374  1.00  0.00     0.091 A 
ATOM     69  F   UNL     1      -5.529 -10.610  10.240  1.00  0.00    -0.205 F 
ATOM     70  C   UNL     1      -8.380  -8.364   9.738  1.00  0.00     0.022 A 
BRANCH  68  71
ATOM     71  S   UNL     1      -7.684  -9.523  12.131  1.00  0.00     0.127 S 
ATOM     72  O   UNL     1      -6.953  -8.402  12.717  1.00  0.00    -0.237 OA
ATOM     73  O   UNL     1      -9.137  -9.453  12.291  1.00  0.00    -0.237 OA
ATOM     74  O   UNL     1      -7.121 -10.846  12.367  1.00  0.00    -0.744 OA
ENDBRANCH  68  71
ENDBRANCH  50  64
BRANCH  51  75
ATOM     75  C   UNL     1       1.054 -13.378   2.737  1.00  0.00     0.023 A 
ATOM     76  C   UNL     1       0.796 -13.694   1.390  1.00  0.00     0.012 A 
ATOM     77  C   UNL     1       2.341 -13.600   3.262  1.00  0.00     0.148 A 
ATOM     78  C   UNL     1       1.796 -14.239   0.584  1.00  0.00     0.002 A 
ATOM     79  C   UNL     1       3.344 -14.108   2.443  1.00  0.00     0.091 A 
ATOM     80  F   UNL     1       2.560 -13.320   4.555  1.00  0.00    -0.205 F 
ATOM     81  C   UNL     1       3.072 -14.437   1.106  1.00  0.00     0.022 A 
BRANCH  79  82
ATOM     82  S   UNL     1       5.036 -14.295   3.019  1.00  0.00     0.127 S 
ATOM     83  O   UNL     1       5.086 -15.717   3.347  1.00  0.00    -0.237 OA
ATOM     84  O   UNL     1       5.812 -13.908   1.840  1.00  0.00    -0.237 OA
ATOM     85  O   UNL     1       5.159 -13.373   4.141  1.00  0.00    -0.744 OA
ENDBRANCH  79  82
ENDBRANCH  51  75
BRANCH  63  86
ATOM     86  C   UNL     1      -4.939 -15.962   5.210  1.00  0.00     0.023 A 
ATOM     87  C   UNL     1      -4.488 -16.963   6.092  1.00  0.00     0.012 A 
ATOM     88  C   UNL     1      -6.032 -16.227   4.363  1.00  0.00     0.148 A 
ATOM     89  C   UNL     1      -5.106 -18.212   6.122  1.00  0.00     0.002 A 
ATOM     90  C   UNL     1      -6.667 -17.463   4.424  1.00  0.00     0.091 A 
ATOM     91  F   UNL     1      -6.434 -15.271   3.512  1.00  0.00    -0.205 F 
ATOM     92  C   UNL     1      -6.203 -18.458   5.299  1.00  0.00     0.022 A 
BRANCH  90  93
ATOM     93  S   UNL     1      -8.139 -17.811   3.454  1.00  0.00     0.127 S 
ATOM     94  O   UNL     1      -7.576 -18.455   2.270  1.00  0.00    -0.237 OA
ATOM     95  O   UNL     1      -8.899 -18.704   4.330  1.00  0.00    -0.237 OA
ATOM     96  O   UNL     1      -8.771 -16.515   3.235  1.00  0.00    -0.744 OA
ENDBRANCH  90  93
ENDBRANCH  63  86
ENDBRANCH  37  38
ENDBRANCH  30  32
ENDBRANCH  29  30
ENDBRANCH  28  29
ENDBRANCH  27  28
ENDBRANCH  26  27
ENDBRANCH  25  26
ENDBRANCH   1  25
TORSDOF 24
