REMARK SMILES O=C(C[NH2+]C[C@@H]1CCCO1)OCCOCCOCCOC(=O)c1ccc(-c2c3nc(c(-c4cccc(S(=O)(=O)[O-])c4F)c4ccc([nH]4)c(-c4cccc(S(=O)(=O)[O-])c4F)c4nc(c(-c5cccc(S(=O)(=O)[O-])c5F)c5ccc2[nH]5)C=C4)C=C3)cc1
REMARK SMILES IDX 15 1 14 2 13 3 12 4 11 5 2 6 1 7 3 8 4 9 5 12 6 13 7 14
REMARK SMILES IDX 10 15 8 16 9 17 16 18 17 19 18 20 19 21 20 22 21 23 22 24
REMARK SMILES IDX 23 25 24 26 85 27 25 28 84 29 26 30 27 31 28 32 78 33 29 34
REMARK SMILES IDX 83 35 77 36 79 37 30 38 82 39 76 40 75 41 31 43 63 44 43 45
REMARK SMILES IDX 62 46 44 47 47 48 61 49 80 50 45 51 46 52 60 54 81 55 48 56
REMARK SMILES IDX 32 57 33 58 41 59 34 60 36 61 42 62 35 63 37 64 38 65 39 66
REMARK SMILES IDX 40 67 64 68 65 69 73 70 66 71 68 72 74 73 67 74 69 75 70 76
REMARK SMILES IDX 71 77 72 78 49 79 50 80 58 81 51 82 53 83 59 84 52 85 54 86
REMARK SMILES IDX 55 87 56 88 57 89
REMARK H PARENT 4 10 4 11 79 42 47 53
REMARK Flexibility Score: inf
ROOT
ATOM      1  C   UNL     1       3.052  -1.245  -1.322  1.00  0.00     0.188 C 
ENDROOT
BRANCH   1   2
ATOM      2  O   UNL     1       4.249  -1.632  -0.663  1.00  0.00    -0.376 OA
BRANCH   2   3
ATOM      3  C   UNL     1       4.937  -0.572  -0.022  1.00  0.00     0.202 C 
BRANCH   3   4
ATOM      4  C   UNL     1       4.609  -0.592   1.466  1.00  0.00     0.261 C 
BRANCH   4   5
ATOM      5  O   UNL     1       3.202  -0.501   1.778  1.00  0.00    -0.459 OA
BRANCH   5   6
ATOM      6  C   UNL     1       2.484   0.646   1.806  1.00  0.00     0.361 C 
ATOM      7  O   UNL     1       1.417   0.686   2.417  1.00  0.00    -0.245 OA
BRANCH   6   8
ATOM      8  C   UNL     1       2.940   1.810   0.940  1.00  0.00     0.384 C 
BRANCH   8   9
ATOM      9  N   UNL     1       4.179   2.436   1.424  1.00  0.00    -0.335 N 
ATOM     10  H   UNL     1       4.746   1.726   1.887  1.00  0.00     0.346 HD
ATOM     11  H   UNL     1       3.917   3.184   2.066  1.00  0.00     0.346 HD
BRANCH   9  12
ATOM     12  C   UNL     1       4.974   3.039   0.335  1.00  0.00     0.293 C 
BRANCH  12  13
ATOM     13  C   UNL     1       4.223   3.947  -0.652  1.00  0.00     0.173 C 
ATOM     14  C   UNL     1       4.900   3.984  -2.015  1.00  0.00     0.040 C 
ATOM     15  O   UNL     1       4.194   5.287  -0.143  1.00  0.00    -0.372 OA
ATOM     16  C   UNL     1       4.595   5.381  -2.467  1.00  0.00     0.031 C 
ATOM     17  C   UNL     1       4.691   6.161  -1.178  1.00  0.00     0.161 C 
ENDBRANCH  12  13
ENDBRANCH   9  12
ENDBRANCH   8   9
ENDBRANCH   6   8
ENDBRANCH   5   6
ENDBRANCH   4   5
ENDBRANCH   3   4
ENDBRANCH   2   3
ENDBRANCH   1   2
BRANCH   1  18
ATOM     18  C   UNL     1       2.275  -2.468  -1.826  1.00  0.00     0.188 C 
BRANCH  18  19
ATOM     19  O   UNL     1       2.961  -3.709  -1.956  1.00  0.00    -0.376 OA
BRANCH  19  20
ATOM     20  C   UNL     1       4.251  -3.720  -2.557  1.00  0.00     0.202 C 
BRANCH  20  21
ATOM     21  C   UNL     1       4.336  -3.285  -4.020  1.00  0.00     0.261 C 
BRANCH  21  22
ATOM     22  O   UNL     1       3.925  -1.923  -4.255  1.00  0.00    -0.460 OA
BRANCH  22  23
ATOM     23  C   UNL     1       2.887  -1.785  -5.119  1.00  0.00     0.338 C 
ATOM     24  O   UNL     1       2.256  -2.677  -5.659  1.00  0.00    -0.246 OA
BRANCH  23  25
ATOM     25  C   UNL     1       2.523  -0.366  -5.292  1.00  0.00     0.060 A 
ATOM     26  C   UNL     1       1.287   0.077  -4.803  1.00  0.00     0.016 A 
ATOM     27  C   UNL     1       3.301   0.469  -6.094  1.00  0.00     0.016 A 
ATOM     28  C   UNL     1       0.810   1.349  -5.143  1.00  0.00     0.010 A 
ATOM     29  C   UNL     1       2.818   1.740  -6.435  1.00  0.00     0.010 A 
ATOM     30  C   UNL     1       1.557   2.180  -5.989  1.00  0.00    -0.014 A 
BRANCH  30  31
ATOM     31  C   UNL     1       1.011   3.470  -6.494  1.00  0.00     0.031 A 
ATOM     32  C   UNL     1       0.516   3.574  -7.913  1.00  0.00     0.074 A 
ATOM     33  C   UNL     1       0.994   4.573  -5.723  1.00  0.00     0.049 A 
ATOM     34  N   UNL     1       0.143   4.639  -8.575  1.00  0.00    -0.248 NA
ATOM     35  C   UNL     1       0.388   2.319  -8.670  1.00  0.00     0.031 C 
ATOM     36  C   UNL     1       1.334   4.628  -4.304  1.00  0.00     0.029 A 
ATOM     37  N   UNL     1       0.736   5.885  -6.056  1.00  0.00    -0.354 N 
ATOM     38  C   UNL     1      -0.284   4.188  -9.816  1.00  0.00     0.074 A 
ATOM     39  C   UNL     1      -0.087   2.753  -9.831  1.00  0.00     0.031 C 
ATOM     40  C   UNL     1       1.372   5.916  -3.920  1.00  0.00     0.029 A 
ATOM     41  C   UNL     1       1.129   6.766  -5.075  1.00  0.00     0.049 A 
ATOM     42  H   UNL     1       0.317   6.161  -6.902  1.00  0.00     0.167 HD
ATOM     43  C   UNL     1      -0.831   4.898 -10.831  1.00  0.00     0.034 A 
ATOM     44  C   UNL     1       1.347   8.095  -5.118  1.00  0.00     0.034 A 
ATOM     45  C   UNL     1      -1.045   6.321 -10.816  1.00  0.00     0.049 A 
ATOM     46  C   UNL     1       0.959   8.871  -6.341  1.00  0.00     0.074 A 
ATOM     47  C   UNL     1      -1.699   7.104 -11.754  1.00  0.00     0.029 A 
ATOM     48  N   UNL     1      -0.579   7.181  -9.838  1.00  0.00    -0.354 N 
ATOM     49  N   UNL     1       0.415   8.433  -7.447  1.00  0.00    -0.248 NA
ATOM     50  C   UNL     1       1.141  10.329  -6.292  1.00  0.00     0.031 C 
ATOM     51  C   UNL     1      -1.593   8.443 -11.361  1.00  0.00     0.029 A 
ATOM     52  C   UNL     1      -0.890   8.491 -10.169  1.00  0.00     0.049 A 
ATOM     53  H   UNL     1      -0.097   6.904  -9.026  1.00  0.00     0.167 HD
ATOM     54  C   UNL     1       0.120   9.566  -8.195  1.00  0.00     0.074 A 
ATOM     55  C   UNL     1       0.568  10.708  -7.426  1.00  0.00     0.031 C 
ATOM     56  C   UNL     1      -0.490   9.640  -9.402  1.00  0.00     0.034 A 
BRANCH  43  57
ATOM     57  C   UNL     1      -1.302   4.143 -12.041  1.00  0.00     0.023 A 
ATOM     58  C   UNL     1      -2.527   3.447 -11.983  1.00  0.00     0.012 A 
ATOM     59  C   UNL     1      -0.596   4.212 -13.256  1.00  0.00     0.148 A 
ATOM     60  C   UNL     1      -3.038   2.822 -13.118  1.00  0.00     0.002 A 
ATOM     61  C   UNL     1      -1.128   3.612 -14.391  1.00  0.00     0.091 A 
ATOM     62  F   UNL     1       0.574   4.865 -13.277  1.00  0.00    -0.205 F 
ATOM     63  C   UNL     1      -2.345   2.913 -14.323  1.00  0.00     0.022 A 
BRANCH  61  64
ATOM     64  S   UNL     1      -0.346   3.725 -16.003  1.00  0.00     0.127 S 
ATOM     65  O   UNL     1       0.070   2.341 -16.225  1.00  0.00    -0.237 OA
ATOM     66  O   UNL     1      -1.452   4.173 -16.850  1.00  0.00    -0.237 OA
ATOM     67  O   UNL     1       0.740   4.685 -15.859  1.00  0.00    -0.744 OA
ENDBRANCH  61  64
ENDBRANCH  43  57
BRANCH  44  68
ATOM     68  C   UNL     1       2.005   8.791  -3.981  1.00  0.00     0.023 A 
ATOM     69  C   UNL     1       1.238   9.556  -3.087  1.00  0.00     0.012 A 
ATOM     70  C   UNL     1       3.406   8.743  -3.828  1.00  0.00     0.148 A 
ATOM     71  C   UNL     1       1.858  10.283  -2.069  1.00  0.00     0.002 A 
ATOM     72  C   UNL     1       4.016   9.459  -2.804  1.00  0.00     0.091 A 
ATOM     73  F   UNL     1       4.118   8.016  -4.701  1.00  0.00    -0.205 F 
ATOM     74  C   UNL     1       3.243  10.231  -1.924  1.00  0.00     0.022 A 
BRANCH  72  75
ATOM     75  S   UNL     1       5.789   9.389  -2.509  1.00  0.00     0.127 S 
ATOM     76  O   UNL     1       6.244  10.648  -3.087  1.00  0.00    -0.237 OA
ATOM     77  O   UNL     1       5.856   9.316  -1.049  1.00  0.00    -0.237 OA
ATOM     78  O   UNL     1       6.241   8.175  -3.178  1.00  0.00    -0.744 OA
ENDBRANCH  72  75
ENDBRANCH  44  68
BRANCH  56  79
ATOM     79  C   UNL     1      -0.768  11.008  -9.960  1.00  0.00     0.023 A 
ATOM     80  C   UNL     1       0.288  11.783 -10.478  1.00  0.00     0.012 A 
ATOM     81  C   UNL     1      -2.084  11.509 -10.010  1.00  0.00     0.148 A 
ATOM     82  C   UNL     1       0.042  13.048 -11.011  1.00  0.00     0.002 A 
ATOM     83  C   UNL     1      -2.328  12.752 -10.583  1.00  0.00     0.091 A 
ATOM     84  F   UNL     1      -3.072  10.766  -9.490  1.00  0.00    -0.205 F 
ATOM     85  C   UNL     1      -1.264  13.527 -11.074  1.00  0.00     0.022 A 
BRANCH  83  86
ATOM     86  S   UNL     1      -3.985  13.415 -10.782  1.00  0.00     0.127 S 
ATOM     87  O   UNL     1      -3.997  14.492  -9.794  1.00  0.00    -0.237 OA
ATOM     88  O   UNL     1      -3.975  13.864 -12.175  1.00  0.00    -0.237 OA
ATOM     89  O   UNL     1      -4.895  12.310 -10.511  1.00  0.00    -0.744 OA
ENDBRANCH  83  86
ENDBRANCH  56  79
ENDBRANCH  30  31
ENDBRANCH  23  25
ENDBRANCH  22  23
ENDBRANCH  21  22
ENDBRANCH  20  21
ENDBRANCH  19  20
ENDBRANCH  18  19
ENDBRANCH   1  18
TORSDOF 23
