REMARK SMILES O=C(/C=C/c1ccc(O)c(O)c1)OCCOCCOCCOC(=O)c1ccc(-c2c3nc(c(-c4cccc(S(=O)(=O)[O-])c4F)c4ccc([nH]4)c(-c4cccc(S(=O)(=O)[O-])c4F)c4nc(c(-c5cccc(S(=O)(=O)[O-])c5F)c5ccc2[nH]5)C=C4)C=C3)cc1
REMARK SMILES IDX 18 1 17 2 16 3 15 4 14 5 13 6 2 7 1 8 3 9 4 10 5 11 6 12
REMARK SMILES IDX 12 13 7 14 10 15 8 16 11 17 9 19 19 21 20 22 21 23 22 24
REMARK SMILES IDX 23 25 24 26 25 27 26 28 87 29 27 30 86 31 28 32 29 33 30 34
REMARK SMILES IDX 80 35 31 36 85 37 79 38 81 39 32 40 84 41 78 42 77 43 33 45
REMARK SMILES IDX 65 46 45 47 64 48 46 49 49 50 63 51 82 52 47 53 48 54 62 56
REMARK SMILES IDX 83 57 50 58 34 59 35 60 43 61 36 62 38 63 44 64 37 65 39 66
REMARK SMILES IDX 40 67 41 68 42 69 66 70 67 71 75 72 68 73 70 74 76 75 69 76
REMARK SMILES IDX 71 77 72 78 73 79 74 80 51 81 52 82 60 83 53 84 55 85 61 86
REMARK SMILES IDX 54 87 56 88 57 89 58 90 59 91
REMARK H PARENT 11 18 9 20 81 44 49 55
REMARK Flexibility Score: inf
ROOT
ATOM      1  C   UNL     1       2.221   0.470  -2.899  1.00  0.00     0.188 C 
ENDROOT
BRANCH   1   2
ATOM      2  C   UNL     1       2.907   0.573  -1.525  1.00  0.00     0.188 C 
BRANCH   2   3
ATOM      3  O   UNL     1       4.307   0.440  -1.619  1.00  0.00    -0.376 OA
BRANCH   3   4
ATOM      4  C   UNL     1       5.020  -0.369  -0.705  1.00  0.00     0.202 C 
BRANCH   4   5
ATOM      5  C   UNL     1       4.374  -1.619  -0.120  1.00  0.00     0.261 C 
BRANCH   5   6
ATOM      6  O   UNL     1       3.340  -1.549   0.901  1.00  0.00    -0.460 OA
BRANCH   6   7
ATOM      7  C   UNL     1       2.856  -0.605   1.726  1.00  0.00     0.330 C 
ATOM      8  O   UNL     1       1.816  -0.806   2.347  1.00  0.00    -0.247 OA
BRANCH   7   9
ATOM      9  C   UNL     1       3.496   0.704   1.832  1.00  0.00     0.094 C 
ATOM     10  C   UNL     1       4.757   0.883   2.248  1.00  0.00     0.016 C 
BRANCH  10  11
ATOM     11  C   UNL     1       5.315   2.234   2.357  1.00  0.00    -0.021 A 
ATOM     12  C   UNL     1       4.914   3.081   3.401  1.00  0.00     0.012 A 
ATOM     13  C   UNL     1       6.239   2.697   1.410  1.00  0.00     0.058 A 
ATOM     14  C   UNL     1       5.436   4.374   3.512  1.00  0.00     0.051 A 
ATOM     15  C   UNL     1       6.751   3.982   1.527  1.00  0.00     0.157 A 
ATOM     16  C   UNL     1       6.359   4.814   2.571  1.00  0.00     0.157 A 
BRANCH  15  17
ATOM     17  O   UNL     1       7.651   4.429   0.599  1.00  0.00    -0.504 OA
ATOM     18  H   UNL     1       8.003   5.294   0.667  1.00  0.00     0.293 HD
ENDBRANCH  15  17
BRANCH  16  19
ATOM     19  O   UNL     1       6.910   6.064   2.635  1.00  0.00    -0.504 OA
ATOM     20  H   UNL     1       6.667   6.649   3.325  1.00  0.00     0.293 HD
ENDBRANCH  16  19
ENDBRANCH  10  11
ENDBRANCH   7   9
ENDBRANCH   6   7
ENDBRANCH   5   6
ENDBRANCH   4   5
ENDBRANCH   3   4
ENDBRANCH   2   3
ENDBRANCH   1   2
BRANCH   1  21
ATOM     21  O   UNL     1       2.918  -0.184  -3.957  1.00  0.00    -0.376 OA
BRANCH  21  22
ATOM     22  C   UNL     1       4.178   0.350  -4.367  1.00  0.00     0.202 C 
BRANCH  22  23
ATOM     23  C   UNL     1       4.264   1.828  -4.779  1.00  0.00     0.261 C 
BRANCH  23  24
ATOM     24  O   UNL     1       3.860   2.768  -3.766  1.00  0.00    -0.460 OA
BRANCH  24  25
ATOM     25  C   UNL     1       2.838   3.582  -4.132  1.00  0.00     0.338 C 
ATOM     26  O   UNL     1       2.230   3.567  -5.191  1.00  0.00    -0.246 OA
BRANCH  25  27
ATOM     27  C   UNL     1       2.425   4.461  -3.024  1.00  0.00     0.060 A 
ATOM     28  C   UNL     1       1.119   4.329  -2.538  1.00  0.00     0.016 A 
ATOM     29  C   UNL     1       3.232   5.522  -2.608  1.00  0.00     0.016 A 
ATOM     30  C   UNL     1       0.596   5.291  -1.674  1.00  0.00     0.010 A 
ATOM     31  C   UNL     1       2.702   6.491  -1.745  1.00  0.00     0.010 A 
ATOM     32  C   UNL     1       1.368   6.403  -1.308  1.00  0.00    -0.014 A 
BRANCH  32  33
ATOM     33  C   UNL     1       0.724   7.520  -0.571  1.00  0.00     0.031 A 
ATOM     34  C   UNL     1       0.227   8.725  -1.326  1.00  0.00     0.074 A 
ATOM     35  C   UNL     1       0.546   7.447   0.760  1.00  0.00     0.049 A 
ATOM     36  N   UNL     1      -0.423   9.769  -0.878  1.00  0.00    -0.248 NA
ATOM     37  C   UNL     1       0.494   8.758  -2.773  1.00  0.00     0.031 C 
ATOM     38  C   UNL     1       0.997   6.347   1.610  1.00  0.00     0.029 A 
ATOM     39  N   UNL     1      -0.050   8.326   1.629  1.00  0.00    -0.354 N 
ATOM     40  C   UNL     1      -0.642  10.584  -1.983  1.00  0.00     0.074 A 
ATOM     41  C   UNL     1      -0.033   9.925  -3.119  1.00  0.00     0.031 C 
ATOM     42  C   UNL     1       0.682   6.628   2.886  1.00  0.00     0.029 A 
ATOM     43  C   UNL     1       0.013   7.928   2.943  1.00  0.00     0.049 A 
ATOM     44  H   UNL     1      -0.482   9.162   1.339  1.00  0.00     0.167 HD
ATOM     45  C   UNL     1      -1.313  11.758  -2.055  1.00  0.00     0.034 A 
ATOM     46  C   UNL     1      -0.412   8.544   4.064  1.00  0.00     0.034 A 
ATOM     47  C   UNL     1      -1.933  12.413  -0.934  1.00  0.00     0.049 A 
ATOM     48  C   UNL     1      -1.154   9.851   3.959  1.00  0.00     0.074 A 
ATOM     49  C   UNL     1      -2.660  13.592  -0.920  1.00  0.00     0.029 A 
ATOM     50  N   UNL     1      -1.897  11.953   0.372  1.00  0.00    -0.354 N 
ATOM     51  N   UNL     1      -1.475  10.535   2.887  1.00  0.00    -0.248 NA
ATOM     52  C   UNL     1      -1.630  10.452   5.215  1.00  0.00     0.031 C 
ATOM     53  C   UNL     1      -3.057  13.848   0.398  1.00  0.00     0.029 A 
ATOM     54  C   UNL     1      -2.583  12.824   1.202  1.00  0.00     0.049 A 
ATOM     55  H   UNL     1      -1.449  11.127   0.667  1.00  0.00     0.167 HD
ATOM     56  C   UNL     1      -2.209  11.628   3.336  1.00  0.00     0.074 A 
ATOM     57  C   UNL     1      -2.314  11.499   4.774  1.00  0.00     0.031 C 
ATOM     58  C   UNL     1      -2.728  12.660   2.625  1.00  0.00     0.034 A 
BRANCH  45  59
ATOM     59  C   UNL     1      -1.469  12.389  -3.413  1.00  0.00     0.023 A 
ATOM     60  C   UNL     1      -2.414  11.853  -4.311  1.00  0.00     0.012 A 
ATOM     61  C   UNL     1      -0.747  13.542  -3.773  1.00  0.00     0.148 A 
ATOM     62  C   UNL     1      -2.624  12.443  -5.556  1.00  0.00     0.002 A 
ATOM     63  C   UNL     1      -0.986  14.145  -5.003  1.00  0.00     0.091 A 
ATOM     64  F   UNL     1       0.162  14.023  -2.913  1.00  0.00    -0.205 F 
ATOM     65  C   UNL     1      -1.919  13.593  -5.898  1.00  0.00     0.022 A 
BRANCH  63  66
ATOM     66  S   UNL     1      -0.176  15.666  -5.511  1.00  0.00     0.127 S 
ATOM     67  O   UNL     1       0.735  15.183  -6.548  1.00  0.00    -0.237 OA
ATOM     68  O   UNL     1      -1.298  16.463  -6.009  1.00  0.00    -0.237 OA
ATOM     69  O   UNL     1       0.463  16.198  -4.316  1.00  0.00    -0.744 OA
ENDBRANCH  63  66
ENDBRANCH  45  59
BRANCH  46  70
ATOM     70  C   UNL     1      -0.180   7.903   5.388  1.00  0.00     0.023 A 
ATOM     71  C   UNL     1      -1.268   7.398   6.125  1.00  0.00     0.012 A 
ATOM     72  C   UNL     1       1.121   7.764   5.906  1.00  0.00     0.148 A 
ATOM     73  C   UNL     1      -1.065   6.795   7.368  1.00  0.00     0.002 A 
ATOM     74  C   UNL     1       1.323   7.105   7.112  1.00  0.00     0.091 A 
ATOM     75  F   UNL     1       2.148   8.274   5.209  1.00  0.00    -0.205 F 
ATOM     76  C   UNL     1       0.230   6.636   7.856  1.00  0.00     0.022 A 
BRANCH  74  77
ATOM     77  S   UNL     1       2.983   6.732   7.689  1.00  0.00     0.127 S 
ATOM     78  O   UNL     1       3.281   7.887   8.529  1.00  0.00    -0.237 OA
ATOM     79  O   UNL     1       2.794   5.475   8.413  1.00  0.00    -0.237 OA
ATOM     80  O   UNL     1       3.779   6.594   6.472  1.00  0.00    -0.744 OA
ENDBRANCH  74  77
ENDBRANCH  46  70
BRANCH  58  81
ATOM     81  C   UNL     1      -3.462  13.733   3.387  1.00  0.00     0.023 A 
ATOM     82  C   UNL     1      -2.729  14.652   4.164  1.00  0.00     0.012 A 
ATOM     83  C   UNL     1      -4.861  13.872   3.291  1.00  0.00     0.148 A 
ATOM     84  C   UNL     1      -3.379  15.671   4.861  1.00  0.00     0.002 A 
ATOM     85  C   UNL     1      -5.497  14.915   3.956  1.00  0.00     0.091 A 
ATOM     86  F   UNL     1      -5.548  12.977   2.565  1.00  0.00    -0.205 F 
ATOM     87  C   UNL     1      -4.760  15.809   4.749  1.00  0.00     0.022 A 
BRANCH  85  88
ATOM     88  S   UNL     1      -7.263  15.207   3.792  1.00  0.00     0.127 S 
ATOM     89  O   UNL     1      -7.787  14.562   4.995  1.00  0.00    -0.237 OA
ATOM     90  O   UNL     1      -7.347  16.669   3.800  1.00  0.00    -0.237 OA
ATOM     91  O   UNL     1      -7.643  14.595   2.526  1.00  0.00    -0.744 OA
ENDBRANCH  85  88
ENDBRANCH  58  81
ENDBRANCH  32  33
ENDBRANCH  25  27
ENDBRANCH  24  25
ENDBRANCH  23  24
ENDBRANCH  22  23
ENDBRANCH  21  22
ENDBRANCH   1  21
TORSDOF 23
