REMARK SMILES Cc1cccc(-c2ncc(C[NH+]3CCC4(CC3)NC(=O)C[C@H]4C(=O)OCCOCCOCCOC(=O)c3ccc(-c4c5nc(c(-c6cccc(S(=O)(=O)[O-])c6F)c6ccc([nH]6)c(-c6cccc(S(=O)(=O)[O-])c6F)c6nc(c(-c7cccc(S(=O)(=O)[O-])c7F)c7ccc4[nH]7)C=C6)C=C5)cc3)cn2)c1
REMARK SMILES IDX 29 1 28 2 27 3 26 4 25 5 23 6 24 7 22 8 12 9 13 10 17 11
REMARK SMILES IDX 14 13 16 14 15 15 18 16 19 17 21 19 20 20 11 21 10 22 7 23
REMARK SMILES IDX 8 24 101 25 9 26 100 27 6 28 1 29 2 30 3 31 102 32 4 33 5 34
REMARK SMILES IDX 30 35 31 36 32 37 33 38 34 39 35 40 36 41 37 42 38 43 99 44
REMARK SMILES IDX 39 45 98 46 40 47 41 48 42 49 92 50 43 51 97 52 91 53 93 54
REMARK SMILES IDX 44 55 96 56 90 57 89 58 45 60 77 61 57 62 76 63 58 64 61 65
REMARK SMILES IDX 75 66 94 67 59 68 60 69 74 71 95 72 62 73 46 74 47 75 55 76
REMARK SMILES IDX 48 77 50 78 56 79 49 80 51 81 52 82 53 83 54 84 78 85 79 86
REMARK SMILES IDX 87 87 80 88 82 89 88 90 81 91 83 92 84 93 85 94 86 95 63 96
REMARK SMILES IDX 64 97 72 98 65 99 67 100 73 101 66 102 68 103 69 104 70 105
REMARK SMILES IDX 71 106
REMARK H PARENT 12 12 18 18 93 59 61 70
REMARK Flexibility Score: inf
ROOT
ATOM      1  C   UNL     1      -2.265   7.612  -5.408  1.00  0.00     0.188 C 
ENDROOT
BRANCH   1   2
ATOM      2  O   UNL     1      -1.117   6.916  -5.967  1.00  0.00    -0.376 OA
BRANCH   2   3
ATOM      3  C   UNL     1      -0.593   5.563  -5.749  1.00  0.00     0.202 C 
BRANCH   3   4
ATOM      4  C   UNL     1       0.073   4.635  -4.348  1.00  0.00     0.261 C 
BRANCH   4   5
ATOM      5  O   UNL     1       0.567   4.820  -2.558  1.00  0.00    -0.463 OA
BRANCH   5   6
ATOM      6  C   UNL     1       1.415   5.589  -1.447  1.00  0.00     0.311 C 
ATOM      7  O   UNL     1       2.167   6.573  -1.588  1.00  0.00    -0.252 OA
BRANCH   6   8
ATOM      8  C   UNL     1       1.187   5.426  -0.007  1.00  0.00     0.134 C 
ATOM      9  N   UNL     1      -3.521   7.181   0.263  1.00  0.00    -0.331 N 
ATOM     10  C   UNL     1      -2.213   7.425   1.359  1.00  0.00     0.264 C 
ATOM     11  C   UNL     1      -2.740   6.646  -1.408  1.00  0.00     0.264 C 
ATOM     12  H   UNL     1      -4.107   7.977   0.013  1.00  0.00     0.348 HD
ATOM     13  C   UNL     1      -0.815   6.280   1.653  1.00  0.00     0.091 C 
ATOM     14  C   UNL     1      -1.284   4.955  -1.280  1.00  0.00     0.091 C 
ATOM     15  C   UNL     1      -0.205   5.057   0.368  1.00  0.00     0.064 C 
ATOM     16  N   UNL     1       0.073   3.849   1.107  1.00  0.00    -0.349 N 
ATOM     17  C   UNL     1       1.413   3.634   1.407  1.00  0.00     0.221 C 
ATOM     18  H   UNL     1      -0.635   3.222   1.379  1.00  0.00     0.164 HD
ATOM     19  C   UNL     1       2.240   4.680   0.758  1.00  0.00     0.117 C 
ATOM     20  O   UNL     1       1.833   2.760   2.145  1.00  0.00    -0.275 OA
BRANCH   9  21
ATOM     21  C   UNL     1      -4.547   6.029   1.114  1.00  0.00     0.302 C 
BRANCH  21  22
ATOM     22  C   UNL     1      -4.316   4.407   1.398  1.00  0.00     0.043 A 
ATOM     23  C   UNL     1      -2.969   1.956   0.987  1.00  0.00     0.159 A 
ATOM     24  N   UNL     1      -2.608   2.750   2.019  1.00  0.00    -0.236 NA
ATOM     25  N   UNL     1      -4.140   2.169   0.351  1.00  0.00    -0.236 NA
ATOM     26  C   UNL     1      -3.347   3.897   2.256  1.00  0.00     0.124 A 
ATOM     27  C   UNL     1      -4.799   3.365   0.608  1.00  0.00     0.124 A 
BRANCH  23  28
ATOM     28  C   UNL     1      -2.062   0.808   0.568  1.00  0.00     0.019 A 
ATOM     29  C   UNL     1       1.730   0.005   0.105  1.00  0.00     0.044 C 
ATOM     30  C   UNL     1       0.229  -0.169   0.177  1.00  0.00    -0.050 A 
ATOM     31  C   UNL     1      -0.315  -1.435   0.040  1.00  0.00     0.003 A 
ATOM     32  C   UNL     1      -0.656   0.916   0.385  1.00  0.00     0.015 A 
ATOM     33  C   UNL     1      -1.700  -1.584   0.084  1.00  0.00     0.001 A 
ATOM     34  C   UNL     1      -2.555  -0.485   0.341  1.00  0.00     0.012 A 
ENDBRANCH  23  28
ENDBRANCH  21  22
ENDBRANCH   9  21
ENDBRANCH   6   8
ENDBRANCH   5   6
ENDBRANCH   4   5
ENDBRANCH   3   4
ENDBRANCH   2   3
ENDBRANCH   1   2
BRANCH   1  35
ATOM     35  C   UNL     1      -3.670   6.979  -5.331  1.00  0.00     0.188 C 
BRANCH  35  36
ATOM     36  O   UNL     1      -3.629   5.627  -5.730  1.00  0.00    -0.376 OA
BRANCH  36  37
ATOM     37  C   UNL     1      -4.684   4.729  -5.390  1.00  0.00     0.202 C 
BRANCH  37  38
ATOM     38  C   UNL     1      -5.636   4.974  -4.169  1.00  0.00     0.261 C 
BRANCH  38  39
ATOM     39  O   UNL     1      -5.197   4.252  -2.958  1.00  0.00    -0.460 OA
BRANCH  39  40
ATOM     40  C   UNL     1      -4.966   4.969  -1.789  1.00  0.00     0.338 C 
ATOM     41  O   UNL     1      -5.758   5.817  -1.425  1.00  0.00    -0.246 OA
BRANCH  40  42
ATOM     42  C   UNL     1      -3.410   4.686  -1.273  1.00  0.00     0.060 A 
ATOM     43  C   UNL     1      -2.347   5.567  -0.031  1.00  0.00     0.016 A 
ATOM     44  C   UNL     1      -2.881   4.824  -2.782  1.00  0.00     0.016 A 
ATOM     45  C   UNL     1      -0.952   6.756  -0.766  1.00  0.00     0.010 A 
ATOM     46  C   UNL     1      -1.723   5.879  -3.275  1.00  0.00     0.010 A 
ATOM     47  C   UNL     1      -0.577   6.784  -2.515  1.00  0.00    -0.014 A 
BRANCH  47  48
ATOM     48  C   UNL     1       1.017   6.719  -3.545  1.00  0.00     0.031 A 
ATOM     49  C   UNL     1       2.383   5.357  -3.568  1.00  0.00     0.074 A 
ATOM     50  C   UNL     1       1.187   7.553  -4.584  1.00  0.00     0.049 A 
ATOM     51  N   UNL     1       3.637   5.477  -3.159  1.00  0.00    -0.248 NA
ATOM     52  C   UNL     1       2.192   3.686  -3.448  1.00  0.00     0.031 C 
ATOM     53  C   UNL     1       2.076   7.384  -5.736  1.00  0.00     0.029 A 
ATOM     54  N   UNL     1       0.484   8.704  -4.896  1.00  0.00    -0.354 N 
ATOM     55  C   UNL     1       4.181   4.163  -2.948  1.00  0.00     0.074 A 
ATOM     56  C   UNL     1       3.135   3.295  -2.615  1.00  0.00     0.031 C 
ATOM     57  C   UNL     1       2.087   8.534  -6.442  1.00  0.00     0.029 A 
ATOM     58  C   UNL     1       1.348   9.508  -5.652  1.00  0.00     0.049 A 
ATOM     59  H   UNL     1      -0.442   8.916  -4.636  1.00  0.00     0.167 HD
ATOM     60  C   UNL     1       5.232   3.667  -3.669  1.00  0.00     0.034 A 
ATOM     61  C   UNL     1       1.850  10.607  -5.023  1.00  0.00     0.034 A 
ATOM     62  C   UNL     1       5.586   4.729  -4.594  1.00  0.00     0.049 A 
ATOM     63  C   UNL     1       3.327  10.375  -4.725  1.00  0.00     0.074 A 
ATOM     64  C   UNL     1       5.175   5.024  -5.883  1.00  0.00     0.029 A 
ATOM     65  N   UNL     1       5.969   5.923  -4.019  1.00  0.00    -0.354 N 
ATOM     66  N   UNL     1       3.934   9.213  -4.766  1.00  0.00    -0.248 NA
ATOM     67  C   UNL     1       4.254  11.466  -4.472  1.00  0.00     0.031 C 
ATOM     68  C   UNL     1       5.280   6.442  -6.046  1.00  0.00     0.029 A 
ATOM     69  C   UNL     1       5.756   6.994  -4.865  1.00  0.00     0.049 A 
ATOM     70  H   UNL     1       6.348   6.003  -3.114  1.00  0.00     0.167 HD
ATOM     71  C   UNL     1       5.265   9.356  -4.500  1.00  0.00     0.074 A 
ATOM     72  C   UNL     1       5.417  10.799  -4.376  1.00  0.00     0.031 C 
ATOM     73  C   UNL     1       6.147   8.312  -4.377  1.00  0.00     0.034 A 
BRANCH  60  74
ATOM     74  C   UNL     1       5.623   2.166  -3.841  1.00  0.00     0.023 A 
ATOM     75  C   UNL     1       6.461   1.901  -4.944  1.00  0.00     0.012 A 
ATOM     76  C   UNL     1       5.287   1.010  -3.051  1.00  0.00     0.148 A 
ATOM     77  C   UNL     1       6.901   0.614  -5.285  1.00  0.00     0.002 A 
ATOM     78  C   UNL     1       5.688  -0.292  -3.427  1.00  0.00     0.091 A 
ATOM     79  F   UNL     1       4.631   1.144  -1.892  1.00  0.00    -0.205 F 
ATOM     80  C   UNL     1       6.501  -0.483  -4.543  1.00  0.00     0.022 A 
BRANCH  78  81
ATOM     81  S   UNL     1       5.202  -1.819  -2.572  1.00  0.00     0.127 S 
ATOM     82  O   UNL     1       4.667  -2.633  -3.667  1.00  0.00    -0.237 OA
ATOM     83  O   UNL     1       6.472  -2.304  -2.033  1.00  0.00    -0.237 OA
ATOM     84  O   UNL     1       4.208  -1.438  -1.579  1.00  0.00    -0.744 OA
ENDBRANCH  78  81
ENDBRANCH  60  74
BRANCH  61  85
ATOM     85  C   UNL     1       0.795  11.218  -4.114  1.00  0.00     0.023 A 
ATOM     86  C   UNL     1      -0.493  11.473  -4.685  1.00  0.00     0.012 A 
ATOM     87  C   UNL     1       0.877  11.129  -2.717  1.00  0.00     0.148 A 
ATOM     88  C   UNL     1      -1.661  11.430  -3.912  1.00  0.00     0.002 A 
ATOM     89  C   UNL     1      -0.294  11.123  -1.949  1.00  0.00     0.091 A 
ATOM     90  F   UNL     1       2.080  10.989  -2.145  1.00  0.00    -0.205 F 
ATOM     91  C   UNL     1      -1.562  11.216  -2.544  1.00  0.00     0.022 A 
BRANCH  89  92
ATOM     92  S   UNL     1      -0.180  10.967  -0.164  1.00  0.00     0.127 S 
ATOM     93  O   UNL     1      -1.577  11.025   0.273  1.00  0.00    -0.237 OA
ATOM     94  O   UNL     1       0.448   9.668   0.034  1.00  0.00    -0.237 OA
ATOM     95  O   UNL     1       0.604  12.141   0.207  1.00  0.00    -0.744 OA
ENDBRANCH  89  92
ENDBRANCH  61  85
BRANCH  73  96
ATOM     96  C   UNL     1       7.513   8.430  -3.704  1.00  0.00     0.023 A 
ATOM     97  C   UNL     1       7.832   9.517  -2.876  1.00  0.00     0.012 A 
ATOM     98  C   UNL     1       8.461   7.367  -3.729  1.00  0.00     0.148 A 
ATOM     99  C   UNL     1       9.064   9.619  -2.231  1.00  0.00     0.002 A 
ATOM    100  C   UNL     1       9.586   7.383  -2.917  1.00  0.00     0.091 A 
ATOM    101  F   UNL     1       8.310   6.326  -4.562  1.00  0.00    -0.205 F 
ATOM    102  C   UNL     1       9.930   8.538  -2.224  1.00  0.00     0.022 A 
BRANCH 100 103
ATOM    103  S   UNL     1      10.510   5.876  -2.588  1.00  0.00     0.127 S 
ATOM    104  O   UNL     1      11.584   5.959  -3.575  1.00  0.00    -0.237 OA
ATOM    105  O   UNL     1      10.939   6.070  -1.202  1.00  0.00    -0.237 OA
ATOM    106  O   UNL     1       9.548   4.796  -2.768  1.00  0.00    -0.744 OA
ENDBRANCH 100 103
ENDBRANCH  73  96
ENDBRANCH  47  48
ENDBRANCH  40  42
ENDBRANCH  39  40
ENDBRANCH  38  39
ENDBRANCH  37  38
ENDBRANCH  36  37
ENDBRANCH  35  36
ENDBRANCH   1  35
TORSDOF 23
