REMARK SMILES CC[NH+](CC)CC[N@H+]1CC[C@@H](C(=O)OCCOCCOCCOC(=O)c2ccc(-c3c4nc(c(-c5cccc(S(=O)(=O)[O-])c5F)c5ccc([nH]5)c(-c5cccc(S(=O)(=O)[O-])c5F)c5nc(c(-c6cccc(S(=O)(=O)[O-])c6F)c6ccc3[nH]6)C=C5)C=C4)cc2)[C@@H]1C
REMARK SMILES IDX 18 1 17 2 16 3 15 4 14 5 12 6 13 7 11 8 8 9 9 10 89 11 10 13
REMARK SMILES IDX 90 14 7 15 6 16 3 17 2 19 1 20 4 21 5 22 19 23 20 24 21 25
REMARK SMILES IDX 22 26 23 27 24 28 25 29 26 30 27 31 88 32 28 33 87 34 29 35
REMARK SMILES IDX 30 36 31 37 81 38 32 39 86 40 80 41 82 42 33 43 85 44 79 45
REMARK SMILES IDX 78 46 34 48 66 49 46 50 65 51 47 52 50 53 64 54 83 55 48 56
REMARK SMILES IDX 49 57 63 59 84 60 51 61 35 62 36 63 44 64 37 65 39 66 45 67
REMARK SMILES IDX 38 68 40 69 41 70 42 71 43 72 67 73 68 74 76 75 69 76 71 77
REMARK SMILES IDX 77 78 70 79 72 80 73 81 74 82 75 83 52 84 53 85 61 86 54 87
REMARK SMILES IDX 56 88 62 89 55 90 57 91 58 92 59 93 60 94
REMARK H PARENT 8 12 3 18 82 47 50 58
REMARK Flexibility Score: inf
ROOT
ATOM      1  C   UNL     1       5.424   5.784  -3.618  1.00  0.00     0.188 C 
ENDROOT
BRANCH   1   2
ATOM      2  O   UNL     1       6.843   5.859  -3.648  1.00  0.00    -0.376 OA
BRANCH   2   3
ATOM      3  C   UNL     1       7.616   4.668  -3.653  1.00  0.00     0.202 C 
BRANCH   3   4
ATOM      4  C   UNL     1       7.402   3.616  -2.551  1.00  0.00     0.261 C 
BRANCH   4   5
ATOM      5  O   UNL     1       6.040   3.200  -2.319  1.00  0.00    -0.463 OA
BRANCH   5   6
ATOM      6  C   UNL     1       5.508   3.555  -1.123  1.00  0.00     0.315 C 
ATOM      7  O   UNL     1       6.121   4.172  -0.258  1.00  0.00    -0.252 OA
BRANCH   6   8
ATOM      8  C   UNL     1       4.086   3.071  -0.874  1.00  0.00     0.162 C 
ATOM      9  N   UNL     1       2.727   1.166  -1.532  1.00  0.00    -0.327 N 
ATOM     10  C   UNL     1       3.004   1.066  -0.104  1.00  0.00     0.263 C 
ATOM     11  C   UNL     1       3.262   2.449  -2.009  1.00  0.00     0.195 C 
ATOM     12  H   UNL     1       1.715   1.138  -1.654  1.00  0.00     0.348 HD
ATOM     13  C   UNL     1       4.162   1.987   0.187  1.00  0.00     0.083 C 
ATOM     14  C   UNL     1       2.027   3.306  -2.345  1.00  0.00     0.076 C 
BRANCH   9  15
ATOM     15  C   UNL     1       3.156   0.024  -2.341  1.00  0.00     0.324 C 
BRANCH  15  16
ATOM     16  C   UNL     1       2.293  -1.264  -2.207  1.00  0.00     0.324 C 
BRANCH  16  17
ATOM     17  N   UNL     1       0.829  -1.245  -2.394  1.00  0.00    -0.331 N 
ATOM     18  H   UNL     1       0.585  -2.186  -2.084  1.00  0.00     0.348 HD
BRANCH  17  19
ATOM     19  C   UNL     1       0.070  -0.365  -1.500  1.00  0.00     0.258 C 
ATOM     20  C   UNL     1       0.166  -0.753  -0.027  1.00  0.00     0.071 C 
ENDBRANCH  17  19
BRANCH  17  21
ATOM     21  C   UNL     1       0.381  -1.156  -3.788  1.00  0.00     0.258 C 
ATOM     22  C   UNL     1       0.525   0.179  -4.511  1.00  0.00     0.071 C 
ENDBRANCH  17  21
ENDBRANCH  16  17
ENDBRANCH  15  16
ENDBRANCH   9  15
ENDBRANCH   6   8
ENDBRANCH   5   6
ENDBRANCH   4   5
ENDBRANCH   3   4
ENDBRANCH   2   3
ENDBRANCH   1   2
BRANCH   1  23
ATOM     23  C   UNL     1       4.712   4.665  -4.391  1.00  0.00     0.188 C 
BRANCH  23  24
ATOM     24  O   UNL     1       5.543   3.863  -5.198  1.00  0.00    -0.376 OA
BRANCH  24  25
ATOM     25  C   UNL     1       5.366   3.949  -6.599  1.00  0.00     0.202 C 
BRANCH  25  26
ATOM     26  C   UNL     1       5.393   5.338  -7.264  1.00  0.00     0.261 C 
BRANCH  26  27
ATOM     27  O   UNL     1       4.632   6.380  -6.625  1.00  0.00    -0.460 OA
BRANCH  27  28
ATOM     28  C   UNL     1       3.288   6.350  -6.769  1.00  0.00     0.338 C 
ATOM     29  O   UNL     1       2.647   5.530  -7.415  1.00  0.00    -0.246 OA
BRANCH  28  30
ATOM     30  C   UNL     1       2.689   7.321  -5.820  1.00  0.00     0.060 A 
ATOM     31  C   UNL     1       1.848   6.842  -4.805  1.00  0.00     0.016 A 
ATOM     32  C   UNL     1       2.955   8.688  -5.917  1.00  0.00     0.016 A 
ATOM     33  C   UNL     1       1.252   7.728  -3.903  1.00  0.00     0.010 A 
ATOM     34  C   UNL     1       2.337   9.578  -5.026  1.00  0.00     0.010 A 
ATOM     35  C   UNL     1       1.458   9.107  -4.032  1.00  0.00    -0.014 A 
BRANCH  35  36
ATOM     36  C   UNL     1       0.637  10.056  -3.231  1.00  0.00     0.031 A 
ATOM     37  C   UNL     1      -0.532  10.743  -3.887  1.00  0.00     0.074 A 
ATOM     38  C   UNL     1       0.906  10.297  -1.933  1.00  0.00     0.049 A 
ATOM     39  N   UNL     1      -1.364  11.623  -3.394  1.00  0.00    -0.248 NA
ATOM     40  C   UNL     1      -0.798  10.387  -5.291  1.00  0.00     0.031 C 
ATOM     41  C   UNL     1       1.994   9.693  -1.168  1.00  0.00     0.029 A 
ATOM     42  N   UNL     1       0.291  11.138  -1.037  1.00  0.00    -0.354 N 
ATOM     43  C   UNL     1      -2.229  11.953  -4.431  1.00  0.00     0.074 A 
ATOM     44  C   UNL     1      -1.816  11.183  -5.584  1.00  0.00     0.031 C 
ATOM     45  C   UNL     1       1.986  10.201   0.077  1.00  0.00     0.029 A 
ATOM     46  C   UNL     1       0.914  11.189   0.189  1.00  0.00     0.049 A 
ATOM     47  H   UNL     1      -0.519  11.655  -1.251  1.00  0.00     0.167 HD
ATOM     48  C   UNL     1      -3.280  12.808  -4.425  1.00  0.00     0.034 A 
ATOM     49  C   UNL     1       0.666  11.961   1.267  1.00  0.00     0.034 A 
ATOM     50  C   UNL     1      -3.705  13.566  -3.278  1.00  0.00     0.049 A 
ATOM     51  C   UNL     1      -0.489  12.932   1.236  1.00  0.00     0.074 A 
ATOM     52  C   UNL     1      -4.784  14.425  -3.167  1.00  0.00     0.029 A 
ATOM     53  N   UNL     1      -3.065  13.571  -2.049  1.00  0.00    -0.354 N 
ATOM     54  N   UNL     1      -1.362  13.152   0.283  1.00  0.00    -0.248 NA
ATOM     55  C   UNL     1      -0.711  13.738   2.447  1.00  0.00     0.031 C 
ATOM     56  C   UNL     1      -4.773  14.981  -1.883  1.00  0.00     0.029 A 
ATOM     57  C   UNL     1      -3.714  14.432  -1.179  1.00  0.00     0.049 A 
ATOM     58  H   UNL     1      -2.266  13.041  -1.826  1.00  0.00     0.167 HD
ATOM     59  C   UNL     1      -2.252  14.095   0.789  1.00  0.00     0.074 A 
ATOM     60  C   UNL     1      -1.831  14.380   2.144  1.00  0.00     0.031 C 
ATOM     61  C   UNL     1      -3.314  14.683   0.183  1.00  0.00     0.034 A 
BRANCH  48  62
ATOM     62  C   UNL     1      -4.056  12.969  -5.707  1.00  0.00     0.023 A 
ATOM     63  C   UNL     1      -4.887  11.925  -6.163  1.00  0.00     0.012 A 
ATOM     64  C   UNL     1      -4.005  14.177  -6.432  1.00  0.00     0.148 A 
ATOM     65  C   UNL     1      -5.627  12.067  -7.336  1.00  0.00     0.002 A 
ATOM     66  C   UNL     1      -4.783  14.329  -7.573  1.00  0.00     0.091 A 
ATOM     67  F   UNL     1      -3.194  15.150  -5.994  1.00  0.00    -0.205 F 
ATOM     68  C   UNL     1      -5.584  13.271  -8.034  1.00  0.00     0.022 A 
BRANCH  66  69
ATOM     69  S   UNL     1      -4.859  15.867  -8.498  1.00  0.00     0.127 S 
ATOM     70  O   UNL     1      -4.194  15.494  -9.746  1.00  0.00    -0.237 OA
ATOM     71  O   UNL     1      -6.301  16.081  -8.616  1.00  0.00    -0.237 OA
ATOM     72  O   UNL     1      -4.160  16.857  -7.692  1.00  0.00    -0.744 OA
ENDBRANCH  66  69
ENDBRANCH  48  62
BRANCH  49  73
ATOM     73  C   UNL     1       1.520  11.847   2.485  1.00  0.00     0.023 A 
ATOM     74  C   UNL     1       0.973  11.340   3.680  1.00  0.00     0.012 A 
ATOM     75  C   UNL     1       2.870  12.251   2.466  1.00  0.00     0.148 A 
ATOM     76  C   UNL     1       1.742  11.270   4.842  1.00  0.00     0.002 A 
ATOM     77  C   UNL     1       3.647  12.123   3.611  1.00  0.00     0.091 A 
ATOM     78  F   UNL     1       3.367  12.751   1.326  1.00  0.00    -0.205 F 
ATOM     79  C   UNL     1       3.081  11.651   4.805  1.00  0.00     0.022 A 
BRANCH  77  80
ATOM     80  S   UNL     1       5.408  12.474   3.626  1.00  0.00     0.127 S 
ATOM     81  O   UNL     1       5.470  13.660   4.476  1.00  0.00    -0.237 OA
ATOM     82  O   UNL     1       5.951  11.256   4.227  1.00  0.00    -0.237 OA
ATOM     83  O   UNL     1       5.781  12.677   2.232  1.00  0.00    -0.744 OA
ENDBRANCH  77  80
ENDBRANCH  49  73
BRANCH  61  84
ATOM     84  C   UNL     1      -4.123  15.670   0.990  1.00  0.00     0.023 A 
ATOM     85  C   UNL     1      -3.569  16.918   1.341  1.00  0.00     0.012 A 
ATOM     86  C   UNL     1      -5.449  15.377   1.367  1.00  0.00     0.148 A 
ATOM     87  C   UNL     1      -4.301  17.835   2.096  1.00  0.00     0.002 A 
ATOM     88  C   UNL     1      -6.192  16.317   2.072  1.00  0.00     0.091 A 
ATOM     89  F   UNL     1      -5.959  14.181   1.038  1.00  0.00    -0.205 F 
ATOM     90  C   UNL     1      -5.615  17.539   2.453  1.00  0.00     0.022 A 
BRANCH  88  91
ATOM     91  S   UNL     1      -7.921  16.064   2.489  1.00  0.00     0.127 S 
ATOM     92  O   UNL     1      -7.848  15.828   3.930  1.00  0.00    -0.237 OA
ATOM     93  O   UNL     1      -8.523  17.343   2.111  1.00  0.00    -0.237 OA
ATOM     94  O   UNL     1      -8.365  14.929   1.691  1.00  0.00    -0.744 OA
ENDBRANCH  88  91
ENDBRANCH  61  84
ENDBRANCH  35  36
ENDBRANCH  28  30
ENDBRANCH  27  28
ENDBRANCH  26  27
ENDBRANCH  25  26
ENDBRANCH  24  25
ENDBRANCH  23  24
ENDBRANCH   1  23
TORSDOF 25
