REMARK SMILES O=C(OCCOCCOCCOC(=O)[C@@H](Cc1ccccc1)NC(=O)c1ccccc1[N+](=O)[O-])c1ccc(-c2c3nc(c(-c4cccc(S(=O)(=O)[O-])c4F)c4ccc([nH]4)c(-c4cccc(S(=O)(=O)[O-])c4F)c4nc(c(-c5cccc(S(=O)(=O)[O-])c5F)c5ccc2[nH]5)C=C4)C=C3)cc1
REMARK SMILES IDX 7 1 6 2 5 3 4 4 3 5 2 6 1 7 35 8 36 9 97 10 37 11 96 12
REMARK SMILES IDX 38 13 39 14 40 15 90 16 41 17 95 18 89 19 91 20 42 21 94 22
REMARK SMILES IDX 88 23 87 24 43 26 75 27 55 28 74 29 56 30 59 31 73 32 92 33
REMARK SMILES IDX 57 34 58 35 72 37 93 38 60 39 44 40 45 41 53 42 46 43 48 44
REMARK SMILES IDX 54 45 47 46 49 47 50 48 51 49 52 50 76 51 77 52 85 53 78 54
REMARK SMILES IDX 80 55 86 56 79 57 81 58 82 59 83 60 84 61 61 62 62 63 70 64
REMARK SMILES IDX 63 65 65 66 71 67 64 68 66 69 67 70 68 71 69 72 8 73 9 74
REMARK SMILES IDX 10 75 11 76 12 77 13 78 14 79 15 80 16 81 17 82 18 83 22 84
REMARK SMILES IDX 19 85 21 86 20 87 23 88 24 89 25 91 26 92 27 93 31 94 28 95
REMARK SMILES IDX 30 96 29 97 32 98 33 99 34 100
REMARK H PARENT 91 25 59 36 23 90
REMARK Flexibility Score: inf
ROOT
ATOM      1  C   UNL     1       2.399   1.652  -0.817  1.00  0.00     0.188 C 
ENDROOT
BRANCH   1   2
ATOM      2  O   UNL     1       3.608   1.415  -0.092  1.00  0.00    -0.376 OA
BRANCH   2   3
ATOM      3  C   UNL     1       4.629   0.740  -0.816  1.00  0.00     0.202 C 
BRANCH   3   4
ATOM      4  C   UNL     1       4.313  -0.656  -1.365  1.00  0.00     0.261 C 
BRANCH   4   5
ATOM      5  O   UNL     1       3.015  -1.204  -1.080  1.00  0.00    -0.460 OA
BRANCH   5   6
ATOM      6  C   UNL     1       2.415  -1.580   0.071  1.00  0.00     0.338 C 
ATOM      7  O   UNL     1       1.241  -1.946   0.011  1.00  0.00    -0.246 OA
BRANCH   6   8
ATOM      8  C   UNL     1       3.073  -1.550   1.411  1.00  0.00     0.060 A 
ATOM      9  C   UNL     1       4.447  -1.497   1.619  1.00  0.00     0.016 A 
ATOM     10  C   UNL     1       2.236  -1.652   2.544  1.00  0.00     0.016 A 
ATOM     11  C   UNL     1       4.967  -1.494   2.911  1.00  0.00     0.010 A 
ATOM     12  C   UNL     1       2.757  -1.677   3.846  1.00  0.00     0.010 A 
ATOM     13  C   UNL     1       4.133  -1.586   4.036  1.00  0.00    -0.014 A 
BRANCH  13  14
ATOM     14  C   UNL     1       4.801  -1.695   5.356  1.00  0.00     0.031 A 
ATOM     15  C   UNL     1       5.619  -2.920   5.611  1.00  0.00     0.074 A 
ATOM     16  C   UNL     1       4.840  -0.656   6.210  1.00  0.00     0.049 A 
ATOM     17  N   UNL     1       6.551  -3.122   6.499  1.00  0.00    -0.248 NA
ATOM     18  C   UNL     1       5.372  -4.061   4.711  1.00  0.00     0.031 C 
ATOM     19  C   UNL     1       4.075   0.573   6.059  1.00  0.00     0.029 A 
ATOM     20  N   UNL     1       5.602  -0.433   7.331  1.00  0.00    -0.354 N 
ATOM     21  C   UNL     1       6.993  -4.417   6.278  1.00  0.00     0.074 A 
ATOM     22  C   UNL     1       6.272  -4.933   5.135  1.00  0.00     0.031 C 
ATOM     23  C   UNL     1       4.490   1.472   6.967  1.00  0.00     0.029 A 
ATOM     24  C   UNL     1       5.501   0.856   7.816  1.00  0.00     0.049 A 
ATOM     25  H   UNL     1       6.165  -1.125   7.747  1.00  0.00     0.167 HD
ATOM     26  C   UNL     1       7.885  -5.132   6.998  1.00  0.00     0.034 A 
ATOM     27  C   UNL     1       6.160   1.461   8.826  1.00  0.00     0.034 A 
ATOM     28  C   UNL     1       8.495  -4.654   8.204  1.00  0.00     0.049 A 
ATOM     29  C   UNL     1       7.140   0.632   9.618  1.00  0.00     0.074 A 
ATOM     30  C   UNL     1       9.283  -5.347   9.104  1.00  0.00     0.029 A 
ATOM     31  N   UNL     1       8.346  -3.368   8.702  1.00  0.00    -0.354 N 
ATOM     32  N   UNL     1       7.589  -0.577   9.376  1.00  0.00    -0.248 NA
ATOM     33  C   UNL     1       7.691   1.241  10.838  1.00  0.00     0.031 C 
ATOM     34  C   UNL     1       9.585  -4.485  10.164  1.00  0.00     0.029 A 
ATOM     35  C   UNL     1       9.022  -3.245   9.902  1.00  0.00     0.049 A 
ATOM     36  H   UNL     1       7.835  -2.649   8.266  1.00  0.00     0.167 HD
ATOM     37  C   UNL     1       8.455  -0.880  10.420  1.00  0.00     0.074 A 
ATOM     38  C   UNL     1       8.524   0.299  11.259  1.00  0.00     0.031 C 
ATOM     39  C   UNL     1       9.099  -2.042  10.691  1.00  0.00     0.034 A 
BRANCH  26  40
ATOM     40  C   UNL     1       8.142  -6.534   6.532  1.00  0.00     0.023 A 
ATOM     41  C   UNL     1       8.963  -6.761   5.410  1.00  0.00     0.012 A 
ATOM     42  C   UNL     1       7.507  -7.618   7.165  1.00  0.00     0.148 A 
ATOM     43  C   UNL     1       9.121  -8.050   4.902  1.00  0.00     0.002 A 
ATOM     44  C   UNL     1       7.695  -8.902   6.673  1.00  0.00     0.091 A 
ATOM     45  F   UNL     1       6.701  -7.367   8.206  1.00  0.00    -0.205 F 
ATOM     46  C   UNL     1       8.490  -9.119   5.536  1.00  0.00     0.022 A 
BRANCH  44  47
ATOM     47  S   UNL     1       6.947 -10.346   7.432  1.00  0.00     0.127 S 
ATOM     48  O   UNL     1       6.009 -10.771   6.394  1.00  0.00    -0.237 OA
ATOM     49  O   UNL     1       8.102 -11.227   7.610  1.00  0.00    -0.237 OA
ATOM     50  O   UNL     1       6.336  -9.882   8.669  1.00  0.00    -0.744 OA
ENDBRANCH  44  47
ENDBRANCH  26  40
BRANCH  27  51
ATOM     51  C   UNL     1       5.940   2.904   9.164  1.00  0.00     0.023 A 
ATOM     52  C   UNL     1       7.025   3.804   9.100  1.00  0.00     0.012 A 
ATOM     53  C   UNL     1       4.689   3.387   9.598  1.00  0.00     0.148 A 
ATOM     54  C   UNL     1       6.879   5.136   9.497  1.00  0.00     0.002 A 
ATOM     55  C   UNL     1       4.536   4.730   9.938  1.00  0.00     0.091 A 
ATOM     56  F   UNL     1       3.672   2.522   9.710  1.00  0.00    -0.205 F 
ATOM     57  C   UNL     1       5.632   5.602   9.904  1.00  0.00     0.022 A 
BRANCH  55  58
ATOM     58  S   UNL     1       2.930   5.401  10.390  1.00  0.00     0.127 S 
ATOM     59  O   UNL     1       2.961   5.287  11.850  1.00  0.00    -0.237 OA
ATOM     60  O   UNL     1       3.012   6.779   9.894  1.00  0.00    -0.237 OA
ATOM     61  O   UNL     1       1.962   4.571   9.704  1.00  0.00    -0.744 OA
ENDBRANCH  55  58
ENDBRANCH  27  51
BRANCH  39  62
ATOM     62  C   UNL     1       9.924  -2.102  11.948  1.00  0.00     0.023 A 
ATOM     63  C   UNL     1       9.281  -2.161  13.201  1.00  0.00     0.012 A 
ATOM     64  C   UNL     1      11.326  -2.208  11.881  1.00  0.00     0.148 A 
ATOM     65  C   UNL     1      10.025  -2.299  14.371  1.00  0.00     0.002 A 
ATOM     66  C   UNL     1      12.056  -2.396  13.046  1.00  0.00     0.091 A 
ATOM     67  F   UNL     1      11.916  -2.129  10.679  1.00  0.00    -0.205 F 
ATOM     68  C   UNL     1      11.410  -2.431  14.293  1.00  0.00     0.022 A 
BRANCH  66  69
ATOM     69  S   UNL     1      13.829  -2.682  13.028  1.00  0.00     0.127 S 
ATOM     70  O   UNL     1      14.341  -1.410  13.535  1.00  0.00    -0.237 OA
ATOM     71  O   UNL     1      13.972  -3.809  13.950  1.00  0.00    -0.237 OA
ATOM     72  O   UNL     1      14.171  -2.987  11.646  1.00  0.00    -0.744 OA
ENDBRANCH  66  69
ENDBRANCH  39  62
ENDBRANCH  13  14
ENDBRANCH   6   8
ENDBRANCH   5   6
ENDBRANCH   4   5
ENDBRANCH   3   4
ENDBRANCH   2   3
ENDBRANCH   1   2
BRANCH   1  73
ATOM     73  C   UNL     1       1.870   3.069  -0.571  1.00  0.00     0.188 C 
BRANCH  73  74
ATOM     74  O   UNL     1       2.400   4.080  -1.437  1.00  0.00    -0.376 OA
BRANCH  74  75
ATOM     75  C   UNL     1       3.810   4.293  -1.404  1.00  0.00     0.202 C 
BRANCH  75  76
ATOM     76  C   UNL     1       4.331   5.097  -0.214  1.00  0.00     0.261 C 
BRANCH  76  77
ATOM     77  O   UNL     1       4.018   4.447   1.020  1.00  0.00    -0.462 OA
BRANCH  77  78
ATOM     78  C   UNL     1       3.292   5.154   1.929  1.00  0.00     0.329 C 
ATOM     79  O   UNL     1       2.917   6.311   1.771  1.00  0.00    -0.250 OA
BRANCH  78  80
ATOM     80  C   UNL     1       2.891   4.278   3.128  1.00  0.00     0.197 C 
BRANCH  80  81
ATOM     81  C   UNL     1       3.755   3.023   3.302  1.00  0.00     0.072 C 
BRANCH  81  82
ATOM     82  C   UNL     1       5.258   3.096   3.476  1.00  0.00    -0.045 A 
ATOM     83  C   UNL     1       5.932   1.867   3.545  1.00  0.00     0.004 A 
ATOM     84  C   UNL     1       6.016   4.259   3.610  1.00  0.00     0.004 A 
ATOM     85  C   UNL     1       7.303   1.780   3.767  1.00  0.00     0.000 A 
ATOM     86  C   UNL     1       7.401   4.181   3.816  1.00  0.00     0.000 A 
ATOM     87  C   UNL     1       8.042   2.946   3.900  1.00  0.00     0.000 A 
ENDBRANCH  81  82
ENDBRANCH  80  81
BRANCH  80  88
ATOM     88  N   UNL     1       2.825   5.062   4.365  1.00  0.00    -0.338 N 
ATOM     89  C   UNL     1       1.763   5.664   4.978  1.00  0.00     0.258 C 
ATOM     90  H   UNL     1       3.686   5.172   4.830  1.00  0.00     0.164 HD
ATOM     91  O   UNL     1       1.972   6.646   5.687  1.00  0.00    -0.269 OA
BRANCH  89  92
ATOM     92  C   UNL     1       0.364   5.240   4.762  1.00  0.00     0.117 A 
ATOM     93  C   UNL     1      -0.555   6.266   4.486  1.00  0.00     0.021 A 
ATOM     94  C   UNL     1      -0.132   3.943   4.915  1.00  0.00     0.282 A 
ATOM     95  C   UNL     1      -1.919   5.993   4.333  1.00  0.00     0.001 A 
ATOM     96  C   UNL     1      -1.501   3.657   4.756  1.00  0.00     0.086 A 
ATOM     97  C   UNL     1      -2.391   4.688   4.465  1.00  0.00     0.007 A 
BRANCH  94  98
ATOM     98  N   UNL     1       0.734   2.831   5.233  1.00  0.00     0.063 N 
ATOM     99  O   UNL     1       0.665   1.849   4.474  1.00  0.00    -0.258 OA
ATOM    100  O   UNL     1       1.480   2.928   6.205  1.00  0.00    -0.258 OA
ENDBRANCH  94  98
ENDBRANCH  89  92
ENDBRANCH  80  88
ENDBRANCH  78  80
ENDBRANCH  77  78
ENDBRANCH  76  77
ENDBRANCH  75  76
ENDBRANCH  74  75
ENDBRANCH  73  74
ENDBRANCH   1  73
TORSDOF 25
