REMARK SMILES O=C(OCCOCCOCCOC(=O)[C@H]1Cc2[nH]cnc2CN1C(=O)c1ccncc1Cl)c1ccc(-c2c3nc(c(-c4cccc(S(=O)(=O)[O-])c4F)c4ccc([nH]4)c(-c4cccc(S(=O)(=O)[O-])c4F)c4nc(c(-c5cccc(S(=O)(=O)[O-])c5F)c5ccc2[nH]5)C=C4)C=C3)cc1
REMARK SMILES IDX 7 1 6 2 5 3 4 4 3 5 2 6 1 7 33 8 34 9 95 10 35 11 94 12
REMARK SMILES IDX 36 13 37 14 38 15 88 16 39 17 93 18 87 19 89 20 40 21 92 22
REMARK SMILES IDX 86 23 85 24 41 26 73 27 53 28 72 29 54 30 57 31 71 32 90 33
REMARK SMILES IDX 55 34 56 35 70 37 91 38 58 39 42 40 43 41 51 42 44 43 46 44
REMARK SMILES IDX 52 45 45 46 47 47 48 48 49 49 50 50 74 51 75 52 83 53 76 54
REMARK SMILES IDX 78 55 84 56 77 57 79 58 80 59 81 60 82 61 59 62 60 63 68 64
REMARK SMILES IDX 61 65 63 66 69 67 62 68 64 69 65 70 66 71 67 72 8 73 9 74
REMARK SMILES IDX 10 75 11 76 12 77 13 78 14 79 15 80 16 81 23 82 17 83 22 84
REMARK SMILES IDX 18 85 21 86 19 87 20 89 24 90 25 91 26 92 27 93 31 94 28 95
REMARK SMILES IDX 30 96 32 97 29 98
REMARK H PARENT 89 25 57 36 18 88
REMARK Flexibility Score: inf
ROOT
ATOM      1  C   UNL     1       3.874   1.367  -0.832  1.00  0.00     0.188 C 
ENDROOT
BRANCH   1   2
ATOM      2  O   UNL     1       5.213   1.002  -0.568  1.00  0.00    -0.376 OA
BRANCH   2   3
ATOM      3  C   UNL     1       5.659  -0.336  -0.655  1.00  0.00     0.202 C 
BRANCH   3   4
ATOM      4  C   UNL     1       4.908  -1.498  -0.009  1.00  0.00     0.261 C 
BRANCH   4   5
ATOM      5  O   UNL     1       3.535  -1.599  -0.395  1.00  0.00    -0.460 OA
BRANCH   5   6
ATOM      6  C   UNL     1       2.387  -1.421   0.290  1.00  0.00     0.338 C 
ATOM      7  O   UNL     1       1.345  -1.819  -0.231  1.00  0.00    -0.246 OA
BRANCH   6   8
ATOM      8  C   UNL     1       2.277  -0.681   1.581  1.00  0.00     0.060 A 
ATOM      9  C   UNL     1       3.326  -0.378   2.449  1.00  0.00     0.016 A 
ATOM     10  C   UNL     1       0.971  -0.299   1.954  1.00  0.00     0.016 A 
ATOM     11  C   UNL     1       3.068   0.089   3.725  1.00  0.00     0.010 A 
ATOM     12  C   UNL     1       0.710   0.220   3.215  1.00  0.00     0.010 A 
ATOM     13  C   UNL     1       1.756   0.319   4.122  1.00  0.00    -0.014 A 
BRANCH  13  14
ATOM     14  C   UNL     1       1.553   0.633   5.526  1.00  0.00     0.031 A 
ATOM     15  C   UNL     1       2.148   1.908   5.995  1.00  0.00     0.074 A 
ATOM     16  C   UNL     1       0.866  -0.197   6.332  1.00  0.00     0.049 A 
ATOM     17  N   UNL     1       3.090   2.077   6.866  1.00  0.00    -0.248 NA
ATOM     18  C   UNL     1       1.732   3.137   5.308  1.00  0.00     0.031 C 
ATOM     19  C   UNL     1       0.040  -1.339   5.929  1.00  0.00     0.029 A 
ATOM     20  N   UNL     1       0.642  -0.102   7.673  1.00  0.00    -0.354 N 
ATOM     21  C   UNL     1       3.214   3.459   7.012  1.00  0.00     0.074 A 
ATOM     22  C   UNL     1       2.508   4.042   5.903  1.00  0.00     0.031 C 
ATOM     23  C   UNL     1      -0.799  -1.647   6.939  1.00  0.00     0.029 A 
ATOM     24  C   UNL     1      -0.475  -0.817   8.085  1.00  0.00     0.049 A 
ATOM     25  H   UNL     1       1.211   0.419   8.285  1.00  0.00     0.167 HD
ATOM     26  C   UNL     1       3.653   4.010   8.179  1.00  0.00     0.034 A 
ATOM     27  C   UNL     1      -1.153  -0.654   9.244  1.00  0.00     0.034 A 
ATOM     28  C   UNL     1       4.386   3.051   8.972  1.00  0.00     0.049 A 
ATOM     29  C   UNL     1      -0.253   0.022  10.204  1.00  0.00     0.074 A 
ATOM     30  C   UNL     1       5.504   2.263   8.787  1.00  0.00     0.029 A 
ATOM     31  N   UNL     1       3.764   2.561  10.095  1.00  0.00    -0.354 N 
ATOM     32  N   UNL     1       0.807  -0.533  10.724  1.00  0.00    -0.248 NA
ATOM     33  C   UNL     1      -0.316   1.470  10.313  1.00  0.00     0.031 C 
ATOM     34  C   UNL     1       5.259   1.079   9.544  1.00  0.00     0.029 A 
ATOM     35  C   UNL     1       4.020   1.222  10.170  1.00  0.00     0.049 A 
ATOM     36  H   UNL     1       3.228   3.084  10.733  1.00  0.00     0.167 HD
ATOM     37  C   UNL     1       1.731   0.500  10.815  1.00  0.00     0.074 A 
ATOM     38  C   UNL     1       0.942   1.721  10.685  1.00  0.00     0.031 C 
ATOM     39  C   UNL     1       3.071   0.259  10.686  1.00  0.00     0.034 A 
BRANCH  26  40
ATOM     40  C   UNL     1       3.052   5.258   8.819  1.00  0.00     0.023 A 
ATOM     41  C   UNL     1       3.595   5.656  10.066  1.00  0.00     0.012 A 
ATOM     42  C   UNL     1       1.813   5.836   8.460  1.00  0.00     0.148 A 
ATOM     43  C   UNL     1       2.876   6.454  10.964  1.00  0.00     0.002 A 
ATOM     44  C   UNL     1       1.127   6.675   9.332  1.00  0.00     0.091 A 
ATOM     45  F   UNL     1       1.217   5.510   7.314  1.00  0.00    -0.205 F 
ATOM     46  C   UNL     1       1.632   6.951  10.602  1.00  0.00     0.022 A 
BRANCH  44  47
ATOM     47  S   UNL     1      -0.474   7.371   8.901  1.00  0.00     0.127 S 
ATOM     48  O   UNL     1      -1.369   6.557   9.714  1.00  0.00    -0.237 OA
ATOM     49  O   UNL     1      -0.322   8.759   9.337  1.00  0.00    -0.237 OA
ATOM     50  O   UNL     1      -0.596   7.211   7.455  1.00  0.00    -0.744 OA
ENDBRANCH  44  47
ENDBRANCH  26  40
BRANCH  27  51
ATOM     51  C   UNL     1      -2.601  -0.826   9.491  1.00  0.00     0.023 A 
ATOM     52  C   UNL     1      -3.065  -1.013  10.806  1.00  0.00     0.012 A 
ATOM     53  C   UNL     1      -3.555  -0.574   8.477  1.00  0.00     0.148 A 
ATOM     54  C   UNL     1      -4.430  -0.932  11.106  1.00  0.00     0.002 A 
ATOM     55  C   UNL     1      -4.912  -0.520   8.775  1.00  0.00     0.091 A 
ATOM     56  F   UNL     1      -3.129  -0.293   7.238  1.00  0.00    -0.205 F 
ATOM     57  C   UNL     1      -5.353  -0.685  10.092  1.00  0.00     0.022 A 
BRANCH  55  58
ATOM     58  S   UNL     1      -6.152  -0.222   7.507  1.00  0.00     0.127 S 
ATOM     59  O   UNL     1      -7.184  -1.201   7.853  1.00  0.00    -0.237 OA
ATOM     60  O   UNL     1      -6.518   1.168   7.761  1.00  0.00    -0.237 OA
ATOM     61  O   UNL     1      -5.486  -0.486   6.237  1.00  0.00    -0.744 OA
ENDBRANCH  55  58
ENDBRANCH  27  51
BRANCH  39  62
ATOM     62  C   UNL     1       3.557  -1.164  10.783  1.00  0.00     0.023 A 
ATOM     63  C   UNL     1       3.149  -2.154   9.866  1.00  0.00     0.012 A 
ATOM     64  C   UNL     1       4.575  -1.468  11.704  1.00  0.00     0.148 A 
ATOM     65  C   UNL     1       3.720  -3.428   9.889  1.00  0.00     0.002 A 
ATOM     66  C   UNL     1       5.175  -2.721  11.691  1.00  0.00     0.091 A 
ATOM     67  F   UNL     1       4.961  -0.514  12.566  1.00  0.00    -0.205 F 
ATOM     68  C   UNL     1       4.742  -3.708  10.792  1.00  0.00     0.022 A 
BRANCH  66  69
ATOM     69  S   UNL     1       6.588  -3.093  12.734  1.00  0.00     0.127 S 
ATOM     70  O   UNL     1       5.975  -3.845  13.826  1.00  0.00    -0.237 OA
ATOM     71  O   UNL     1       7.439  -3.888  11.847  1.00  0.00    -0.237 OA
ATOM     72  O   UNL     1       7.160  -1.802  13.098  1.00  0.00    -0.744 OA
ENDBRANCH  66  69
ENDBRANCH  39  62
ENDBRANCH  13  14
ENDBRANCH   6   8
ENDBRANCH   5   6
ENDBRANCH   4   5
ENDBRANCH   3   4
ENDBRANCH   2   3
ENDBRANCH   1   2
BRANCH   1  73
ATOM     73  C   UNL     1       3.068   0.811  -2.019  1.00  0.00     0.188 C 
BRANCH  73  74
ATOM     74  O   UNL     1       3.654   0.014  -3.022  1.00  0.00    -0.376 OA
BRANCH  74  75
ATOM     75  C   UNL     1       4.659   0.499  -3.886  1.00  0.00     0.202 C 
BRANCH  75  76
ATOM     76  C   UNL     1       4.731   1.957  -4.350  1.00  0.00     0.261 C 
BRANCH  76  77
ATOM     77  O   UNL     1       4.061   2.882  -3.498  1.00  0.00    -0.462 OA
BRANCH  77  78
ATOM     78  C   UNL     1       3.055   3.626  -4.050  1.00  0.00     0.329 C 
ATOM     79  O   UNL     1       2.807   3.687  -5.244  1.00  0.00    -0.250 OA
BRANCH  78  80
ATOM     80  C   UNL     1       2.405   4.470  -2.944  1.00  0.00     0.201 C 
ATOM     81  C   UNL     1       3.167   5.829  -3.161  1.00  0.00     0.093 C 
ATOM     82  N   UNL     1       0.909   4.670  -2.808  1.00  0.00    -0.318 N 
ATOM     83  C   UNL     1       2.571   6.892  -2.341  1.00  0.00     0.042 A 
ATOM     84  C   UNL     1       0.497   5.603  -1.717  1.00  0.00     0.179 C 
ATOM     85  N   UNL     1       3.032   8.153  -2.109  1.00  0.00    -0.348 N 
ATOM     86  C   UNL     1       1.361   6.807  -1.706  1.00  0.00     0.081 A 
ATOM     87  C   UNL     1       2.093   8.773  -1.329  1.00  0.00     0.197 A 
ATOM     88  H   UNL     1       3.874   8.541  -2.438  1.00  0.00     0.167 HD
ATOM     89  N   UNL     1       1.074   7.983  -1.070  1.00  0.00    -0.240 NA
BRANCH  82  90
ATOM     90  C   UNL     1      -0.139   3.810  -3.165  1.00  0.00     0.256 C 
ATOM     91  O   UNL     1      -1.320   4.054  -2.914  1.00  0.00    -0.269 OA
BRANCH  90  92
ATOM     92  C   UNL     1       0.066   2.558  -3.893  1.00  0.00     0.061 A 
ATOM     93  C   UNL     1       0.241   2.610  -5.274  1.00  0.00     0.035 A 
ATOM     94  C   UNL     1      -0.139   1.329  -3.263  1.00  0.00     0.072 A 
ATOM     95  C   UNL     1       0.345   1.415  -5.961  1.00  0.00     0.112 A 
ATOM     96  C   UNL     1      -0.023   0.188  -4.043  1.00  0.00     0.132 A 
ATOM     97  Cl  UNL     1      -0.514   1.179  -1.589  1.00  0.00    -0.082 Cl
ATOM     98  N   UNL     1       0.234   0.204  -5.376  1.00  0.00    -0.263 NA
ENDBRANCH  90  92
ENDBRANCH  82  90
ENDBRANCH  78  80
ENDBRANCH  77  78
ENDBRANCH  76  77
ENDBRANCH  75  76
ENDBRANCH  74  75
ENDBRANCH  73  74
ENDBRANCH   1  73
TORSDOF 22
