REMARK SMILES O=C(C[NH+]1CCN(c2nccc(N3CCCCC3)n2)CC1)OCCOCCOCCOC(=O)c1ccc(-c2c3nc(c(-c4cccc(S(=O)(=O)[O-])c4F)c4ccc([nH]4)c(-c4cccc(S(=O)(=O)[O-])c4F)c4nc(c(-c5cccc(S(=O)(=O)[O-])c5F)c5ccc2[nH]5)C=C4)C=C3)cc1
REMARK SMILES IDX 26 1 25 2 24 3 23 4 22 5 2 6 1 7 3 8 4 9 5 10 21 11 6 13
REMARK SMILES IDX 20 14 7 15 8 16 9 17 19 18 10 19 12 20 11 21 13 22 14 23
REMARK SMILES IDX 18 24 15 25 17 26 16 27 27 28 28 29 29 30 30 31 31 32 32 33
REMARK SMILES IDX 33 34 34 35 35 36 96 37 36 38 95 39 37 40 38 41 39 42 89 43
REMARK SMILES IDX 40 44 94 45 88 46 90 47 41 48 93 49 87 50 86 51 42 53 74 54
REMARK SMILES IDX 54 55 73 56 55 57 58 58 72 59 91 60 56 61 57 62 71 64 92 65
REMARK SMILES IDX 59 66 43 67 44 68 52 69 45 70 47 71 53 72 46 73 48 74 49 75
REMARK SMILES IDX 50 76 51 77 75 78 76 79 84 80 77 81 79 82 85 83 78 84 80 85
REMARK SMILES IDX 81 86 82 87 83 88 60 89 61 90 69 91 62 92 64 93 70 94 63 95
REMARK SMILES IDX 65 96 66 97 67 98 68 99
REMARK H PARENT 4 12 90 52 58 63
REMARK Flexibility Score: inf
ROOT
ATOM      1  C   UNL     1       2.794   1.420   0.978  1.00  0.00     0.188 C 
ENDROOT
BRANCH   1   2
ATOM      2  O   UNL     1       4.116   1.088   0.555  1.00  0.00    -0.376 OA
BRANCH   2   3
ATOM      3  C   UNL     1       4.388   1.280  -0.829  1.00  0.00     0.202 C 
BRANCH   3   4
ATOM      4  C   UNL     1       4.058   0.079  -1.713  1.00  0.00     0.261 C 
BRANCH   4   5
ATOM      5  O   UNL     1       2.746  -0.430  -1.470  1.00  0.00    -0.459 OA
BRANCH   5   6
ATOM      6  C   UNL     1       2.681  -1.759  -1.171  1.00  0.00     0.361 C 
ATOM      7  O   UNL     1       2.125  -2.543  -1.934  1.00  0.00    -0.245 OA
BRANCH   6   8
ATOM      8  C   UNL     1       3.158  -2.134   0.239  1.00  0.00     0.386 C 
BRANCH   8   9
ATOM      9  N   UNL     1       4.419  -2.912   0.224  1.00  0.00    -0.323 N 
ATOM     10  C   UNL     1       5.597  -2.107   0.646  1.00  0.00     0.284 C 
ATOM     11  C   UNL     1       4.338  -4.065   1.172  1.00  0.00     0.284 C 
ATOM     12  H   UNL     1       4.537  -3.218  -0.742  1.00  0.00     0.348 HD
ATOM     13  C   UNL     1       5.579  -1.604   2.107  1.00  0.00     0.181 C 
ATOM     14  C   UNL     1       4.344  -3.702   2.678  1.00  0.00     0.181 C 
ATOM     15  N   UNL     1       5.368  -2.719   3.008  1.00  0.00    -0.329 N 
BRANCH  15  16
ATOM     16  C   UNL     1       6.484  -3.103   3.708  1.00  0.00     0.227 A 
ATOM     17  N   UNL     1       6.855  -2.291   4.710  1.00  0.00    -0.221 NA
ATOM     18  N   UNL     1       7.175  -4.191   3.328  1.00  0.00    -0.196 NA
ATOM     19  C   UNL     1       7.904  -2.675   5.445  1.00  0.00     0.119 A 
ATOM     20  C   UNL     1       8.244  -4.536   4.068  1.00  0.00     0.134 A 
ATOM     21  C   UNL     1       8.629  -3.803   5.173  1.00  0.00     0.067 A 
BRANCH  20  22
ATOM     22  N   UNL     1       9.026  -5.625   3.705  1.00  0.00    -0.356 N 
ATOM     23  C   UNL     1       9.415  -5.773   2.311  1.00  0.00     0.118 C 
ATOM     24  C   UNL     1       8.930  -6.817   4.543  1.00  0.00     0.118 C 
ATOM     25  C   UNL     1       8.646  -6.890   1.616  1.00  0.00     0.022 C 
ATOM     26  C   UNL     1       8.121  -7.906   3.842  1.00  0.00     0.022 C 
ATOM     27  C   UNL     1       8.666  -8.174   2.441  1.00  0.00     0.004 C 
ENDBRANCH  20  22
ENDBRANCH  15  16
ENDBRANCH   8   9
ENDBRANCH   6   8
ENDBRANCH   5   6
ENDBRANCH   4   5
ENDBRANCH   3   4
ENDBRANCH   2   3
ENDBRANCH   1   2
BRANCH   1  28
ATOM     28  C   UNL     1       2.320   2.879   0.850  1.00  0.00     0.188 C 
BRANCH  28  29
ATOM     29  O   UNL     1       3.243   3.883   0.454  1.00  0.00    -0.376 OA
BRANCH  29  30
ATOM     30  C   UNL     1       4.454   4.030   1.190  1.00  0.00     0.202 C 
BRANCH  30  31
ATOM     31  C   UNL     1       4.331   4.343   2.679  1.00  0.00     0.261 C 
BRANCH  31  32
ATOM     32  O   UNL     1       3.935   3.188   3.441  1.00  0.00    -0.460 OA
BRANCH  32  33
ATOM     33  C   UNL     1       2.812   3.357   4.176  1.00  0.00     0.338 C 
ATOM     34  O   UNL     1       2.103   4.349   4.213  1.00  0.00    -0.246 OA
BRANCH  33  35
ATOM     35  C   UNL     1       2.449   2.119   4.886  1.00  0.00     0.060 A 
ATOM     36  C   UNL     1       1.138   1.652   4.730  1.00  0.00     0.016 A 
ATOM     37  C   UNL     1       3.303   1.548   5.832  1.00  0.00     0.016 A 
ATOM     38  C   UNL     1       0.643   0.679   5.593  1.00  0.00     0.010 A 
ATOM     39  C   UNL     1       2.801   0.572   6.701  1.00  0.00     0.010 A 
ATOM     40  C   UNL     1       1.452   0.186   6.627  1.00  0.00    -0.014 A 
BRANCH  40  41
ATOM     41  C   UNL     1       0.808  -0.551   7.742  1.00  0.00     0.031 A 
ATOM     42  C   UNL     1       0.405   0.213   8.978  1.00  0.00     0.074 A 
ATOM     43  C   UNL     1       0.539  -1.864   7.644  1.00  0.00     0.049 A 
ATOM     44  N   UNL     1      -0.251  -0.202  10.030  1.00  0.00    -0.248 NA
ATOM     45  C   UNL     1       0.792   1.633   9.034  1.00  0.00     0.031 C 
ATOM     46  C   UNL     1       0.887  -2.716   6.509  1.00  0.00     0.029 A 
ATOM     47  N   UNL     1      -0.087  -2.709   8.524  1.00  0.00    -0.354 N 
ATOM     48  C   UNL     1      -0.340   0.895  10.879  1.00  0.00     0.074 A 
ATOM     49  C   UNL     1       0.344   1.991  10.229  1.00  0.00     0.031 C 
ATOM     50  C   UNL     1       0.478  -3.970   6.768  1.00  0.00     0.029 A 
ATOM     51  C   UNL     1      -0.156  -4.009   8.085  1.00  0.00     0.049 A 
ATOM     52  H   UNL     1      -0.453  -2.412   9.389  1.00  0.00     0.167 HD
ATOM     53  C   UNL     1      -0.955   0.993  12.081  1.00  0.00     0.034 A 
ATOM     54  C   UNL     1      -0.675  -5.102   8.679  1.00  0.00     0.034 A 
ATOM     55  C   UNL     1      -1.665  -0.083  12.717  1.00  0.00     0.049 A 
ATOM     56  C   UNL     1      -1.362  -4.964  10.015  1.00  0.00     0.074 A 
ATOM     57  C   UNL     1      -2.369  -0.066  13.908  1.00  0.00     0.029 A 
ATOM     58  N   UNL     1      -1.754  -1.372  12.217  1.00  0.00    -0.354 N 
ATOM     59  N   UNL     1      -1.571  -3.886  10.730  1.00  0.00    -0.248 NA
ATOM     60  C   UNL     1      -1.923  -6.190  10.603  1.00  0.00     0.031 C 
ATOM     61  C   UNL     1      -2.876  -1.350  14.134  1.00  0.00     0.029 A 
ATOM     62  C   UNL     1      -2.496  -2.163  13.078  1.00  0.00     0.049 A 
ATOM     63  H   UNL     1      -1.351  -1.681  11.374  1.00  0.00     0.167 HD
ATOM     64  C   UNL     1      -2.320  -4.295  11.829  1.00  0.00     0.074 A 
ATOM     65  C   UNL     1      -2.543  -5.717  11.677  1.00  0.00     0.031 C 
ATOM     66  C   UNL     1      -2.770  -3.562  12.879  1.00  0.00     0.034 A 
BRANCH  53  67
ATOM     67  C   UNL     1      -0.928   2.331  12.770  1.00  0.00     0.023 A 
ATOM     68  C   UNL     1      -1.768   3.363  12.305  1.00  0.00     0.012 A 
ATOM     69  C   UNL     1      -0.117   2.552  13.898  1.00  0.00     0.148 A 
ATOM     70  C   UNL     1      -1.782   4.605  12.939  1.00  0.00     0.002 A 
ATOM     71  C   UNL     1      -0.163   3.782  14.546  1.00  0.00     0.091 A 
ATOM     72  F   UNL     1       0.696   1.568  14.307  1.00  0.00    -0.205 F 
ATOM     73  C   UNL     1      -0.988   4.811  14.064  1.00  0.00     0.022 A 
BRANCH  71  74
ATOM     74  S   UNL     1       0.775   4.113  16.042  1.00  0.00     0.127 S 
ATOM     75  O   UNL     1       1.881   4.918  15.526  1.00  0.00    -0.237 OA
ATOM     76  O   UNL     1      -0.188   4.852  16.859  1.00  0.00    -0.237 OA
ATOM     77  O   UNL     1       1.141   2.808  16.577  1.00  0.00    -0.744 OA
ENDBRANCH  71  74
ENDBRANCH  53  67
BRANCH  54  78
ATOM     78  C   UNL     1      -0.636  -6.416   7.979  1.00  0.00     0.023 A 
ATOM     79  C   UNL     1      -1.832  -6.968   7.481  1.00  0.00     0.012 A 
ATOM     80  C   UNL     1       0.574  -7.111   7.790  1.00  0.00     0.148 A 
ATOM     81  C   UNL     1      -1.829  -8.204   6.833  1.00  0.00     0.002 A 
ATOM     82  C   UNL     1       0.578  -8.318   7.099  1.00  0.00     0.091 A 
ATOM     83  F   UNL     1       1.698  -6.579   8.289  1.00  0.00    -0.205 F 
ATOM     84  C   UNL     1      -0.624  -8.873   6.632  1.00  0.00     0.022 A 
BRANCH  82  85
ATOM     85  S   UNL     1       2.097  -9.187   6.694  1.00  0.00     0.127 S 
ATOM     86  O   UNL     1       2.060 -10.307   7.630  1.00  0.00    -0.237 OA
ATOM     87  O   UNL     1       1.878  -9.547   5.292  1.00  0.00    -0.237 OA
ATOM     88  O   UNL     1       3.167  -8.220   6.901  1.00  0.00    -0.744 OA
ENDBRANCH  82  85
ENDBRANCH  54  78
BRANCH  66  89
ATOM     89  C   UNL     1      -3.579  -4.269  13.935  1.00  0.00     0.023 A 
ATOM     90  C   UNL     1      -2.934  -5.125  14.850  1.00  0.00     0.012 A 
ATOM     91  C   UNL     1      -4.960  -4.026  14.072  1.00  0.00     0.148 A 
ATOM     92  C   UNL     1      -3.656  -5.749  15.867  1.00  0.00     0.002 A 
ATOM     93  C   UNL     1      -5.665  -4.619  15.115  1.00  0.00     0.091 A 
ATOM     94  F   UNL     1      -5.564  -3.227  13.181  1.00  0.00    -0.205 F 
ATOM     95  C   UNL     1      -5.017  -5.488  16.007  1.00  0.00     0.022 A 
BRANCH  93  96
ATOM     96  S   UNL     1      -7.399  -4.254  15.412  1.00  0.00     0.127 S 
ATOM     97  O   UNL     1      -8.060  -5.383  14.760  1.00  0.00    -0.237 OA
ATOM     98  O   UNL     1      -7.481  -4.263  16.874  1.00  0.00    -0.237 OA
ATOM     99  O   UNL     1      -7.631  -2.948  14.810  1.00  0.00    -0.744 OA
ENDBRANCH  93  96
ENDBRANCH  66  89
ENDBRANCH  40  41
ENDBRANCH  33  35
ENDBRANCH  32  33
ENDBRANCH  31  32
ENDBRANCH  30  31
ENDBRANCH  29  30
ENDBRANCH  28  29
ENDBRANCH   1  28
TORSDOF 23
