REMARK SMILES CCOc1cc(OCC)cc(-c2ccc([C@@H](C)C(=O)OCCOCCOCCOC(=O)c3ccc(-c4c5nc(c(-c6cccc(S(=O)(=O)[O-])c6F)c6ccc([nH]6)c(-c6cccc(S(=O)(=O)[O-])c6F)c6nc(c(-c7cccc(S(=O)(=O)[O-])c7F)c7ccc4[nH]7)C=C6)C=C5)cc3)cc2)c1
REMARK SMILES IDX 24 1 23 2 22 3 21 4 20 5 18 6 19 7 16 8 17 9 15 10 12 11
REMARK SMILES IDX 13 12 96 13 14 14 95 15 11 16 4 17 5 18 97 19 6 20 10 21
REMARK SMILES IDX 3 22 2 23 1 24 7 25 8 26 9 27 25 28 26 29 27 30 28 31 29 32
REMARK SMILES IDX 30 33 31 34 32 35 33 36 94 37 34 38 93 39 35 40 36 41 37 42
REMARK SMILES IDX 87 43 38 44 92 45 86 46 88 47 39 48 91 49 85 50 84 51 40 53
REMARK SMILES IDX 72 54 52 55 71 56 53 57 56 58 70 59 89 60 54 61 55 62 69 64
REMARK SMILES IDX 90 65 57 66 41 67 42 68 50 69 43 70 45 71 51 72 44 73 46 74
REMARK SMILES IDX 47 75 48 76 49 77 73 78 74 79 82 80 75 81 77 82 83 83 76 84
REMARK SMILES IDX 78 85 79 86 80 87 81 88 58 89 59 90 67 91 60 92 62 93 68 94
REMARK SMILES IDX 61 95 63 96 64 97 65 98 66 99
REMARK H PARENT 88 52 56 63
REMARK Flexibility Score: inf
ROOT
ATOM      1  C   UNL     1       6.170   4.762  -0.972  1.00  0.00     0.188 C 
ENDROOT
BRANCH   1   2
ATOM      2  O   UNL     1       6.870   5.308  -2.084  1.00  0.00    -0.376 OA
BRANCH   2   3
ATOM      3  C   UNL     1       7.930   4.564  -2.668  1.00  0.00     0.202 C 
BRANCH   3   4
ATOM      4  C   UNL     1       9.074   4.074  -1.765  1.00  0.00     0.261 C 
BRANCH   4   5
ATOM      5  O   UNL     1       8.667   3.324  -0.598  1.00  0.00    -0.463 OA
BRANCH   5   6
ATOM      6  C   UNL     1       9.108   3.785   0.601  1.00  0.00     0.313 C 
ATOM      7  O   UNL     1       9.885   4.732   0.708  1.00  0.00    -0.252 OA
BRANCH   6   8
ATOM      8  C   UNL     1       8.576   3.066   1.846  1.00  0.00     0.126 C 
ATOM      9  C   UNL     1       9.772   2.601   2.678  1.00  0.00     0.025 C 
BRANCH   8  10
ATOM     10  C   UNL     1       7.555   1.935   1.736  1.00  0.00    -0.034 A 
ATOM     11  C   UNL     1       5.578  -0.129   1.612  1.00  0.00    -0.018 A 
ATOM     12  C   UNL     1       6.756  -0.185   0.843  1.00  0.00     0.009 A 
ATOM     13  C   UNL     1       5.404   0.980   2.447  1.00  0.00     0.009 A 
ATOM     14  C   UNL     1       7.737   0.818   0.913  1.00  0.00     0.005 A 
ATOM     15  C   UNL     1       6.377   1.990   2.512  1.00  0.00     0.005 A 
BRANCH  11  16
ATOM     16  C   UNL     1       4.619  -1.251   1.602  1.00  0.00    -0.011 A 
ATOM     17  C   UNL     1       2.398  -2.205   1.317  1.00  0.00     0.123 A 
ATOM     18  C   UNL     1       2.892  -3.476   1.612  1.00  0.00     0.092 A 
ATOM     19  C   UNL     1       3.253  -1.095   1.323  1.00  0.00     0.055 A 
ATOM     20  C   UNL     1       4.239  -3.650   1.924  1.00  0.00     0.123 A 
ATOM     21  C   UNL     1       5.083  -2.538   1.921  1.00  0.00     0.055 A 
BRANCH  17  22
ATOM     22  O   UNL     1       1.039  -2.081   1.203  1.00  0.00    -0.494 OA
BRANCH  22  23
ATOM     23  C   UNL     1       0.571  -1.681  -0.089  1.00  0.00     0.226 C 
ATOM     24  C   UNL     1       0.487  -0.174  -0.211  1.00  0.00     0.049 C 
ENDBRANCH  22  23
ENDBRANCH  17  22
BRANCH  20  25
ATOM     25  O   UNL     1       4.628  -4.932   2.205  1.00  0.00    -0.494 OA
BRANCH  25  26
ATOM     26  C   UNL     1       5.879  -5.107   2.877  1.00  0.00     0.226 C 
ATOM     27  C   UNL     1       7.029  -5.229   1.888  1.00  0.00     0.049 C 
ENDBRANCH  25  26
ENDBRANCH  20  25
ENDBRANCH  11  16
ENDBRANCH   8  10
ENDBRANCH   6   8
ENDBRANCH   5   6
ENDBRANCH   4   5
ENDBRANCH   3   4
ENDBRANCH   2   3
ENDBRANCH   1   2
BRANCH   1  28
ATOM     28  C   UNL     1       5.856   3.258  -0.955  1.00  0.00     0.188 C 
BRANCH  28  29
ATOM     29  O   UNL     1       6.158   2.570  -2.152  1.00  0.00    -0.376 OA
BRANCH  29  30
ATOM     30  C   UNL     1       5.067   1.950  -2.805  1.00  0.00     0.202 C 
BRANCH  30  31
ATOM     31  C   UNL     1       3.985   2.904  -3.334  1.00  0.00     0.261 C 
BRANCH  31  32
ATOM     32  O   UNL     1       3.462   3.853  -2.381  1.00  0.00    -0.460 OA
BRANCH  32  33
ATOM     33  C   UNL     1       2.655   3.351  -1.422  1.00  0.00     0.338 C 
ATOM     34  O   UNL     1       2.306   2.182  -1.321  1.00  0.00    -0.246 OA
BRANCH  33  35
ATOM     35  C   UNL     1       2.419   4.369  -0.378  1.00  0.00     0.060 A 
ATOM     36  C   UNL     1       2.832   4.103   0.936  1.00  0.00     0.016 A 
ATOM     37  C   UNL     1       1.764   5.564  -0.679  1.00  0.00     0.016 A 
ATOM     38  C   UNL     1       2.562   5.017   1.956  1.00  0.00     0.010 A 
ATOM     39  C   UNL     1       1.479   6.471   0.349  1.00  0.00     0.010 A 
ATOM     40  C   UNL     1       1.845   6.189   1.677  1.00  0.00    -0.014 A 
BRANCH  40  41
ATOM     41  C   UNL     1       1.362   7.037   2.798  1.00  0.00     0.031 A 
ATOM     42  C   UNL     1      -0.079   6.938   3.227  1.00  0.00     0.074 A 
ATOM     43  C   UNL     1       2.195   7.873   3.445  1.00  0.00     0.049 A 
ATOM     44  N   UNL     1      -0.703   7.566   4.190  1.00  0.00    -0.248 NA
ATOM     45  C   UNL     1      -0.929   6.007   2.467  1.00  0.00     0.031 C 
ATOM     46  C   UNL     1       3.608   8.072   3.129  1.00  0.00     0.029 A 
ATOM     47  N   UNL     1       1.962   8.727   4.496  1.00  0.00    -0.354 N 
ATOM     48  C   UNL     1      -2.022   7.129   4.137  1.00  0.00     0.074 A 
ATOM     49  C   UNL     1      -2.111   6.193   3.036  1.00  0.00     0.031 C 
ATOM     50  C   UNL     1       4.113   9.004   3.956  1.00  0.00     0.029 A 
ATOM     51  C   UNL     1       3.056   9.483   4.845  1.00  0.00     0.049 A 
ATOM     52  H   UNL     1       1.094   8.792   4.956  1.00  0.00     0.167 HD
ATOM     53  C   UNL     1      -3.063   7.461   4.939  1.00  0.00     0.034 A 
ATOM     54  C   UNL     1       3.186  10.462   5.764  1.00  0.00     0.034 A 
ATOM     55  C   UNL     1      -2.976   8.384   6.040  1.00  0.00     0.049 A 
ATOM     56  C   UNL     1       2.009  10.824   6.633  1.00  0.00     0.074 A 
ATOM     57  C   UNL     1      -3.966   8.748   6.937  1.00  0.00     0.029 A 
ATOM     58  N   UNL     1      -1.843   9.104   6.385  1.00  0.00    -0.354 N 
ATOM     59  N   UNL     1       0.802  10.312   6.649  1.00  0.00    -0.248 NA
ATOM     60  C   UNL     1       2.227  11.873   7.640  1.00  0.00     0.031 C 
ATOM     61  C   UNL     1      -3.441   9.717   7.800  1.00  0.00     0.029 A 
ATOM     62  C   UNL     1      -2.111   9.921   7.471  1.00  0.00     0.049 A 
ATOM     63  H   UNL     1      -0.975   9.044   5.925  1.00  0.00     0.167 HD
ATOM     64  C   UNL     1       0.130  10.948   7.688  1.00  0.00     0.074 A 
ATOM     65  C   UNL     1       1.075  11.862   8.296  1.00  0.00     0.031 C 
ATOM     66  C   UNL     1      -1.156  10.800   8.096  1.00  0.00     0.034 A 
BRANCH  53  67
ATOM     67  C   UNL     1      -4.393   6.808   4.662  1.00  0.00     0.023 A 
ATOM     68  C   UNL     1      -4.576   5.438   4.943  1.00  0.00     0.012 A 
ATOM     69  C   UNL     1      -5.479   7.562   4.175  1.00  0.00     0.148 A 
ATOM     70  C   UNL     1      -5.805   4.822   4.711  1.00  0.00     0.002 A 
ATOM     71  C   UNL     1      -6.715   6.953   3.992  1.00  0.00     0.091 A 
ATOM     72  F   UNL     1      -5.281   8.858   3.893  1.00  0.00    -0.205 F 
ATOM     73  C   UNL     1      -6.876   5.581   4.247  1.00  0.00     0.022 A 
BRANCH  71  74
ATOM     74  S   UNL     1      -8.176   7.860   3.476  1.00  0.00     0.127 S 
ATOM     75  O   UNL     1      -8.394   7.328   2.131  1.00  0.00    -0.237 OA
ATOM     76  O   UNL     1      -9.166   7.435   4.467  1.00  0.00    -0.237 OA
ATOM     77  O   UNL     1      -7.819   9.270   3.538  1.00  0.00    -0.744 OA
ENDBRANCH  71  74
ENDBRANCH  53  67
BRANCH  54  78
ATOM     78  C   UNL     1       4.495  11.155   5.938  1.00  0.00     0.023 A 
ATOM     79  C   UNL     1       5.232  10.971   7.124  1.00  0.00     0.012 A 
ATOM     80  C   UNL     1       5.010  11.997   4.933  1.00  0.00     0.148 A 
ATOM     81  C   UNL     1       6.440  11.642   7.322  1.00  0.00     0.002 A 
ATOM     82  C   UNL     1       6.241  12.616   5.112  1.00  0.00     0.091 A 
ATOM     83  F   UNL     1       4.284  12.173   3.820  1.00  0.00    -0.205 F 
ATOM     84  C   UNL     1       6.949  12.455   6.313  1.00  0.00     0.022 A 
BRANCH  82  85
ATOM     85  S   UNL     1       7.032  13.580   3.821  1.00  0.00     0.127 S 
ATOM     86  O   UNL     1       6.984  14.928   4.381  1.00  0.00    -0.237 OA
ATOM     87  O   UNL     1       8.366  12.979   3.774  1.00  0.00    -0.237 OA
ATOM     88  O   UNL     1       6.232  13.366   2.623  1.00  0.00    -0.744 OA
ENDBRANCH  82  85
ENDBRANCH  54  78
BRANCH  66  89
ATOM     89  C   UNL     1      -1.608  11.614   9.285  1.00  0.00     0.023 A 
ATOM     90  C   UNL     1      -1.737  13.014   9.178  1.00  0.00     0.012 A 
ATOM     91  C   UNL     1      -1.932  10.986  10.505  1.00  0.00     0.148 A 
ATOM     92  C   UNL     1      -2.123  13.780  10.279  1.00  0.00     0.002 A 
ATOM     93  C   UNL     1      -2.370  11.750  11.581  1.00  0.00     0.091 A 
ATOM     94  F   UNL     1      -1.791   9.656  10.598  1.00  0.00    -0.205 F 
ATOM     95  C   UNL     1      -2.447  13.147  11.477  1.00  0.00     0.022 A 
BRANCH  93  96
ATOM     96  S   UNL     1      -2.904  11.010  13.129  1.00  0.00     0.127 S 
ATOM     97  O   UNL     1      -1.774  11.307  14.007  1.00  0.00    -0.237 OA
ATOM     98  O   UNL     1      -4.123  11.761  13.430  1.00  0.00    -0.237 OA
ATOM     99  O   UNL     1      -3.122   9.598  12.842  1.00  0.00    -0.744 OA
ENDBRANCH  93  96
ENDBRANCH  66  89
ENDBRANCH  40  41
ENDBRANCH  33  35
ENDBRANCH  32  33
ENDBRANCH  31  32
ENDBRANCH  30  31
ENDBRANCH  29  30
ENDBRANCH  28  29
ENDBRANCH   1  28
TORSDOF 26
