REMARK SMILES O=C(OCCOCCOCCOC(=O)c1ccccc1/C=N\NC(=S)NCc1ccccc1)c1ccc(-c2c3nc(c(-c4cccc(S(=O)(=O)[O-])c4F)c4ccc([nH]4)c(-c4cccc(S(=O)(=O)[O-])c4F)c4nc(c(-c5cccc(S(=O)(=O)[O-])c5F)c5ccc2[nH]5)C=C4)C=C3)cc1
REMARK SMILES IDX 9 1 8 2 7 3 6 4 5 5 4 6 3 7 2 8 1 9 34 10 35 11 96 12 36 13
REMARK SMILES IDX 95 14 37 15 38 16 39 17 89 18 40 19 94 20 88 21 90 22 41 23
REMARK SMILES IDX 93 24 87 25 86 26 42 28 74 29 54 30 73 31 55 32 58 33 72 34
REMARK SMILES IDX 91 35 56 36 57 37 71 39 92 40 59 41 43 42 44 43 52 44 45 45
REMARK SMILES IDX 47 46 53 47 46 48 48 49 49 50 50 51 51 52 75 53 76 54 84 55
REMARK SMILES IDX 77 56 79 57 85 58 78 59 80 60 81 61 82 62 83 63 60 64 61 65
REMARK SMILES IDX 69 66 62 67 64 68 70 69 63 70 65 71 66 72 67 73 68 74 10 75
REMARK SMILES IDX 11 76 12 77 13 78 14 79 15 80 16 81 20 82 17 83 19 84 18 85
REMARK SMILES IDX 21 86 22 87 23 88 24 90 25 91 26 92 27 94 28 95 29 96 33 97
REMARK SMILES IDX 30 98 32 99 31 100
REMARK H PARENT 90 27 58 38 23 89 26 93
REMARK Flexibility Score: inf
ROOT
ATOM      1  O   UNL     1       2.078   4.175   0.356  1.00  0.00    -0.376 OA
ENDROOT
BRANCH   1   2
ATOM      2  C   UNL     1       1.926   2.818   0.781  1.00  0.00     0.188 C 
BRANCH   2   3
ATOM      3  C   UNL     1       2.601   1.772  -0.123  1.00  0.00     0.188 C 
BRANCH   3   4
ATOM      4  O   UNL     1       4.002   1.794   0.121  1.00  0.00    -0.376 OA
BRANCH   4   5
ATOM      5  C   UNL     1       4.887   1.003  -0.655  1.00  0.00     0.202 C 
BRANCH   5   6
ATOM      6  C   UNL     1       4.378   0.015  -1.710  1.00  0.00     0.261 C 
BRANCH   6   7
ATOM      7  O   UNL     1       3.219  -0.759  -1.333  1.00  0.00    -0.460 OA
BRANCH   7   8
ATOM      8  C   UNL     1       3.115  -2.043  -0.906  1.00  0.00     0.338 C 
ATOM      9  O   UNL     1       2.135  -2.704  -1.241  1.00  0.00    -0.246 OA
BRANCH   8  10
ATOM     10  C   UNL     1       3.939  -2.512   0.253  1.00  0.00     0.060 A 
ATOM     11  C   UNL     1       5.256  -2.127   0.497  1.00  0.00     0.016 A 
ATOM     12  C   UNL     1       3.259  -3.236   1.257  1.00  0.00     0.016 A 
ATOM     13  C   UNL     1       5.823  -2.302   1.773  1.00  0.00     0.010 A 
ATOM     14  C   UNL     1       3.821  -3.400   2.537  1.00  0.00     0.010 A 
ATOM     15  C   UNL     1       5.099  -2.895   2.822  1.00  0.00    -0.014 A 
BRANCH  15  16
ATOM     16  C   UNL     1       5.810  -3.237   4.093  1.00  0.00     0.031 A 
ATOM     17  C   UNL     1       6.414  -4.589   4.133  1.00  0.00     0.074 A 
ATOM     18  C   UNL     1       5.988  -2.418   5.153  1.00  0.00     0.049 A 
ATOM     19  N   UNL     1       7.249  -5.074   5.003  1.00  0.00    -0.248 NA
ATOM     20  C   UNL     1       6.019  -5.516   3.059  1.00  0.00     0.031 C 
ATOM     21  C   UNL     1       5.303  -1.163   5.309  1.00  0.00     0.029 A 
ATOM     22  N   UNL     1       6.739  -2.484   6.305  1.00  0.00    -0.354 N 
ATOM     23  C   UNL     1       7.515  -6.349   4.554  1.00  0.00     0.074 A 
ATOM     24  C   UNL     1       6.692  -6.598   3.394  1.00  0.00     0.031 C 
ATOM     25  C   UNL     1       5.698  -0.512   6.411  1.00  0.00     0.029 A 
ATOM     26  C   UNL     1       6.633  -1.362   7.118  1.00  0.00     0.049 A 
ATOM     27  H   UNL     1       7.302  -3.258   6.533  1.00  0.00     0.167 HD
ATOM     28  C   UNL     1       8.411  -7.225   5.044  1.00  0.00     0.034 A 
ATOM     29  C   UNL     1       7.190  -1.067   8.312  1.00  0.00     0.034 A 
ATOM     30  C   UNL     1       9.118  -7.026   6.267  1.00  0.00     0.049 A 
ATOM     31  C   UNL     1       8.084  -2.119   8.904  1.00  0.00     0.074 A 
ATOM     32  C   UNL     1       9.973  -7.892   6.913  1.00  0.00     0.029 A 
ATOM     33  N   UNL     1       8.996  -5.895   7.065  1.00  0.00    -0.354 N 
ATOM     34  N   UNL     1       8.427  -3.276   8.391  1.00  0.00    -0.248 NA
ATOM     35  C   UNL     1       8.674  -1.843  10.221  1.00  0.00     0.031 C 
ATOM     36  C   UNL     1      10.338  -7.302   8.127  1.00  0.00     0.029 A 
ATOM     37  C   UNL     1       9.759  -6.043   8.206  1.00  0.00     0.049 A 
ATOM     38  H   UNL     1       8.448  -5.106   6.849  1.00  0.00     0.167 HD
ATOM     39  C   UNL     1       9.296  -3.852   9.301  1.00  0.00     0.074 A 
ATOM     40  C   UNL     1       9.447  -2.906  10.390  1.00  0.00     0.031 C 
ATOM     41  C   UNL     1       9.908  -5.058   9.247  1.00  0.00     0.034 A 
BRANCH  28  42
ATOM     42  C   UNL     1       8.586  -8.456   4.219  1.00  0.00     0.023 A 
ATOM     43  C   UNL     1       9.215  -8.352   2.957  1.00  0.00     0.012 A 
ATOM     44  C   UNL     1       7.971  -9.655   4.602  1.00  0.00     0.148 A 
ATOM     45  C   UNL     1       9.174  -9.416   2.062  1.00  0.00     0.002 A 
ATOM     46  C   UNL     1       7.973 -10.725   3.722  1.00  0.00     0.091 A 
ATOM     47  F   UNL     1       7.337  -9.698   5.782  1.00  0.00    -0.205 F 
ATOM     48  C   UNL     1       8.554 -10.602   2.446  1.00  0.00     0.022 A 
BRANCH  46  49
ATOM     49  S   UNL     1       7.217 -12.298   4.124  1.00  0.00     0.127 S 
ATOM     50  O   UNL     1       6.235 -12.439   3.049  1.00  0.00    -0.237 OA
ATOM     51  O   UNL     1       8.359 -13.206   4.034  1.00  0.00    -0.237 OA
ATOM     52  O   UNL     1       6.649 -12.147   5.456  1.00  0.00    -0.744 OA
ENDBRANCH  46  49
ENDBRANCH  28  42
BRANCH  29  53
ATOM     53  C   UNL     1       6.945   0.221   9.050  1.00  0.00     0.023 A 
ATOM     54  C   UNL     1       8.023   1.099   9.304  1.00  0.00     0.012 A 
ATOM     55  C   UNL     1       5.682   0.543   9.590  1.00  0.00     0.148 A 
ATOM     56  C   UNL     1       7.865   2.221  10.126  1.00  0.00     0.002 A 
ATOM     57  C   UNL     1       5.519   1.690  10.370  1.00  0.00     0.091 A 
ATOM     58  F   UNL     1       4.661  -0.290   9.348  1.00  0.00    -0.205 F 
ATOM     59  C   UNL     1       6.614   2.516  10.660  1.00  0.00     0.022 A 
BRANCH  57  60
ATOM     60  S   UNL     1       3.931   2.192  11.053  1.00  0.00     0.127 S 
ATOM     61  O   UNL     1       4.165   2.046  12.487  1.00  0.00    -0.237 OA
ATOM     62  O   UNL     1       3.820   3.576  10.585  1.00  0.00    -0.237 OA
ATOM     63  O   UNL     1       2.955   1.277  10.478  1.00  0.00    -0.744 OA
ENDBRANCH  57  60
ENDBRANCH  29  53
BRANCH  41  64
ATOM     64  C   UNL     1      10.859  -5.383  10.357  1.00  0.00     0.023 A 
ATOM     65  C   UNL     1      10.384  -5.696  11.643  1.00  0.00     0.012 A 
ATOM     66  C   UNL     1      12.236  -5.449  10.079  1.00  0.00     0.148 A 
ATOM     67  C   UNL     1      11.278  -6.046  12.651  1.00  0.00     0.002 A 
ATOM     68  C   UNL     1      13.112  -5.863  11.068  1.00  0.00     0.091 A 
ATOM     69  F   UNL     1      12.658  -5.112   8.851  1.00  0.00    -0.205 F 
ATOM     70  C   UNL     1      12.638  -6.146  12.359  1.00  0.00     0.022 A 
BRANCH  68  71
ATOM     71  S   UNL     1      14.851  -6.141  10.735  1.00  0.00     0.127 S 
ATOM     72  O   UNL     1      15.472  -5.025  11.447  1.00  0.00    -0.237 OA
ATOM     73  O   UNL     1      15.073  -7.454  11.341  1.00  0.00    -0.237 OA
ATOM     74  O   UNL     1      14.994  -6.113   9.286  1.00  0.00    -0.744 OA
ENDBRANCH  68  71
ENDBRANCH  41  64
ENDBRANCH  15  16
ENDBRANCH   8  10
ENDBRANCH   7   8
ENDBRANCH   6   7
ENDBRANCH   5   6
ENDBRANCH   4   5
ENDBRANCH   3   4
ENDBRANCH   2   3
ENDBRANCH   1   2
BRANCH   1  75
ATOM     75  C   UNL     1       3.404   4.683   0.327  1.00  0.00     0.202 C 
BRANCH  75  76
ATOM     76  C   UNL     1       4.071   5.107   1.650  1.00  0.00     0.261 C 
BRANCH  76  77
ATOM     77  O   UNL     1       3.474   4.693   2.886  1.00  0.00    -0.460 OA
BRANCH  77  78
ATOM     78  C   UNL     1       2.478   5.440   3.437  1.00  0.00     0.338 C 
ATOM     79  O   UNL     1       1.912   6.391   2.937  1.00  0.00    -0.246 OA
BRANCH  78  80
ATOM     80  C   UNL     1       2.098   4.762   4.713  1.00  0.00     0.068 A 
ATOM     81  C   UNL     1       0.424   4.082   4.833  1.00  0.00     0.016 A 
ATOM     82  C   UNL     1       3.444   3.962   5.638  1.00  0.00     0.009 A 
ATOM     83  C   UNL     1       0.077   2.654   5.927  1.00  0.00     0.001 A 
ATOM     84  C   UNL     1       3.107   2.554   6.753  1.00  0.00     0.010 A 
ATOM     85  C   UNL     1       1.414   1.923   6.900  1.00  0.00     0.001 A 
BRANCH  82  86
ATOM     86  C   UNL     1       4.472   4.849   6.114  1.00  0.00     0.142 C 
ATOM     87  N   UNL     1       4.433   5.245   7.339  1.00  0.00    -0.181 NA
BRANCH  87  88
ATOM     88  N   UNL     1       3.312   4.895   8.075  1.00  0.00    -0.254 N 
ATOM     89  H   UNL     1       3.461   4.797   9.043  1.00  0.00     0.193 HD
BRANCH  88  90
ATOM     90  C   UNL     1       2.034   4.667   7.657  1.00  0.00     0.187 C 
ATOM     91  S   UNL     1       0.770   5.261   8.610  1.00  0.00    -0.039 S 
BRANCH  90  92
ATOM     92  N   UNL     1       1.633   3.920   6.524  1.00  0.00    -0.357 N 
ATOM     93  H   UNL     1       0.677   4.135   6.435  1.00  0.00     0.163 HD
BRANCH  92  94
ATOM     94  C   UNL     1       1.983   2.615   4.952  1.00  0.00     0.151 C 
BRANCH  94  95
ATOM     95  C   UNL     1       2.759   1.183   4.748  1.00  0.00    -0.029 A 
ATOM     96  C   UNL     1       1.912   0.060   4.632  1.00  0.00     0.005 A 
ATOM     97  C   UNL     1       3.911   1.310   3.940  1.00  0.00     0.005 A 
ATOM     98  C   UNL     1       1.991  -0.692   3.486  1.00  0.00     0.000 A 
ATOM     99  C   UNL     1       3.989   0.535   2.813  1.00  0.00     0.000 A 
ATOM    100  C   UNL     1       2.956  -0.357   2.548  1.00  0.00     0.000 A 
ENDBRANCH  94  95
ENDBRANCH  92  94
ENDBRANCH  90  92
ENDBRANCH  88  90
ENDBRANCH  87  88
ENDBRANCH  82  86
ENDBRANCH  78  80
ENDBRANCH  77  78
ENDBRANCH  76  77
ENDBRANCH  75  76
ENDBRANCH   1  75
TORSDOF 26
