REMARK SMILES Cc1ccc(-c2cc([C@@H](C)C(=O)OCCOCCOCCOC(=O)c3ccc(-c4c5nc(c(-c6cccc(S(=O)(=O)[O-])c6F)c6ccc([nH]6)c(-c6cccc(S(=O)(=O)[O-])c6F)c6nc(c(-c7cccc(S(=O)(=O)[O-])c7F)c7ccc4[nH]7)C=C6)C=C5)cc3)ccc2C[C@H]2CCCC2=O)cc1
REMARK SMILES IDX 17 1 16 2 15 3 14 4 13 5 11 6 12 7 9 8 10 9 8 10 6 11 7 12
REMARK SMILES IDX 90 13 89 14 88 15 5 16 1 17 2 18 3 19 99 20 4 21 98 22 91 23
REMARK SMILES IDX 92 24 93 25 96 26 94 27 95 28 97 29 18 30 19 31 20 32 21 33
REMARK SMILES IDX 22 34 23 35 24 36 25 37 26 38 87 39 27 40 86 41 28 42 29 43
REMARK SMILES IDX 30 44 80 45 31 46 85 47 79 48 81 49 32 50 84 51 78 52 77 53
REMARK SMILES IDX 33 55 65 56 45 57 64 58 46 59 49 60 63 61 82 62 47 63 48 64
REMARK SMILES IDX 62 66 83 67 50 68 34 69 35 70 43 71 36 72 38 73 44 74 37 75
REMARK SMILES IDX 39 76 40 77 41 78 42 79 66 80 67 81 75 82 68 83 70 84 76 85
REMARK SMILES IDX 69 86 71 87 72 88 73 89 74 90 51 91 52 92 60 93 53 94 55 95
REMARK SMILES IDX 61 96 54 97 56 98 57 99 58 100 59 101
REMARK H PARENT 81 54 49 65
REMARK Flexibility Score: inf
ROOT
ATOM      1  C   UNL     1      -7.738   5.476   0.795  1.00  0.00     0.188 C 
ENDROOT
BRANCH   1   2
ATOM      2  O   UNL     1      -8.806   4.505   0.780  1.00  0.00    -0.376 OA
BRANCH   2   3
ATOM      3  C   UNL     1      -8.819   3.236   1.464  1.00  0.00     0.202 C 
BRANCH   3   4
ATOM      4  C   UNL     1      -8.736   1.639   0.818  1.00  0.00     0.261 C 
BRANCH   4   5
ATOM      5  O   UNL     1      -7.500   0.770  -0.026  1.00  0.00    -0.463 OA
BRANCH   5   6
ATOM      6  C   UNL     1      -7.009   0.570  -1.381  1.00  0.00     0.313 C 
ATOM      7  O   UNL     1      -7.365   1.124  -2.427  1.00  0.00    -0.252 OA
BRANCH   6   8
ATOM      8  C   UNL     1      -6.024  -0.486  -1.727  1.00  0.00     0.126 C 
ATOM      9  C   UNL     1      -6.645  -1.582  -2.604  1.00  0.00     0.025 C 
BRANCH   8  10
ATOM     10  C   UNL     1      -5.224  -0.957  -0.593  1.00  0.00    -0.033 A 
ATOM     11  C   UNL     1      -3.075  -0.942   0.500  1.00  0.00    -0.015 A 
ATOM     12  C   UNL     1      -3.878  -0.599  -0.573  1.00  0.00     0.013 A 
ATOM     13  C   UNL     1      -3.678  -1.619   1.585  1.00  0.00    -0.039 A 
ATOM     14  C   UNL     1      -5.027  -2.020   1.510  1.00  0.00     0.004 A 
ATOM     15  C   UNL     1      -5.804  -1.688   0.427  1.00  0.00     0.005 A 
BRANCH  11  16
ATOM     16  C   UNL     1      -1.647  -0.647   0.375  1.00  0.00    -0.018 A 
ATOM     17  C   UNL     1       2.577   0.074  -0.088  1.00  0.00     0.044 C 
ATOM     18  C   UNL     1       1.103  -0.159   0.030  1.00  0.00    -0.051 A 
ATOM     19  C   UNL     1       0.612  -1.468   0.035  1.00  0.00     0.004 A 
ATOM     20  C   UNL     1       0.205   0.909   0.136  1.00  0.00     0.004 A 
ATOM     21  C   UNL     1      -0.750  -1.706   0.196  1.00  0.00     0.009 A 
ATOM     22  C   UNL     1      -1.160   0.666   0.302  1.00  0.00     0.009 A 
ENDBRANCH  11  16
BRANCH  13  23
ATOM     23  C   UNL     1      -2.951  -1.896   2.877  1.00  0.00     0.047 C 
BRANCH  23  24
ATOM     24  C   UNL     1      -3.376  -1.002   4.045  1.00  0.00     0.060 C 
ATOM     25  C   UNL     1      -3.206   0.501   3.804  1.00  0.00     0.012 C 
ATOM     26  C   UNL     1      -4.841  -1.102   4.435  1.00  0.00     0.136 C 
ATOM     27  C   UNL     1      -4.310   1.141   4.628  1.00  0.00     0.009 C 
ATOM     28  C   UNL     1      -5.518   0.241   4.436  1.00  0.00     0.076 C 
ATOM     29  O   UNL     1      -5.400  -2.146   4.747  1.00  0.00    -0.299 OA
ENDBRANCH  23  24
ENDBRANCH  13  23
ENDBRANCH   8  10
ENDBRANCH   6   8
ENDBRANCH   5   6
ENDBRANCH   4   5
ENDBRANCH   3   4
ENDBRANCH   2   3
ENDBRANCH   1   2
BRANCH   1  30
ATOM     30  C   UNL     1      -6.855   5.749   2.008  1.00  0.00     0.188 C 
BRANCH  30  31
ATOM     31  O   UNL     1      -6.410   4.534   2.568  1.00  0.00    -0.376 OA
BRANCH  31  32
ATOM     32  C   UNL     1      -5.509   4.661   3.646  1.00  0.00     0.202 C 
BRANCH  32  33
ATOM     33  C   UNL     1      -4.047   4.922   3.214  1.00  0.00     0.261 C 
BRANCH  33  34
ATOM     34  O   UNL     1      -3.535   3.911   2.310  1.00  0.00    -0.460 OA
BRANCH  34  35
ATOM     35  C   UNL     1      -3.211   4.304   1.024  1.00  0.00     0.338 C 
ATOM     36  O   UNL     1      -2.323   5.104   0.777  1.00  0.00    -0.246 OA
BRANCH  35  37
ATOM     37  C   UNL     1      -4.195   3.719   0.048  1.00  0.00     0.060 A 
ATOM     38  C   UNL     1      -4.498   4.117  -1.264  1.00  0.00     0.016 A 
ATOM     39  C   UNL     1      -5.075   2.861   0.601  1.00  0.00     0.016 A 
ATOM     40  C   UNL     1      -5.788   3.806  -1.897  1.00  0.00     0.010 A 
ATOM     41  C   UNL     1      -6.354   2.848   0.068  1.00  0.00     0.010 A 
ATOM     42  C   UNL     1      -6.857   3.231  -1.197  1.00  0.00    -0.014 A 
BRANCH  42  43
ATOM     43  C   UNL     1      -8.478   3.111  -1.678  1.00  0.00     0.031 A 
ATOM     44  C   UNL     1      -9.586   1.787  -1.946  1.00  0.00     0.074 A 
ATOM     45  C   UNL     1      -9.028   4.289  -2.039  1.00  0.00     0.049 A 
ATOM     46  N   UNL     1     -10.652   1.849  -2.726  1.00  0.00    -0.248 NA
ATOM     47  C   UNL     1      -9.541   0.335  -1.482  1.00  0.00     0.031 C 
ATOM     48  C   UNL     1     -10.428   4.602  -2.282  1.00  0.00     0.029 A 
ATOM     49  N   UNL     1      -8.358   5.464  -2.388  1.00  0.00    -0.354 N 
ATOM     50  C   UNL     1     -11.311   0.604  -2.676  1.00  0.00     0.074 A 
ATOM     51  C   UNL     1     -10.384  -0.334  -2.233  1.00  0.00     0.031 C 
ATOM     52  C   UNL     1     -10.490   5.723  -3.015  1.00  0.00     0.029 A 
ATOM     53  C   UNL     1      -9.130   6.073  -3.384  1.00  0.00     0.049 A 
ATOM     54  H   UNL     1      -7.513   5.797  -2.008  1.00  0.00     0.167 HD
ATOM     55  C   UNL     1     -12.654   0.426  -2.776  1.00  0.00     0.034 A 
ATOM     56  C   UNL     1      -8.609   6.193  -4.639  1.00  0.00     0.034 A 
ATOM     57  C   UNL     1     -13.181   1.544  -3.524  1.00  0.00     0.049 A 
ATOM     58  C   UNL     1      -9.418   5.430  -5.675  1.00  0.00     0.074 A 
ATOM     59  C   UNL     1     -13.701   2.782  -3.220  1.00  0.00     0.029 A 
ATOM     60  N   UNL     1     -12.757   1.609  -4.835  1.00  0.00    -0.354 N 
ATOM     61  N   UNL     1     -10.578   4.865  -5.444  1.00  0.00    -0.248 NA
ATOM     62  C   UNL     1      -8.966   5.201  -7.047  1.00  0.00     0.031 C 
ATOM     63  C   UNL     1     -13.353   3.652  -4.310  1.00  0.00     0.029 A 
ATOM     64  C   UNL     1     -12.681   2.916  -5.278  1.00  0.00     0.049 A 
ATOM     65  H   UNL     1     -12.536   0.824  -5.386  1.00  0.00     0.167 HD
ATOM     66  C   UNL     1     -10.913   4.070  -6.506  1.00  0.00     0.074 A 
ATOM     67  C   UNL     1      -9.913   4.371  -7.515  1.00  0.00     0.031 C 
ATOM     68  C   UNL     1     -11.930   3.159  -6.506  1.00  0.00     0.034 A 
BRANCH  55  69
ATOM     69  C   UNL     1     -13.481  -0.717  -2.129  1.00  0.00     0.023 A 
ATOM     70  C   UNL     1     -14.881  -0.565  -2.202  1.00  0.00     0.012 A 
ATOM     71  C   UNL     1     -13.049  -1.844  -1.348  1.00  0.00     0.148 A 
ATOM     72  C   UNL     1     -15.780  -1.421  -1.540  1.00  0.00     0.002 A 
ATOM     73  C   UNL     1     -13.947  -2.712  -0.705  1.00  0.00     0.091 A 
ATOM     74  F   UNL     1     -11.759  -2.104  -1.151  1.00  0.00    -0.205 F 
ATOM     75  C   UNL     1     -15.317  -2.492  -0.789  1.00  0.00     0.022 A 
BRANCH  73  76
ATOM     76  S   UNL     1     -13.413  -4.106   0.331  1.00  0.00     0.127 S 
ATOM     77  O   UNL     1     -14.092  -3.824   1.598  1.00  0.00    -0.237 OA
ATOM     78  O   UNL     1     -13.944  -5.259  -0.394  1.00  0.00    -0.237 OA
ATOM     79  O   UNL     1     -11.958  -4.041   0.408  1.00  0.00    -0.744 OA
ENDBRANCH  73  76
ENDBRANCH  55  69
BRANCH  56  80
ATOM     80  C   UNL     1      -7.130   6.506  -4.620  1.00  0.00     0.023 A 
ATOM     81  C   UNL     1      -6.744   7.616  -3.812  1.00  0.00     0.012 A 
ATOM     82  C   UNL     1      -6.106   5.656  -5.076  1.00  0.00     0.148 A 
ATOM     83  C   UNL     1      -5.434   7.791  -3.360  1.00  0.00     0.002 A 
ATOM     84  C   UNL     1      -4.781   5.862  -4.652  1.00  0.00     0.091 A 
ATOM     85  F   UNL     1      -6.420   4.615  -5.856  1.00  0.00    -0.205 F 
ATOM     86  C   UNL     1      -4.454   6.901  -3.766  1.00  0.00     0.022 A 
BRANCH  84  87
ATOM     87  S   UNL     1      -3.459   4.716  -5.101  1.00  0.00     0.127 S 
ATOM     88  O   UNL     1      -3.027   5.255  -6.386  1.00  0.00    -0.237 OA
ATOM     89  O   UNL     1      -2.491   4.888  -4.015  1.00  0.00    -0.237 OA
ATOM     90  O   UNL     1      -4.097   3.408  -5.121  1.00  0.00    -0.744 OA
ENDBRANCH  84  87
ENDBRANCH  56  80
BRANCH  68  91
ATOM     91  C   UNL     1     -12.297   2.408  -7.760  1.00  0.00     0.023 A 
ATOM     92  C   UNL     1     -12.646   3.145  -8.904  1.00  0.00     0.012 A 
ATOM     93  C   UNL     1     -12.534   1.016  -7.772  1.00  0.00     0.148 A 
ATOM     94  C   UNL     1     -13.237   2.526 -10.007  1.00  0.00     0.002 A 
ATOM     95  C   UNL     1     -13.245   0.432  -8.810  1.00  0.00     0.091 A 
ATOM     96  F   UNL     1     -12.050   0.253  -6.781  1.00  0.00    -0.205 F 
ATOM     97  C   UNL     1     -13.579   1.178  -9.942  1.00  0.00     0.022 A 
BRANCH  95  98
ATOM     98  S   UNL     1     -13.966  -1.207  -8.626  1.00  0.00     0.127 S 
ATOM     99  O   UNL     1     -15.277  -1.040  -9.257  1.00  0.00    -0.237 OA
ATOM    100  O   UNL     1     -13.030  -2.040  -9.375  1.00  0.00    -0.237 OA
ATOM    101  O   UNL     1     -14.025  -1.430  -7.187  1.00  0.00    -0.744 OA
ENDBRANCH  95  98
ENDBRANCH  68  91
ENDBRANCH  42  43
ENDBRANCH  35  37
ENDBRANCH  34  35
ENDBRANCH  33  34
ENDBRANCH  32  33
ENDBRANCH  31  32
ENDBRANCH  30  31
ENDBRANCH   1  30
TORSDOF 24
