REMARK SMILES C[C@H]1CC[C@H]([NH2+]Cc2c(C(=O)OCCOCCOCCOC(=O)c3ccc(-c4c5nc(c(-c6cccc(S(=O)(=O)[O-])c6F)c6ccc([nH]6)c(-c6cccc(S(=O)(=O)[O-])c6F)c6nc(c(-c7cccc(S(=O)(=O)[O-])c7F)c7ccc4[nH]7)C=C6)C=C5)cc3)n(Cc3ccccc3F)c3ccccc23)CC1
REMARK SMILES IDX 16 1 15 2 14 3 13 4 12 5 10 6 11 7 9 8 8 9 101 10 87 11
REMARK SMILES IDX 96 12 100 13 97 14 99 15 98 16 7 17 6 18 5 21 1 22 2 23 3 24
REMARK SMILES IDX 103 25 4 26 102 27 88 28 89 29 90 30 94 31 91 32 93 33 95 34
REMARK SMILES IDX 92 35 17 36 18 37 19 38 20 39 21 40 22 41 23 42 24 43 25 44
REMARK SMILES IDX 86 45 26 46 85 47 27 48 28 49 29 50 79 51 30 52 84 53 78 54
REMARK SMILES IDX 80 55 31 56 83 57 77 58 76 59 32 61 64 62 44 63 63 64 45 65
REMARK SMILES IDX 48 66 62 67 81 68 46 69 47 70 61 72 82 73 49 74 33 75 34 76
REMARK SMILES IDX 42 77 35 78 37 79 43 80 36 81 38 82 39 83 40 84 41 85 65 86
REMARK SMILES IDX 66 87 74 88 67 89 69 90 75 91 68 92 70 93 71 94 72 95 73 96
REMARK SMILES IDX 50 97 51 98 59 99 52 100 54 101 60 102 53 103 55 104 56 105
REMARK SMILES IDX 57 106 58 107
REMARK H PARENT 6 19 6 20 80 60 48 71
REMARK Flexibility Score: inf
ROOT
ATOM      1  C   UNL     1      -1.674  -0.122   4.344  1.00  0.00     0.188 C 
ENDROOT
BRANCH   1   2
ATOM      2  O   UNL     1      -1.634   1.237   3.956  1.00  0.00    -0.376 OA
BRANCH   2   3
ATOM      3  C   UNL     1      -1.013   1.369   2.714  1.00  0.00     0.202 C 
BRANCH   3   4
ATOM      4  C   UNL     1      -2.044   1.200   1.625  1.00  0.00     0.261 C 
BRANCH   4   5
ATOM      5  O   UNL     1      -3.053   0.167   1.627  1.00  0.00    -0.459 OA
BRANCH   5   6
ATOM      6  C   UNL     1      -2.621  -1.119   1.480  1.00  0.00     0.355 C 
ATOM      7  O   UNL     1      -1.502  -1.461   1.797  1.00  0.00    -0.244 OA
BRANCH   6   8
ATOM      8  C   UNL     1      -3.634  -1.975   0.901  1.00  0.00     0.137 A 
ATOM      9  C   UNL     1      -4.378  -1.752  -0.268  1.00  0.00     0.047 A 
ATOM     10  C   UNL     1      -5.279  -2.887  -0.367  1.00  0.00     0.009 A 
ATOM     11  N   UNL     1      -3.911  -3.292   1.314  1.00  0.00    -0.330 N 
ATOM     12  C   UNL     1      -4.739  -3.901   0.413  1.00  0.00     0.050 A 
ATOM     13  C   UNL     1      -6.390  -3.227  -1.161  1.00  0.00     0.011 A 
ATOM     14  C   UNL     1      -5.040  -5.254   0.202  1.00  0.00     0.027 A 
ATOM     15  C   UNL     1      -6.855  -4.553  -1.181  1.00  0.00     0.001 A 
ATOM     16  C   UNL     1      -6.136  -5.570  -0.575  1.00  0.00     0.002 A 
BRANCH   9  17
ATOM     17  C   UNL     1      -4.281  -0.680  -1.364  1.00  0.00     0.300 C 
BRANCH  17  18
ATOM     18  N   UNL     1      -3.429   0.497  -1.120  1.00  0.00    -0.340 N 
ATOM     19  H   UNL     1      -3.979   1.314  -1.386  1.00  0.00     0.346 HD
ATOM     20  H   UNL     1      -3.171   0.389  -0.139  1.00  0.00     0.346 HD
BRANCH  18  21
ATOM     21  C   UNL     1      -2.110   0.638  -1.793  1.00  0.00     0.182 C 
ATOM     22  C   UNL     1       2.293   1.064  -0.824  1.00  0.00     0.007 C 
ATOM     23  C   UNL     1       0.769   0.896  -0.830  1.00  0.00    -0.014 C 
ATOM     24  C   UNL     1       0.333  -0.278  -1.695  1.00  0.00     0.009 C 
ATOM     25  C   UNL     1       0.056   2.150  -1.339  1.00  0.00     0.009 C 
ATOM     26  C   UNL     1      -1.163  -0.542  -1.567  1.00  0.00     0.065 C 
ATOM     27  C   UNL     1      -1.480   2.036  -1.475  1.00  0.00     0.065 C 
ENDBRANCH  18  21
ENDBRANCH  17  18
ENDBRANCH   9  17
BRANCH  11  28
ATOM     28  C   UNL     1      -3.252  -4.042   2.384  1.00  0.00     0.161 C 
BRANCH  28  29
ATOM     29  C   UNL     1      -3.996  -5.076   3.228  1.00  0.00     0.008 A 
ATOM     30  C   UNL     1      -3.841  -6.463   2.984  1.00  0.00     0.008 A 
ATOM     31  C   UNL     1      -4.577  -4.713   4.441  1.00  0.00     0.128 A 
ATOM     32  C   UNL     1      -4.229  -7.431   3.919  1.00  0.00     0.001 A 
ATOM     33  C   UNL     1      -4.916  -5.671   5.404  1.00  0.00     0.039 A 
ATOM     34  F   UNL     1      -4.658  -3.418   4.776  1.00  0.00    -0.207 F 
ATOM     35  C   UNL     1      -4.735  -7.031   5.148  1.00  0.00     0.003 A 
ENDBRANCH  28  29
ENDBRANCH  11  28
ENDBRANCH   6   8
ENDBRANCH   5   6
ENDBRANCH   4   5
ENDBRANCH   3   4
ENDBRANCH   2   3
ENDBRANCH   1   2
BRANCH   1  36
ATOM     36  C   UNL     1      -3.088  -0.630   4.648  1.00  0.00     0.188 C 
BRANCH  36  37
ATOM     37  O   UNL     1      -3.981   0.329   5.197  1.00  0.00    -0.376 OA
BRANCH  37  38
ATOM     38  C   UNL     1      -3.436   1.141   6.229  1.00  0.00     0.202 C 
BRANCH  38  39
ATOM     39  C   UNL     1      -2.810   0.368   7.417  1.00  0.00     0.261 C 
BRANCH  39  40
ATOM     40  O   UNL     1      -1.563  -0.321   7.078  1.00  0.00    -0.460 OA
BRANCH  40  41
ATOM     41  C   UNL     1      -1.415  -1.632   7.424  1.00  0.00     0.338 C 
ATOM     42  O   UNL     1      -2.000  -2.148   8.366  1.00  0.00    -0.246 OA
BRANCH  41  43
ATOM     43  C   UNL     1      -0.748  -2.461   6.323  1.00  0.00     0.060 A 
ATOM     44  C   UNL     1       0.395  -2.173   5.546  1.00  0.00     0.016 A 
ATOM     45  C   UNL     1      -1.473  -3.573   5.934  1.00  0.00     0.016 A 
ATOM     46  C   UNL     1       0.706  -2.903   4.326  1.00  0.00     0.010 A 
ATOM     47  C   UNL     1      -1.146  -4.273   4.756  1.00  0.00     0.010 A 
ATOM     48  C   UNL     1      -0.108  -3.944   3.858  1.00  0.00    -0.014 A 
BRANCH  48  49
ATOM     49  C   UNL     1       0.076  -4.870   2.641  1.00  0.00     0.031 A 
ATOM     50  C   UNL     1       0.439  -6.262   3.028  1.00  0.00     0.074 A 
ATOM     51  C   UNL     1      -0.179  -4.776   1.284  1.00  0.00     0.049 A 
ATOM     52  N   UNL     1       1.604  -6.782   2.822  1.00  0.00    -0.248 NA
ATOM     53  C   UNL     1      -0.493  -7.156   3.723  1.00  0.00     0.031 C 
ATOM     54  C   UNL     1      -0.527  -3.607   0.485  1.00  0.00     0.029 A 
ATOM     55  N   UNL     1      -0.363  -5.778   0.315  1.00  0.00    -0.354 N 
ATOM     56  C   UNL     1       1.470  -8.118   3.148  1.00  0.00     0.074 A 
ATOM     57  C   UNL     1       0.235  -8.260   3.865  1.00  0.00     0.031 C 
ATOM     58  C   UNL     1      -1.171  -3.946  -0.662  1.00  0.00     0.029 A 
ATOM     59  C   UNL     1      -1.058  -5.374  -0.862  1.00  0.00     0.049 A 
ATOM     60  H   UNL     1      -0.033  -6.697   0.441  1.00  0.00     0.167 HD
ATOM     61  C   UNL     1       2.243  -9.073   2.581  1.00  0.00     0.034 A 
ATOM     62  C   UNL     1      -1.317  -6.043  -2.035  1.00  0.00     0.034 A 
ATOM     63  C   UNL     1       3.284  -8.534   1.756  1.00  0.00     0.049 A 
ATOM     64  C   UNL     1      -0.086  -6.852  -2.177  1.00  0.00     0.074 A 
ATOM     65  C   UNL     1       4.389  -7.739   1.958  1.00  0.00     0.029 A 
ATOM     66  N   UNL     1       2.999  -8.504   0.416  1.00  0.00    -0.354 N 
ATOM     67  N   UNL     1       1.066  -6.335  -2.508  1.00  0.00    -0.248 NA
ATOM     68  C   UNL     1      -0.078  -8.280  -1.896  1.00  0.00     0.031 C 
ATOM     69  C   UNL     1       4.601  -7.039   0.737  1.00  0.00     0.029 A 
ATOM     70  C   UNL     1       3.626  -7.435  -0.177  1.00  0.00     0.049 A 
ATOM     71  H   UNL     1       2.428  -9.154  -0.054  1.00  0.00     0.167 HD
ATOM     72  C   UNL     1       1.976  -7.228  -1.998  1.00  0.00     0.074 A 
ATOM     73  C   UNL     1       1.243  -8.480  -1.883  1.00  0.00     0.031 C 
ATOM     74  C   UNL     1       3.097  -6.782  -1.363  1.00  0.00     0.034 A 
BRANCH  61  75
ATOM     75  C   UNL     1       1.827 -10.503   2.495  1.00  0.00     0.023 A 
ATOM     76  C   UNL     1       2.829 -11.485   2.529  1.00  0.00     0.012 A 
ATOM     77  C   UNL     1       0.504 -10.903   2.204  1.00  0.00     0.148 A 
ATOM     78  C   UNL     1       2.519 -12.830   2.321  1.00  0.00     0.002 A 
ATOM     79  C   UNL     1       0.189 -12.248   2.073  1.00  0.00     0.091 A 
ATOM     80  F   UNL     1      -0.427  -9.968   1.962  1.00  0.00    -0.205 F 
ATOM     81  C   UNL     1       1.196 -13.216   2.118  1.00  0.00     0.022 A 
BRANCH  79  82
ATOM     82  S   UNL     1      -1.511 -12.792   1.886  1.00  0.00     0.127 S 
ATOM     83  O   UNL     1      -1.582 -13.050   0.452  1.00  0.00    -0.237 OA
ATOM     84  O   UNL     1      -1.546 -13.983   2.736  1.00  0.00    -0.237 OA
ATOM     85  O   UNL     1      -2.317 -11.683   2.384  1.00  0.00    -0.744 OA
ENDBRANCH  79  82
ENDBRANCH  61  75
BRANCH  62  86
ATOM     86  C   UNL     1      -2.169  -5.954  -3.308  1.00  0.00     0.023 A 
ATOM     87  C   UNL     1      -1.674  -6.577  -4.486  1.00  0.00     0.012 A 
ATOM     88  C   UNL     1      -3.534  -5.586  -3.359  1.00  0.00     0.148 A 
ATOM     89  C   UNL     1      -2.489  -6.938  -5.569  1.00  0.00     0.002 A 
ATOM     90  C   UNL     1      -4.367  -5.979  -4.437  1.00  0.00     0.091 A 
ATOM     91  F   UNL     1      -4.017  -4.844  -2.366  1.00  0.00    -0.205 F 
ATOM     92  C   UNL     1      -3.844  -6.678  -5.525  1.00  0.00     0.022 A 
BRANCH  90  93
ATOM     93  S   UNL     1      -6.158  -5.701  -4.465  1.00  0.00     0.127 S 
ATOM     94  O   UNL     1      -6.549  -6.050  -5.834  1.00  0.00    -0.237 OA
ATOM     95  O   UNL     1      -6.647  -6.648  -3.468  1.00  0.00    -0.237 OA
ATOM     96  O   UNL     1      -6.303  -4.280  -4.176  1.00  0.00    -0.744 OA
ENDBRANCH  90  93
ENDBRANCH  62  86
BRANCH  74  97
ATOM     97  C   UNL     1       3.619  -5.394  -1.686  1.00  0.00     0.023 A 
ATOM     98  C   UNL     1       2.836  -4.234  -1.526  1.00  0.00     0.012 A 
ATOM     99  C   UNL     1       4.979  -5.237  -2.014  1.00  0.00     0.148 A 
ATOM    100  C   UNL     1       3.386  -2.961  -1.695  1.00  0.00     0.002 A 
ATOM    101  C   UNL     1       5.535  -3.965  -2.124  1.00  0.00     0.091 A 
ATOM    102  F   UNL     1       5.726  -6.342  -2.161  1.00  0.00    -0.205 F 
ATOM    103  C   UNL     1       4.737  -2.823  -1.978  1.00  0.00     0.022 A 
BRANCH 101 104
ATOM    104  S   UNL     1       7.292  -3.693  -2.362  1.00  0.00     0.127 S 
ATOM    105  O   UNL     1       7.315  -2.860  -3.564  1.00  0.00    -0.237 OA
ATOM    106  O   UNL     1       7.660  -2.997  -1.129  1.00  0.00    -0.237 OA
ATOM    107  O   UNL     1       7.890  -5.013  -2.522  1.00  0.00    -0.744 OA
ENDBRANCH 101 104
ENDBRANCH  74  97
ENDBRANCH  48  49
ENDBRANCH  41  43
ENDBRANCH  40  41
ENDBRANCH  39  40
ENDBRANCH  38  39
ENDBRANCH  37  38
ENDBRANCH  36  37
ENDBRANCH   1  36
TORSDOF 25
