REMARK SMILES O=C(OCCOCCOCCOC(=O)c1ccc(-c2c3nc(c(-c4cccc(S(=O)(=O)[O-])c4F)c4ccc([nH]4)c(-c4cccc(S(=O)(=O)[O-])c4F)c4nc(c(-c5cccc(S(=O)(=O)[O-])c5F)c5ccc2[nH]5)C=C4)C=C3)cc1)C1=Cc2cc(S(F)(F)(F)(F)F)ccc2O[C@@H]1C(F)(F)F
REMARK SMILES IDX 8 1 7 2 6 3 5 4 4 5 3 6 2 7 1 8 78 9 79 10 93 11 80 12 92 13
REMARK SMILES IDX 81 14 91 15 82 16 90 17 89 18 94 19 95 20 96 21 97 22 83 23
REMARK SMILES IDX 84 24 85 25 86 26 87 27 88 28 9 29 10 30 11 31 12 32 13 33
REMARK SMILES IDX 14 34 15 35 16 36 77 37 17 38 76 39 18 40 19 41 20 42 70 43
REMARK SMILES IDX 21 44 75 45 69 46 71 47 22 48 74 49 68 50 67 51 23 53 55 54
REMARK SMILES IDX 35 55 54 56 36 57 39 58 53 59 72 60 37 61 38 62 52 64 73 65
REMARK SMILES IDX 40 66 24 67 25 68 33 69 26 70 28 71 34 72 27 73 29 74 30 75
REMARK SMILES IDX 31 76 32 77 56 78 57 79 65 80 58 81 60 82 66 83 59 84 61 85
REMARK SMILES IDX 62 86 63 87 64 88 41 89 42 90 50 91 43 92 45 93 51 94 44 95
REMARK SMILES IDX 46 96 47 97 48 98 49 99
REMARK H PARENT 71 52 39 63
REMARK Flexibility Score: inf
ROOT
ATOM      1  C   UNL     1       2.565   1.374   1.973  1.00  0.00     0.188 C 
ENDROOT
BRANCH   1   2
ATOM      2  C   UNL     1       3.072   0.048   1.429  1.00  0.00     0.188 C 
BRANCH   2   3
ATOM      3  O   UNL     1       4.492   0.048   1.429  1.00  0.00    -0.376 OA
BRANCH   3   4
ATOM      4  C   UNL     1       4.965   1.107   0.610  1.00  0.00     0.202 C 
BRANCH   4   5
ATOM      5  C   UNL     1       4.458   0.916  -0.810  1.00  0.00     0.261 C 
BRANCH   5   6
ATOM      6  O   UNL     1       3.038   0.916  -0.810  1.00  0.00    -0.460 OA
BRANCH   6   7
ATOM      7  C   UNL     1       2.328  -0.058  -0.058  1.00  0.00     0.338 C 
ATOM      8  O   UNL     1       1.057  -0.058  -0.058  1.00  0.00    -0.246 OA
BRANCH   7   9
ATOM      9  C   UNL     1       3.088  -1.099   0.746  1.00  0.00     0.087 C 
ATOM     10  C   UNL     1       4.449  -1.099   0.746  1.00  0.00     0.027 C 
ATOM     11  C   UNL     1       2.328  -2.141   1.551  1.00  0.00     0.316 C 
ATOM     12  C   UNL     1       5.209  -0.058  -0.058  1.00  0.00     0.019 A 
ATOM     13  O   UNL     1       3.599   1.445   0.836  1.00  0.00    -0.475 OA
ATOM     14  C   UNL     1       6.237  -0.371  -0.932  1.00  0.00     0.036 A 
ATOM     15  C   UNL     1       4.756   1.186   0.055  1.00  0.00     0.128 A 
ATOM     16  C   UNL     1       6.924   0.758  -1.438  1.00  0.00     0.107 A 
ATOM     17  C   UNL     1       5.397   2.224  -0.578  1.00  0.00     0.048 A 
ATOM     18  C   UNL     1       6.457   1.993  -1.409  1.00  0.00     0.028 A 
BRANCH  11  19
ATOM     19  C   UNL     1       2.696  -2.013   3.021  1.00  0.00     0.430 C 
ATOM     20  F   UNL     1       2.374  -0.797   3.454  1.00  0.00    -0.167 F 
ATOM     21  F   UNL     1       2.030  -2.925   3.725  1.00  0.00    -0.167 F 
ATOM     22  F   UNL     1       4.003  -2.205   3.169  1.00  0.00    -0.167 F 
ENDBRANCH  11  19
BRANCH  16  23
ATOM     23  S   UNL     1       8.555   0.490  -2.175  1.00  0.00     0.310 S 
ATOM     24  F   UNL     1       9.265   0.444  -0.758  1.00  0.00    -0.094 F 
ATOM     25  F   UNL     1       8.787   2.048  -2.164  1.00  0.00    -0.094 F 
ATOM     26  F   UNL     1       9.953   0.258  -2.815  1.00  0.00    -0.094 F 
ATOM     27  F   UNL     1       8.362  -1.072  -2.049  1.00  0.00    -0.094 F 
ATOM     28  F   UNL     1       7.181   0.706  -1.423  1.00  0.00    -0.094 F 
ENDBRANCH  16  23
ENDBRANCH   7   9
ENDBRANCH   6   7
ENDBRANCH   5   6
ENDBRANCH   4   5
ENDBRANCH   3   4
ENDBRANCH   2   3
ENDBRANCH   1   2
BRANCH   1  29
ATOM     29  O   UNL     1       3.038   2.433   1.154  1.00  0.00    -0.376 OA
BRANCH  29  30
ATOM     30  C   UNL     1       4.458   2.433   1.154  1.00  0.00     0.202 C 
BRANCH  30  31
ATOM     31  C   UNL     1       4.965   2.625   2.574  1.00  0.00     0.261 C 
BRANCH  31  32
ATOM     32  O   UNL     1       4.492   1.565   3.393  1.00  0.00    -0.460 OA
BRANCH  32  33
ATOM     33  C   UNL     1       3.095   1.360   3.551  1.00  0.00     0.338 C 
ATOM     34  O   UNL     1       2.270   2.124   2.961  1.00  0.00    -0.246 OA
BRANCH  33  35
ATOM     35  C   UNL     1       2.589   0.226   4.428  1.00  0.00     0.060 A 
ATOM     36  C   UNL     1       1.458  -0.495   4.081  1.00  0.00     0.016 A 
ATOM     37  C   UNL     1       3.174   0.064   5.608  1.00  0.00     0.016 A 
ATOM     38  C   UNL     1       0.846  -1.160   5.170  1.00  0.00     0.010 A 
ATOM     39  C   UNL     1       2.587  -0.711   6.580  1.00  0.00     0.010 A 
ATOM     40  C   UNL     1       1.437  -1.405   6.326  1.00  0.00    -0.014 A 
BRANCH  40  41
ATOM     41  C   UNL     1       0.868  -2.403   7.320  1.00  0.00     0.031 A 
ATOM     42  C   UNL     1       0.544  -1.862   8.566  1.00  0.00     0.074 A 
ATOM     43  C   UNL     1       0.556  -3.696   6.934  1.00  0.00     0.049 A 
ATOM     44  N   UNL     1      -0.125  -2.449   9.559  1.00  0.00    -0.248 NA
ATOM     45  C   UNL     1       0.904  -0.501   8.991  1.00  0.00     0.031 C 
ATOM     46  C   UNL     1       0.872  -4.247   5.676  1.00  0.00     0.029 A 
ATOM     47  N   UNL     1      -0.094  -4.663   7.666  1.00  0.00    -0.354 N 
ATOM     48  C   UNL     1      -0.256  -1.608  10.587  1.00  0.00     0.074 A 
ATOM     49  C   UNL     1       0.409  -0.345  10.239  1.00  0.00     0.031 C 
ATOM     50  C   UNL     1       0.428  -5.531   5.655  1.00  0.00     0.029 A 
ATOM     51  C   UNL     1      -0.173  -5.804   6.899  1.00  0.00     0.049 A 
ATOM     52  H   UNL     1      -0.443  -4.558   8.581  1.00  0.00     0.167 HD
ATOM     53  C   UNL     1      -0.905  -1.843  11.800  1.00  0.00     0.034 A 
ATOM     54  C   UNL     1      -0.731  -7.024   7.246  1.00  0.00     0.034 A 
ATOM     55  C   UNL     1      -1.502  -3.050  12.130  1.00  0.00     0.049 A 
ATOM     56  C   UNL     1      -1.330  -7.279   8.482  1.00  0.00     0.074 A 
ATOM     57  C   UNL     1      -2.167  -3.302  13.345  1.00  0.00     0.029 A 
ATOM     58  N   UNL     1      -1.558  -4.199  11.372  1.00  0.00    -0.354 N 
ATOM     59  N   UNL     1      -1.495  -6.426   9.494  1.00  0.00    -0.248 NA
ATOM     60  C   UNL     1      -1.895  -8.577   8.873  1.00  0.00     0.031 C 
ATOM     61  C   UNL     1      -2.611  -4.587  13.324  1.00  0.00     0.029 A 
ATOM     62  C   UNL     1      -2.229  -5.159  12.096  1.00  0.00     0.049 A 
ATOM     63  H   UNL     1      -1.184  -4.313  10.469  1.00  0.00     0.167 HD
ATOM     64  C   UNL     1      -2.128  -7.027  10.503  1.00  0.00     0.074 A 
ATOM     65  C   UNL     1      -2.388  -8.422  10.122  1.00  0.00     0.031 C 
ATOM     66  C   UNL     1      -2.503  -6.467  11.726  1.00  0.00     0.034 A 
BRANCH  53  67
ATOM     67  C   UNL     1      -0.962  -0.713  12.815  1.00  0.00     0.023 A 
ATOM     68  C   UNL     1      -1.556   0.497  12.500  1.00  0.00     0.012 A 
ATOM     69  C   UNL     1      -0.408  -0.920  14.003  1.00  0.00     0.148 A 
ATOM     70  C   UNL     1      -1.259   1.537  13.413  1.00  0.00     0.002 A 
ATOM     71  C   UNL     1      -0.272   0.111  14.901  1.00  0.00     0.091 A 
ATOM     72  F   UNL     1       0.019  -2.137  14.329  1.00  0.00    -0.205 F 
ATOM     73  C   UNL     1      -0.783   1.350  14.631  1.00  0.00     0.022 A 
BRANCH  71  74
ATOM     74  S   UNL     1       0.597  -0.174  16.463  1.00  0.00     0.127 S 
ATOM     75  O   UNL     1       1.806   0.760  16.552  1.00  0.00    -0.237 OA
ATOM     76  O   UNL     1      -0.351   0.105  17.632  1.00  0.00    -0.237 OA
ATOM     77  O   UNL     1       1.125  -1.799  16.533  1.00  0.00    -0.744 OA
ENDBRANCH  71  74
ENDBRANCH  53  67
BRANCH  54  78
ATOM     78  C   UNL     1      -0.689  -8.149   6.224  1.00  0.00     0.023 A 
ATOM     79  C   UNL     1      -1.891  -8.678   5.786  1.00  0.00     0.012 A 
ATOM     80  C   UNL     1       0.472  -8.601   5.763  1.00  0.00     0.148 A 
ATOM     81  C   UNL     1      -1.757  -9.890   5.068  1.00  0.00     0.002 A 
ATOM     82  C   UNL     1       0.518  -9.711   4.954  1.00  0.00     0.091 A 
ATOM     83  F   UNL     1       1.599  -7.975   6.088  1.00  0.00    -0.205 F 
ATOM     84  C   UNL     1      -0.630 -10.320   4.530  1.00  0.00     0.022 A 
BRANCH  82  85
ATOM     85  S   UNL     1       2.122 -10.375   4.442  1.00  0.00     0.127 S 
ATOM     86  O   UNL     1       2.257 -11.818   4.934  1.00  0.00    -0.237 OA
ATOM     87  O   UNL     1       2.222 -10.346   2.915  1.00  0.00    -0.237 OA
ATOM     88  O   UNL     1       3.374  -9.423   5.113  1.00  0.00    -0.744 OA
ENDBRANCH  82  85
ENDBRANCH  54  78
BRANCH  66  89
ATOM     89  C   UNL     1      -3.256  -7.345  12.712  1.00  0.00     0.023 A 
ATOM     90  C   UNL     1      -2.767  -8.577  13.113  1.00  0.00     0.012 A 
ATOM     91  C   UNL     1      -4.467  -6.934  13.071  1.00  0.00     0.148 A 
ATOM     92  C   UNL     1      -3.752  -9.435  13.657  1.00  0.00     0.002 A 
ATOM     93  C   UNL     1      -5.329  -7.784  13.721  1.00  0.00     0.091 A 
ATOM     94  F   UNL     1      -4.849  -5.690  12.798  1.00  0.00    -0.205 F 
ATOM     95  C   UNL     1      -4.932  -9.038  14.095  1.00  0.00     0.022 A 
BRANCH  93  96
ATOM     96  S   UNL     1      -7.015  -7.235  14.088  1.00  0.00     0.127 S 
ATOM     97  O   UNL     1      -8.015  -8.168  13.401  1.00  0.00    -0.237 OA
ATOM     98  O   UNL     1      -7.244  -7.267  15.601  1.00  0.00    -0.237 OA
ATOM     99  O   UNL     1      -7.233  -5.640  13.511  1.00  0.00    -0.744 OA
ENDBRANCH  93  96
ENDBRANCH  66  89
ENDBRANCH  40  41
ENDBRANCH  33  35
ENDBRANCH  32  33
ENDBRANCH  31  32
ENDBRANCH  30  31
ENDBRANCH  29  30
ENDBRANCH   1  29
TORSDOF 22
