REMARK SMILES COc1ccc2c(c1)CC[C@@](C)(CCC(=O)OCCOCCOCCOC(=O)c1ccc(-c3c4nc(c(-c5cccc(S(=O)(=O)[O-])c5F)c5ccc([nH]5)c(-c5cccc(S(=O)(=O)[O-])c5F)c5nc(c(-c6cccc(S(=O)(=O)[O-])c6F)c6ccc3[nH]6)C=C5)C=C4)cc1)C2=O
REMARK SMILES IDX 21 1 20 2 19 3 18 4 17 5 15 6 16 7 14 8 13 9 11 10 3 11 4 12
REMARK SMILES IDX 8 13 5 14 7 15 6 16 9 17 92 18 10 19 93 20 12 21 2 22 1 23
REMARK SMILES IDX 22 24 23 25 24 26 25 27 26 28 27 29 28 30 29 31 30 32 91 33
REMARK SMILES IDX 31 34 90 35 32 36 33 37 34 38 84 39 35 40 89 41 83 42 85 43
REMARK SMILES IDX 36 44 88 45 82 46 81 47 37 49 69 50 49 51 68 52 50 53 53 54
REMARK SMILES IDX 67 55 86 56 51 57 52 58 66 60 87 61 54 62 38 63 39 64 47 65
REMARK SMILES IDX 40 66 42 67 48 68 41 69 43 70 44 71 45 72 46 73 70 74 71 75
REMARK SMILES IDX 79 76 72 77 74 78 80 79 73 80 75 81 76 82 77 83 78 84 55 85
REMARK SMILES IDX 56 86 64 87 57 88 59 89 65 90 58 91 60 92 61 93 62 94 63 95
REMARK H PARENT 85 48 53 59
REMARK Flexibility Score: inf
ROOT
ATOM      1  C   UNL     1       4.278   3.149   7.738  1.00  0.00     0.188 C 
ENDROOT
BRANCH   1   2
ATOM      2  O   UNL     1       4.873   1.874   7.548  1.00  0.00    -0.376 OA
BRANCH   2   3
ATOM      3  C   UNL     1       4.188   1.023   6.629  1.00  0.00     0.202 C 
BRANCH   3   4
ATOM      4  C   UNL     1       2.792   0.507   7.054  1.00  0.00     0.261 C 
BRANCH   4   5
ATOM      5  O   UNL     1       1.744   1.506   7.037  1.00  0.00    -0.463 OA
BRANCH   5   6
ATOM      6  C   UNL     1       1.418   2.063   8.231  1.00  0.00     0.305 C 
ATOM      7  O   UNL     1       1.791   1.638   9.318  1.00  0.00    -0.252 OA
BRANCH   6   8
ATOM      8  C   UNL     1       0.514   3.278   8.097  1.00  0.00     0.124 C 
BRANCH   8   9
ATOM      9  C   UNL     1       0.900   4.442   7.160  1.00  0.00     0.026 C 
BRANCH   9  10
ATOM     10  C   UNL     1       0.602   4.367   5.628  1.00  0.00     0.032 C 
ATOM     11  C   UNL     1       0.496   1.669   1.164  1.00  0.00     0.119 A 
ATOM     12  C   UNL     1       1.799   1.571   1.645  1.00  0.00     0.047 A 
ATOM     13  C   UNL     1      -0.464   2.398   1.882  1.00  0.00     0.050 A 
ATOM     14  C   UNL     1       2.123   2.156   2.861  1.00  0.00     0.016 A 
ATOM     15  C   UNL     1      -0.155   2.983   3.119  1.00  0.00    -0.033 A 
ATOM     16  C   UNL     1       1.148   2.848   3.595  1.00  0.00     0.022 A 
ATOM     17  C   UNL     1      -1.180   3.780   3.877  1.00  0.00     0.037 C 
ATOM     18  C   UNL     1       1.551   3.446   4.879  1.00  0.00     0.169 C 
ATOM     19  C   UNL     1      -0.841   3.911   5.365  1.00  0.00     0.020 C 
ATOM     20  O   UNL     1       2.697   3.230   5.238  1.00  0.00    -0.294 OA
ATOM     21  C   UNL     1       0.882   5.775   5.045  1.00  0.00     0.020 C 
BRANCH  11  22
ATOM     22  O   UNL     1       0.073   1.116  -0.015  1.00  0.00    -0.497 OA
ATOM     23  C   UNL     1       0.753  -0.084  -0.380  1.00  0.00     0.278 C 
ENDBRANCH  11  22
ENDBRANCH   9  10
ENDBRANCH   8   9
ENDBRANCH   6   8
ENDBRANCH   5   6
ENDBRANCH   4   5
ENDBRANCH   3   4
ENDBRANCH   2   3
ENDBRANCH   1   2
BRANCH   1  24
ATOM     24  C   UNL     1       5.015   4.314   7.106  1.00  0.00     0.188 C 
BRANCH  24  25
ATOM     25  O   UNL     1       4.814   4.571   5.718  1.00  0.00    -0.376 OA
BRANCH  25  26
ATOM     26  C   UNL     1       5.794   4.013   4.855  1.00  0.00     0.202 C 
BRANCH  26  27
ATOM     27  C   UNL     1       7.048   4.892   4.703  1.00  0.00     0.261 C 
BRANCH  27  28
ATOM     28  O   UNL     1       7.581   5.316   5.970  1.00  0.00    -0.460 OA
BRANCH  28  29
ATOM     29  C   UNL     1       7.062   6.479   6.465  1.00  0.00     0.338 C 
ATOM     30  O   UNL     1       6.424   7.309   5.849  1.00  0.00    -0.246 OA
BRANCH  29  31
ATOM     31  C   UNL     1       7.190   6.452   7.952  1.00  0.00     0.060 A 
ATOM     32  C   UNL     1       8.283   5.848   8.578  1.00  0.00     0.016 A 
ATOM     33  C   UNL     1       6.121   6.933   8.729  1.00  0.00     0.016 A 
ATOM     34  C   UNL     1       8.321   5.759   9.972  1.00  0.00     0.010 A 
ATOM     35  C   UNL     1       6.147   6.820  10.123  1.00  0.00     0.010 A 
ATOM     36  C   UNL     1       7.268   6.270  10.757  1.00  0.00    -0.014 A 
BRANCH  36  37
ATOM     37  C   UNL     1       7.509   6.515  12.201  1.00  0.00     0.031 A 
ATOM     38  C   UNL     1       6.982   5.641  13.296  1.00  0.00     0.074 A 
ATOM     39  C   UNL     1       8.265   7.591  12.497  1.00  0.00     0.049 A 
ATOM     40  N   UNL     1       7.274   5.681  14.572  1.00  0.00    -0.248 NA
ATOM     41  C   UNL     1       6.006   4.603  12.936  1.00  0.00     0.031 C 
ATOM     42  C   UNL     1       8.773   8.549  11.509  1.00  0.00     0.029 A 
ATOM     43  N   UNL     1       8.753   8.053  13.690  1.00  0.00    -0.354 N 
ATOM     44  C   UNL     1       6.529   4.674  15.172  1.00  0.00     0.074 A 
ATOM     45  C   UNL     1       5.748   4.053  14.120  1.00  0.00     0.031 C 
ATOM     46  C   UNL     1       9.536   9.458  12.130  1.00  0.00     0.029 A 
ATOM     47  C   UNL     1       9.559   9.159  13.557  1.00  0.00     0.049 A 
ATOM     48  H   UNL     1       8.547   7.635  14.557  1.00  0.00     0.167 HD
ATOM     49  C   UNL     1       6.522   4.296  16.474  1.00  0.00     0.034 A 
ATOM     50  C   UNL     1      10.262   9.849  14.473  1.00  0.00     0.034 A 
ATOM     51  C   UNL     1       7.312   4.919  17.507  1.00  0.00     0.049 A 
ATOM     52  C   UNL     1      10.249   9.394  15.900  1.00  0.00     0.074 A 
ATOM     53  C   UNL     1       7.414   4.558  18.841  1.00  0.00     0.029 A 
ATOM     54  N   UNL     1       8.120   6.032  17.334  1.00  0.00    -0.354 N 
ATOM     55  N   UNL     1       9.653   8.350  16.420  1.00  0.00    -0.248 NA
ATOM     56  C   UNL     1      11.024  10.190  16.861  1.00  0.00     0.031 C 
ATOM     57  C   UNL     1       8.269   5.462  19.477  1.00  0.00     0.029 A 
ATOM     58  C   UNL     1       8.716   6.375  18.537  1.00  0.00     0.049 A 
ATOM     59  H   UNL     1       8.251   6.507  16.482  1.00  0.00     0.167 HD
ATOM     60  C   UNL     1       9.995   8.350  17.765  1.00  0.00     0.074 A 
ATOM     61  C   UNL     1      10.864   9.490  17.978  1.00  0.00     0.031 C 
ATOM     62  C   UNL     1       9.611   7.486  18.733  1.00  0.00     0.034 A 
BRANCH  49  63
ATOM     63  C   UNL     1       5.702   3.098  16.875  1.00  0.00     0.023 A 
ATOM     64  C   UNL     1       6.210   1.811  16.609  1.00  0.00     0.012 A 
ATOM     65  C   UNL     1       4.533   3.235  17.651  1.00  0.00     0.148 A 
ATOM     66  C   UNL     1       5.569   0.677  17.106  1.00  0.00     0.002 A 
ATOM     67  C   UNL     1       3.912   2.100  18.164  1.00  0.00     0.091 A 
ATOM     68  F   UNL     1       4.072   4.469  17.899  1.00  0.00    -0.205 F 
ATOM     69  C   UNL     1       4.428   0.822  17.891  1.00  0.00     0.022 A 
BRANCH  67  70
ATOM     70  S   UNL     1       2.467   2.171  19.231  1.00  0.00     0.127 S 
ATOM     71  O   UNL     1       1.467   1.475  18.421  1.00  0.00    -0.237 OA
ATOM     72  O   UNL     1       2.918   1.430  20.409  1.00  0.00    -0.237 OA
ATOM     73  O   UNL     1       2.199   3.584  19.458  1.00  0.00    -0.744 OA
ENDBRANCH  67  70
ENDBRANCH  49  63
BRANCH  50  74
ATOM     74  C   UNL     1      11.107  10.987  14.027  1.00  0.00     0.023 A 
ATOM     75  C   UNL     1      12.502  10.816  13.947  1.00  0.00     0.012 A 
ATOM     76  C   UNL     1      10.530  12.200  13.607  1.00  0.00     0.148 A 
ATOM     77  C   UNL     1      13.312  11.842  13.464  1.00  0.00     0.002 A 
ATOM     78  C   UNL     1      11.339  13.205  13.094  1.00  0.00     0.091 A 
ATOM     79  F   UNL     1       9.198  12.328  13.686  1.00  0.00    -0.205 F 
ATOM     80  C   UNL     1      12.732  13.032  13.030  1.00  0.00     0.022 A 
BRANCH  78  81
ATOM     81  S   UNL     1      10.679  14.736  12.428  1.00  0.00     0.127 S 
ATOM     82  O   UNL     1      11.236  15.724  13.348  1.00  0.00    -0.237 OA
ATOM     83  O   UNL     1      11.255  14.750  11.084  1.00  0.00    -0.237 OA
ATOM     84  O   UNL     1       9.230  14.594  12.466  1.00  0.00    -0.744 OA
ENDBRANCH  78  81
ENDBRANCH  50  74
BRANCH  62  85
ATOM     85  C   UNL     1      10.121   7.716  20.129  1.00  0.00     0.023 A 
ATOM     86  C   UNL     1       9.524   8.711  20.927  1.00  0.00     0.012 A 
ATOM     87  C   UNL     1      11.092   6.863  20.689  1.00  0.00     0.148 A 
ATOM     88  C   UNL     1       9.887   8.854  22.265  1.00  0.00     0.002 A 
ATOM     89  C   UNL     1      11.425   6.990  22.032  1.00  0.00     0.091 A 
ATOM     90  F   UNL     1      11.649   5.930  19.903  1.00  0.00    -0.205 F 
ATOM     91  C   UNL     1      10.826   7.987  22.820  1.00  0.00     0.022 A 
BRANCH  89  92
ATOM     92  S   UNL     1      12.572   5.881  22.857  1.00  0.00     0.127 S 
ATOM     93  O   UNL     1      13.649   6.796  23.236  1.00  0.00    -0.237 OA
ATOM     94  O   UNL     1      11.771   5.387  23.976  1.00  0.00    -0.237 OA
ATOM     95  O   UNL     1      12.941   4.872  21.874  1.00  0.00    -0.744 OA
ENDBRANCH  89  92
ENDBRANCH  62  85
ENDBRANCH  36  37
ENDBRANCH  29  31
ENDBRANCH  28  29
ENDBRANCH  27  28
ENDBRANCH  26  27
ENDBRANCH  25  26
ENDBRANCH  24  25
ENDBRANCH   1  24
TORSDOF 23
