REMARK SMILES Nc1ccc(-c2cc(Cl)cc3c2O[C@H](C(F)(F)F)C(C(=O)OCCOCCOCCOC(=O)c2ccc(-c4c5nc(c(-c6cccc(S(=O)(=O)[O-])c6F)c6ccc([nH]6)c(-c6cccc(S(=O)(=O)[O-])c6F)c6nc(c(-c7cccc(S(=O)(=O)[O-])c7F)c7ccc4[nH]7)C=C6)C=C5)cc2)=C3)cc1
REMARK SMILES IDX 27 1 26 2 25 3 24 4 23 5 22 6 20 7 21 8 19 9 6 10 7 11 12 12
REMARK SMILES IDX 8 13 11 14 13 15 9 16 10 17 97 18 14 19 5 20 2 21 3 22 99 23
REMARK SMILES IDX 4 24 98 25 1 26 15 29 16 30 17 31 18 32 28 33 29 34 30 35
REMARK SMILES IDX 31 36 32 37 33 38 34 39 35 40 96 41 36 42 95 43 37 44 38 45
REMARK SMILES IDX 39 46 89 47 40 48 94 49 88 50 90 51 41 52 93 53 87 54 86 55
REMARK SMILES IDX 42 57 74 58 54 59 73 60 55 61 58 62 72 63 91 64 56 65 57 66
REMARK SMILES IDX 71 68 92 69 59 70 43 71 44 72 52 73 45 74 47 75 53 76 46 77
REMARK SMILES IDX 48 78 49 79 50 80 51 81 75 82 76 83 84 84 77 85 79 86 85 87
REMARK SMILES IDX 78 88 80 89 81 90 82 91 83 92 60 93 61 94 69 95 62 96 64 97
REMARK SMILES IDX 70 98 63 99 65 100 66 101 67 102 68 103
REMARK H PARENT 1 27 1 28 90 56 58 67
REMARK Flexibility Score: inf
ROOT
ATOM      1  C   UNL     1      -6.305  -0.646   5.600  1.00  0.00     0.188 C 
ENDROOT
BRANCH   1   2
ATOM      2  C   UNL     1      -7.627  -1.441   5.526  1.00  0.00     0.188 C 
BRANCH   2   3
ATOM      3  O   UNL     1      -7.827  -2.279   6.642  1.00  0.00    -0.376 OA
BRANCH   3   4
ATOM      4  C   UNL     1      -7.601  -3.670   6.538  1.00  0.00     0.202 C 
BRANCH   4   5
ATOM      5  C   UNL     1      -6.423  -4.281   5.757  1.00  0.00     0.261 C 
BRANCH   5   6
ATOM      6  O   UNL     1      -5.784  -3.454   4.782  1.00  0.00    -0.460 OA
BRANCH   6   7
ATOM      7  C   UNL     1      -6.172  -3.619   3.497  1.00  0.00     0.338 C 
ATOM      8  O   UNL     1      -7.042  -4.372   3.093  1.00  0.00    -0.246 OA
BRANCH   7   9
ATOM      9  C   UNL     1      -5.444  -2.648   2.655  1.00  0.00     0.087 C 
ATOM     10  C   UNL     1      -3.340  -0.062   0.104  1.00  0.00     0.026 A 
ATOM     11  C   UNL     1      -4.070   0.664  -0.853  1.00  0.00     0.033 A 
ATOM     12  C   UNL     1      -4.060  -0.871   1.014  1.00  0.00     0.135 A 
ATOM     13  C   UNL     1      -5.460   0.574  -0.911  1.00  0.00     0.042 A 
ATOM     14  C   UNL     1      -5.453  -1.000   0.917  1.00  0.00     0.019 A 
ATOM     15  O   UNL     1      -3.334  -1.499   1.992  1.00  0.00    -0.475 OA
ATOM     16  Cl  UNL     1      -6.319   1.474  -2.099  1.00  0.00    -0.084 Cl
ATOM     17  C   UNL     1      -6.154  -0.260  -0.040  1.00  0.00     0.032 A 
ATOM     18  C   UNL     1      -6.161  -1.943   1.771  1.00  0.00     0.027 C 
ATOM     19  C   UNL     1      -3.963  -2.476   2.855  1.00  0.00     0.316 C 
BRANCH  10  20
ATOM     20  C   UNL     1      -1.862  -0.017   0.085  1.00  0.00    -0.014 A 
ATOM     21  C   UNL     1       0.977   0.032   0.013  1.00  0.00     0.031 A 
ATOM     22  C   UNL     1       0.287  -1.177  -0.024  1.00  0.00     0.026 A 
ATOM     23  C   UNL     1       0.242   1.218   0.035  1.00  0.00     0.026 A 
ATOM     24  C   UNL     1      -1.111  -1.202   0.016  1.00  0.00     0.011 A 
ATOM     25  C   UNL     1      -1.159   1.196   0.085  1.00  0.00     0.011 A 
BRANCH  21  26
ATOM     26  N   UNL     1       2.358   0.056  -0.104  1.00  0.00    -0.399 N 
ATOM     27  H   UNL     1       2.866  -0.787  -0.118  1.00  0.00     0.156 HD
ATOM     28  H   UNL     1       2.832   0.917  -0.173  1.00  0.00     0.156 HD
ENDBRANCH  21  26
ENDBRANCH  10  20
BRANCH  19  29
ATOM     29  C   UNL     1      -3.189  -3.794   2.716  1.00  0.00     0.430 C 
ATOM     30  F   UNL     1      -1.858  -3.606   2.900  1.00  0.00    -0.167 F 
ATOM     31  F   UNL     1      -3.575  -4.709   3.637  1.00  0.00    -0.167 F 
ATOM     32  F   UNL     1      -3.350  -4.354   1.496  1.00  0.00    -0.167 F 
ENDBRANCH  19  29
ENDBRANCH   7   9
ENDBRANCH   6   7
ENDBRANCH   5   6
ENDBRANCH   4   5
ENDBRANCH   3   4
ENDBRANCH   2   3
ENDBRANCH   1   2
BRANCH   1  33
ATOM     33  O   UNL     1      -5.475  -0.773   6.751  1.00  0.00    -0.376 OA
BRANCH  33  34
ATOM     34  C   UNL     1      -6.061  -0.638   8.043  1.00  0.00     0.202 C 
BRANCH  34  35
ATOM     35  C   UNL     1      -6.853   0.634   8.376  1.00  0.00     0.261 C 
BRANCH  35  36
ATOM     36  O   UNL     1      -7.938   0.909   7.476  1.00  0.00    -0.460 OA
BRANCH  36  37
ATOM     37  C   UNL     1      -7.818   2.044   6.739  1.00  0.00     0.338 C 
ATOM     38  O   UNL     1      -6.917   2.862   6.789  1.00  0.00    -0.246 OA
BRANCH  37  39
ATOM     39  C   UNL     1      -8.861   2.042   5.691  1.00  0.00     0.060 A 
ATOM     40  C   UNL     1     -10.214   1.955   6.023  1.00  0.00     0.016 A 
ATOM     41  C   UNL     1      -8.461   2.118   4.349  1.00  0.00     0.016 A 
ATOM     42  C   UNL     1     -11.170   1.963   5.003  1.00  0.00     0.010 A 
ATOM     43  C   UNL     1      -9.418   2.104   3.333  1.00  0.00     0.010 A 
ATOM     44  C   UNL     1     -10.780   2.044   3.654  1.00  0.00    -0.014 A 
BRANCH  44  45
ATOM     45  C   UNL     1     -11.805   2.244   2.601  1.00  0.00     0.031 A 
ATOM     46  C   UNL     1     -12.307   1.117   1.751  1.00  0.00     0.074 A 
ATOM     47  C   UNL     1     -12.273   3.492   2.411  1.00  0.00     0.049 A 
ATOM     48  N   UNL     1     -13.278   1.130   0.874  1.00  0.00    -0.248 NA
ATOM     49  C   UNL     1     -11.641  -0.186   1.894  1.00  0.00     0.031 C 
ATOM     50  C   UNL     1     -11.810   4.678   3.134  1.00  0.00     0.029 A 
ATOM     51  N   UNL     1     -13.232   3.972   1.557  1.00  0.00    -0.354 N 
ATOM     52  C   UNL     1     -13.347  -0.157   0.359  1.00  0.00     0.074 A 
ATOM     53  C   UNL     1     -12.302  -0.924   1.008  1.00  0.00     0.031 C 
ATOM     54  C   UNL     1     -12.493   5.748   2.700  1.00  0.00     0.029 A 
ATOM     55  C   UNL     1     -13.439   5.325   1.671  1.00  0.00     0.049 A 
ATOM     56  H   UNL     1     -13.724   3.401   0.923  1.00  0.00     0.167 HD
ATOM     57  C   UNL     1     -14.220  -0.654  -0.550  1.00  0.00     0.034 A 
ATOM     58  C   UNL     1     -14.304   6.136   1.034  1.00  0.00     0.034 A 
ATOM     59  C   UNL     1     -15.265   0.111  -1.179  1.00  0.00     0.049 A 
ATOM     60  C   UNL     1     -15.272   5.556   0.046  1.00  0.00     0.074 A 
ATOM     61  C   UNL     1     -16.242  -0.333  -2.055  1.00  0.00     0.029 A 
ATOM     62  N   UNL     1     -15.465   1.472  -1.018  1.00  0.00    -0.354 N 
ATOM     63  N   UNL     1     -15.428   4.304  -0.309  1.00  0.00    -0.248 NA
ATOM     64  C   UNL     1     -16.204   6.488  -0.604  1.00  0.00     0.031 C 
ATOM     65  C   UNL     1     -17.024   0.762  -2.433  1.00  0.00     0.029 A 
ATOM     66  C   UNL     1     -16.542   1.887  -1.784  1.00  0.00     0.049 A 
ATOM     67  H   UNL     1     -14.922   2.059  -0.443  1.00  0.00     0.167 HD
ATOM     68  C   UNL     1     -16.488   4.293  -1.207  1.00  0.00     0.074 A 
ATOM     69  C   UNL     1     -16.946   5.662  -1.332  1.00  0.00     0.031 C 
ATOM     70  C   UNL     1     -17.020   3.242  -1.875  1.00  0.00     0.034 A 
BRANCH  57  71
ATOM     71  C   UNL     1     -14.151  -2.120  -0.878  1.00  0.00     0.023 A 
ATOM     72  C   UNL     1     -14.730  -3.042   0.016  1.00  0.00     0.012 A 
ATOM     73  C   UNL     1     -13.653  -2.570  -2.116  1.00  0.00     0.148 A 
ATOM     74  C   UNL     1     -14.814  -4.393  -0.316  1.00  0.00     0.002 A 
ATOM     75  C   UNL     1     -13.764  -3.915  -2.451  1.00  0.00     0.091 A 
ATOM     76  F   UNL     1     -13.101  -1.674  -2.946  1.00  0.00    -0.205 F 
ATOM     77  C   UNL     1     -14.342  -4.827  -1.552  1.00  0.00     0.022 A 
BRANCH  75  78
ATOM     78  S   UNL     1     -13.243  -4.572  -4.040  1.00  0.00     0.127 S 
ATOM     79  O   UNL     1     -12.140  -5.450  -3.647  1.00  0.00    -0.237 OA
ATOM     80  O   UNL     1     -14.446  -5.270  -4.494  1.00  0.00    -0.237 OA
ATOM     81  O   UNL     1     -12.860  -3.422  -4.847  1.00  0.00    -0.744 OA
ENDBRANCH  75  78
ENDBRANCH  57  71
BRANCH  58  82
ATOM     82  C   UNL     1     -14.340   7.576   1.399  1.00  0.00     0.023 A 
ATOM     83  C   UNL     1     -15.374   8.047   2.229  1.00  0.00     0.012 A 
ATOM     84  C   UNL     1     -13.311   8.452   1.006  1.00  0.00     0.148 A 
ATOM     85  C   UNL     1     -15.387   9.374   2.659  1.00  0.00     0.002 A 
ATOM     86  C   UNL     1     -13.309   9.762   1.468  1.00  0.00     0.091 A 
ATOM     87  F   UNL     1     -12.339   7.973   0.216  1.00  0.00    -0.205 F 
ATOM     88  C   UNL     1     -14.350  10.227   2.288  1.00  0.00     0.022 A 
BRANCH  86  89
ATOM     89  S   UNL     1     -11.966  10.906   1.133  1.00  0.00     0.127 S 
ATOM     90  O   UNL     1     -12.641  11.935   0.346  1.00  0.00    -0.237 OA
ATOM     91  O   UNL     1     -11.581  11.316   2.484  1.00  0.00    -0.237 OA
ATOM     92  O   UNL     1     -10.956  10.136   0.421  1.00  0.00    -0.744 OA
ENDBRANCH  86  89
ENDBRANCH  58  82
BRANCH  70  93
ATOM     93  C   UNL     1     -18.165   3.507  -2.813  1.00  0.00     0.023 A 
ATOM     94  C   UNL     1     -17.901   4.045  -4.087  1.00  0.00     0.012 A 
ATOM     95  C   UNL     1     -19.477   3.115  -2.480  1.00  0.00     0.148 A 
ATOM     96  C   UNL     1     -18.929   4.197  -5.017  1.00  0.00     0.002 A 
ATOM     97  C   UNL     1     -20.490   3.239  -3.424  1.00  0.00     0.091 A 
ATOM     98  F   UNL     1     -19.702   2.614  -1.257  1.00  0.00    -0.205 F 
ATOM     99  C   UNL     1     -20.219   3.784  -4.690  1.00  0.00     0.022 A 
BRANCH  97 100
ATOM    100  S   UNL     1     -22.169   2.671  -3.126  1.00  0.00     0.127 S 
ATOM    101  O   UNL     1     -22.914   3.929  -3.131  1.00  0.00    -0.237 OA
ATOM    102  O   UNL     1     -22.414   1.812  -4.284  1.00  0.00    -0.237 OA
ATOM    103  O   UNL     1     -22.140   1.975  -1.847  1.00  0.00    -0.744 OA
ENDBRANCH  97 100
ENDBRANCH  70  93
ENDBRANCH  44  45
ENDBRANCH  37  39
ENDBRANCH  36  37
ENDBRANCH  35  36
ENDBRANCH  34  35
ENDBRANCH  33  34
ENDBRANCH   1  33
TORSDOF 23
