REMARK SMILES COc1ccc(NC(=O)[C@H](CC(=O)OCCOCCOCCOC(=O)c2ccc(-c3c4nc(c(-c5cccc(S(=O)(=O)[O-])c5F)c5ccc([nH]5)c(-c5cccc(S(=O)(=O)[O-])c5F)c5nc(c(-c6cccc(S(=O)(=O)[O-])c6F)c6ccc3[nH]6)C=C5)C=C4)cc2)Cc2ccccc2)cc1
REMARK SMILES IDX 18 1 17 2 16 3 15 4 14 5 12 6 13 7 11 8 10 9 8 10 7 11 9 13
REMARK SMILES IDX 6 14 3 15 4 16 97 17 5 18 96 19 2 20 1 21 89 22 90 23 91 24
REMARK SMILES IDX 95 25 92 26 94 27 93 28 19 29 20 30 21 31 22 32 23 33 24 34
REMARK SMILES IDX 25 35 26 36 27 37 88 38 28 39 87 40 29 41 30 42 31 43 81 44
REMARK SMILES IDX 32 45 86 46 80 47 82 48 33 49 85 50 79 51 78 52 34 54 66 55
REMARK SMILES IDX 46 56 65 57 47 58 50 59 64 60 83 61 48 62 49 63 63 65 84 66
REMARK SMILES IDX 51 67 35 68 36 69 44 70 37 71 39 72 45 73 38 74 40 75 41 76
REMARK SMILES IDX 42 77 43 78 67 79 68 80 76 81 69 82 71 83 77 84 70 85 72 86
REMARK SMILES IDX 73 87 74 88 75 89 52 90 53 91 61 92 54 93 56 94 62 95 55 96
REMARK SMILES IDX 57 97 58 98 59 99 60 100
REMARK H PARENT 7 12 82 53 50 64
REMARK Flexibility Score: inf
ROOT
ATOM      1  C   UNL     1      -0.271 -10.595  -3.274  1.00  0.00     0.188 C 
ENDROOT
BRANCH   1   2
ATOM      2  O   UNL     1       0.167 -11.929  -3.151  1.00  0.00    -0.376 OA
BRANCH   2   3
ATOM      3  C   UNL     1       0.365 -12.397  -1.827  1.00  0.00     0.202 C 
BRANCH   3   4
ATOM      4  C   UNL     1       1.237 -11.556  -0.858  1.00  0.00     0.261 C 
BRANCH   4   5
ATOM      5  O   UNL     1       0.690 -10.268  -0.422  1.00  0.00    -0.463 OA
BRANCH   5   6
ATOM      6  C   UNL     1       1.455  -9.171  -0.636  1.00  0.00     0.306 C 
ATOM      7  O   UNL     1       2.630  -9.257  -0.994  1.00  0.00    -0.252 OA
BRANCH   6   8
ATOM      8  C   UNL     1       0.863  -7.758  -0.402  1.00  0.00     0.136 C 
BRANCH   8   9
ATOM      9  C   UNL     1      -0.615  -7.247  -0.204  1.00  0.00     0.094 C 
BRANCH   9  10
ATOM     10  C   UNL     1      -0.518  -6.297   1.003  1.00  0.00     0.228 C 
ATOM     11  N   UNL     1       0.288  -5.184   1.043  1.00  0.00    -0.326 N 
ATOM     12  H   UNL     1       0.273  -4.756   1.929  1.00  0.00     0.169 HD
ATOM     13  O   UNL     1      -1.165  -6.553   2.026  1.00  0.00    -0.274 OA
BRANCH  11  14
ATOM     14  C   UNL     1       1.136  -4.493   0.141  1.00  0.00     0.041 A 
ATOM     15  C   UNL     1       2.905  -3.005  -1.498  1.00  0.00     0.119 A 
ATOM     16  C   UNL     1       2.068  -3.956  -2.053  1.00  0.00     0.048 A 
ATOM     17  C   UNL     1       2.851  -2.762  -0.130  1.00  0.00     0.048 A 
ATOM     18  C   UNL     1       1.198  -4.684  -1.236  1.00  0.00     0.030 A 
ATOM     19  C   UNL     1       1.970  -3.501   0.680  1.00  0.00     0.030 A 
BRANCH  15  20
ATOM     20  O   UNL     1       3.669  -2.277  -2.363  1.00  0.00    -0.497 OA
ATOM     21  C   UNL     1       5.061  -2.360  -2.076  1.00  0.00     0.278 C 
ENDBRANCH  15  20
ENDBRANCH  11  14
ENDBRANCH   9  10
BRANCH   9  22
ATOM     22  C   UNL     1      -1.593  -6.441  -1.202  1.00  0.00     0.049 C 
BRANCH  22  23
ATOM     23  C   UNL     1      -1.652  -6.600  -2.716  1.00  0.00    -0.047 A 
ATOM     24  C   UNL     1      -2.785  -5.619  -3.713  1.00  0.00     0.004 A 
ATOM     25  C   UNL     1      -0.366  -7.566  -3.443  1.00  0.00     0.004 A 
ATOM     26  C   UNL     1      -2.576  -5.659  -5.526  1.00  0.00     0.000 A 
ATOM     27  C   UNL     1      -0.064  -7.733  -5.127  1.00  0.00     0.000 A 
ATOM     28  C   UNL     1      -1.085  -6.827  -6.236  1.00  0.00     0.000 A 
ENDBRANCH  22  23
ENDBRANCH   9  22
ENDBRANCH   8   9
ENDBRANCH   6   8
ENDBRANCH   5   6
ENDBRANCH   4   5
ENDBRANCH   3   4
ENDBRANCH   2   3
ENDBRANCH   1   2
BRANCH   1  29
ATOM     29  C   UNL     1      -1.342 -10.100  -2.284  1.00  0.00     0.188 C 
BRANCH  29  30
ATOM     30  O   UNL     1      -2.349 -10.944  -1.802  1.00  0.00    -0.376 OA
BRANCH  30  31
ATOM     31  C   UNL     1      -3.237 -11.476  -2.757  1.00  0.00     0.202 C 
BRANCH  31  32
ATOM     32  C   UNL     1      -3.755 -10.647  -3.952  1.00  0.00     0.261 C 
BRANCH  32  33
ATOM     33  O   UNL     1      -2.908  -9.617  -4.490  1.00  0.00    -0.460 OA
BRANCH  33  34
ATOM     34  C   UNL     1      -3.136  -8.347  -4.024  1.00  0.00     0.338 C 
ATOM     35  O   UNL     1      -3.991  -8.059  -3.202  1.00  0.00    -0.246 OA
BRANCH  34  36
ATOM     36  C   UNL     1      -2.237  -7.382  -4.840  1.00  0.00     0.060 A 
ATOM     37  C   UNL     1      -0.939  -5.838  -4.640  1.00  0.00     0.016 A 
ATOM     38  C   UNL     1      -3.066  -7.535  -6.450  1.00  0.00     0.016 A 
ATOM     39  C   UNL     1      -0.681  -4.724  -5.987  1.00  0.00     0.010 A 
ATOM     40  C   UNL     1      -2.681  -6.377  -7.710  1.00  0.00     0.010 A 
ATOM     41  C   UNL     1      -1.516  -5.052  -7.479  1.00  0.00    -0.014 A 
BRANCH  41  42
ATOM     42  C   UNL     1      -0.991  -4.270  -8.601  1.00  0.00     0.031 A 
ATOM     43  C   UNL     1      -1.939  -3.380  -9.300  1.00  0.00     0.074 A 
ATOM     44  C   UNL     1       0.346  -4.271  -8.807  1.00  0.00     0.049 A 
ATOM     45  N   UNL     1      -1.676  -2.397 -10.106  1.00  0.00    -0.248 NA
ATOM     46  C   UNL     1      -3.372  -3.597  -9.041  1.00  0.00     0.031 C 
ATOM     47  C   UNL     1       1.321  -5.147  -8.136  1.00  0.00     0.029 A 
ATOM     48  N   UNL     1       1.139  -3.469  -9.582  1.00  0.00    -0.354 N 
ATOM     49  C   UNL     1      -2.910  -1.881 -10.456  1.00  0.00     0.074 A 
ATOM     50  C   UNL     1      -3.924  -2.670  -9.802  1.00  0.00     0.031 C 
ATOM     51  C   UNL     1       2.568  -4.772  -8.450  1.00  0.00     0.029 A 
ATOM     52  C   UNL     1       2.492  -3.685  -9.406  1.00  0.00     0.049 A 
ATOM     53  H   UNL     1       0.778  -2.799 -10.207  1.00  0.00     0.167 HD
ATOM     54  C   UNL     1      -3.157  -0.826 -11.255  1.00  0.00     0.034 A 
ATOM     55  C   UNL     1       3.549  -3.067  -9.965  1.00  0.00     0.034 A 
ATOM     56  C   UNL     1      -2.112  -0.115 -11.926  1.00  0.00     0.049 A 
ATOM     57  C   UNL     1       3.229  -1.940 -10.902  1.00  0.00     0.074 A 
ATOM     58  C   UNL     1      -2.216   0.917 -12.832  1.00  0.00     0.029 A 
ATOM     59  N   UNL     1      -0.759  -0.404 -11.782  1.00  0.00    -0.354 N 
ATOM     60  N   UNL     1       2.055  -1.423 -11.188  1.00  0.00    -0.248 NA
ATOM     61  C   UNL     1       4.356  -1.301 -11.586  1.00  0.00     0.031 C 
ATOM     62  C   UNL     1      -0.927   1.212 -13.284  1.00  0.00     0.029 A 
ATOM     63  C   UNL     1      -0.014   0.415 -12.604  1.00  0.00     0.049 A 
ATOM     64  H   UNL     1      -0.388  -1.091 -11.183  1.00  0.00     0.167 HD
ATOM     65  C   UNL     1       2.300  -0.387 -12.072  1.00  0.00     0.074 A 
ATOM     66  C   UNL     1       3.741  -0.330 -12.245  1.00  0.00     0.031 C 
ATOM     67  C   UNL     1       1.425   0.433 -12.702  1.00  0.00     0.034 A 
BRANCH  54  68
ATOM     68  C   UNL     1      -4.599  -0.494 -11.486  1.00  0.00     0.023 A 
ATOM     69  C   UNL     1      -5.388   0.042 -10.446  1.00  0.00     0.012 A 
ATOM     70  C   UNL     1      -5.193  -0.808 -12.720  1.00  0.00     0.148 A 
ATOM     71  C   UNL     1      -6.760   0.215 -10.620  1.00  0.00     0.002 A 
ATOM     72  C   UNL     1      -6.548  -0.581 -12.904  1.00  0.00     0.091 A 
ATOM     73  F   UNL     1      -4.431  -1.364 -13.671  1.00  0.00    -0.205 F 
ATOM     74  C   UNL     1      -7.338  -0.088 -11.851  1.00  0.00     0.022 A 
BRANCH  72  75
ATOM     75  S   UNL     1      -7.370  -0.889 -14.467  1.00  0.00     0.127 S 
ATOM     76  O   UNL     1      -8.353  -1.905 -14.091  1.00  0.00    -0.237 OA
ATOM     77  O   UNL     1      -7.934   0.426 -14.771  1.00  0.00    -0.237 OA
ATOM     78  O   UNL     1      -6.337  -1.344 -15.387  1.00  0.00    -0.744 OA
ENDBRANCH  72  75
ENDBRANCH  54  68
BRANCH  55  79
ATOM     79  C   UNL     1       4.954  -3.496  -9.682  1.00  0.00     0.023 A 
ATOM     80  C   UNL     1       5.875  -2.605  -9.095  1.00  0.00     0.012 A 
ATOM     81  C   UNL     1       5.394  -4.795 -10.017  1.00  0.00     0.148 A 
ATOM     82  C   UNL     1       7.207  -2.981  -8.891  1.00  0.00     0.002 A 
ATOM     83  C   UNL     1       6.705  -5.182  -9.759  1.00  0.00     0.091 A 
ATOM     84  F   UNL     1       4.517  -5.633 -10.588  1.00  0.00    -0.205 F 
ATOM     85  C   UNL     1       7.620  -4.270  -9.216  1.00  0.00     0.022 A 
BRANCH  83  86
ATOM     86  S   UNL     1       7.287  -6.858 -10.044  1.00  0.00     0.127 S 
ATOM     87  O   UNL     1       8.197  -6.670 -11.172  1.00  0.00    -0.237 OA
ATOM     88  O   UNL     1       7.939  -7.171  -8.772  1.00  0.00    -0.237 OA
ATOM     89  O   UNL     1       6.095  -7.648 -10.319  1.00  0.00    -0.744 OA
ENDBRANCH  83  86
ENDBRANCH  55  79
BRANCH  67  90
ATOM     90  C   UNL     1       2.014   1.484 -13.592  1.00  0.00     0.023 A 
ATOM     91  C   UNL     1       2.583   1.128 -14.829  1.00  0.00     0.012 A 
ATOM     92  C   UNL     1       1.906   2.838 -13.228  1.00  0.00     0.148 A 
ATOM     93  C   UNL     1       3.068   2.114 -15.683  1.00  0.00     0.002 A 
ATOM     94  C   UNL     1       2.328   3.815 -14.112  1.00  0.00     0.091 A 
ATOM     95  F   UNL     1       1.375   3.139 -12.034  1.00  0.00    -0.205 F 
ATOM     96  C   UNL     1       2.925   3.456 -15.332  1.00  0.00     0.022 A 
BRANCH  94  97
ATOM     97  S   UNL     1       2.065   5.560 -13.797  1.00  0.00     0.127 S 
ATOM     98  O   UNL     1       3.431   6.029 -13.572  1.00  0.00    -0.237 OA
ATOM     99  O   UNL     1       1.461   6.010 -15.051  1.00  0.00    -0.237 OA
ATOM    100  O   UNL     1       1.183   5.635 -12.640  1.00  0.00    -0.744 OA
ENDBRANCH  94  97
ENDBRANCH  67  90
ENDBRANCH  41  42
ENDBRANCH  34  36
ENDBRANCH  33  34
ENDBRANCH  32  33
ENDBRANCH  31  32
ENDBRANCH  30  31
ENDBRANCH  29  30
ENDBRANCH   1  29
TORSDOF 26
