REMARK SMILES Cc1ccc2cc(C[N@H+]3CC[NH2+][C@H](C(=O)OCCOCCOCCOC(=O)c4ccc(-c5c6nc(c(-c7cccc(S(=O)(=O)[O-])c7F)c7ccc([nH]7)c(-c7cccc(S(=O)(=O)[O-])c7F)c7nc(c(-c8cccc(S(=O)(=O)[O-])c8F)c8ccc5[nH]8)C=C7)C=C6)cc4)C3)c(N3CCOCC3)nc2c1
REMARK SMILES IDX 20 1 19 2 18 3 17 4 16 5 14 6 15 7 13 8 9 9 10 10 91 11
REMARK SMILES IDX 11 13 12 14 8 17 7 18 1 19 2 20 3 21 101 22 4 23 100 24 5 25
REMARK SMILES IDX 99 26 6 27 92 28 93 29 94 30 98 31 95 32 97 33 96 34 21 35
REMARK SMILES IDX 22 36 23 37 24 38 25 39 26 40 27 41 28 42 29 43 90 44 30 45
REMARK SMILES IDX 89 46 31 47 32 48 33 49 83 50 34 51 88 52 82 53 84 54 35 55
REMARK SMILES IDX 87 56 81 57 80 58 36 60 68 61 48 62 67 63 49 64 52 65 66 66
REMARK SMILES IDX 85 67 50 68 51 69 65 71 86 72 53 73 37 74 38 75 46 76 39 77
REMARK SMILES IDX 41 78 47 79 40 80 42 81 43 82 44 83 45 84 69 85 70 86 78 87
REMARK SMILES IDX 71 88 73 89 79 90 72 91 74 92 75 93 76 94 77 95 54 96 55 97
REMARK SMILES IDX 63 98 56 99 58 100 64 101 57 102 59 103 60 104 61 105 62 106
REMARK H PARENT 9 12 12 15 12 16 84 59 52 70
REMARK Flexibility Score: inf
ROOT
ATOM      1  C   UNL     1       2.812  -4.567  -5.492  1.00  0.00     0.188 C 
ENDROOT
BRANCH   1   2
ATOM      2  O   UNL     1       2.589  -5.926  -5.149  1.00  0.00    -0.376 OA
BRANCH   2   3
ATOM      3  C   UNL     1       1.423  -6.191  -4.386  1.00  0.00     0.202 C 
BRANCH   3   4
ATOM      4  C   UNL     1       0.087  -5.988  -5.118  1.00  0.00     0.261 C 
BRANCH   4   5
ATOM      5  O   UNL     1      -0.072  -4.719  -5.776  1.00  0.00    -0.459 OA
BRANCH   5   6
ATOM      6  C   UNL     1      -0.123  -3.634  -4.964  1.00  0.00     0.371 C 
ATOM      7  O   UNL     1      -0.110  -3.714  -3.740  1.00  0.00    -0.245 OA
BRANCH   6   8
ATOM      8  C   UNL     1      -0.163  -2.314  -5.740  1.00  0.00     0.348 C 
ATOM      9  N   UNL     1      -1.216  -1.047  -7.626  1.00  0.00    -0.321 N 
ATOM     10  C   UNL     1       0.008  -0.225  -7.688  1.00  0.00     0.324 C 
ATOM     11  C   UNL     1      -0.873  -2.378  -7.102  1.00  0.00     0.341 C 
ATOM     12  H   UNL     1      -1.557  -1.156  -8.581  1.00  0.00     0.348 HD
ATOM     13  C   UNL     1       0.937  -0.237  -6.439  1.00  0.00     0.323 C 
ATOM     14  N   UNL     1       1.085  -1.509  -5.700  1.00  0.00    -0.325 N 
ATOM     15  H   UNL     1       1.314  -1.302  -4.728  1.00  0.00     0.347 HD
ATOM     16  H   UNL     1       1.827  -2.050  -6.143  1.00  0.00     0.347 HD
BRANCH   9  17
ATOM     17  C   UNL     1      -2.410  -0.404  -7.012  1.00  0.00     0.303 C 
BRANCH  17  18
ATOM     18  C   UNL     1      -2.295   0.256  -5.642  1.00  0.00     0.049 A 
ATOM     19  C   UNL     1       0.891   0.533  -0.038  1.00  0.00     0.044 C 
ATOM     20  C   UNL     1      -0.044   0.301  -1.188  1.00  0.00    -0.049 A 
ATOM     21  C   UNL     1      -0.666  -0.939  -1.305  1.00  0.00     0.004 A 
ATOM     22  C   UNL     1      -0.266   1.275  -2.186  1.00  0.00     0.032 A 
ATOM     23  C   UNL     1      -1.545  -1.172  -2.354  1.00  0.00     0.010 A 
ATOM     24  C   UNL     1      -1.090   1.042  -3.296  1.00  0.00     0.073 A 
ATOM     25  C   UNL     1      -1.750  -0.197  -3.345  1.00  0.00     0.001 A 
ATOM     26  N   UNL     1      -1.204   1.932  -4.317  1.00  0.00    -0.230 NA
ATOM     27  C   UNL     1      -2.476  -0.517  -4.493  1.00  0.00     0.023 A 
ATOM     28  C   UNL     1      -1.800   1.554  -5.476  1.00  0.00     0.138 A 
BRANCH  28  29
ATOM     29  N   UNL     1      -1.850   2.435  -6.540  1.00  0.00    -0.352 N 
ATOM     30  C   UNL     1      -3.170   2.795  -7.070  1.00  0.00     0.146 C 
ATOM     31  C   UNL     1      -0.859   3.502  -6.683  1.00  0.00     0.146 C 
ATOM     32  C   UNL     1      -3.001   3.122  -8.559  1.00  0.00     0.181 C 
ATOM     33  C   UNL     1      -0.784   3.877  -8.182  1.00  0.00     0.181 C 
ATOM     34  O   UNL     1      -2.075   4.207  -8.743  1.00  0.00    -0.378 OA
ENDBRANCH  28  29
ENDBRANCH  17  18
ENDBRANCH   9  17
ENDBRANCH   6   8
ENDBRANCH   5   6
ENDBRANCH   4   5
ENDBRANCH   3   4
ENDBRANCH   2   3
ENDBRANCH   1   2
BRANCH   1  35
ATOM     35  C   UNL     1       2.525  -4.249  -6.981  1.00  0.00     0.188 C 
BRANCH  35  36
ATOM     36  O   UNL     1       2.331  -5.293  -7.918  1.00  0.00    -0.376 OA
BRANCH  36  37
ATOM     37  C   UNL     1       3.194  -6.410  -7.848  1.00  0.00     0.202 C 
BRANCH  37  38
ATOM     38  C   UNL     1       4.710  -6.163  -7.909  1.00  0.00     0.261 C 
BRANCH  38  39
ATOM     39  O   UNL     1       5.228  -5.160  -7.007  1.00  0.00    -0.460 OA
BRANCH  39  40
ATOM     40  C   UNL     1       5.625  -3.986  -7.569  1.00  0.00     0.338 C 
ATOM     41  O   UNL     1       5.636  -3.726  -8.764  1.00  0.00    -0.246 OA
BRANCH  40  42
ATOM     42  C   UNL     1       5.839  -2.950  -6.520  1.00  0.00     0.060 A 
ATOM     43  C   UNL     1       6.713  -3.160  -5.454  1.00  0.00     0.016 A 
ATOM     44  C   UNL     1       5.165  -1.721  -6.631  1.00  0.00     0.016 A 
ATOM     45  C   UNL     1       6.951  -2.122  -4.539  1.00  0.00     0.010 A 
ATOM     46  C   UNL     1       5.388  -0.693  -5.703  1.00  0.00     0.010 A 
ATOM     47  C   UNL     1       6.315  -0.868  -4.669  1.00  0.00    -0.014 A 
BRANCH  47  48
ATOM     48  C   UNL     1       6.836   0.297  -3.898  1.00  0.00     0.031 A 
ATOM     49  C   UNL     1       6.152   0.878  -2.695  1.00  0.00     0.074 A 
ATOM     50  C   UNL     1       7.993   0.850  -4.317  1.00  0.00     0.049 A 
ATOM     51  N   UNL     1       6.639   1.716  -1.812  1.00  0.00    -0.248 NA
ATOM     52  C   UNL     1       4.754   0.498  -2.457  1.00  0.00     0.031 C 
ATOM     53  C   UNL     1       8.712   0.465  -5.533  1.00  0.00     0.029 A 
ATOM     54  N   UNL     1       8.774   1.835  -3.765  1.00  0.00    -0.354 N 
ATOM     55  C   UNL     1       5.623   1.943  -0.893  1.00  0.00     0.074 A 
ATOM     56  C   UNL     1       4.475   1.198  -1.361  1.00  0.00     0.031 C 
ATOM     57  C   UNL     1       9.849   1.171  -5.612  1.00  0.00     0.029 A 
ATOM     58  C   UNL     1       9.943   2.057  -4.454  1.00  0.00     0.049 A 
ATOM     59  H   UNL     1       8.521   2.335  -2.955  1.00  0.00     0.167 HD
ATOM     60  C   UNL     1       5.654   2.675   0.248  1.00  0.00     0.034 A 
ATOM     61  C   UNL     1      10.995   2.852  -4.175  1.00  0.00     0.034 A 
ATOM     62  C   UNL     1       6.787   3.442   0.695  1.00  0.00     0.049 A 
ATOM     63  C   UNL     1      11.011   3.653  -2.905  1.00  0.00     0.074 A 
ATOM     64  C   UNL     1       6.930   4.149   1.878  1.00  0.00     0.029 A 
ATOM     65  N   UNL     1       7.954   3.630  -0.025  1.00  0.00    -0.354 N 
ATOM     66  N   UNL     1      10.133   3.669  -1.935  1.00  0.00    -0.248 NA
ATOM     67  C   UNL     1      12.177   4.521  -2.676  1.00  0.00     0.031 C 
ATOM     68  C   UNL     1       8.174   4.785   1.863  1.00  0.00     0.029 A 
ATOM     69  C   UNL     1       8.810   4.459   0.677  1.00  0.00     0.049 A 
ATOM     70  H   UNL     1       8.145   3.232  -0.905  1.00  0.00     0.167 HD
ATOM     71  C   UNL     1      10.647   4.529  -0.972  1.00  0.00     0.074 A 
ATOM     72  C   UNL     1      11.921   5.005  -1.466  1.00  0.00     0.031 C 
ATOM     73  C   UNL     1      10.098   4.898   0.208  1.00  0.00     0.034 A 
BRANCH  60  74
ATOM     74  C   UNL     1       4.475   2.618   1.185  1.00  0.00     0.023 A 
ATOM     75  C   UNL     1       4.378   1.516   2.059  1.00  0.00     0.012 A 
ATOM     76  C   UNL     1       3.610   3.716   1.357  1.00  0.00     0.148 A 
ATOM     77  C   UNL     1       3.445   1.508   3.094  1.00  0.00     0.002 A 
ATOM     78  C   UNL     1       2.694   3.710   2.405  1.00  0.00     0.091 A 
ATOM     79  F   UNL     1       3.729   4.758   0.522  1.00  0.00    -0.205 F 
ATOM     80  C   UNL     1       2.612   2.608   3.274  1.00  0.00     0.022 A 
BRANCH  78  81
ATOM     81  S   UNL     1       1.605   5.094   2.767  1.00  0.00     0.127 S 
ATOM     82  O   UNL     1       0.288   4.476   2.612  1.00  0.00    -0.237 OA
ATOM     83  O   UNL     1       1.969   5.417   4.146  1.00  0.00    -0.237 OA
ATOM     84  O   UNL     1       1.920   6.123   1.786  1.00  0.00    -0.744 OA
ENDBRANCH  78  81
ENDBRANCH  60  74
BRANCH  61  85
ATOM     85  C   UNL     1      12.174   2.838  -5.081  1.00  0.00     0.023 A 
ATOM     86  C   UNL     1      13.343   2.167  -4.673  1.00  0.00     0.012 A 
ATOM     87  C   UNL     1      12.123   3.431  -6.355  1.00  0.00     0.148 A 
ATOM     88  C   UNL     1      14.450   2.099  -5.518  1.00  0.00     0.002 A 
ATOM     89  C   UNL     1      13.216   3.328  -7.206  1.00  0.00     0.091 A 
ATOM     90  F   UNL     1      10.997   4.063  -6.715  1.00  0.00    -0.205 F 
ATOM     91  C   UNL     1      14.383   2.671  -6.786  1.00  0.00     0.022 A 
BRANCH  89  92
ATOM     92  S   UNL     1      13.192   3.951  -8.890  1.00  0.00     0.127 S 
ATOM     93  O   UNL     1      14.171   5.032  -8.820  1.00  0.00    -0.237 OA
ATOM     94  O   UNL     1      13.622   2.777  -9.650  1.00  0.00    -0.237 OA
ATOM     95  O   UNL     1      11.817   4.363  -9.140  1.00  0.00    -0.744 OA
ENDBRANCH  89  92
ENDBRANCH  61  85
BRANCH  73  96
ATOM     96  C   UNL     1      10.843   5.871   1.079  1.00  0.00     0.023 A 
ATOM     97  C   UNL     1      10.782   7.245   0.777  1.00  0.00     0.012 A 
ATOM     98  C   UNL     1      11.457   5.446   2.274  1.00  0.00     0.148 A 
ATOM     99  C   UNL     1      11.318   8.185   1.657  1.00  0.00     0.002 A 
ATOM    100  C   UNL     1      11.960   6.391   3.160  1.00  0.00     0.091 A 
ATOM    101  F   UNL     1      11.500   4.132   2.535  1.00  0.00    -0.205 F 
ATOM    102  C   UNL     1      11.894   7.760   2.852  1.00  0.00     0.022 A 
BRANCH 100 103
ATOM    103  S   UNL     1      12.658   5.952   4.757  1.00  0.00     0.127 S 
ATOM    104  O   UNL     1      14.030   6.442   4.628  1.00  0.00    -0.237 OA
ATOM    105  O   UNL     1      11.821   6.720   5.679  1.00  0.00    -0.237 OA
ATOM    106  O   UNL     1      12.532   4.506   4.872  1.00  0.00    -0.744 OA
ENDBRANCH 100 103
ENDBRANCH  73  96
ENDBRANCH  47  48
ENDBRANCH  40  42
ENDBRANCH  39  40
ENDBRANCH  38  39
ENDBRANCH  37  38
ENDBRANCH  36  37
ENDBRANCH  35  36
ENDBRANCH   1  35
TORSDOF 23
