REMARK SMILES CC/C=C/C/C=C/C/C=C/C/C=C/CC/C=C/COCC(=O)OCCOCCOCCOC(=O)c1ccc(-c2c3nc(c(-c4cccc(S(=O)(=O)[O-])c4F)c4ccc([nH]4)c(-c4cccc(S(=O)(=O)[O-])c4F)c4nc(c(-c5cccc(S(=O)(=O)[O-])c5F)c5ccc2[nH]5)C=C4)C=C3)cc1
REMARK SMILES IDX 21 1 22 2 20 3 19 4 18 5 17 6 16 7 15 8 14 9 13 10 12 11
REMARK SMILES IDX 11 12 10 13 9 14 8 15 7 16 6 17 5 18 4 19 3 20 2 21 1 22
REMARK SMILES IDX 23 23 24 24 25 25 26 26 27 27 28 28 29 29 30 30 31 31 32 32
REMARK SMILES IDX 33 33 34 34 35 35 36 36 97 37 37 38 96 39 38 40 39 41 40 42
REMARK SMILES IDX 90 43 41 44 95 45 89 46 91 47 42 48 94 49 88 50 87 51 43 53
REMARK SMILES IDX 75 54 55 55 74 56 56 57 59 58 73 59 92 60 57 61 58 62 72 64
REMARK SMILES IDX 93 65 60 66 44 67 45 68 53 69 46 70 48 71 54 72 47 73 49 74
REMARK SMILES IDX 50 75 51 76 52 77 76 78 77 79 85 80 78 81 80 82 86 83 79 84
REMARK SMILES IDX 81 85 82 86 83 87 84 88 61 89 62 90 70 91 63 92 65 93 71 94
REMARK SMILES IDX 64 95 66 96 67 97 68 98 69 99
REMARK H PARENT 91 52 59 63
REMARK Flexibility Score: inf
ROOT
ATOM      1  C   UNL     1     -10.834  -8.511  -9.546  1.00  0.00     0.332 C 
ATOM      2  O   UNL     1     -11.350  -7.968  -8.572  1.00  0.00    -0.250 OA
ENDROOT
BRANCH   1   3
ATOM      3  C   UNL     1     -11.010  -7.936 -10.958  1.00  0.00     0.283 C 
BRANCH   3   4
ATOM      4  O   UNL     1     -10.318  -8.366 -12.115  1.00  0.00    -0.366 OA
BRANCH   4   5
ATOM      5  C   UNL     1      -8.945  -7.986 -12.212  1.00  0.00     0.188 C 
BRANCH   5   6
ATOM      6  C   UNL     1      -8.737  -6.524 -11.932  1.00  0.00    -0.003 C 
ATOM      7  C   UNL     1      -7.977  -6.075 -10.920  1.00  0.00    -0.029 C 
BRANCH   7   8
ATOM      8  C   UNL     1      -7.858  -4.644 -10.473  1.00  0.00     0.031 C 
BRANCH   8   9
ATOM      9  C   UNL     1      -8.159  -4.404  -8.963  1.00  0.00     0.031 C 
BRANCH   9  10
ATOM     10  C   UNL     1      -7.301  -5.164  -7.966  1.00  0.00    -0.031 C 
ATOM     11  C   UNL     1      -6.443  -4.676  -7.048  1.00  0.00    -0.027 C 
BRANCH  11  12
ATOM     12  C   UNL     1      -5.542  -5.470  -6.132  1.00  0.00     0.054 C 
BRANCH  12  13
ATOM     13  C   UNL     1      -4.063  -5.253  -6.396  1.00  0.00    -0.027 C 
ATOM     14  C   UNL     1      -3.205  -4.657  -5.541  1.00  0.00    -0.027 C 
BRANCH  14  15
ATOM     15  C   UNL     1      -1.706  -4.585  -5.713  1.00  0.00     0.054 C 
BRANCH  15  16
ATOM     16  C   UNL     1      -1.150  -3.189  -5.609  1.00  0.00    -0.027 C 
ATOM     17  C   UNL     1      -0.248  -2.789  -4.691  1.00  0.00    -0.027 C 
BRANCH  17  18
ATOM     18  C   UNL     1       0.353  -1.409  -4.629  1.00  0.00     0.054 C 
BRANCH  18  19
ATOM     19  C   UNL     1      -0.031  -0.688  -3.366  1.00  0.00    -0.027 C 
ATOM     20  C   UNL     1       0.837  -0.170  -2.479  1.00  0.00    -0.031 C 
BRANCH  20  21
ATOM     21  C   UNL     1       0.415   0.589  -1.252  1.00  0.00     0.023 C 
ATOM     22  C   UNL     1       0.922  -0.070   0.021  1.00  0.00     0.008 C 
ENDBRANCH  20  21
ENDBRANCH  18  19
ENDBRANCH  17  18
ENDBRANCH  15  16
ENDBRANCH  14  15
ENDBRANCH  12  13
ENDBRANCH  11  12
ENDBRANCH   9  10
ENDBRANCH   8   9
ENDBRANCH   7   8
ENDBRANCH   5   6
ENDBRANCH   4   5
ENDBRANCH   3   4
ENDBRANCH   1   3
BRANCH   1  23
ATOM     23  O   UNL     1     -10.156  -9.693  -9.502  1.00  0.00    -0.462 OA
BRANCH  23  24
ATOM     24  C   UNL     1     -10.145 -10.343  -8.211  1.00  0.00     0.261 C 
BRANCH  24  25
ATOM     25  C   UNL     1      -8.755 -10.633  -7.633  1.00  0.00     0.202 C 
BRANCH  25  26
ATOM     26  O   UNL     1      -7.942  -9.499  -7.368  1.00  0.00    -0.376 OA
BRANCH  26  27
ATOM     27  C   UNL     1      -7.431  -8.835  -8.510  1.00  0.00     0.188 C 
BRANCH  27  28
ATOM     28  C   UNL     1      -6.433  -9.607  -9.352  1.00  0.00     0.188 C 
BRANCH  28  29
ATOM     29  O   UNL     1      -6.965 -10.768  -9.961  1.00  0.00    -0.376 OA
BRANCH  29  30
ATOM     30  C   UNL     1      -6.035 -11.597 -10.663  1.00  0.00     0.202 C 
BRANCH  30  31
ATOM     31  C   UNL     1      -4.520 -11.460 -10.384  1.00  0.00     0.261 C 
BRANCH  31  32
ATOM     32  O   UNL     1      -3.972 -10.123 -10.451  1.00  0.00    -0.460 OA
BRANCH  32  33
ATOM     33  C   UNL     1      -4.110  -9.439 -11.619  1.00  0.00     0.338 C 
ATOM     34  O   UNL     1      -4.510  -9.901 -12.659  1.00  0.00    -0.246 OA
BRANCH  33  35
ATOM     35  C   UNL     1      -3.873  -7.974 -11.375  1.00  0.00     0.060 A 
ATOM     36  C   UNL     1      -4.539  -7.058 -12.199  1.00  0.00     0.016 A 
ATOM     37  C   UNL     1      -3.052  -7.484 -10.350  1.00  0.00     0.016 A 
ATOM     38  C   UNL     1      -4.359  -5.675 -12.030  1.00  0.00     0.010 A 
ATOM     39  C   UNL     1      -2.861  -6.096 -10.192  1.00  0.00     0.010 A 
ATOM     40  C   UNL     1      -3.496  -5.175 -11.042  1.00  0.00    -0.014 A 
BRANCH  40  41
ATOM     41  C   UNL     1      -3.155  -3.716 -11.008  1.00  0.00     0.031 A 
ATOM     42  C   UNL     1      -2.050  -3.206 -11.869  1.00  0.00     0.074 A 
ATOM     43  C   UNL     1      -3.823  -2.809 -10.269  1.00  0.00     0.049 A 
ATOM     44  N   UNL     1      -1.646  -1.974 -12.027  1.00  0.00    -0.248 NA
ATOM     45  C   UNL     1      -1.315  -4.203 -12.658  1.00  0.00     0.031 C 
ATOM     46  C   UNL     1      -4.938  -3.146  -9.422  1.00  0.00     0.029 A 
ATOM     47  N   UNL     1      -3.697  -1.446 -10.108  1.00  0.00    -0.354 N 
ATOM     48  C   UNL     1      -0.604  -2.039 -12.931  1.00  0.00     0.074 A 
ATOM     49  C   UNL     1      -0.434  -3.436 -13.283  1.00  0.00     0.031 C 
ATOM     50  C   UNL     1      -5.436  -2.034  -8.860  1.00  0.00     0.029 A 
ATOM     51  C   UNL     1      -4.603  -0.906  -9.218  1.00  0.00     0.049 A 
ATOM     52  H   UNL     1      -3.023  -0.907 -10.582  1.00  0.00     0.167 HD
ATOM     53  C   UNL     1       0.144  -1.028 -13.425  1.00  0.00     0.034 A 
ATOM     54  C   UNL     1      -4.756   0.332  -8.705  1.00  0.00     0.034 A 
ATOM     55  C   UNL     1       0.020   0.354 -13.049  1.00  0.00     0.049 A 
ATOM     56  C   UNL     1      -3.837   1.413  -9.184  1.00  0.00     0.074 A 
ATOM     57  C   UNL     1       0.763   1.430 -13.502  1.00  0.00     0.029 A 
ATOM     58  N   UNL     1      -0.869   0.854 -12.110  1.00  0.00    -0.354 N 
ATOM     59  N   UNL     1      -2.920   1.345 -10.115  1.00  0.00    -0.248 NA
ATOM     60  C   UNL     1      -3.984   2.744  -8.576  1.00  0.00     0.031 C 
ATOM     61  C   UNL     1       0.350   2.574 -12.811  1.00  0.00     0.029 A 
ATOM     62  C   UNL     1      -0.678   2.219 -11.954  1.00  0.00     0.049 A 
ATOM     63  H   UNL     1      -1.539   0.319 -11.626  1.00  0.00     0.167 HD
ATOM     64  C   UNL     1      -2.407   2.627 -10.234  1.00  0.00     0.074 A 
ATOM     65  C   UNL     1      -3.128   3.459  -9.293  1.00  0.00     0.031 C 
ATOM     66  C   UNL     1      -1.418   3.062 -11.049  1.00  0.00     0.034 A 
BRANCH  53  67
ATOM     67  C   UNL     1       1.194  -1.414 -14.419  1.00  0.00     0.023 A 
ATOM     68  C   UNL     1       0.819  -1.762 -15.732  1.00  0.00     0.012 A 
ATOM     69  C   UNL     1       2.548  -1.450 -14.043  1.00  0.00     0.148 A 
ATOM     70  C   UNL     1       1.780  -2.176 -16.651  1.00  0.00     0.002 A 
ATOM     71  C   UNL     1       3.503  -1.824 -14.976  1.00  0.00     0.091 A 
ATOM     72  F   UNL     1       2.867  -1.148 -12.777  1.00  0.00    -0.205 F 
ATOM     73  C   UNL     1       3.121  -2.199 -16.275  1.00  0.00     0.022 A 
BRANCH  71  74
ATOM     74  S   UNL     1       5.257  -1.833 -14.603  1.00  0.00     0.127 S 
ATOM     75  O   UNL     1       5.555  -3.265 -14.628  1.00  0.00    -0.237 OA
ATOM     76  O   UNL     1       5.810  -1.074 -15.725  1.00  0.00    -0.237 OA
ATOM     77  O   UNL     1       5.398  -1.191 -13.304  1.00  0.00    -0.744 OA
ENDBRANCH  71  74
ENDBRANCH  53  67
BRANCH  54  78
ATOM     78  C   UNL     1      -5.810   0.635  -7.684  1.00  0.00     0.023 A 
ATOM     79  C   UNL     1      -6.863   1.515  -8.006  1.00  0.00     0.012 A 
ATOM     80  C   UNL     1      -5.756   0.090  -6.383  1.00  0.00     0.148 A 
ATOM     81  C   UNL     1      -7.812   1.880  -7.047  1.00  0.00     0.002 A 
ATOM     82  C   UNL     1      -6.732   0.419  -5.447  1.00  0.00     0.091 A 
ATOM     83  F   UNL     1      -4.742  -0.733  -6.081  1.00  0.00    -0.205 F 
ATOM     84  C   UNL     1      -7.750   1.328  -5.771  1.00  0.00     0.022 A 
BRANCH  82  85
ATOM     85  S   UNL     1      -6.789  -0.316  -3.807  1.00  0.00     0.127 S 
ATOM     86  O   UNL     1      -6.383   0.804  -2.963  1.00  0.00    -0.237 OA
ATOM     87  O   UNL     1      -8.198  -0.693  -3.692  1.00  0.00    -0.237 OA
ATOM     88  O   UNL     1      -5.868  -1.444  -3.851  1.00  0.00    -0.744 OA
ENDBRANCH  82  85
ENDBRANCH  54  78
BRANCH  66  89
ATOM     89  C   UNL     1      -1.074   4.525 -10.998  1.00  0.00     0.023 A 
ATOM     90  C   UNL     1      -0.401   5.053  -9.878  1.00  0.00     0.012 A 
ATOM     91  C   UNL     1      -1.368   5.364 -12.089  1.00  0.00     0.148 A 
ATOM     92  C   UNL     1      -0.050   6.402  -9.835  1.00  0.00     0.002 A 
ATOM     93  C   UNL     1      -0.968   6.694 -12.062  1.00  0.00     0.091 A 
ATOM     94  F   UNL     1      -2.034   4.847 -13.132  1.00  0.00    -0.205 F 
ATOM     95  C   UNL     1      -0.321   7.218 -10.932  1.00  0.00     0.022 A 
BRANCH  93  96
ATOM     96  S   UNL     1      -1.188   7.792 -13.466  1.00  0.00     0.127 S 
ATOM     97  O   UNL     1      -2.221   8.702 -12.974  1.00  0.00    -0.237 OA
ATOM     98  O   UNL     1       0.141   8.392 -13.598  1.00  0.00    -0.237 OA
ATOM     99  O   UNL     1      -1.583   6.945 -14.583  1.00  0.00    -0.744 OA
ENDBRANCH  93  96
ENDBRANCH  66  89
ENDBRANCH  40  41
ENDBRANCH  33  35
ENDBRANCH  32  33
ENDBRANCH  31  32
ENDBRANCH  30  31
ENDBRANCH  29  30
ENDBRANCH  28  29
ENDBRANCH  27  28
ENDBRANCH  26  27
ENDBRANCH  25  26
ENDBRANCH  24  25
ENDBRANCH  23  24
ENDBRANCH   1  23
TORSDOF 33
