REMARK SMILES CC1=C(C)C[C@@H](C(=O)OCCOCCOCCOC(=O)c2ccc(-c3c4nc(c(-c5cccc(S(=O)(=O)[O-])c5F)c5ccc([nH]5)c(-c5cccc(S(=O)(=O)[O-])c5F)c5nc(c(-c6cccc(S(=O)(=O)[O-])c6F)c6ccc3[nH]6)C=C5)C=C4)cc2)[C@@H](C(=O)NCC[NH+]2CCOCC2)C1
REMARK SMILES IDX 13 1 12 2 11 3 10 4 9 5 7 6 8 7 6 8 1 9 2 10 3 11 96 12 4 13
REMARK SMILES IDX 5 14 84 15 85 16 86 17 87 18 88 20 89 21 90 22 91 23 95 24
REMARK SMILES IDX 92 26 94 27 93 28 14 29 15 30 16 31 17 32 18 33 19 34 20 35
REMARK SMILES IDX 21 36 22 37 83 38 23 39 82 40 24 41 25 42 26 43 76 44 27 45
REMARK SMILES IDX 81 46 75 47 77 48 28 49 80 50 74 51 73 52 29 54 61 55 41 56
REMARK SMILES IDX 60 57 42 58 45 59 59 60 78 61 43 62 44 63 58 65 79 66 46 67
REMARK SMILES IDX 30 68 31 69 39 70 32 71 34 72 40 73 33 74 35 75 36 76 37 77
REMARK SMILES IDX 38 78 62 79 63 80 71 81 64 82 66 83 72 84 65 85 67 86 68 87
REMARK SMILES IDX 69 88 70 89 47 90 48 91 56 92 49 93 51 94 57 95 50 96 52 97
REMARK SMILES IDX 53 98 54 99 55 100
REMARK H PARENT 87 19 90 25 77 53 45 64
REMARK Flexibility Score: inf
ROOT
ATOM      1  C   UNL     1      -3.508   3.957  -3.911  1.00  0.00     0.188 C 
ENDROOT
BRANCH   1   2
ATOM      2  O   UNL     1      -4.778   3.392  -3.692  1.00  0.00    -0.376 OA
BRANCH   2   3
ATOM      3  C   UNL     1      -4.902   2.726  -2.451  1.00  0.00     0.202 C 
BRANCH   3   4
ATOM      4  C   UNL     1      -4.020   1.476  -2.309  1.00  0.00     0.261 C 
BRANCH   4   5
ATOM      5  O   UNL     1      -2.578   1.728  -2.342  1.00  0.00    -0.463 OA
BRANCH   5   6
ATOM      6  C   UNL     1      -1.909   1.029  -3.291  1.00  0.00     0.310 C 
ATOM      7  O   UNL     1      -2.477   0.244  -4.054  1.00  0.00    -0.252 OA
BRANCH   6   8
ATOM      8  C   UNL     1      -0.409   1.287  -3.477  1.00  0.00     0.116 C 
ATOM      9  C   UNL     1       1.056  -0.543   0.214  1.00  0.00     0.039 C 
ATOM     10  C   UNL     1       0.796  -0.030  -1.180  1.00  0.00    -0.074 C 
ATOM     11  C   UNL     1       0.338  -0.761  -2.216  1.00  0.00    -0.073 C 
ATOM     12  C   UNL     1       1.119   1.441  -1.361  1.00  0.00     0.045 C 
ATOM     13  C   UNL     1      -0.100  -2.197  -2.170  1.00  0.00     0.039 C 
ATOM     14  C   UNL     1       0.231  -0.111  -3.579  1.00  0.00     0.046 C 
ATOM     15  C   UNL     1       0.518   2.160  -2.611  1.00  0.00     0.097 C 
BRANCH  15  16
ATOM     16  C   UNL     1       0.060   3.571  -2.265  1.00  0.00     0.224 C 
ATOM     17  O   UNL     1      -0.242   3.877  -1.108  1.00  0.00    -0.275 OA
ATOM     18  N   UNL     1       0.020   4.571  -3.200  1.00  0.00    -0.350 N 
ATOM     19  H   UNL     1      -0.220   5.446  -2.817  1.00  0.00     0.163 HD
BRANCH  18  20
ATOM     20  C   UNL     1       0.256   4.628  -4.644  1.00  0.00     0.177 C 
BRANCH  20  21
ATOM     21  C   UNL     1      -0.868   5.146  -5.681  1.00  0.00     0.283 C 
BRANCH  21  22
ATOM     22  N   UNL     1      -1.389   6.542  -5.785  1.00  0.00    -0.330 N 
ATOM     23  C   UNL     1      -2.783   6.863  -5.372  1.00  0.00     0.291 C 
ATOM     24  C   UNL     1      -1.372   7.067  -7.188  1.00  0.00     0.291 C 
ATOM     25  H   UNL     1      -0.738   6.959  -5.118  1.00  0.00     0.348 HD
ATOM     26  C   UNL     1      -3.928   6.449  -6.338  1.00  0.00     0.221 C 
ATOM     27  C   UNL     1      -2.451   6.533  -8.130  1.00  0.00     0.221 C 
ATOM     28  O   UNL     1      -3.727   6.967  -7.650  1.00  0.00    -0.370 OA
ENDBRANCH  21  22
ENDBRANCH  20  21
ENDBRANCH  18  20
ENDBRANCH  15  16
ENDBRANCH   6   8
ENDBRANCH   5   6
ENDBRANCH   4   5
ENDBRANCH   3   4
ENDBRANCH   2   3
ENDBRANCH   1   2
BRANCH   1  29
ATOM     29  C   UNL     1      -2.871   4.752  -2.768  1.00  0.00     0.188 C 
BRANCH  29  30
ATOM     30  O   UNL     1      -3.574   5.852  -2.199  1.00  0.00    -0.376 OA
BRANCH  30  31
ATOM     31  C   UNL     1      -2.700   6.533  -1.262  1.00  0.00     0.202 C 
BRANCH  31  32
ATOM     32  C   UNL     1      -2.127   7.871  -1.775  1.00  0.00     0.261 C 
BRANCH  32  33
ATOM     33  O   UNL     1      -1.191   7.782  -2.880  1.00  0.00    -0.460 OA
BRANCH  33  34
ATOM     34  C   UNL     1       0.129   8.042  -2.671  1.00  0.00     0.338 C 
ATOM     35  O   UNL     1       0.692   8.056  -1.587  1.00  0.00    -0.246 OA
BRANCH  34  36
ATOM     36  C   UNL     1       0.833   8.185  -3.985  1.00  0.00     0.060 A 
ATOM     37  C   UNL     1       2.005   7.462  -4.249  1.00  0.00     0.016 A 
ATOM     38  C   UNL     1       0.301   8.980  -4.998  1.00  0.00     0.016 A 
ATOM     39  C   UNL     1       2.504   7.351  -5.569  1.00  0.00     0.010 A 
ATOM     40  C   UNL     1       0.837   8.912  -6.298  1.00  0.00     0.010 A 
ATOM     41  C   UNL     1       1.882   8.021  -6.628  1.00  0.00    -0.014 A 
BRANCH  41  42
ATOM     42  C   UNL     1       2.458   8.051  -8.017  1.00  0.00     0.031 A 
ATOM     43  C   UNL     1       3.371   9.210  -8.290  1.00  0.00     0.074 A 
ATOM     44  C   UNL     1       2.172   7.202  -9.037  1.00  0.00     0.049 A 
ATOM     45  N   UNL     1       4.005   9.528  -9.384  1.00  0.00    -0.248 NA
ATOM     46  C   UNL     1       3.608  10.123  -7.158  1.00  0.00     0.031 C 
ATOM     47  C   UNL     1       1.364   5.988  -8.967  1.00  0.00     0.029 A 
ATOM     48  N   UNL     1       2.498   7.263 -10.382  1.00  0.00    -0.354 N 
ATOM     49  C   UNL     1       4.717  10.674  -9.069  1.00  0.00     0.074 A 
ATOM     50  C   UNL     1       4.399  11.024  -7.705  1.00  0.00     0.031 C 
ATOM     51  C   UNL     1       1.131   5.509 -10.203  1.00  0.00     0.029 A 
ATOM     52  C   UNL     1       1.859   6.321 -11.170  1.00  0.00     0.049 A 
ATOM     53  H   UNL     1       3.132   7.922 -10.747  1.00  0.00     0.167 HD
ATOM     54  C   UNL     1       5.591  11.368  -9.828  1.00  0.00     0.034 A 
ATOM     55  C   UNL     1       1.874   6.111 -12.507  1.00  0.00     0.034 A 
ATOM     56  C   UNL     1       5.882  11.070 -11.195  1.00  0.00     0.049 A 
ATOM     57  C   UNL     1       2.799   6.945 -13.362  1.00  0.00     0.074 A 
ATOM     58  C   UNL     1       6.765  11.710 -12.041  1.00  0.00     0.029 A 
ATOM     59  N   UNL     1       5.257  10.077 -11.931  1.00  0.00    -0.354 N 
ATOM     60  N   UNL     1       3.612   7.905 -12.995  1.00  0.00    -0.248 NA
ATOM     61  C   UNL     1       2.864   6.627 -14.800  1.00  0.00     0.031 C 
ATOM     62  C   UNL     1       6.639  11.134 -13.307  1.00  0.00     0.029 A 
ATOM     63  C   UNL     1       5.715  10.103 -13.233  1.00  0.00     0.049 A 
ATOM     64  H   UNL     1       4.587   9.447 -11.578  1.00  0.00     0.167 HD
ATOM     65  C   UNL     1       4.319   8.267 -14.137  1.00  0.00     0.074 A 
ATOM     66  C   UNL     1       3.845   7.421 -15.211  1.00  0.00     0.031 C 
ATOM     67  C   UNL     1       5.276   9.216 -14.280  1.00  0.00     0.034 A 
BRANCH  54  68
ATOM     68  C   UNL     1       6.253  12.532  -9.157  1.00  0.00     0.023 A 
ATOM     69  C   UNL     1       7.202  12.304  -8.137  1.00  0.00     0.012 A 
ATOM     70  C   UNL     1       5.861  13.845  -9.467  1.00  0.00     0.148 A 
ATOM     71  C   UNL     1       7.701  13.367  -7.389  1.00  0.00     0.002 A 
ATOM     72  C   UNL     1       6.402  14.902  -8.752  1.00  0.00     0.091 A 
ATOM     73  F   UNL     1       4.929  14.027 -10.413  1.00  0.00    -0.205 F 
ATOM     74  C   UNL     1       7.304  14.665  -7.700  1.00  0.00     0.022 A 
BRANCH  72  75
ATOM     75  S   UNL     1       6.000  16.610  -9.115  1.00  0.00     0.127 S 
ATOM     76  O   UNL     1       5.221  16.986  -7.936  1.00  0.00    -0.237 OA
ATOM     77  O   UNL     1       7.327  17.222  -9.193  1.00  0.00    -0.237 OA
ATOM     78  O   UNL     1       5.264  16.592 -10.371  1.00  0.00    -0.744 OA
ENDBRANCH  72  75
ENDBRANCH  54  68
BRANCH  55  79
ATOM     79  C   UNL     1       1.060   5.021 -13.141  1.00  0.00     0.023 A 
ATOM     80  C   UNL     1       1.705   3.888 -13.681  1.00  0.00     0.012 A 
ATOM     81  C   UNL     1      -0.341   5.124 -13.266  1.00  0.00     0.148 A 
ATOM     82  C   UNL     1       0.983   2.907 -14.368  1.00  0.00     0.002 A 
ATOM     83  C   UNL     1      -1.060   4.122 -13.917  1.00  0.00     0.091 A 
ATOM     84  F   UNL     1      -0.942   6.207 -12.755  1.00  0.00    -0.205 F 
ATOM     85  C   UNL     1      -0.398   3.022 -14.484  1.00  0.00     0.022 A 
BRANCH  83  86
ATOM     86  S   UNL     1      -2.854   4.130 -14.049  1.00  0.00     0.127 S 
ATOM     87  O   UNL     1      -3.048   4.216 -15.495  1.00  0.00    -0.237 OA
ATOM     88  O   UNL     1      -3.199   2.837 -13.457  1.00  0.00    -0.237 OA
ATOM     89  O   UNL     1      -3.298   5.287 -13.286  1.00  0.00    -0.744 OA
ENDBRANCH  83  86
ENDBRANCH  55  79
BRANCH  67  90
ATOM     90  C   UNL     1       5.930   9.384 -15.625  1.00  0.00     0.023 A 
ATOM     91  C   UNL     1       5.229   9.995 -16.681  1.00  0.00     0.012 A 
ATOM     92  C   UNL     1       7.297   9.075 -15.783  1.00  0.00     0.148 A 
ATOM     93  C   UNL     1       5.878  10.289 -17.880  1.00  0.00     0.002 A 
ATOM     94  C   UNL     1       7.949   9.423 -16.958  1.00  0.00     0.091 A 
ATOM     95  F   UNL     1       7.937   8.475 -14.770  1.00  0.00    -0.205 F 
ATOM     96  C   UNL     1       7.239  10.021 -18.011  1.00  0.00     0.022 A 
BRANCH  94  97
ATOM     97  S   UNL     1       9.723   9.230 -17.164  1.00  0.00     0.127 S 
ATOM     98  O   UNL     1       9.793   8.150 -18.146  1.00  0.00    -0.237 OA
ATOM     99  O   UNL     1      10.120  10.544 -17.672  1.00  0.00    -0.237 OA
ATOM    100  O   UNL     1      10.250   8.908 -15.845  1.00  0.00    -0.744 OA
ENDBRANCH  94  97
ENDBRANCH  67  90
ENDBRANCH  41  42
ENDBRANCH  34  36
ENDBRANCH  33  34
ENDBRANCH  32  33
ENDBRANCH  31  32
ENDBRANCH  30  31
ENDBRANCH  29  30
ENDBRANCH   1  29
TORSDOF 24
