REMARK SMILES O=C(OCCOCCOCCOC(=O)c1ccc(-c2c3nc(c(-c4cccc(S(=O)(=O)[O-])c4F)c4ccc([nH]4)c(-c4cccc(S(=O)(=O)[O-])c4F)c4nc(c(-c5cccc(S(=O)(=O)[O-])c5F)c5ccc2[nH]5)C=C4)C=C3)cc1)C1=Cc2c(ccc(Cl)c2Sc2ccccc2)O[C@H]1C(F)(F)F
REMARK SMILES IDX 8 1 7 2 6 3 5 4 4 5 3 6 2 7 1 8 78 9 79 10 95 11 80 12 94 13
REMARK SMILES IDX 81 14 86 15 82 16 84 17 83 18 85 19 96 20 97 21 98 22 99 23
REMARK SMILES IDX 87 24 88 25 89 26 93 27 90 28 92 29 91 30 9 31 10 32 11 33
REMARK SMILES IDX 12 34 13 35 14 36 15 37 16 38 77 39 17 40 76 41 18 42 19 43
REMARK SMILES IDX 20 44 70 45 21 46 75 47 69 48 71 49 22 50 74 51 68 52 67 53
REMARK SMILES IDX 23 55 55 56 35 57 54 58 36 59 39 60 53 61 72 62 37 63 38 64
REMARK SMILES IDX 52 66 73 67 40 68 24 69 25 70 33 71 26 72 28 73 34 74 27 75
REMARK SMILES IDX 29 76 30 77 31 78 32 79 56 80 57 81 65 82 58 83 60 84 66 85
REMARK SMILES IDX 59 86 61 87 62 88 63 89 64 90 41 91 42 92 50 93 43 94 45 95
REMARK SMILES IDX 51 96 44 97 46 98 47 99 48 100 49 101
REMARK H PARENT 71 54 39 65
REMARK Flexibility Score: inf
ROOT
ATOM      1  C   UNL     1       3.275   1.605  -3.514  1.00  0.00     0.188 C 
ENDROOT
BRANCH   1   2
ATOM      2  C   UNL     1       3.626   2.642  -2.427  1.00  0.00     0.188 C 
BRANCH   2   3
ATOM      3  O   UNL     1       4.556   2.220  -1.439  1.00  0.00    -0.376 OA
BRANCH   3   4
ATOM      4  C   UNL     1       4.000   1.417  -0.411  1.00  0.00     0.202 C 
BRANCH   4   5
ATOM      5  C   UNL     1       2.978   2.115   0.521  1.00  0.00     0.261 C 
BRANCH   5   6
ATOM      6  O   UNL     1       3.538   2.300   1.839  1.00  0.00    -0.460 OA
BRANCH   6   7
ATOM      7  C   UNL     1       2.986   1.506   2.800  1.00  0.00     0.338 C 
ATOM      8  O   UNL     1       1.877   1.626   3.296  1.00  0.00    -0.246 OA
BRANCH   7   9
ATOM      9  C   UNL     1       3.795   0.279   2.881  1.00  0.00     0.087 C 
ATOM     10  C   UNL     1       3.364  -0.591   1.961  1.00  0.00     0.028 C 
ATOM     11  C   UNL     1       5.128   0.240   3.552  1.00  0.00     0.316 C 
ATOM     12  C   UNL     1       4.308  -1.463   1.309  1.00  0.00     0.033 A 
ATOM     13  O   UNL     1       6.032  -0.744   2.951  1.00  0.00    -0.475 OA
ATOM     14  C   UNL     1       5.632  -1.445   1.831  1.00  0.00     0.129 A 
ATOM     15  C   UNL     1       3.972  -2.104   0.077  1.00  0.00     0.042 A 
ATOM     16  C   UNL     1       6.651  -2.115   1.165  1.00  0.00     0.049 A 
ATOM     17  C   UNL     1       5.061  -2.738  -0.581  1.00  0.00     0.055 A 
ATOM     18  C   UNL     1       6.367  -2.744  -0.044  1.00  0.00     0.025 A 
ATOM     19  Cl  UNL     1       4.906  -3.509  -2.132  1.00  0.00    -0.083 Cl
BRANCH  11  20
ATOM     20  C   UNL     1       5.824   1.617   3.670  1.00  0.00     0.430 C 
ATOM     21  F   UNL     1       4.973   2.582   4.079  1.00  0.00    -0.167 F 
ATOM     22  F   UNL     1       6.828   1.580   4.580  1.00  0.00    -0.167 F 
ATOM     23  F   UNL     1       6.359   2.000   2.489  1.00  0.00    -0.167 F 
ENDBRANCH  11  20
BRANCH  15  24
ATOM     24  S   UNL     1       2.300  -2.282  -0.709  1.00  0.00    -0.088 SA
BRANCH  24  25
ATOM     25  C   UNL     1       1.064  -0.992  -0.477  1.00  0.00     0.012 A 
ATOM     26  C   UNL     1      -0.043  -1.222   0.348  1.00  0.00     0.015 A 
ATOM     27  C   UNL     1       0.997   0.178  -1.248  1.00  0.00     0.015 A 
ATOM     28  C   UNL     1      -1.051  -0.251   0.528  1.00  0.00     0.001 A 
ATOM     29  C   UNL     1       0.033   1.187  -1.034  1.00  0.00     0.001 A 
ATOM     30  C   UNL     1      -0.979   0.982  -0.112  1.00  0.00     0.000 A 
ENDBRANCH  24  25
ENDBRANCH  15  24
ENDBRANCH   7   9
ENDBRANCH   6   7
ENDBRANCH   5   6
ENDBRANCH   4   5
ENDBRANCH   3   4
ENDBRANCH   2   3
ENDBRANCH   1   2
BRANCH   1  31
ATOM     31  O   UNL     1       3.925   1.634  -4.779  1.00  0.00    -0.376 OA
BRANCH  31  32
ATOM     32  C   UNL     1       5.254   2.122  -4.822  1.00  0.00     0.202 C 
BRANCH  32  33
ATOM     33  C   UNL     1       5.270   3.499  -5.506  1.00  0.00     0.261 C 
BRANCH  33  34
ATOM     34  O   UNL     1       4.599   4.518  -4.726  1.00  0.00    -0.460 OA
BRANCH  34  35
ATOM     35  C   UNL     1       3.254   4.660  -4.901  1.00  0.00     0.338 C 
ATOM     36  O   UNL     1       2.587   4.160  -5.792  1.00  0.00    -0.246 OA
BRANCH  35  37
ATOM     37  C   UNL     1       2.642   5.359  -3.719  1.00  0.00     0.060 A 
ATOM     38  C   UNL     1       1.299   5.089  -3.401  1.00  0.00     0.016 A 
ATOM     39  C   UNL     1       3.381   6.191  -2.867  1.00  0.00     0.016 A 
ATOM     40  C   UNL     1       0.684   5.703  -2.297  1.00  0.00     0.010 A 
ATOM     41  C   UNL     1       2.763   6.814  -1.768  1.00  0.00     0.010 A 
ATOM     42  C   UNL     1       1.397   6.619  -1.506  1.00  0.00    -0.014 A 
BRANCH  42  43
ATOM     43  C   UNL     1       0.660   7.607  -0.661  1.00  0.00     0.031 A 
ATOM     44  C   UNL     1       0.132   8.842  -1.358  1.00  0.00     0.074 A 
ATOM     45  C   UNL     1       0.479   7.484   0.669  1.00  0.00     0.049 A 
ATOM     46  N   UNL     1      -0.552   9.848  -0.876  1.00  0.00    -0.248 NA
ATOM     47  C   UNL     1       0.421   8.950  -2.800  1.00  0.00     0.031 C 
ATOM     48  C   UNL     1       0.945   6.378   1.501  1.00  0.00     0.029 A 
ATOM     49  N   UNL     1      -0.134   8.338   1.562  1.00  0.00    -0.354 N 
ATOM     50  C   UNL     1      -0.777  10.700  -1.951  1.00  0.00     0.074 A 
ATOM     51  C   UNL     1      -0.142  10.107  -3.106  1.00  0.00     0.031 C 
ATOM     52  C   UNL     1       0.631   6.637   2.786  1.00  0.00     0.029 A 
ATOM     53  C   UNL     1      -0.052   7.930   2.874  1.00  0.00     0.049 A 
ATOM     54  H   UNL     1      -0.591   9.165   1.285  1.00  0.00     0.167 HD
ATOM     55  C   UNL     1      -1.461  11.867  -1.994  1.00  0.00     0.034 A 
ATOM     56  C   UNL     1      -0.465   8.533   4.011  1.00  0.00     0.034 A 
ATOM     57  C   UNL     1      -2.062  12.506  -0.859  1.00  0.00     0.049 A 
ATOM     58  C   UNL     1      -1.190   9.863   3.944  1.00  0.00     0.074 A 
ATOM     59  C   UNL     1      -2.774  13.692  -0.819  1.00  0.00     0.029 A 
ATOM     60  N   UNL     1      -2.001  12.031   0.439  1.00  0.00    -0.354 N 
ATOM     61  N   UNL     1      -1.535  10.572   2.897  1.00  0.00    -0.248 NA
ATOM     62  C   UNL     1      -1.616  10.457   5.224  1.00  0.00     0.031 C 
ATOM     63  C   UNL     1      -3.124  13.948   0.511  1.00  0.00     0.029 A 
ATOM     64  C   UNL     1      -2.656  12.904   1.292  1.00  0.00     0.049 A 
ATOM     65  H   UNL     1      -1.558  11.197   0.716  1.00  0.00     0.167 HD
ATOM     66  C   UNL     1      -2.245  11.668   3.389  1.00  0.00     0.074 A 
ATOM     67  C   UNL     1      -2.310  11.513   4.824  1.00  0.00     0.031 C 
ATOM     68  C   UNL     1      -2.776  12.719   2.714  1.00  0.00     0.034 A 
BRANCH  55  69
ATOM     69  C   UNL     1      -1.616  12.518  -3.341  1.00  0.00     0.023 A 
ATOM     70  C   UNL     1      -2.514  11.959  -4.273  1.00  0.00     0.012 A 
ATOM     71  C   UNL     1      -0.911  13.690  -3.671  1.00  0.00     0.148 A 
ATOM     72  C   UNL     1      -2.690  12.542  -5.526  1.00  0.00     0.002 A 
ATOM     73  C   UNL     1      -1.122  14.289  -4.907  1.00  0.00     0.091 A 
ATOM     74  F   UNL     1      -0.045  14.188  -2.778  1.00  0.00    -0.205 F 
ATOM     75  C   UNL     1      -2.002  13.711  -5.838  1.00  0.00     0.022 A 
BRANCH  73  76
ATOM     76  S   UNL     1      -0.335  15.830  -5.386  1.00  0.00     0.127 S 
ATOM     77  O   UNL     1       0.541  15.389  -6.471  1.00  0.00    -0.237 OA
ATOM     78  O   UNL     1      -1.479  16.636  -5.814  1.00  0.00    -0.237 OA
ATOM     79  O   UNL     1       0.348  16.321  -4.197  1.00  0.00    -0.744 OA
ENDBRANCH  73  76
ENDBRANCH  55  69
BRANCH  56  80
ATOM     80  C   UNL     1      -0.241   7.891   5.344  1.00  0.00     0.023 A 
ATOM     81  C   UNL     1      -1.348   7.456   6.101  1.00  0.00     0.012 A 
ATOM     82  C   UNL     1       1.050   7.770   5.893  1.00  0.00     0.148 A 
ATOM     83  C   UNL     1      -1.179   6.960   7.396  1.00  0.00     0.002 A 
ATOM     84  C   UNL     1       1.217   7.222   7.162  1.00  0.00     0.091 A 
ATOM     85  F   UNL     1       2.091   8.217   5.175  1.00  0.00    -0.205 F 
ATOM     86  C   UNL     1       0.103   6.836   7.923  1.00  0.00     0.022 A 
BRANCH  84  87
ATOM     87  S   UNL     1       2.837   6.928   7.880  1.00  0.00     0.127 S 
ATOM     88  O   UNL     1       2.901   7.961   8.911  1.00  0.00    -0.237 OA
ATOM     89  O   UNL     1       2.702   5.562   8.387  1.00  0.00    -0.237 OA
ATOM     90  O   UNL     1       3.784   7.069   6.782  1.00  0.00    -0.744 OA
ENDBRANCH  84  87
ENDBRANCH  56  80
BRANCH  68  91
ATOM     91  C   UNL     1      -3.513  13.776   3.502  1.00  0.00     0.023 A 
ATOM     92  C   UNL     1      -2.798  14.650   4.346  1.00  0.00     0.012 A 
ATOM     93  C   UNL     1      -4.904  13.952   3.353  1.00  0.00     0.148 A 
ATOM     94  C   UNL     1      -3.459  15.652   5.059  1.00  0.00     0.002 A 
ATOM     95  C   UNL     1      -5.549  14.984   4.028  1.00  0.00     0.091 A 
ATOM     96  F   UNL     1      -5.575  13.106   2.558  1.00  0.00    -0.205 F 
ATOM     97  C   UNL     1      -4.831  15.825   4.892  1.00  0.00     0.022 A 
BRANCH  95  98
ATOM     98  S   UNL     1      -7.295  15.341   3.797  1.00  0.00     0.127 S 
ATOM     99  O   UNL     1      -7.875  14.807   5.028  1.00  0.00    -0.237 OA
ATOM    100  O   UNL     1      -7.307  16.802   3.702  1.00  0.00    -0.237 OA
ATOM    101  O   UNL     1      -7.683  14.656   2.571  1.00  0.00    -0.744 OA
ENDBRANCH  95  98
ENDBRANCH  68  91
ENDBRANCH  42  43
ENDBRANCH  35  37
ENDBRANCH  34  35
ENDBRANCH  33  34
ENDBRANCH  32  33
ENDBRANCH  31  32
ENDBRANCH   1  31
TORSDOF 23
