REMARK SMILES CCc1ccc2c(c1)C=C(C(=O)OCCOCCOCCOC(=O)c1ccc(-c3c4nc(c(-c5cccc(S(=O)(=O)[O-])c5F)c5ccc([nH]5)c(-c5cccc(S(=O)(=O)[O-])c5F)c5nc(c(-c6cccc(S(=O)(=O)[O-])c6F)c6ccc3[nH]6)C=C5)C=C4)cc1)[C@H](C(F)(F)F)O2
REMARK SMILES IDX 18 1 17 2 16 3 15 4 14 5 13 6 11 7 12 8 10 9 3 10 4 11 8 12
REMARK SMILES IDX 5 13 7 14 6 15 9 16 93 17 88 18 2 19 1 20 89 21 90 22 91 23
REMARK SMILES IDX 92 24 19 25 20 26 21 27 22 28 23 29 24 30 25 31 26 32 87 33
REMARK SMILES IDX 27 34 86 35 28 36 29 37 30 38 80 39 31 40 85 41 79 42 81 43
REMARK SMILES IDX 32 44 84 45 78 46 77 47 33 49 65 50 45 51 64 52 46 53 49 54
REMARK SMILES IDX 63 55 82 56 47 57 48 58 62 60 83 61 50 62 34 63 35 64 43 65
REMARK SMILES IDX 36 66 38 67 44 68 37 69 39 70 40 71 41 72 42 73 66 74 67 75
REMARK SMILES IDX 75 76 68 77 70 78 76 79 69 80 71 81 72 82 73 83 74 84 51 85
REMARK SMILES IDX 52 86 60 87 53 88 55 89 61 90 54 91 56 92 57 93 58 94 59 95
REMARK H PARENT 81 48 49 59
REMARK Flexibility Score: inf
ROOT
ATOM      1  C   UNL     1       5.878   2.148   6.786  1.00  0.00     0.188 C 
ENDROOT
BRANCH   1   2
ATOM      2  C   UNL     1       5.782   2.988   8.075  1.00  0.00     0.188 C 
BRANCH   2   3
ATOM      3  O   UNL     1       5.894   2.220   9.267  1.00  0.00    -0.376 OA
BRANCH   3   4
ATOM      4  C   UNL     1       4.728   2.172  10.079  1.00  0.00     0.202 C 
BRANCH   4   5
ATOM      5  C   UNL     1       3.728   1.125   9.584  1.00  0.00     0.261 C 
BRANCH   5   6
ATOM      6  O   UNL     1       3.259   1.373   8.248  1.00  0.00    -0.460 OA
BRANCH   6   7
ATOM      7  C   UNL     1       2.357   2.369   8.098  1.00  0.00     0.338 C 
ATOM      8  O   UNL     1       1.879   3.040   8.993  1.00  0.00    -0.246 OA
BRANCH   7   9
ATOM      9  C   UNL     1       2.084   2.576   6.662  1.00  0.00     0.087 C 
ATOM     10  C   UNL     1       0.811   0.930   2.293  1.00  0.00    -0.047 A 
ATOM     11  C   UNL     1       0.491   2.245   1.922  1.00  0.00     0.007 A 
ATOM     12  C   UNL     1       1.289   0.694   3.594  1.00  0.00     0.015 A 
ATOM     13  C   UNL     1       0.669   3.301   2.817  1.00  0.00     0.047 A 
ATOM     14  C   UNL     1       1.449   1.748   4.502  1.00  0.00     0.018 A 
ATOM     15  C   UNL     1       1.155   3.053   4.096  1.00  0.00     0.128 A 
ATOM     16  C   UNL     1       1.800   1.507   5.898  1.00  0.00     0.027 C 
ATOM     17  O   UNL     1       1.241   4.125   4.943  1.00  0.00    -0.475 OA
ATOM     18  C   UNL     1       2.158   3.962   6.060  1.00  0.00     0.316 C 
BRANCH  10  19
ATOM     19  C   UNL     1       0.545  -0.231   1.363  1.00  0.00     0.032 C 
ATOM     20  C   UNL     1       1.084  -0.050  -0.051  1.00  0.00     0.009 C 
ENDBRANCH  10  19
BRANCH  18  21
ATOM     21  C   UNL     1       1.989   5.164   7.003  1.00  0.00     0.430 C 
ATOM     22  F   UNL     1       2.983   5.200   7.922  1.00  0.00    -0.167 F 
ATOM     23  F   UNL     1       2.079   6.324   6.304  1.00  0.00    -0.167 F 
ATOM     24  F   UNL     1       0.801   5.165   7.639  1.00  0.00    -0.167 F 
ENDBRANCH  18  21
ENDBRANCH   7   9
ENDBRANCH   6   7
ENDBRANCH   5   6
ENDBRANCH   4   5
ENDBRANCH   3   4
ENDBRANCH   2   3
ENDBRANCH   1   2
BRANCH   1  25
ATOM     25  O   UNL     1       6.590   0.915   6.772  1.00  0.00    -0.376 OA
BRANCH  25  26
ATOM     26  C   UNL     1       7.745   0.771   7.585  1.00  0.00     0.202 C 
BRANCH  26  27
ATOM     27  C   UNL     1       8.974   1.613   7.232  1.00  0.00     0.261 C 
BRANCH  27  28
ATOM     28  O   UNL     1       8.713   3.021   7.123  1.00  0.00    -0.460 OA
BRANCH  28  29
ATOM     29  C   UNL     1       8.750   3.520   5.863  1.00  0.00     0.338 C 
ATOM     30  O   UNL     1       9.000   2.910   4.837  1.00  0.00    -0.246 OA
BRANCH  29  31
ATOM     31  C   UNL     1       8.274   4.918   5.863  1.00  0.00     0.060 A 
ATOM     32  C   UNL     1       7.219   5.252   5.002  1.00  0.00     0.016 A 
ATOM     33  C   UNL     1       8.890   5.900   6.640  1.00  0.00     0.016 A 
ATOM     34  C   UNL     1       6.794   6.576   4.895  1.00  0.00     0.010 A 
ATOM     35  C   UNL     1       8.479   7.231   6.514  1.00  0.00     0.010 A 
ATOM     36  C   UNL     1       7.448   7.579   5.621  1.00  0.00    -0.014 A 
BRANCH  36  37
ATOM     37  C   UNL     1       7.159   9.005   5.340  1.00  0.00     0.031 A 
ATOM     38  C   UNL     1       8.031   9.745   4.363  1.00  0.00     0.074 A 
ATOM     39  C   UNL     1       6.148   9.640   5.959  1.00  0.00     0.049 A 
ATOM     40  N   UNL     1       7.991  11.002   4.005  1.00  0.00    -0.248 NA
ATOM     41  C   UNL     1       9.090   8.963   3.703  1.00  0.00     0.031 C 
ATOM     42  C   UNL     1       5.227   9.032   6.917  1.00  0.00     0.029 A 
ATOM     43  N   UNL     1       5.750  10.953   5.892  1.00  0.00    -0.354 N 
ATOM     44  C   UNL     1       9.029  11.169   3.097  1.00  0.00     0.074 A 
ATOM     45  C   UNL     1       9.685   9.887   2.962  1.00  0.00     0.031 C 
ATOM     46  C   UNL     1       4.394   9.980   7.381  1.00  0.00     0.029 A 
ATOM     47  C   UNL     1       4.737  11.263   6.768  1.00  0.00     0.049 A 
ATOM     48  H   UNL     1       6.151  11.608   5.277  1.00  0.00     0.167 HD
ATOM     49  C   UNL     1       9.395  12.286   2.423  1.00  0.00     0.034 A 
ATOM     50  C   UNL     1       4.170  12.451   7.059  1.00  0.00     0.034 A 
ATOM     51  C   UNL     1       8.739  13.558   2.547  1.00  0.00     0.049 A 
ATOM     52  C   UNL     1       4.623  13.688   6.325  1.00  0.00     0.074 A 
ATOM     53  C   UNL     1       9.009  14.735   1.872  1.00  0.00     0.029 A 
ATOM     54  N   UNL     1       7.691  13.826   3.414  1.00  0.00    -0.354 N 
ATOM     55  N   UNL     1       5.518  13.804   5.373  1.00  0.00    -0.248 NA
ATOM     56  C   UNL     1       3.966  14.954   6.685  1.00  0.00     0.031 C 
ATOM     57  C   UNL     1       8.138  15.722   2.346  1.00  0.00     0.029 A 
ATOM     58  C   UNL     1       7.313  15.154   3.304  1.00  0.00     0.049 A 
ATOM     59  H   UNL     1       7.277  13.170   4.019  1.00  0.00     0.167 HD
ATOM     60  C   UNL     1       5.508  15.144   5.000  1.00  0.00     0.074 A 
ATOM     61  C   UNL     1       4.504  15.797   5.814  1.00  0.00     0.031 C 
ATOM     62  C   UNL     1       6.274  15.781   4.080  1.00  0.00     0.034 A 
BRANCH  49  63
ATOM     63  C   UNL     1      10.547  12.171   1.462  1.00  0.00     0.023 A 
ATOM     64  C   UNL     1      10.352  11.530   0.222  1.00  0.00     0.012 A 
ATOM     65  C   UNL     1      11.801  12.738   1.760  1.00  0.00     0.148 A 
ATOM     66  C   UNL     1      11.395  11.432  -0.698  1.00  0.00     0.002 A 
ATOM     67  C   UNL     1      12.825  12.669   0.823  1.00  0.00     0.091 A 
ATOM     68  F   UNL     1      11.973  13.318   2.956  1.00  0.00    -0.205 F 
ATOM     69  C   UNL     1      12.627  12.010  -0.402  1.00  0.00     0.022 A 
BRANCH  67  70
ATOM     70  S   UNL     1      14.426  13.441   1.085  1.00  0.00     0.127 S 
ATOM     71  O   UNL     1      15.274  12.278   1.347  1.00  0.00    -0.237 OA
ATOM     72  O   UNL     1      14.669  14.095  -0.201  1.00  0.00    -0.237 OA
ATOM     73  O   UNL     1      14.250  14.354   2.205  1.00  0.00    -0.744 OA
ENDBRANCH  67  70
ENDBRANCH  49  63
BRANCH  50  74
ATOM     74  C   UNL     1       3.086  12.528   8.079  1.00  0.00     0.023 A 
ATOM     75  C   UNL     1       1.768  12.805   7.669  1.00  0.00     0.012 A 
ATOM     76  C   UNL     1       3.352  12.321   9.447  1.00  0.00     0.148 A 
ATOM     77  C   UNL     1       0.738  12.900   8.606  1.00  0.00     0.002 A 
ATOM     78  C   UNL     1       2.313  12.368  10.369  1.00  0.00     0.091 A 
ATOM     79  F   UNL     1       4.618  12.083   9.819  1.00  0.00    -0.205 F 
ATOM     80  C   UNL     1       1.008  12.671   9.953  1.00  0.00     0.022 A 
BRANCH  78  81
ATOM     81  S   UNL     1       2.553  11.976  12.106  1.00  0.00     0.127 S 
ATOM     82  O   UNL     1       2.468  13.296  12.725  1.00  0.00    -0.237 OA
ATOM     83  O   UNL     1       1.418  11.094  12.379  1.00  0.00    -0.237 OA
ATOM     84  O   UNL     1       3.852  11.321  12.182  1.00  0.00    -0.744 OA
ENDBRANCH  78  81
ENDBRANCH  50  74
BRANCH  62  85
ATOM     85  C   UNL     1       6.049  17.258   3.877  1.00  0.00     0.023 A 
ATOM     86  C   UNL     1       6.504  18.171   4.848  1.00  0.00     0.012 A 
ATOM     87  C   UNL     1       5.464  17.745   2.691  1.00  0.00     0.148 A 
ATOM     88  C   UNL     1       6.357  19.544   4.656  1.00  0.00     0.002 A 
ATOM     89  C   UNL     1       5.361  19.116   2.486  1.00  0.00     0.091 A 
ATOM     90  F   UNL     1       5.020  16.861   1.786  1.00  0.00    -0.205 F 
ATOM     91  C   UNL     1       5.798  20.017   3.471  1.00  0.00     0.022 A 
BRANCH  89  92
ATOM     92  S   UNL     1       4.739  19.813   0.950  1.00  0.00     0.127 S 
ATOM     93  O   UNL     1       3.401  20.253   1.342  1.00  0.00    -0.237 OA
ATOM     94  O   UNL     1       5.686  20.899   0.692  1.00  0.00    -0.237 OA
ATOM     95  O   UNL     1       4.785  18.732  -0.025  1.00  0.00    -0.744 OA
ENDBRANCH  89  92
ENDBRANCH  62  85
ENDBRANCH  36  37
ENDBRANCH  29  31
ENDBRANCH  28  29
ENDBRANCH  27  28
ENDBRANCH  26  27
ENDBRANCH  25  26
ENDBRANCH   1  25
TORSDOF 22
