REMARK SMILES COc1ccc(-c2[nH]nc3nc(-c4ccc(C(F)(F)F)cc4)cc(C(=O)OCCOCCOCCOC(=O)c4ccc(-c5c6nc(c(-c7cccc(S(=O)(=O)[O-])c7F)c7ccc([nH]7)c(-c7cccc(S(=O)(=O)[O-])c7F)c7nc(c(-c8cccc(S(=O)(=O)[O-])c8F)c8ccc5[nH]8)C=C7)C=C6)cc4)c23)cc1
REMARK SMILES IDX 32 1 31 2 30 3 29 4 28 5 27 6 25 7 26 8 24 9 7 10 8 11
REMARK SMILES IDX 102 12 9 13 10 15 11 16 23 17 12 18 6 19 3 20 4 21 104 22
REMARK SMILES IDX 5 23 103 24 2 25 1 26 13 27 14 28 22 29 15 30 21 31 16 32
REMARK SMILES IDX 17 33 18 34 19 35 20 36 33 37 34 38 35 39 36 40 37 41 38 42
REMARK SMILES IDX 39 43 40 44 101 45 41 46 100 47 42 48 43 49 44 50 94 51
REMARK SMILES IDX 45 52 99 53 93 54 95 55 46 56 98 57 92 58 91 59 47 61 79 62
REMARK SMILES IDX 59 63 78 64 60 65 63 66 77 67 96 68 61 69 62 70 76 72 97 73
REMARK SMILES IDX 64 74 48 75 49 76 57 77 50 78 52 79 58 80 51 81 53 82 54 83
REMARK SMILES IDX 55 84 56 85 80 86 81 87 89 88 82 89 84 90 90 91 83 92 85 93
REMARK SMILES IDX 86 94 87 95 88 96 65 97 66 98 74 99 67 100 69 101 75 102
REMARK SMILES IDX 68 103 70 104 71 105 72 106 73 107
REMARK H PARENT 8 14 95 60 63 71
REMARK Flexibility Score: inf
ROOT
ATOM      1  C   UNL     1       6.079   4.234   2.275  1.00  0.00     0.188 C 
ENDROOT
BRANCH   1   2
ATOM      2  C   UNL     1       4.998   4.816   1.395  1.00  0.00     0.188 C 
BRANCH   2   3
ATOM      3  O   UNL     1       4.886   4.351   0.061  1.00  0.00    -0.376 OA
BRANCH   3   4
ATOM      4  C   UNL     1       3.874   5.019  -0.708  1.00  0.00     0.202 C 
BRANCH   4   5
ATOM      5  C   UNL     1       3.739   6.562  -0.582  1.00  0.00     0.261 C 
BRANCH   5   6
ATOM      6  O   UNL     1       3.737   7.113   0.760  1.00  0.00    -0.460 OA
BRANCH   6   7
ATOM      7  C   UNL     1       2.724   6.789   1.608  1.00  0.00     0.339 C 
ATOM      8  O   UNL     1       1.630   6.418   1.266  1.00  0.00    -0.246 OA
BRANCH   7   9
ATOM      9  C   UNL     1       3.237   6.880   3.011  1.00  0.00     0.075 A 
ATOM     10  C   UNL     1       1.995   5.004   4.190  1.00  0.00     0.075 A 
ATOM     11  N   UNL     1       1.877   4.744   5.538  1.00  0.00    -0.275 N 
ATOM     12  C   UNL     1       2.789   6.141   4.119  1.00  0.00     0.061 A 
ATOM     13  N   UNL     1       2.646   5.508   6.325  1.00  0.00    -0.154 NA
ATOM     14  H   UNL     1       1.275   4.051   5.894  1.00  0.00     0.190 HD
ATOM     15  C   UNL     1       3.268   6.311   5.465  1.00  0.00     0.182 A 
ATOM     16  N   UNL     1       4.258   7.173   5.790  1.00  0.00    -0.226 NA
ATOM     17  C   UNL     1       4.310   7.726   3.386  1.00  0.00     0.045 A 
ATOM     18  C   UNL     1       4.781   7.840   4.727  1.00  0.00     0.074 A 
BRANCH  10  19
ATOM     19  C   UNL     1       1.505   4.022   3.232  1.00  0.00     0.001 A 
ATOM     20  C   UNL     1       0.648   2.095   1.367  1.00  0.00     0.118 A 
ATOM     21  C   UNL     1      -0.131   3.223   1.643  1.00  0.00     0.047 A 
ATOM     22  C   UNL     1       1.837   1.904   2.066  1.00  0.00     0.047 A 
ATOM     23  C   UNL     1       0.287   4.178   2.577  1.00  0.00     0.014 A 
ATOM     24  C   UNL     1       2.259   2.860   2.997  1.00  0.00     0.014 A 
BRANCH  20  25
ATOM     25  O   UNL     1       0.144   1.274   0.398  1.00  0.00    -0.497 OA
ATOM     26  C   UNL     1       0.908   0.118   0.063  1.00  0.00     0.278 C 
ENDBRANCH  20  25
ENDBRANCH  10  19
BRANCH  18  27
ATOM     27  C   UNL     1       5.878   8.774   5.090  1.00  0.00     0.000 A 
ATOM     28  C   UNL     1       6.846   8.442   6.059  1.00  0.00     0.011 A 
ATOM     29  C   UNL     1       5.955  10.057   4.524  1.00  0.00     0.011 A 
ATOM     30  C   UNL     1       7.836   9.357   6.454  1.00  0.00     0.014 A 
ATOM     31  C   UNL     1       6.937  10.975   4.917  1.00  0.00     0.014 A 
ATOM     32  C   UNL     1       7.885  10.639   5.891  1.00  0.00     0.056 A 
BRANCH  32  33
ATOM     33  C   UNL     1       8.920  11.641   6.341  1.00  0.00     0.416 C 
ATOM     34  F   UNL     1       8.824  11.939   7.667  1.00  0.00    -0.166 F 
ATOM     35  F   UNL     1      10.197  11.211   6.146  1.00  0.00    -0.166 F 
ATOM     36  F   UNL     1       8.832  12.839   5.691  1.00  0.00    -0.166 F 
ENDBRANCH  32  33
ENDBRANCH  18  27
ENDBRANCH   7   9
ENDBRANCH   6   7
ENDBRANCH   5   6
ENDBRANCH   4   5
ENDBRANCH   3   4
ENDBRANCH   2   3
ENDBRANCH   1   2
BRANCH   1  37
ATOM     37  O   UNL     1       7.410   4.472   1.818  1.00  0.00    -0.376 OA
BRANCH  37  38
ATOM     38  C   UNL     1       7.688   4.229   0.438  1.00  0.00     0.202 C 
BRANCH  38  39
ATOM     39  C   UNL     1       7.727   2.774  -0.020  1.00  0.00     0.261 C 
BRANCH  39  40
ATOM     40  O   UNL     1       6.699   1.977   0.539  1.00  0.00    -0.460 OA
BRANCH  40  41
ATOM     41  C   UNL     1       7.031   1.457   1.742  1.00  0.00     0.338 C 
ATOM     42  O   UNL     1       8.007   1.720   2.425  1.00  0.00    -0.246 OA
BRANCH  41  43
ATOM     43  C   UNL     1       6.048   0.434   2.102  1.00  0.00     0.060 A 
ATOM     44  C   UNL     1       6.214  -0.121   3.372  1.00  0.00     0.016 A 
ATOM     45  C   UNL     1       5.402  -0.233   1.053  1.00  0.00     0.016 A 
ATOM     46  C   UNL     1       6.060  -1.476   3.483  1.00  0.00     0.010 A 
ATOM     47  C   UNL     1       5.274  -1.590   1.158  1.00  0.00     0.010 A 
ATOM     48  C   UNL     1       5.722  -2.192   2.330  1.00  0.00    -0.014 A 
BRANCH  48  49
ATOM     49  C   UNL     1       5.800  -3.627   2.395  1.00  0.00     0.031 A 
ATOM     50  C   UNL     1       4.649  -4.192   3.116  1.00  0.00     0.074 A 
ATOM     51  C   UNL     1       6.789  -4.315   1.798  1.00  0.00     0.049 A 
ATOM     52  N   UNL     1       4.646  -4.691   4.306  1.00  0.00    -0.248 NA
ATOM     53  C   UNL     1       3.310  -3.945   2.558  1.00  0.00     0.031 C 
ATOM     54  C   UNL     1       7.796  -3.825   0.852  1.00  0.00     0.029 A 
ATOM     55  N   UNL     1       7.006  -5.655   1.808  1.00  0.00    -0.354 N 
ATOM     56  C   UNL     1       3.330  -5.076   4.519  1.00  0.00     0.074 A 
ATOM     57  C   UNL     1       2.536  -4.357   3.561  1.00  0.00     0.031 C 
ATOM     58  C   UNL     1       8.322  -4.880   0.187  1.00  0.00     0.029 A 
ATOM     59  C   UNL     1       7.779  -6.107   0.745  1.00  0.00     0.049 A 
ATOM     60  H   UNL     1       6.649  -6.252   2.505  1.00  0.00     0.167 HD
ATOM     61  C   UNL     1       3.051  -6.203   5.226  1.00  0.00     0.034 A 
ATOM     62  C   UNL     1       7.853  -7.390   0.308  1.00  0.00     0.034 A 
ATOM     63  C   UNL     1       4.185  -6.618   6.016  1.00  0.00     0.049 A 
ATOM     64  C   UNL     1       7.381  -8.259   1.416  1.00  0.00     0.074 A 
ATOM     65  C   UNL     1       4.965  -6.018   6.986  1.00  0.00     0.029 A 
ATOM     66  N   UNL     1       4.916  -7.682   5.544  1.00  0.00    -0.354 N 
ATOM     67  N   UNL     1       8.023  -8.395   2.543  1.00  0.00    -0.248 NA
ATOM     68  C   UNL     1       5.967  -8.603   1.457  1.00  0.00     0.031 C 
ATOM     69  C   UNL     1       6.293  -6.463   6.718  1.00  0.00     0.029 A 
ATOM     70  C   UNL     1       6.243  -7.363   5.652  1.00  0.00     0.049 A 
ATOM     71  H   UNL     1       4.550  -8.525   5.191  1.00  0.00     0.167 HD
ATOM     72  C   UNL     1       7.026  -8.372   3.511  1.00  0.00     0.074 A 
ATOM     73  C   UNL     1       5.781  -8.609   2.781  1.00  0.00     0.031 C 
ATOM     74  C   UNL     1       7.264  -7.858   4.754  1.00  0.00     0.034 A 
BRANCH  61  75
ATOM     75  C   UNL     1       1.930  -7.155   4.880  1.00  0.00     0.023 A 
ATOM     76  C   UNL     1       1.702  -8.219   5.778  1.00  0.00     0.012 A 
ATOM     77  C   UNL     1       1.292  -7.236   3.619  1.00  0.00     0.148 A 
ATOM     78  C   UNL     1       0.938  -9.332   5.416  1.00  0.00     0.002 A 
ATOM     79  C   UNL     1       0.466  -8.303   3.294  1.00  0.00     0.091 A 
ATOM     80  F   UNL     1       1.575  -6.359   2.655  1.00  0.00    -0.205 F 
ATOM     81  C   UNL     1       0.314  -9.373   4.175  1.00  0.00     0.022 A 
BRANCH  79  82
ATOM     82  S   UNL     1      -0.396  -8.374   1.717  1.00  0.00     0.127 S 
ATOM     83  O   UNL     1       0.356  -9.413   1.021  1.00  0.00    -0.237 OA
ATOM     84  O   UNL     1      -1.746  -8.755   2.135  1.00  0.00    -0.237 OA
ATOM     85  O   UNL     1      -0.304  -7.032   1.156  1.00  0.00    -0.744 OA
ENDBRANCH  79  82
ENDBRANCH  61  75
BRANCH  62  86
ATOM     86  C   UNL     1       7.982  -7.901  -1.080  1.00  0.00     0.023 A 
ATOM     87  C   UNL     1       8.339  -9.248  -1.296  1.00  0.00     0.012 A 
ATOM     88  C   UNL     1       7.481  -7.166  -2.178  1.00  0.00     0.148 A 
ATOM     89  C   UNL     1       8.170  -9.850  -2.550  1.00  0.00     0.002 A 
ATOM     90  C   UNL     1       7.324  -7.765  -3.425  1.00  0.00     0.091 A 
ATOM     91  F   UNL     1       7.065  -5.909  -1.982  1.00  0.00    -0.205 F 
ATOM     92  C   UNL     1       7.656  -9.112  -3.612  1.00  0.00     0.022 A 
BRANCH  90  93
ATOM     93  S   UNL     1       6.638  -6.875  -4.829  1.00  0.00     0.127 S 
ATOM     94  O   UNL     1       7.582  -7.214  -5.895  1.00  0.00    -0.237 OA
ATOM     95  O   UNL     1       5.319  -7.488  -4.960  1.00  0.00    -0.237 OA
ATOM     96  O   UNL     1       6.646  -5.467  -4.451  1.00  0.00    -0.744 OA
ENDBRANCH  90  93
ENDBRANCH  62  86
BRANCH  74  97
ATOM     97  C   UNL     1       8.691  -7.550   5.135  1.00  0.00     0.023 A 
ATOM     98  C   UNL     1       9.464  -6.575   4.469  1.00  0.00     0.012 A 
ATOM     99  C   UNL     1       9.198  -8.131   6.308  1.00  0.00     0.148 A 
ATOM    100  C   UNL     1      10.723  -6.206   4.952  1.00  0.00     0.002 A 
ATOM    101  C   UNL     1      10.428  -7.727   6.812  1.00  0.00     0.091 A 
ATOM    102  F   UNL     1       8.449  -9.053   6.932  1.00  0.00    -0.205 F 
ATOM    103  C   UNL     1      11.199  -6.772   6.132  1.00  0.00     0.022 A 
BRANCH 101 104
ATOM    104  S   UNL     1      11.030  -8.325   8.392  1.00  0.00     0.127 S 
ATOM    105  O   UNL     1      12.069  -9.269   7.985  1.00  0.00    -0.237 OA
ATOM    106  O   UNL     1      11.528  -7.101   9.023  1.00  0.00    -0.237 OA
ATOM    107  O   UNL     1       9.877  -8.912   9.065  1.00  0.00    -0.744 OA
ENDBRANCH 101 104
ENDBRANCH  74  97
ENDBRANCH  48  49
ENDBRANCH  41  43
ENDBRANCH  40  41
ENDBRANCH  39  40
ENDBRANCH  38  39
ENDBRANCH  37  38
ENDBRANCH   1  37
TORSDOF 24
