REMARK SMILES Cc1ccccc1[C@@H]1[NH2+][C@@H](C(=O)OCCOCCOCCOC(=O)c2ccc(-c3c4nc(c(-c5cccc(S(=O)(=O)[O-])c5F)c5ccc([nH]5)c(-c5cccc(S(=O)(=O)[O-])c5F)c5nc(c(-c6cccc(S(=O)(=O)[O-])c6F)c6ccc3[nH]6)C=C5)C=C4)cc2)CC2=c3ccccc3=N[C@H]21
REMARK SMILES IDX 18 1 17 2 16 3 15 4 14 5 13 6 11 7 12 8 10 9 8 10 9 11 97 12
REMARK SMILES IDX 89 15 96 16 88 17 90 18 95 19 91 20 94 21 92 22 93 23 7 24
REMARK SMILES IDX 1 25 2 26 3 27 4 28 6 29 5 30 19 31 20 32 21 33 22 34 23 35
REMARK SMILES IDX 24 36 25 37 26 38 87 39 27 40 86 41 28 42 29 43 30 44 80 45
REMARK SMILES IDX 31 46 85 47 79 48 81 49 32 50 84 51 78 52 77 53 33 55 65 56
REMARK SMILES IDX 45 57 64 58 46 59 49 60 63 61 82 62 47 63 48 64 62 66 83 67
REMARK SMILES IDX 50 68 34 69 35 70 43 71 36 72 38 73 44 74 37 75 39 76 40 77
REMARK SMILES IDX 41 78 42 79 66 80 67 81 75 82 68 83 70 84 76 85 69 86 71 87
REMARK SMILES IDX 72 88 73 89 74 90 51 91 52 92 60 93 53 94 55 95 61 96 54 97
REMARK SMILES IDX 56 98 57 99 58 100 59 101
REMARK H PARENT 9 13 9 14 81 54 49 65
REMARK Flexibility Score: inf
ROOT
ATOM      1  C   UNL     1      -2.378   7.760  -4.907  1.00  0.00     0.188 C 
ENDROOT
BRANCH   1   2
ATOM      2  C   UNL     1      -3.441   6.692  -4.593  1.00  0.00     0.188 C 
BRANCH   2   3
ATOM      3  O   UNL     1      -4.396   6.775  -3.509  1.00  0.00    -0.376 OA
BRANCH   3   4
ATOM      4  C   UNL     1      -4.306   7.626  -2.336  1.00  0.00     0.202 C 
BRANCH   4   5
ATOM      5  C   UNL     1      -4.127   7.048  -0.746  1.00  0.00     0.261 C 
BRANCH   5   6
ATOM      6  O   UNL     1      -2.748   6.539  -0.042  1.00  0.00    -0.459 OA
BRANCH   6   7
ATOM      7  C   UNL     1      -2.214   5.272   0.313  1.00  0.00     0.365 C 
ATOM      8  O   UNL     1      -2.721   4.153   0.219  1.00  0.00    -0.245 OA
BRANCH   7   9
ATOM      9  C   UNL     1      -0.791   5.176   0.831  1.00  0.00     0.298 C 
ATOM     10  C   UNL     1       0.547   2.929   1.145  1.00  0.00     0.243 C 
ATOM     11  N   UNL     1      -0.157   3.907   0.262  1.00  0.00    -0.326 N 
ATOM     12  C   UNL     1       0.668   3.327   2.649  1.00  0.00     0.196 C 
ATOM     13  H   UNL     1      -0.907   3.392  -0.200  1.00  0.00     0.347 HD
ATOM     14  H   UNL     1       0.603   4.276  -0.309  1.00  0.00     0.347 HD
ATOM     15  C   UNL     1      -0.625   3.979   3.026  1.00  0.00    -0.024 C 
ATOM     16  N   UNL     1       0.768   2.140   3.561  1.00  0.00    -0.270 NA
ATOM     17  C   UNL     1      -0.925   5.266   2.350  1.00  0.00     0.111 C 
ATOM     18  C   UNL     1      -1.355   3.184   3.797  1.00  0.00     0.002 A 
ATOM     19  C   UNL     1      -0.395   2.122   4.142  1.00  0.00     0.066 A 
ATOM     20  C   UNL     1      -2.707   3.151   4.247  1.00  0.00     0.010 A 
ATOM     21  C   UNL     1      -0.841   1.155   5.172  1.00  0.00     0.028 A 
ATOM     22  C   UNL     1      -3.076   2.175   5.093  1.00  0.00     0.001 A 
ATOM     23  C   UNL     1      -2.111   1.215   5.609  1.00  0.00     0.002 A 
BRANCH  10  24
ATOM     24  C   UNL     1       1.911   2.520   0.559  1.00  0.00     0.015 A 
ATOM     25  C   UNL     1       2.760   4.930   0.279  1.00  0.00     0.045 C 
ATOM     26  C   UNL     1       2.925   3.441   0.219  1.00  0.00    -0.042 A 
ATOM     27  C   UNL     1       4.189   2.970  -0.189  1.00  0.00     0.004 A 
ATOM     28  C   UNL     1       4.450   1.609  -0.319  1.00  0.00     0.000 A 
ATOM     29  C   UNL     1       2.188   1.143   0.380  1.00  0.00     0.010 A 
ATOM     30  C   UNL     1       3.440   0.694  -0.056  1.00  0.00     0.001 A 
ENDBRANCH  10  24
ENDBRANCH   7   9
ENDBRANCH   6   7
ENDBRANCH   5   6
ENDBRANCH   4   5
ENDBRANCH   3   4
ENDBRANCH   2   3
ENDBRANCH   1   2
BRANCH   1  31
ATOM     31  O   UNL     1      -1.817   8.297  -3.726  1.00  0.00    -0.376 OA
BRANCH  31  32
ATOM     32  C   UNL     1      -0.712   9.175  -3.878  1.00  0.00     0.202 C 
BRANCH  32  33
ATOM     33  C   UNL     1       0.629   8.493  -4.250  1.00  0.00     0.261 C 
BRANCH  33  34
ATOM     34  O   UNL     1       1.031   7.501  -3.269  1.00  0.00    -0.460 OA
BRANCH  34  35
ATOM     35  C   UNL     1       1.171   6.187  -3.710  1.00  0.00     0.338 C 
ATOM     36  O   UNL     1       1.953   5.857  -4.551  1.00  0.00    -0.246 OA
BRANCH  35  37
ATOM     37  C   UNL     1       0.077   5.328  -3.094  1.00  0.00     0.060 A 
ATOM     38  C   UNL     1      -0.269   3.987  -3.327  1.00  0.00     0.016 A 
ATOM     39  C   UNL     1      -0.847   6.016  -2.393  1.00  0.00     0.016 A 
ATOM     40  C   UNL     1      -1.572   3.418  -2.896  1.00  0.00     0.010 A 
ATOM     41  C   UNL     1      -2.119   5.470  -2.258  1.00  0.00     0.010 A 
ATOM     42  C   UNL     1      -2.598   4.179  -2.334  1.00  0.00    -0.014 A 
BRANCH  42  43
ATOM     43  C   UNL     1      -4.146   3.929  -2.028  1.00  0.00     0.031 A 
ATOM     44  C   UNL     1      -5.147   3.984  -0.685  1.00  0.00     0.074 A 
ATOM     45  C   UNL     1      -4.852   3.819  -3.176  1.00  0.00     0.049 A 
ATOM     46  N   UNL     1      -6.394   3.538  -0.718  1.00  0.00    -0.248 NA
ATOM     47  C   UNL     1      -4.959   4.484   0.723  1.00  0.00     0.031 C 
ATOM     48  C   UNL     1      -6.281   4.007  -3.400  1.00  0.00     0.029 A 
ATOM     49  N   UNL     1      -4.385   3.334  -4.399  1.00  0.00    -0.354 N 
ATOM     50  C   UNL     1      -7.072   3.916   0.451  1.00  0.00     0.074 A 
ATOM     51  C   UNL     1      -6.086   4.269   1.381  1.00  0.00     0.031 C 
ATOM     52  C   UNL     1      -6.626   3.375  -4.529  1.00  0.00     0.029 A 
ATOM     53  C   UNL     1      -5.457   2.649  -4.980  1.00  0.00     0.049 A 
ATOM     54  H   UNL     1      -3.484   3.452  -4.776  1.00  0.00     0.167 HD
ATOM     55  C   UNL     1      -8.421   4.076   0.540  1.00  0.00     0.034 A 
ATOM     56  C   UNL     1      -5.366   1.310  -5.213  1.00  0.00     0.034 A 
ATOM     57  C   UNL     1      -9.053   3.418  -0.582  1.00  0.00     0.049 A 
ATOM     58  C   UNL     1      -6.478   0.498  -4.590  1.00  0.00     0.074 A 
ATOM     59  C   UNL     1      -9.700   3.836  -1.725  1.00  0.00     0.029 A 
ATOM     60  N   UNL     1      -8.848   2.056  -0.706  1.00  0.00    -0.354 N 
ATOM     61  N   UNL     1      -7.456   0.990  -3.877  1.00  0.00    -0.248 NA
ATOM     62  C   UNL     1      -6.586  -0.949  -4.726  1.00  0.00     0.031 C 
ATOM     63  C   UNL     1      -9.798   2.707  -2.590  1.00  0.00     0.029 A 
ATOM     64  C   UNL     1      -9.259   1.606  -1.942  1.00  0.00     0.049 A 
ATOM     65  H   UNL     1      -8.460   1.484  -0.005  1.00  0.00     0.167 HD
ATOM     66  C   UNL     1      -8.175  -0.029  -3.299  1.00  0.00     0.074 A 
ATOM     67  C   UNL     1      -7.664  -1.213  -3.968  1.00  0.00     0.031 C 
ATOM     68  C   UNL     1      -9.052   0.197  -2.265  1.00  0.00     0.034 A 
BRANCH  55  69
ATOM     69  C   UNL     1      -9.203   4.898   1.593  1.00  0.00     0.023 A 
ATOM     70  C   UNL     1     -10.614   4.862   1.499  1.00  0.00     0.012 A 
ATOM     71  C   UNL     1      -8.695   5.791   2.586  1.00  0.00     0.148 A 
ATOM     72  C   UNL     1     -11.457   5.657   2.295  1.00  0.00     0.002 A 
ATOM     73  C   UNL     1      -9.540   6.530   3.434  1.00  0.00     0.091 A 
ATOM     74  F   UNL     1      -7.385   6.034   2.674  1.00  0.00    -0.205 F 
ATOM     75  C   UNL     1     -10.923   6.482   3.273  1.00  0.00     0.022 A 
BRANCH  73  76
ATOM     76  S   UNL     1      -8.923   7.604   4.756  1.00  0.00     0.127 S 
ATOM     77  O   UNL     1      -9.352   8.928   4.304  1.00  0.00    -0.237 OA
ATOM     78  O   UNL     1      -9.638   7.105   5.931  1.00  0.00    -0.237 OA
ATOM     79  O   UNL     1      -7.478   7.412   4.803  1.00  0.00    -0.744 OA
ENDBRANCH  73  76
ENDBRANCH  55  69
BRANCH  56  80
ATOM     80  C   UNL     1      -3.962   0.883  -5.533  1.00  0.00     0.023 A 
ATOM     81  C   UNL     1      -3.390   1.478  -6.691  1.00  0.00     0.012 A 
ATOM     82  C   UNL     1      -3.095   0.284  -4.597  1.00  0.00     0.148 A 
ATOM     83  C   UNL     1      -2.009   1.589  -6.851  1.00  0.00     0.002 A 
ATOM     84  C   UNL     1      -1.708   0.368  -4.783  1.00  0.00     0.091 A 
ATOM     85  F   UNL     1      -3.622  -0.297  -3.511  1.00  0.00    -0.205 F 
ATOM     86  C   UNL     1      -1.168   1.056  -5.885  1.00  0.00     0.022 A 
BRANCH  84  87
ATOM     87  S   UNL     1      -0.533  -0.226  -3.543  1.00  0.00     0.127 S 
ATOM     88  O   UNL     1      -0.265  -1.580  -4.018  1.00  0.00    -0.237 OA
ATOM     89  O   UNL     1       0.586   0.704  -3.696  1.00  0.00    -0.237 OA
ATOM     90  O   UNL     1      -1.238  -0.114  -2.274  1.00  0.00    -0.744 OA
ENDBRANCH  84  87
ENDBRANCH  56  80
BRANCH  68  91
ATOM     91  C   UNL     1      -9.711  -0.857  -1.363  1.00  0.00     0.023 A 
ATOM     92  C   UNL     1      -9.368  -2.220  -1.399  1.00  0.00     0.012 A 
ATOM     93  C   UNL     1     -10.622  -0.482  -0.331  1.00  0.00     0.148 A 
ATOM     94  C   UNL     1      -9.896  -3.156  -0.499  1.00  0.00     0.002 A 
ATOM     95  C   UNL     1     -11.052  -1.394   0.635  1.00  0.00     0.091 A 
ATOM     96  F   UNL     1     -11.112   0.765  -0.280  1.00  0.00    -0.205 F 
ATOM     97  C   UNL     1     -10.713  -2.740   0.539  1.00  0.00     0.022 A 
BRANCH  95  98
ATOM     98  S   UNL     1     -11.903  -0.826   2.117  1.00  0.00     0.127 S 
ATOM     99  O   UNL     1     -13.302  -0.846   1.697  1.00  0.00    -0.237 OA
ATOM    100  O   UNL     1     -11.550  -1.850   3.103  1.00  0.00    -0.237 OA
ATOM    101  O   UNL     1     -11.323   0.483   2.389  1.00  0.00    -0.744 OA
ENDBRANCH  95  98
ENDBRANCH  68  91
ENDBRANCH  42  43
ENDBRANCH  35  37
ENDBRANCH  34  35
ENDBRANCH  33  34
ENDBRANCH  32  33
ENDBRANCH  31  32
ENDBRANCH   1  31
TORSDOF 21
