REMARK SMILES O=C(OCCOCCOCCOC(=O)c1cc2c(c(S(=O)(=O)Nc3cc(C(F)(F)F)ccc3-n3cccn3)c1)CCC2)c1ccc(-c2c3nc(c(-c4cccc(S(=O)(=O)[O-])c4F)c4ccc([nH]4)c(-c4cccc(S(=O)(=O)[O-])c4F)c4nc(c(-c5cccc(S(=O)(=O)[O-])c5F)c5ccc2[nH]5)C=C4)C=C3)cc1
REMARK SMILES IDX 8 1 7 2 6 3 5 4 4 5 3 6 2 7 1 8 43 9 44 10 105 11 45 12
REMARK SMILES IDX 104 13 46 14 47 15 48 16 98 17 49 18 103 19 97 20 99 21
REMARK SMILES IDX 50 22 102 23 96 24 95 25 51 27 83 28 63 29 82 30 64 31 67 32
REMARK SMILES IDX 81 33 100 34 65 35 66 36 80 38 101 39 68 40 52 41 53 42
REMARK SMILES IDX 61 43 54 44 56 45 62 46 55 47 57 48 58 49 59 50 60 51 84 52
REMARK SMILES IDX 85 53 93 54 86 55 88 56 94 57 87 58 89 59 90 60 91 61 92 62
REMARK SMILES IDX 69 63 70 64 78 65 71 66 73 67 79 68 72 69 74 70 75 71 76 72
REMARK SMILES IDX 77 73 9 74 10 75 11 76 12 77 13 78 14 79 15 80 16 81 39 82
REMARK SMILES IDX 17 83 19 84 18 85 42 86 40 87 41 88 20 89 21 90 22 91 23 92
REMARK SMILES IDX 24 94 25 95 33 96 26 97 32 98 31 99 34 100 35 101 38 102
REMARK SMILES IDX 36 103 37 104 27 105 28 106 29 107 30 108
REMARK H PARENT 99 26 67 37 23 93
REMARK Flexibility Score: inf
ROOT
ATOM      1  C   UNL     1       2.372  -2.145  -0.371  1.00  0.00     0.188 C 
ENDROOT
BRANCH   1   2
ATOM      2  C   UNL     1       3.452  -1.223  -0.981  1.00  0.00     0.188 C 
BRANCH   2   3
ATOM      3  O   UNL     1       4.723  -1.317  -0.348  1.00  0.00    -0.376 OA
BRANCH   3   4
ATOM      4  C   UNL     1       5.238  -0.112   0.190  1.00  0.00     0.202 C 
BRANCH   4   5
ATOM      5  C   UNL     1       4.655   0.246   1.558  1.00  0.00     0.261 C 
BRANCH   5   6
ATOM      6  O   UNL     1       3.236   0.044   1.694  1.00  0.00    -0.460 OA
BRANCH   6   7
ATOM      7  C   UNL     1       2.154   0.790   1.404  1.00  0.00     0.338 C 
ATOM      8  O   UNL     1       1.064   0.414   1.833  1.00  0.00    -0.246 OA
BRANCH   7   9
ATOM      9  C   UNL     1       2.173   1.991   0.528  1.00  0.00     0.060 A 
ATOM     10  C   UNL     1       3.302   2.742   0.207  1.00  0.00     0.016 A 
ATOM     11  C   UNL     1       0.914   2.425   0.059  1.00  0.00     0.016 A 
ATOM     12  C   UNL     1       3.167   3.950  -0.463  1.00  0.00     0.010 A 
ATOM     13  C   UNL     1       0.774   3.635  -0.608  1.00  0.00     0.010 A 
ATOM     14  C   UNL     1       1.900   4.421  -0.809  1.00  0.00    -0.014 A 
BRANCH  14  15
ATOM     15  C   UNL     1       1.818   5.770  -1.345  1.00  0.00     0.031 A 
ATOM     16  C   UNL     1       2.402   5.984  -2.689  1.00  0.00     0.074 A 
ATOM     17  C   UNL     1       1.239   6.783  -0.670  1.00  0.00     0.049 A 
ATOM     18  N   UNL     1       3.454   6.674  -2.990  1.00  0.00    -0.248 NA
ATOM     19  C   UNL     1       1.794   5.279  -3.822  1.00  0.00     0.031 C 
ATOM     20  C   UNL     1       0.381   6.695   0.514  1.00  0.00     0.029 A 
ATOM     21  N   UNL     1       1.206   8.109  -0.987  1.00  0.00    -0.354 N 
ATOM     22  C   UNL     1       3.518   6.673  -4.382  1.00  0.00     0.074 A 
ATOM     23  C   UNL     1       2.567   5.687  -4.830  1.00  0.00     0.031 C 
ATOM     24  C   UNL     1      -0.278   7.865   0.665  1.00  0.00     0.029 A 
ATOM     25  C   UNL     1       0.217   8.815  -0.317  1.00  0.00     0.049 A 
ATOM     26  H   UNL     1       1.825   8.526  -1.629  1.00  0.00     0.167 HD
ATOM     27  C   UNL     1       4.196   7.632  -5.069  1.00  0.00     0.034 A 
ATOM     28  C   UNL     1      -0.217  10.064  -0.603  1.00  0.00     0.034 A 
ATOM     29  C   UNL     1       5.096   8.372  -4.224  1.00  0.00     0.049 A 
ATOM     30  C   UNL     1       0.842  10.747  -1.380  1.00  0.00     0.074 A 
ATOM     31  C   UNL     1       6.173   8.061  -3.419  1.00  0.00     0.029 A 
ATOM     32  N   UNL     1       4.732   9.653  -3.892  1.00  0.00    -0.354 N 
ATOM     33  N   UNL     1       1.986  11.122  -0.881  1.00  0.00    -0.248 NA
ATOM     34  C   UNL     1       0.774  10.710  -2.831  1.00  0.00     0.031 C 
ATOM     35  C   UNL     1       6.109   8.989  -2.340  1.00  0.00     0.029 A 
ATOM     36  C   UNL     1       5.013   9.825  -2.564  1.00  0.00     0.049 A 
ATOM     37  H   UNL     1       4.342  10.324  -4.497  1.00  0.00     0.167 HD
ATOM     38  C   UNL     1       2.893  10.939  -1.916  1.00  0.00     0.074 A 
ATOM     39  C   UNL     1       2.073  10.821  -3.118  1.00  0.00     0.031 C 
ATOM     40  C   UNL     1       4.194  10.608  -1.664  1.00  0.00     0.034 A 
BRANCH  27  41
ATOM     41  C   UNL     1       3.825   8.146  -6.441  1.00  0.00     0.023 A 
ATOM     42  C   UNL     1       4.747   9.002  -7.088  1.00  0.00     0.012 A 
ATOM     43  C   UNL     1       2.528   8.066  -6.995  1.00  0.00     0.148 A 
ATOM     44  C   UNL     1       4.380   9.780  -8.191  1.00  0.00     0.002 A 
ATOM     45  C   UNL     1       2.194   8.776  -8.144  1.00  0.00     0.091 A 
ATOM     46  F   UNL     1       1.560   7.413  -6.344  1.00  0.00    -0.205 F 
ATOM     47  C   UNL     1       3.104   9.661  -8.726  1.00  0.00     0.022 A 
BRANCH  45  48
ATOM     48  S   UNL     1       0.580   8.599  -8.913  1.00  0.00     0.127 S 
ATOM     49  O   UNL     1      -0.098   9.807  -8.454  1.00  0.00    -0.237 OA
ATOM     50  O   UNL     1       0.923   8.583 -10.336  1.00  0.00    -0.237 OA
ATOM     51  O   UNL     1       0.056   7.333  -8.416  1.00  0.00    -0.744 OA
ENDBRANCH  45  48
ENDBRANCH  27  41
BRANCH  28  52
ATOM     52  C   UNL     1      -1.562  10.653  -0.426  1.00  0.00     0.023 A 
ATOM     53  C   UNL     1      -1.710  12.053  -0.385  1.00  0.00     0.012 A 
ATOM     54  C   UNL     1      -2.726   9.862  -0.561  1.00  0.00     0.148 A 
ATOM     55  C   UNL     1      -2.971  12.647  -0.505  1.00  0.00     0.002 A 
ATOM     56  C   UNL     1      -3.978  10.457  -0.666  1.00  0.00     0.091 A 
ATOM     57  F   UNL     1      -2.597   8.534  -0.684  1.00  0.00    -0.205 F 
ATOM     58  C   UNL     1      -4.104  11.851  -0.651  1.00  0.00     0.022 A 
BRANCH  56  59
ATOM     59  S   UNL     1      -5.478   9.487  -0.871  1.00  0.00     0.127 S 
ATOM     60  O   UNL     1      -6.401  10.151   0.051  1.00  0.00    -0.237 OA
ATOM     61  O   UNL     1      -5.777   9.688  -2.286  1.00  0.00    -0.237 OA
ATOM     62  O   UNL     1      -5.124   8.128  -0.482  1.00  0.00    -0.744 OA
ENDBRANCH  56  59
ENDBRANCH  28  52
BRANCH  40  63
ATOM     63  C   UNL     1       4.721  10.772  -0.261  1.00  0.00     0.023 A 
ATOM     64  C   UNL     1       4.164  10.078   0.833  1.00  0.00     0.012 A 
ATOM     65  C   UNL     1       5.911  11.498  -0.069  1.00  0.00     0.148 A 
ATOM     66  C   UNL     1       4.760  10.133   2.095  1.00  0.00     0.002 A 
ATOM     67  C   UNL     1       6.530  11.507   1.176  1.00  0.00     0.091 A 
ATOM     68  F   UNL     1       6.436  12.151  -1.117  1.00  0.00    -0.205 F 
ATOM     69  C   UNL     1       5.951  10.835   2.264  1.00  0.00     0.022 A 
BRANCH  67  70
ATOM     70  S   UNL     1       8.138  12.269   1.413  1.00  0.00     0.127 S 
ATOM     71  O   UNL     1       7.784  13.557   2.005  1.00  0.00    -0.237 OA
ATOM     72  O   UNL     1       8.801  11.338   2.327  1.00  0.00    -0.237 OA
ATOM     73  O   UNL     1       8.745  12.325   0.088  1.00  0.00    -0.744 OA
ENDBRANCH  67  70
ENDBRANCH  40  63
ENDBRANCH  14  15
ENDBRANCH   7   9
ENDBRANCH   6   7
ENDBRANCH   5   6
ENDBRANCH   4   5
ENDBRANCH   3   4
ENDBRANCH   2   3
ENDBRANCH   1   2
BRANCH   1  74
ATOM     74  O   UNL     1       2.670  -3.416   0.203  1.00  0.00    -0.376 OA
BRANCH  74  75
ATOM     75  C   UNL     1       3.957  -3.979   0.068  1.00  0.00     0.202 C 
BRANCH  75  76
ATOM     76  C   UNL     1       4.243  -4.629  -1.286  1.00  0.00     0.261 C 
BRANCH  76  77
ATOM     77  O   UNL     1       3.890  -3.840  -2.432  1.00  0.00    -0.460 OA
BRANCH  77  78
ATOM     78  C   UNL     1       2.662  -4.052  -2.967  1.00  0.00     0.338 C 
ATOM     79  O   UNL     1       1.796  -4.829  -2.576  1.00  0.00    -0.246 OA
BRANCH  78  80
ATOM     80  C   UNL     1       2.500  -3.175  -4.143  1.00  0.00     0.061 A 
ATOM     81  C   UNL     1       3.436  -3.289  -5.170  1.00  0.00     0.019 A 
ATOM     82  C   UNL     1       1.434  -2.247  -4.228  1.00  0.00     0.038 A 
ATOM     83  C   UNL     1       3.296  -2.458  -6.261  1.00  0.00    -0.043 A 
ATOM     84  C   UNL     1       1.327  -1.365  -5.329  1.00  0.00     0.092 A 
ATOM     85  C   UNL     1       2.298  -1.462  -6.321  1.00  0.00    -0.024 A 
ATOM     86  C   UNL     1       4.154  -2.443  -7.491  1.00  0.00     0.036 C 
ATOM     87  C   UNL     1       2.572  -0.617  -7.525  1.00  0.00     0.037 C 
ATOM     88  C   UNL     1       3.244  -1.653  -8.431  1.00  0.00     0.010 C 
BRANCH  84  89
ATOM     89  S   UNL     1       0.168  -0.005  -5.249  1.00  0.00     0.262 S 
ATOM     90  O   UNL     1      -0.514  -0.123  -3.970  1.00  0.00    -0.201 OA
ATOM     91  O   UNL     1       0.909   1.193  -5.556  1.00  0.00    -0.201 OA
BRANCH  89  92
ATOM     92  N   UNL     1      -1.085  -0.110  -6.411  1.00  0.00    -0.277 N 
ATOM     93  H   UNL     1      -1.992   0.180  -6.161  1.00  0.00     0.180 HD
BRANCH  92  94
ATOM     94  C   UNL     1      -0.858  -0.607  -7.740  1.00  0.00     0.075 A 
ATOM     95  C   UNL     1      -0.563   0.307  -8.768  1.00  0.00     0.042 A 
ATOM     96  C   UNL     1      -0.806  -1.983  -8.010  1.00  0.00     0.089 A 
ATOM     97  C   UNL     1      -0.141  -0.144 -10.037  1.00  0.00     0.058 A 
ATOM     98  C   UNL     1      -0.399  -2.438  -9.273  1.00  0.00     0.031 A 
ATOM     99  C   UNL     1      -0.077  -1.525 -10.280  1.00  0.00     0.015 A 
BRANCH  96 100
ATOM    100  N   UNL     1      -1.134  -2.941  -7.020  1.00  0.00    -0.239 N 
ATOM    101  C   UNL     1      -2.041  -2.821  -5.991  1.00  0.00     0.115 A 
ATOM    102  N   UNL     1      -0.472  -4.126  -6.956  1.00  0.00    -0.177 NA
ATOM    103  C   UNL     1      -1.803  -3.858  -5.125  1.00  0.00     0.042 A 
ATOM    104  C   UNL     1      -0.799  -4.609  -5.753  1.00  0.00     0.135 A 
ENDBRANCH  96 100
BRANCH  97 105
ATOM    105  C   UNL     1       0.308   0.840 -11.097  1.00  0.00     0.416 C 
ATOM    106  F   UNL     1      -0.732   1.463 -11.710  1.00  0.00    -0.166 F 
ATOM    107  F   UNL     1       1.114   1.813 -10.599  1.00  0.00    -0.166 F 
ATOM    108  F   UNL     1       1.026   0.246 -12.095  1.00  0.00    -0.166 F 
ENDBRANCH  97 105
ENDBRANCH  92  94
ENDBRANCH  89  92
ENDBRANCH  84  89
ENDBRANCH  78  80
ENDBRANCH  77  78
ENDBRANCH  76  77
ENDBRANCH  75  76
ENDBRANCH  74  75
ENDBRANCH   1  74
TORSDOF 25
