REMARK SMILES N#Cc1cccnc1N1CC[NH+]([C@@H](C(=O)OCCOCCOCCOC(=O)c2ccc(-c3c4nc(c(-c5cccc(S(=O)(=O)[O-])c5F)c5ccc([nH]5)c(-c5cccc(S(=O)(=O)[O-])c5F)c5nc(c(-c6cccc(S(=O)(=O)[O-])c6F)c6ccc3[nH]6)C=C5)C=C4)cc2)c2c[nH]c3cc(CO)ccc23)CC1
REMARK SMILES IDX 20 1 19 2 18 3 17 4 16 5 14 6 15 7 13 8 12 9 9 10 10 11
REMARK SMILES IDX 103 12 11 13 102 14 8 16 3 17 4 18 5 19 7 20 6 21 2 22 1 23
REMARK SMILES IDX 91 24 92 25 101 26 93 27 94 28 100 29 95 31 99 32 96 33
REMARK SMILES IDX 97 34 98 35 21 37 22 38 23 39 24 40 25 41 26 42 27 43 28 44
REMARK SMILES IDX 29 45 90 46 30 47 89 48 31 49 32 50 33 51 83 52 34 53 88 54
REMARK SMILES IDX 82 55 84 56 35 57 87 58 81 59 80 60 36 62 68 63 48 64 67 65
REMARK SMILES IDX 49 66 52 67 66 68 85 69 50 70 51 71 65 73 86 74 53 75 37 76
REMARK SMILES IDX 38 77 46 78 39 79 41 80 47 81 40 82 42 83 43 84 44 85 45 86
REMARK SMILES IDX 69 87 70 88 78 89 71 90 73 91 79 92 72 93 74 94 75 95 76 96
REMARK SMILES IDX 77 97 54 98 55 99 63 100 56 101 58 102 64 103 57 104 59 105
REMARK SMILES IDX 60 106 61 107 62 108
REMARK H PARENT 12 15 93 30 98 36 84 61 52 72
REMARK Flexibility Score: inf
ROOT
ATOM      1  C   UNL     1      -2.946  -5.137   1.340  1.00  0.00     0.188 C 
ENDROOT
BRANCH   1   2
ATOM      2  O   UNL     1      -3.381  -4.861   2.655  1.00  0.00    -0.376 OA
BRANCH   2   3
ATOM      3  C   UNL     1      -2.489  -4.096   3.458  1.00  0.00     0.202 C 
BRANCH   3   4
ATOM      4  C   UNL     1      -1.006  -4.527   3.505  1.00  0.00     0.261 C 
BRANCH   4   5
ATOM      5  O   UNL     1      -0.297  -4.440   2.238  1.00  0.00    -0.459 OA
BRANCH   5   6
ATOM      6  C   UNL     1       0.166  -5.588   1.665  1.00  0.00     0.370 C 
ATOM      7  O   UNL     1       0.100  -6.680   2.226  1.00  0.00    -0.245 OA
BRANCH   6   8
ATOM      8  C   UNL     1       0.789  -5.394   0.245  1.00  0.00     0.328 C 
BRANCH   8   9
ATOM      9  N   UNL     1       1.964  -4.416   0.112  1.00  0.00    -0.316 N 
ATOM     10  N   UNL     1       1.775  -1.431   0.058  1.00  0.00    -0.344 N 
ATOM     11  C   UNL     1       1.329  -2.291  -1.035  1.00  0.00     0.179 C 
ATOM     12  C   UNL     1       1.766  -2.125   1.369  1.00  0.00     0.179 C 
ATOM     13  C   UNL     1       2.231  -3.527  -1.022  1.00  0.00     0.285 C 
ATOM     14  C   UNL     1       2.329  -3.602   1.298  1.00  0.00     0.285 C 
ATOM     15  H   UNL     1       2.511  -5.257  -0.070  1.00  0.00     0.349 HD
BRANCH  10  16
ATOM     16  C   UNL     1       1.239  -0.142   0.001  1.00  0.00     0.146 A 
ATOM     17  C   UNL     1       2.022   0.988   0.231  1.00  0.00     0.095 A 
ATOM     18  C   UNL     1       1.429   2.263   0.208  1.00  0.00     0.025 A 
ATOM     19  C   UNL     1       0.088   2.399  -0.104  1.00  0.00     0.022 A 
ATOM     20  N   UNL     1      -0.057   0.010  -0.348  1.00  0.00    -0.238 NA
ATOM     21  C   UNL     1      -0.592   1.252  -0.419  1.00  0.00     0.113 A 
BRANCH  17  22
ATOM     22  C   UNL     1       3.438   0.889   0.389  1.00  0.00     0.103 C 
ATOM     23  N   UNL     1       4.594   0.880   0.497  1.00  0.00    -0.192 NA
ENDBRANCH  17  22
ENDBRANCH  10  16
ENDBRANCH   8   9
BRANCH   8  24
ATOM     24  C   UNL     1      -0.125  -6.003  -1.014  1.00  0.00     0.046 A 
ATOM     25  C   UNL     1       0.593  -6.699  -1.988  1.00  0.00     0.094 A 
ATOM     26  C   UNL     1      -0.988  -5.382  -2.011  1.00  0.00     0.009 A 
ATOM     27  N   UNL     1       1.179  -5.609  -2.679  1.00  0.00    -0.361 N 
ATOM     28  C   UNL     1       0.213  -4.482  -2.745  1.00  0.00     0.046 A 
ATOM     29  C   UNL     1      -2.555  -5.553  -2.932  1.00  0.00     0.011 A 
ATOM     30  H   UNL     1       2.087  -5.600  -3.058  1.00  0.00     0.166 HD
ATOM     31  C   UNL     1      -0.021  -3.373  -4.113  1.00  0.00     0.032 A 
ATOM     32  C   UNL     1      -2.836  -4.398  -4.577  1.00  0.00     0.007 A 
ATOM     33  C   UNL     1      -1.508  -3.307  -5.057  1.00  0.00    -0.021 A 
BRANCH  33  34
ATOM     34  C   UNL     1      -1.721  -2.250  -6.088  1.00  0.00     0.191 C 
BRANCH  34  35
ATOM     35  O   UNL     1      -2.247  -1.074  -5.488  1.00  0.00    -0.392 OA
ATOM     36  H   UNL     1      -3.098  -1.278  -5.070  1.00  0.00     0.211 HD
ENDBRANCH  34  35
ENDBRANCH  33  34
ENDBRANCH   8  24
ENDBRANCH   6   8
ENDBRANCH   5   6
ENDBRANCH   4   5
ENDBRANCH   3   4
ENDBRANCH   2   3
ENDBRANCH   1   2
BRANCH   1  37
ATOM     37  C   UNL     1      -2.545  -3.929   0.503  1.00  0.00     0.188 C 
BRANCH  37  38
ATOM     38  O   UNL     1      -1.923  -2.813   1.120  1.00  0.00    -0.376 OA
BRANCH  38  39
ATOM     39  C   UNL     1      -2.483  -1.527   0.883  1.00  0.00     0.202 C 
BRANCH  39  40
ATOM     40  C   UNL     1      -3.044  -1.233  -0.510  1.00  0.00     0.261 C 
BRANCH  40  41
ATOM     41  O   UNL     1      -2.695  -2.264  -1.434  1.00  0.00    -0.460 OA
BRANCH  41  42
ATOM     42  C   UNL     1      -1.777  -2.320  -2.406  1.00  0.00     0.338 C 
ATOM     43  O   UNL     1      -1.097  -1.392  -2.788  1.00  0.00    -0.246 OA
BRANCH  42  44
ATOM     44  C   UNL     1      -2.051  -3.746  -3.015  1.00  0.00     0.060 A 
ATOM     45  C   UNL     1      -1.207  -5.188  -4.169  1.00  0.00     0.016 A 
ATOM     46  C   UNL     1      -3.878  -3.908  -2.823  1.00  0.00     0.016 A 
ATOM     47  C   UNL     1      -2.173  -6.460  -4.874  1.00  0.00     0.010 A 
ATOM     48  C   UNL     1      -4.712  -5.226  -3.628  1.00  0.00     0.010 A 
ATOM     49  C   UNL     1      -3.862  -6.399  -4.619  1.00  0.00    -0.014 A 
BRANCH  49  50
ATOM     50  C   UNL     1      -4.529  -7.330  -5.505  1.00  0.00     0.031 A 
ATOM     51  C   UNL     1      -4.501  -7.072  -6.982  1.00  0.00     0.074 A 
ATOM     52  C   UNL     1      -4.870  -8.484  -4.925  1.00  0.00     0.049 A 
ATOM     53  N   UNL     1      -4.995  -7.793  -7.945  1.00  0.00    -0.248 NA
ATOM     54  C   UNL     1      -3.780  -5.878  -7.470  1.00  0.00     0.031 C 
ATOM     55  C   UNL     1      -4.676  -8.807  -3.506  1.00  0.00     0.029 A 
ATOM     56  N   UNL     1      -5.453  -9.591  -5.447  1.00  0.00    -0.354 N 
ATOM     57  C   UNL     1      -4.687  -7.118  -9.123  1.00  0.00     0.074 A 
ATOM     58  C   UNL     1      -3.918  -5.957  -8.782  1.00  0.00     0.031 C 
ATOM     59  C   UNL     1      -5.232  -9.997  -3.250  1.00  0.00     0.029 A 
ATOM     60  C   UNL     1      -5.855 -10.469  -4.473  1.00  0.00     0.049 A 
ATOM     61  H   UNL     1      -5.572  -9.748  -6.412  1.00  0.00     0.167 HD
ATOM     62  C   UNL     1      -5.057  -7.451 -10.376  1.00  0.00     0.034 A 
ATOM     63  C   UNL     1      -6.730 -11.477  -4.579  1.00  0.00     0.034 A 
ATOM     64  C   UNL     1      -5.856  -8.614 -10.618  1.00  0.00     0.049 A 
ATOM     65  C   UNL     1      -7.251 -11.745  -5.958  1.00  0.00     0.074 A 
ATOM     66  C   UNL     1      -6.372  -9.083 -11.806  1.00  0.00     0.029 A 
ATOM     67  N   UNL     1      -6.280  -9.473  -9.611  1.00  0.00    -0.354 N 
ATOM     68  N   UNL     1      -6.991 -11.094  -7.071  1.00  0.00    -0.248 NA
ATOM     69  C   UNL     1      -8.142 -12.892  -6.117  1.00  0.00     0.031 C 
ATOM     70  C   UNL     1      -7.169 -10.189 -11.502  1.00  0.00     0.029 A 
ATOM     71  C   UNL     1      -7.077 -10.458 -10.140  1.00  0.00     0.049 A 
ATOM     72  H   UNL     1      -6.045  -9.387  -8.659  1.00  0.00     0.167 HD
ATOM     73  C   UNL     1      -7.632 -11.790  -8.078  1.00  0.00     0.074 A 
ATOM     74  C   UNL     1      -8.304 -12.906  -7.433  1.00  0.00     0.031 C 
ATOM     75  C   UNL     1      -7.665 -11.553  -9.412  1.00  0.00     0.034 A 
BRANCH  62  76
ATOM     76  C   UNL     1      -4.719  -6.516 -11.504  1.00  0.00     0.023 A 
ATOM     77  C   UNL     1      -3.401  -6.389 -11.987  1.00  0.00     0.012 A 
ATOM     78  C   UNL     1      -5.748  -5.768 -12.109  1.00  0.00     0.148 A 
ATOM     79  C   UNL     1      -3.115  -5.525 -13.048  1.00  0.00     0.002 A 
ATOM     80  C   UNL     1      -5.466  -4.949 -13.194  1.00  0.00     0.091 A 
ATOM     81  F   UNL     1      -6.986  -5.869 -11.605  1.00  0.00    -0.205 F 
ATOM     82  C   UNL     1      -4.148  -4.816 -13.659  1.00  0.00     0.022 A 
BRANCH  80  83
ATOM     83  S   UNL     1      -6.741  -4.051 -14.084  1.00  0.00     0.127 S 
ATOM     84  O   UNL     1      -6.289  -2.667 -13.938  1.00  0.00    -0.237 OA
ATOM     85  O   UNL     1      -6.607  -4.598 -15.433  1.00  0.00    -0.237 OA
ATOM     86  O   UNL     1      -7.997  -4.357 -13.414  1.00  0.00    -0.744 OA
ENDBRANCH  80  83
ENDBRANCH  62  76
BRANCH  63  87
ATOM     87  C   UNL     1      -7.177 -12.210  -3.370  1.00  0.00     0.023 A 
ATOM     88  C   UNL     1      -6.852 -13.567  -3.209  1.00  0.00     0.012 A 
ATOM     89  C   UNL     1      -7.906 -11.551  -2.356  1.00  0.00     0.148 A 
ATOM     90  C   UNL     1      -7.292 -14.270  -2.087  1.00  0.00     0.002 A 
ATOM     91  C   UNL     1      -8.300 -12.244  -1.220  1.00  0.00     0.091 A 
ATOM     92  F   UNL     1      -8.194 -10.251  -2.520  1.00  0.00    -0.205 F 
ATOM     93  C   UNL     1      -8.011 -13.610  -1.093  1.00  0.00     0.022 A 
BRANCH  91  94
ATOM     94  S   UNL     1      -9.138 -11.445   0.154  1.00  0.00     0.127 S 
ATOM     95  O   UNL     1     -10.493 -11.973   0.021  1.00  0.00    -0.237 OA
ATOM     96  O   UNL     1      -8.389 -11.954   1.304  1.00  0.00    -0.237 OA
ATOM     97  O   UNL     1      -8.990 -10.014  -0.072  1.00  0.00    -0.744 OA
ENDBRANCH  91  94
ENDBRANCH  63  87
BRANCH  75  98
ATOM     98  C   UNL     1      -8.357 -12.576 -10.249  1.00  0.00     0.023 A 
ATOM     99  C   UNL     1      -9.760 -12.640 -10.279  1.00  0.00     0.012 A 
ATOM    100  C   UNL     1      -7.585 -13.382 -11.104  1.00  0.00     0.148 A 
ATOM    101  C   UNL     1     -10.391 -13.524 -11.145  1.00  0.00     0.002 A 
ATOM    102  C   UNL     1      -8.221 -14.204 -12.013  1.00  0.00     0.091 A 
ATOM    103  F   UNL     1      -6.248 -13.298 -11.029  1.00  0.00    -0.205 F 
ATOM    104  C   UNL     1      -9.624 -14.290 -12.024  1.00  0.00     0.022 A 
BRANCH 102 105
ATOM    105  S   UNL     1      -7.318 -15.112 -13.265  1.00  0.00     0.127 S 
ATOM    106  O   UNL     1      -7.550 -16.495 -12.851  1.00  0.00    -0.237 OA
ATOM    107  O   UNL     1      -8.011 -14.713 -14.489  1.00  0.00    -0.237 OA
ATOM    108  O   UNL     1      -5.934 -14.664 -13.177  1.00  0.00    -0.744 OA
ENDBRANCH 102 105
ENDBRANCH  75  98
ENDBRANCH  49  50
ENDBRANCH  42  44
ENDBRANCH  41  42
ENDBRANCH  40  41
ENDBRANCH  39  40
ENDBRANCH  38  39
ENDBRANCH  37  38
ENDBRANCH   1  37
TORSDOF 26
