REMARK SMILES CCc1nn2c(C)c(CCC(=O)OCCOCCOCCOC(=O)c3ccc(-c4c5nc(c(-c6cccc(S(=O)(=O)[O-])c6F)c6ccc([nH]6)c(-c6cccc(S(=O)(=O)[O-])c6F)c6nc(c(-c7cccc(S(=O)(=O)[O-])c7F)c7ccc4[nH]7)C=C6)C=C5)cc3)c(C)nc2c1-c1ccccc1
REMARK SMILES IDX 17 1 16 2 15 3 14 4 13 5 11 6 12 7 10 8 9 9 8 10 3 11 4 12
REMARK SMILES IDX 92 13 5 14 91 15 6 16 90 17 7 18 88 19 89 20 2 21 1 22 93 23
REMARK SMILES IDX 94 24 98 25 95 26 97 27 96 28 18 29 19 30 20 31 21 32 22 33
REMARK SMILES IDX 23 34 24 35 25 36 26 37 87 38 27 39 86 40 28 41 29 42 30 43
REMARK SMILES IDX 80 44 31 45 85 46 79 47 81 48 32 49 84 50 78 51 77 52 33 54
REMARK SMILES IDX 65 55 45 56 64 57 46 58 49 59 63 60 82 61 47 62 48 63 62 65
REMARK SMILES IDX 83 66 50 67 34 68 35 69 43 70 36 71 38 72 44 73 37 74 39 75
REMARK SMILES IDX 40 76 41 77 42 78 66 79 67 80 75 81 68 82 70 83 76 84 69 85
REMARK SMILES IDX 71 86 72 87 73 88 74 89 51 90 52 91 60 92 53 93 55 94 61 95
REMARK SMILES IDX 54 96 56 97 57 98 58 99 59 100
REMARK H PARENT 81 53 49 64
REMARK Flexibility Score: inf
ROOT
ATOM      1  C   UNL     1       3.843  -3.148   8.004  1.00  0.00     0.188 C 
ENDROOT
BRANCH   1   2
ATOM      2  O   UNL     1       4.816  -2.125   7.849  1.00  0.00    -0.376 OA
BRANCH   2   3
ATOM      3  C   UNL     1       4.981  -1.628   6.529  1.00  0.00     0.202 C 
BRANCH   3   4
ATOM      4  C   UNL     1       5.930  -2.480   5.663  1.00  0.00     0.261 C 
BRANCH   4   5
ATOM      5  O   UNL     1       5.335  -3.709   5.171  1.00  0.00    -0.463 OA
BRANCH   5   6
ATOM      6  C   UNL     1       5.543  -4.873   5.820  1.00  0.00     0.306 C 
ATOM      7  O   UNL     1       6.380  -5.027   6.700  1.00  0.00    -0.252 OA
BRANCH   6   8
ATOM      8  C   UNL     1       4.642  -6.003   5.316  1.00  0.00     0.127 C 
BRANCH   8   9
ATOM      9  C   UNL     1       3.101  -5.835   5.321  1.00  0.00     0.051 C 
BRANCH   9  10
ATOM     10  C   UNL     1       2.381  -5.400   4.047  1.00  0.00    -0.005 A 
ATOM     11  C   UNL     1       0.841  -2.669   0.805  1.00  0.00     0.073 A 
ATOM     12  N   UNL     1       1.497  -2.522   1.950  1.00  0.00    -0.171 NA
ATOM     13  C   UNL     1       0.523  -4.033   0.580  1.00  0.00     0.050 A 
ATOM     14  N   UNL     1       1.612  -3.775   2.458  1.00  0.00    -0.219 N 
ATOM     15  C   UNL     1       0.966  -4.723   1.694  1.00  0.00     0.163 A 
ATOM     16  C   UNL     1       2.326  -4.124   3.596  1.00  0.00     0.046 A 
ATOM     17  N   UNL     1       0.898  -6.025   2.101  1.00  0.00    -0.233 NA
ATOM     18  C   UNL     1       2.980  -2.950   4.210  1.00  0.00     0.067 C 
ATOM     19  C   UNL     1       1.504  -6.343   3.217  1.00  0.00     0.045 A 
ATOM     20  C   UNL     1       1.272  -7.774   3.667  1.00  0.00     0.067 C 
BRANCH  11  21
ATOM     21  C   UNL     1       0.531  -1.476  -0.043  1.00  0.00     0.055 C 
ATOM     22  C   UNL     1       1.181  -0.172   0.410  1.00  0.00     0.011 C 
ENDBRANCH  11  21
BRANCH  13  23
ATOM     23  C   UNL     1      -0.088  -4.641  -0.570  1.00  0.00    -0.013 A 
ATOM     24  C   UNL     1       0.551  -4.528  -1.810  1.00  0.00     0.009 A 
ATOM     25  C   UNL     1      -1.310  -5.304  -0.464  1.00  0.00     0.009 A 
ATOM     26  C   UNL     1      -0.039  -5.068  -2.947  1.00  0.00     0.001 A 
ATOM     27  C   UNL     1      -1.899  -5.843  -1.606  1.00  0.00     0.001 A 
ATOM     28  C   UNL     1      -1.266  -5.721  -2.845  1.00  0.00     0.000 A 
ENDBRANCH  13  23
ENDBRANCH   9  10
ENDBRANCH   8   9
ENDBRANCH   6   8
ENDBRANCH   5   6
ENDBRANCH   4   5
ENDBRANCH   3   4
ENDBRANCH   2   3
ENDBRANCH   1   2
BRANCH   1  29
ATOM     29  C   UNL     1       2.403  -2.649   8.024  1.00  0.00     0.188 C 
BRANCH  29  30
ATOM     30  O   UNL     1       1.693  -2.678   6.784  1.00  0.00    -0.376 OA
BRANCH  30  31
ATOM     31  C   UNL     1       1.065  -1.464   6.340  1.00  0.00     0.202 C 
BRANCH  31  32
ATOM     32  C   UNL     1      -0.121  -0.872   7.103  1.00  0.00     0.261 C 
BRANCH  32  33
ATOM     33  O   UNL     1      -0.165  -1.301   8.435  1.00  0.00    -0.460 OA
BRANCH  33  34
ATOM     34  C   UNL     1      -0.464  -2.612   8.611  1.00  0.00     0.338 C 
ATOM     35  O   UNL     1      -0.973  -3.381   7.835  1.00  0.00    -0.246 OA
BRANCH  34  36
ATOM     36  C   UNL     1      -0.004  -2.911   9.979  1.00  0.00     0.060 A 
ATOM     37  C   UNL     1      -0.479  -4.071  10.575  1.00  0.00     0.016 A 
ATOM     38  C   UNL     1       0.638  -1.898  10.703  1.00  0.00     0.016 A 
ATOM     39  C   UNL     1      -0.773  -3.982  11.909  1.00  0.00     0.010 A 
ATOM     40  C   UNL     1       0.320  -1.793  12.011  1.00  0.00     0.010 A 
ATOM     41  C   UNL     1      -0.538  -2.754  12.524  1.00  0.00    -0.014 A 
BRANCH  41  42
ATOM     42  C   UNL     1      -1.294  -2.384  13.689  1.00  0.00     0.031 A 
ATOM     43  C   UNL     1      -0.485  -2.550  14.903  1.00  0.00     0.074 A 
ATOM     44  C   UNL     1      -2.493  -1.781  13.574  1.00  0.00     0.049 A 
ATOM     45  N   UNL     1      -0.441  -3.603  15.651  1.00  0.00    -0.248 NA
ATOM     46  C   UNL     1       0.640  -1.619  15.107  1.00  0.00     0.031 C 
ATOM     47  C   UNL     1      -3.169  -1.266  12.375  1.00  0.00     0.029 A 
ATOM     48  N   UNL     1      -3.319  -1.379  14.567  1.00  0.00    -0.354 N 
ATOM     49  C   UNL     1       0.544  -3.292  16.574  1.00  0.00     0.074 A 
ATOM     50  C   UNL     1       1.400  -2.333  15.939  1.00  0.00     0.031 C 
ATOM     51  C   UNL     1      -4.150  -0.409  12.753  1.00  0.00     0.029 A 
ATOM     52  C   UNL     1      -4.237  -0.401  14.203  1.00  0.00     0.049 A 
ATOM     53  H   UNL     1      -3.274  -1.750  15.478  1.00  0.00     0.167 HD
ATOM     54  C   UNL     1       0.336  -3.462  17.907  1.00  0.00     0.034 A 
ATOM     55  C   UNL     1      -4.904   0.410  15.068  1.00  0.00     0.034 A 
ATOM     56  C   UNL     1      -0.834  -4.268  18.153  1.00  0.00     0.049 A 
ATOM     57  C   UNL     1      -4.787  -0.214  16.415  1.00  0.00     0.074 A 
ATOM     58  C   UNL     1      -1.233  -5.533  17.774  1.00  0.00     0.029 A 
ATOM     59  N   UNL     1      -1.978  -3.591  18.510  1.00  0.00    -0.354 N 
ATOM     60  N   UNL     1      -5.323  -1.362  16.730  1.00  0.00    -0.248 NA
ATOM     61  C   UNL     1      -3.666   0.200  17.247  1.00  0.00     0.031 C 
ATOM     62  C   UNL     1      -2.627  -5.418  17.505  1.00  0.00     0.029 A 
ATOM     63  C   UNL     1      -3.031  -4.115  17.805  1.00  0.00     0.049 A 
ATOM     64  H   UNL     1      -2.032  -2.856  19.162  1.00  0.00     0.167 HD
ATOM     65  C   UNL     1      -4.344  -2.011  17.474  1.00  0.00     0.074 A 
ATOM     66  C   UNL     1      -3.385  -0.967  17.837  1.00  0.00     0.031 C 
ATOM     67  C   UNL     1      -4.226  -3.373  17.448  1.00  0.00     0.034 A 
BRANCH  54  68
ATOM     68  C   UNL     1       0.960  -2.592  18.968  1.00  0.00     0.023 A 
ATOM     69  C   UNL     1       0.935  -3.081  20.285  1.00  0.00     0.012 A 
ATOM     70  C   UNL     1       1.398  -1.256  18.789  1.00  0.00     0.148 A 
ATOM     71  C   UNL     1       1.327  -2.282  21.364  1.00  0.00     0.002 A 
ATOM     72  C   UNL     1       1.892  -0.506  19.846  1.00  0.00     0.091 A 
ATOM     73  F   UNL     1       1.207  -0.628  17.626  1.00  0.00    -0.205 F 
ATOM     74  C   UNL     1       1.831  -1.004  21.144  1.00  0.00     0.022 A 
BRANCH  72  75
ATOM     75  S   UNL     1       2.623   1.116  19.584  1.00  0.00     0.127 S 
ATOM     76  O   UNL     1       1.605   1.994  20.152  1.00  0.00    -0.237 OA
ATOM     77  O   UNL     1       3.859   1.014  20.360  1.00  0.00    -0.237 OA
ATOM     78  O   UNL     1       2.833   1.225  18.145  1.00  0.00    -0.744 OA
ENDBRANCH  72  75
ENDBRANCH  54  68
BRANCH  55  79
ATOM     79  C   UNL     1      -5.293   1.841  14.922  1.00  0.00     0.023 A 
ATOM     80  C   UNL     1      -6.211   2.406  15.835  1.00  0.00     0.012 A 
ATOM     81  C   UNL     1      -4.550   2.723  14.106  1.00  0.00     0.148 A 
ATOM     82  C   UNL     1      -6.350   3.796  15.960  1.00  0.00     0.002 A 
ATOM     83  C   UNL     1      -4.692   4.103  14.234  1.00  0.00     0.091 A 
ATOM     84  F   UNL     1      -3.634   2.215  13.273  1.00  0.00    -0.205 F 
ATOM     85  C   UNL     1      -5.582   4.645  15.168  1.00  0.00     0.022 A 
BRANCH  83  86
ATOM     86  S   UNL     1      -3.695   5.261  13.283  1.00  0.00     0.127 S 
ATOM     87  O   UNL     1      -4.711   6.169  12.751  1.00  0.00    -0.237 OA
ATOM     88  O   UNL     1      -2.838   5.837  14.316  1.00  0.00    -0.237 OA
ATOM     89  O   UNL     1      -3.013   4.463  12.271  1.00  0.00    -0.744 OA
ENDBRANCH  83  86
ENDBRANCH  55  79
BRANCH  67  90
ATOM     90  C   UNL     1      -5.325  -4.171  16.781  1.00  0.00     0.023 A 
ATOM     91  C   UNL     1      -5.596  -4.092  15.396  1.00  0.00     0.012 A 
ATOM     92  C   UNL     1      -5.956  -5.174  17.534  1.00  0.00     0.148 A 
ATOM     93  C   UNL     1      -6.480  -4.987  14.784  1.00  0.00     0.002 A 
ATOM     94  C   UNL     1      -6.792  -6.094  16.913  1.00  0.00     0.091 A 
ATOM     95  F   UNL     1      -5.691  -5.237  18.848  1.00  0.00    -0.205 F 
ATOM     96  C   UNL     1      -7.065  -6.000  15.540  1.00  0.00     0.022 A 
BRANCH  94  97
ATOM     97  S   UNL     1      -7.455  -7.504  17.802  1.00  0.00     0.127 S 
ATOM     98  O   UNL     1      -8.863  -7.141  17.943  1.00  0.00    -0.237 OA
ATOM     99  O   UNL     1      -7.196  -8.608  16.876  1.00  0.00    -0.237 OA
ATOM    100  O   UNL     1      -6.700  -7.585  19.047  1.00  0.00    -0.744 OA
ENDBRANCH  94  97
ENDBRANCH  67  90
ENDBRANCH  41  42
ENDBRANCH  34  36
ENDBRANCH  33  34
ENDBRANCH  32  33
ENDBRANCH  31  32
ENDBRANCH  30  31
ENDBRANCH  29  30
ENDBRANCH   1  29
TORSDOF 24
