REMARK SMILES CC(=O)NCCNC(=O)C[N@H+]1CC[C@@H](C(=O)OCCOCCOCCOC(=O)c2ccc(-c3c4nc(c(-c5cccc(S(=O)(=O)[O-])c5F)c5ccc([nH]5)c(-c5cccc(S(=O)(=O)[O-])c5F)c5nc(c(-c6cccc(S(=O)(=O)[O-])c6F)c6ccc3[nH]6)C=C5)C=C4)cc2)[C@H]1C
REMARK SMILES IDX 21 1 20 2 19 3 18 4 17 5 15 6 16 7 14 8 11 9 12 10 92 11
REMARK SMILES IDX 13 13 93 14 10 15 8 16 7 17 9 19 6 20 5 21 4 22 1 23 2 24
REMARK SMILES IDX 3 25 22 27 23 28 24 29 25 30 26 31 27 32 28 33 29 34 30 35
REMARK SMILES IDX 91 36 31 37 90 38 32 39 33 40 34 41 84 42 35 43 89 44 83 45
REMARK SMILES IDX 85 46 36 47 88 48 82 49 81 50 37 52 69 53 49 54 68 55 50 56
REMARK SMILES IDX 53 57 67 58 86 59 51 60 52 61 66 63 87 64 54 65 38 66 39 67
REMARK SMILES IDX 47 68 40 69 42 70 48 71 41 72 43 73 44 74 45 75 46 76 70 77
REMARK SMILES IDX 71 78 79 79 72 80 74 81 80 82 73 83 75 84 76 85 77 86 78 87
REMARK SMILES IDX 55 88 56 89 64 90 57 91 59 92 65 93 58 94 60 95 61 96 62 97
REMARK SMILES IDX 63 98
REMARK H PARENT 11 12 7 18 4 26 85 51 53 62
REMARK Flexibility Score: inf
ROOT
ATOM      1  C   UNL     1       3.138  -0.534  -3.985  1.00  0.00     0.188 C 
ENDROOT
BRANCH   1   2
ATOM      2  O   UNL     1       2.660   0.718  -3.529  1.00  0.00    -0.376 OA
BRANCH   2   3
ATOM      3  C   UNL     1       2.483   0.859  -2.128  1.00  0.00     0.202 C 
BRANCH   3   4
ATOM      4  C   UNL     1       1.792  -0.290  -1.377  1.00  0.00     0.261 C 
BRANCH   4   5
ATOM      5  O   UNL     1       2.335  -1.623  -1.574  1.00  0.00    -0.463 OA
BRANCH   5   6
ATOM      6  C   UNL     1       1.465  -2.594  -1.939  1.00  0.00     0.315 C 
ATOM      7  O   UNL     1       0.257  -2.398  -2.044  1.00  0.00    -0.252 OA
BRANCH   6   8
ATOM      8  C   UNL     1       2.083  -3.947  -2.284  1.00  0.00     0.162 C 
ATOM      9  N   UNL     1       2.976  -5.799  -1.076  1.00  0.00    -0.324 N 
ATOM     10  C   UNL     1       1.766  -6.299  -1.684  1.00  0.00     0.264 C 
ATOM     11  C   UNL     1       3.396  -4.554  -1.708  1.00  0.00     0.195 C 
ATOM     12  H   UNL     1       3.837  -6.328  -1.217  1.00  0.00     0.348 HD
ATOM     13  C   UNL     1       1.014  -5.019  -1.956  1.00  0.00     0.083 C 
ATOM     14  C   UNL     1       4.470  -3.735  -0.986  1.00  0.00     0.076 C 
BRANCH   9  15
ATOM     15  C   UNL     1       3.377  -6.293   0.226  1.00  0.00     0.363 C 
BRANCH  15  16
ATOM     16  C   UNL     1       2.371  -6.133   1.382  1.00  0.00     0.275 C 
ATOM     17  N   UNL     1       1.846  -4.956   1.822  1.00  0.00    -0.349 N 
ATOM     18  H   UNL     1       1.227  -5.058   2.581  1.00  0.00     0.163 HD
ATOM     19  O   UNL     1       2.055  -7.131   2.047  1.00  0.00    -0.269 OA
BRANCH  17  20
ATOM     20  C   UNL     1       2.019  -3.584   1.391  1.00  0.00     0.137 C 
BRANCH  20  21
ATOM     21  C   UNL     1       0.697  -2.832   1.173  1.00  0.00     0.137 C 
BRANCH  21  22
ATOM     22  N   UNL     1       0.107  -2.260   2.366  1.00  0.00    -0.355 N 
ATOM     23  C   UNL     1      -0.384  -0.051   1.339  1.00  0.00     0.114 C 
ATOM     24  C   UNL     1      -0.489  -1.032   2.480  1.00  0.00     0.216 C 
ATOM     25  O   UNL     1      -1.060  -0.736   3.528  1.00  0.00    -0.275 OA
ATOM     26  H   UNL     1       0.138  -2.812   3.181  1.00  0.00     0.163 HD
ENDBRANCH  21  22
ENDBRANCH  20  21
ENDBRANCH  17  20
ENDBRANCH  15  16
ENDBRANCH   9  15
ENDBRANCH   6   8
ENDBRANCH   5   6
ENDBRANCH   4   5
ENDBRANCH   3   4
ENDBRANCH   2   3
ENDBRANCH   1   2
BRANCH   1  27
ATOM     27  C   UNL     1       4.396  -1.096  -3.307  1.00  0.00     0.188 C 
BRANCH  27  28
ATOM     28  O   UNL     1       4.833  -0.432  -2.132  1.00  0.00    -0.376 OA
BRANCH  28  29
ATOM     29  C   UNL     1       6.234  -0.457  -1.869  1.00  0.00     0.202 C 
BRANCH  29  30
ATOM     30  C   UNL     1       7.067   0.452  -2.795  1.00  0.00     0.261 C 
BRANCH  30  31
ATOM     31  O   UNL     1       7.029   0.133  -4.201  1.00  0.00    -0.460 OA
BRANCH  31  32
ATOM     32  C   UNL     1       7.345  -1.135  -4.584  1.00  0.00     0.338 C 
ATOM     33  O   UNL     1       7.866  -1.985  -3.894  1.00  0.00    -0.246 OA
BRANCH  32  34
ATOM     34  C   UNL     1       6.604  -1.407  -5.859  1.00  0.00     0.060 A 
ATOM     35  C   UNL     1       5.886  -2.613  -5.973  1.00  0.00     0.016 A 
ATOM     36  C   UNL     1       6.463  -0.424  -6.842  1.00  0.00     0.016 A 
ATOM     37  C   UNL     1       5.067  -2.852  -7.084  1.00  0.00     0.010 A 
ATOM     38  C   UNL     1       5.663  -0.673  -7.962  1.00  0.00     0.010 A 
ATOM     39  C   UNL     1       4.993  -1.902  -8.109  1.00  0.00    -0.014 A 
BRANCH  39  40
ATOM     40  C   UNL     1       4.473  -2.272  -9.451  1.00  0.00     0.031 A 
ATOM     41  C   UNL     1       5.489  -2.694 -10.481  1.00  0.00     0.074 A 
ATOM     42  C   UNL     1       3.172  -2.191  -9.787  1.00  0.00     0.049 A 
ATOM     43  N   UNL     1       5.336  -2.934 -11.756  1.00  0.00    -0.248 NA
ATOM     44  C   UNL     1       6.874  -2.849 -10.002  1.00  0.00     0.031 C 
ATOM     45  C   UNL     1       2.082  -1.816  -8.891  1.00  0.00     0.029 A 
ATOM     46  N   UNL     1       2.558  -2.386 -11.002  1.00  0.00    -0.354 N 
ATOM     47  C   UNL     1       6.606  -3.225 -12.237  1.00  0.00     0.074 A 
ATOM     48  C   UNL     1       7.520  -3.126 -11.122  1.00  0.00     0.031 C 
ATOM     49  C   UNL     1       0.936  -1.769  -9.597  1.00  0.00     0.029 A 
ATOM     50  C   UNL     1       1.218  -2.074 -11.000  1.00  0.00     0.049 A 
ATOM     51  H   UNL     1       3.033  -2.717 -11.799  1.00  0.00     0.167 HD
ATOM     52  C   UNL     1       6.985  -3.552 -13.494  1.00  0.00     0.034 A 
ATOM     53  C   UNL     1       0.333  -2.007 -12.018  1.00  0.00     0.034 A 
ATOM     54  C   UNL     1       6.082  -3.658 -14.604  1.00  0.00     0.049 A 
ATOM     55  C   UNL     1       0.786  -2.334 -13.423  1.00  0.00     0.074 A 
ATOM     56  C   UNL     1       6.365  -4.026 -15.907  1.00  0.00     0.029 A 
ATOM     57  N   UNL     1       4.727  -3.377 -14.550  1.00  0.00    -0.354 N 
ATOM     58  N   UNL     1       1.970  -2.710 -13.845  1.00  0.00    -0.248 NA
ATOM     59  C   UNL     1      -0.226  -2.251 -14.489  1.00  0.00     0.031 C 
ATOM     60  C   UNL     1       5.186  -3.928 -16.652  1.00  0.00     0.029 A 
ATOM     61  C   UNL     1       4.161  -3.548 -15.801  1.00  0.00     0.049 A 
ATOM     62  H   UNL     1       4.239  -3.098 -13.742  1.00  0.00     0.167 HD
ATOM     63  C   UNL     1       1.832  -2.950 -15.211  1.00  0.00     0.074 A 
ATOM     64  C   UNL     1       0.448  -2.689 -15.543  1.00  0.00     0.031 C 
ATOM     65  C   UNL     1       2.769  -3.342 -16.110  1.00  0.00     0.034 A 
BRANCH  52  66
ATOM     66  C   UNL     1       8.447  -3.820 -13.731  1.00  0.00     0.023 A 
ATOM     67  C   UNL     1       9.040  -4.990 -13.214  1.00  0.00     0.012 A 
ATOM     68  C   UNL     1       9.222  -2.931 -14.500  1.00  0.00     0.148 A 
ATOM     69  C   UNL     1      10.392  -5.253 -13.430  1.00  0.00     0.002 A 
ATOM     70  C   UNL     1      10.555  -3.226 -14.754  1.00  0.00     0.091 A 
ATOM     71  F   UNL     1       8.645  -1.812 -14.960  1.00  0.00    -0.205 F 
ATOM     72  C   UNL     1      11.145  -4.378 -14.208  1.00  0.00     0.022 A 
BRANCH  70  73
ATOM     73  S   UNL     1      11.588  -2.207 -15.811  1.00  0.00     0.127 S 
ATOM     74  O   UNL     1      12.536  -1.650 -14.848  1.00  0.00    -0.237 OA
ATOM     75  O   UNL     1      12.158  -3.196 -16.726  1.00  0.00    -0.237 OA
ATOM     76  O   UNL     1      10.696  -1.241 -16.437  1.00  0.00    -0.744 OA
ENDBRANCH  70  73
ENDBRANCH  52  66
BRANCH  53  77
ATOM     77  C   UNL     1      -1.086  -1.621 -11.761  1.00  0.00     0.023 A 
ATOM     78  C   UNL     1      -2.111  -2.571 -11.945  1.00  0.00     0.012 A 
ATOM     79  C   UNL     1      -1.428  -0.317 -11.355  1.00  0.00     0.148 A 
ATOM     80  C   UNL     1      -3.450  -2.221 -11.763  1.00  0.00     0.002 A 
ATOM     81  C   UNL     1      -2.759   0.010 -11.121  1.00  0.00     0.091 A 
ATOM     82  F   UNL     1      -0.443   0.579 -11.206  1.00  0.00    -0.205 F 
ATOM     83  C   UNL     1      -3.773  -0.934 -11.342  1.00  0.00     0.022 A 
BRANCH  81  84
ATOM     84  S   UNL     1      -3.263   1.606 -10.467  1.00  0.00     0.127 S 
ATOM     85  O   UNL     1      -4.009   2.168 -11.590  1.00  0.00    -0.237 OA
ATOM     86  O   UNL     1      -4.080   1.212  -9.319  1.00  0.00    -0.237 OA
ATOM     87  O   UNL     1      -2.030   2.298 -10.122  1.00  0.00    -0.744 OA
ENDBRANCH  81  84
ENDBRANCH  53  77
BRANCH  65  88
ATOM     88  C   UNL     1       2.336  -3.582 -17.535  1.00  0.00     0.023 A 
ATOM     89  C   UNL     1       2.008  -2.496 -18.370  1.00  0.00     0.012 A 
ATOM     90  C   UNL     1       2.351  -4.886 -18.071  1.00  0.00     0.148 A 
ATOM     91  C   UNL     1       1.673  -2.708 -19.708  1.00  0.00     0.002 A 
ATOM     92  C   UNL     1       2.068  -5.083 -19.417  1.00  0.00     0.091 A 
ATOM     93  F   UNL     1       2.654  -5.908 -17.257  1.00  0.00    -0.205 F 
ATOM     94  C   UNL     1       1.716  -3.998 -20.234  1.00  0.00     0.022 A 
BRANCH  92  95
ATOM     95  S   UNL     1       2.198  -6.693 -20.206  1.00  0.00     0.127 S 
ATOM     96  O   UNL     1       0.797  -6.993 -20.501  1.00  0.00    -0.237 OA
ATOM     97  O   UNL     1       3.018  -6.395 -21.380  1.00  0.00    -0.237 OA
ATOM     98  O   UNL     1       2.830  -7.572 -19.231  1.00  0.00    -0.744 OA
ENDBRANCH  92  95
ENDBRANCH  65  88
ENDBRANCH  39  40
ENDBRANCH  32  34
ENDBRANCH  31  32
ENDBRANCH  30  31
ENDBRANCH  29  30
ENDBRANCH  28  29
ENDBRANCH  27  28
ENDBRANCH   1  27
TORSDOF 25
