REMARK SMILES COc1ccc2c(c1)c(CC(=O)OCCOCCOCCOC(=O)c1ccc(-c3c4nc(c(-c5cccc(S(=O)(=O)[O-])c5F)c5ccc([nH]5)c(-c5cccc(S(=O)(=O)[O-])c5F)c5nc(c(-c6cccc(S(=O)(=O)[O-])c6F)c6ccc3[nH]6)C=C5)C=C4)cc1)c(C(F)(F)F)n2C(=O)c1ccc(Cl)cc1
REMARK SMILES IDX 17 1 16 2 15 3 14 4 13 5 11 6 12 7 10 8 9 9 3 10 4 11 8 12
REMARK SMILES IDX 5 13 7 14 6 15 93 16 88 17 2 18 1 19 94 20 95 21 96 22 97 23
REMARK SMILES IDX 102 24 98 25 101 26 99 27 100 28 89 29 90 30 91 31 92 32
REMARK SMILES IDX 18 33 19 34 20 35 21 36 22 37 23 38 24 39 25 40 26 41 87 42
REMARK SMILES IDX 27 43 86 44 28 45 29 46 30 47 80 48 31 49 85 50 79 51 81 52
REMARK SMILES IDX 32 53 84 54 78 55 77 56 33 58 65 59 45 60 64 61 46 62 49 63
REMARK SMILES IDX 63 64 82 65 47 66 48 67 62 69 83 70 50 71 34 72 35 73 43 74
REMARK SMILES IDX 36 75 38 76 44 77 37 78 39 79 40 80 41 81 42 82 66 83 67 84
REMARK SMILES IDX 75 85 68 86 70 87 76 88 69 89 71 90 72 91 73 92 74 93 51 94
REMARK SMILES IDX 52 95 60 96 53 97 55 98 61 99 54 100 56 101 57 102 58 103
REMARK SMILES IDX 59 104
REMARK H PARENT 81 57 49 68
REMARK Flexibility Score: inf
ROOT
ATOM      1  C   UNL     1      -2.233  -5.136  -2.071  1.00  0.00     0.188 C 
ENDROOT
BRANCH   1   2
ATOM      2  O   UNL     1      -2.450  -6.532  -2.005  1.00  0.00    -0.376 OA
BRANCH   2   3
ATOM      3  C   UNL     1      -1.758  -7.356  -2.935  1.00  0.00     0.202 C 
BRANCH   3   4
ATOM      4  C   UNL     1      -1.816  -6.928  -4.408  1.00  0.00     0.261 C 
BRANCH   4   5
ATOM      5  O   UNL     1      -0.904  -5.833  -4.663  1.00  0.00    -0.463 OA
BRANCH   5   6
ATOM      6  C   UNL     1      -1.275  -4.995  -5.668  1.00  0.00     0.310 C 
ATOM      7  O   UNL     1      -2.120  -5.306  -6.503  1.00  0.00    -0.252 OA
BRANCH   6   8
ATOM      8  C   UNL     1      -0.783  -3.565  -5.491  1.00  0.00     0.161 C 
BRANCH   8   9
ATOM      9  C   UNL     1       0.647  -3.143  -5.613  1.00  0.00     0.002 A 
ATOM     10  C   UNL     1       2.156  -1.130  -2.670  1.00  0.00     0.119 A 
ATOM     11  C   UNL     1       3.099  -0.465  -3.424  1.00  0.00     0.048 A 
ATOM     12  C   UNL     1       1.316  -2.070  -3.286  1.00  0.00     0.057 A 
ATOM     13  C   UNL     1       3.248  -0.777  -4.776  1.00  0.00     0.031 A 
ATOM     14  C   UNL     1       1.429  -2.406  -4.653  1.00  0.00     0.008 A 
ATOM     15  C   UNL     1       2.466  -1.803  -5.358  1.00  0.00     0.057 A 
ATOM     16  N   UNL     1       2.559  -2.489  -6.574  1.00  0.00    -0.271 N 
ATOM     17  C   UNL     1       1.312  -3.022  -6.836  1.00  0.00     0.135 A 
BRANCH  10  18
ATOM     18  O   UNL     1       2.009  -0.962  -1.320  1.00  0.00    -0.497 OA
ATOM     19  C   UNL     1       2.057   0.394  -0.871  1.00  0.00     0.278 C 
ENDBRANCH  10  18
BRANCH  16  20
ATOM     20  C   UNL     1       3.766  -2.741  -7.280  1.00  0.00     0.262 C 
ATOM     21  O   UNL     1       3.776  -3.506  -8.211  1.00  0.00    -0.268 OA
BRANCH  20  22
ATOM     22  C   UNL     1       5.066  -2.288  -6.740  1.00  0.00     0.040 A 
ATOM     23  C   UNL     1       5.595  -2.996  -5.653  1.00  0.00     0.015 A 
ATOM     24  C   UNL     1       5.628  -1.087  -7.174  1.00  0.00     0.015 A 
ATOM     25  C   UNL     1       6.671  -2.462  -4.950  1.00  0.00     0.021 A 
ATOM     26  C   UNL     1       6.705  -0.556  -6.460  1.00  0.00     0.021 A 
ATOM     27  C   UNL     1       7.210  -1.237  -5.347  1.00  0.00     0.041 A 
ATOM     28  Cl  UNL     1       8.484  -0.539  -4.423  1.00  0.00    -0.084 Cl
ENDBRANCH  20  22
ENDBRANCH  16  20
BRANCH  17  29
ATOM     29  C   UNL     1       0.794  -3.341  -8.201  1.00  0.00     0.432 C 
ATOM     30  F   UNL     1       0.460  -4.658  -8.267  1.00  0.00    -0.165 F 
ATOM     31  F   UNL     1      -0.351  -2.654  -8.437  1.00  0.00    -0.165 F 
ATOM     32  F   UNL     1       1.627  -3.081  -9.224  1.00  0.00    -0.165 F 
ENDBRANCH  17  29
ENDBRANCH   8   9
ENDBRANCH   6   8
ENDBRANCH   5   6
ENDBRANCH   4   5
ENDBRANCH   3   4
ENDBRANCH   2   3
ENDBRANCH   1   2
BRANCH   1  33
ATOM     33  C   UNL     1      -0.791  -4.622  -2.120  1.00  0.00     0.188 C 
BRANCH  33  34
ATOM     34  O   UNL     1       0.270  -5.408  -1.619  1.00  0.00    -0.376 OA
BRANCH  34  35
ATOM     35  C   UNL     1       0.250  -5.656  -0.222  1.00  0.00     0.202 C 
BRANCH  35  36
ATOM     36  C   UNL     1       0.143  -4.408   0.674  1.00  0.00     0.261 C 
BRANCH  36  37
ATOM     37  O   UNL     1      -1.156  -3.781   0.541  1.00  0.00    -0.460 OA
BRANCH  37  38
ATOM     38  C   UNL     1      -1.157  -2.423   0.666  1.00  0.00     0.338 C 
ATOM     39  O   UNL     1      -0.363  -1.772   1.325  1.00  0.00    -0.246 OA
BRANCH  38  40
ATOM     40  C   UNL     1      -1.999  -1.856  -0.430  1.00  0.00     0.060 A 
ATOM     41  C   UNL     1      -3.316  -2.233  -0.699  1.00  0.00     0.016 A 
ATOM     42  C   UNL     1      -1.325  -1.060  -1.357  1.00  0.00     0.016 A 
ATOM     43  C   UNL     1      -3.908  -1.876  -1.929  1.00  0.00     0.010 A 
ATOM     44  C   UNL     1      -1.878  -0.771  -2.602  1.00  0.00     0.010 A 
ATOM     45  C   UNL     1      -3.173  -1.188  -2.909  1.00  0.00    -0.014 A 
BRANCH  45  46
ATOM     46  C   UNL     1      -3.800  -0.575  -4.090  1.00  0.00     0.031 A 
ATOM     47  C   UNL     1      -4.448   0.705  -3.780  1.00  0.00     0.074 A 
ATOM     48  C   UNL     1      -3.881  -0.966  -5.380  1.00  0.00     0.049 A 
ATOM     49  N   UNL     1      -5.693   0.785  -3.453  1.00  0.00    -0.248 NA
ATOM     50  C   UNL     1      -3.700   1.956  -3.707  1.00  0.00     0.031 C 
ATOM     51  C   UNL     1      -3.468  -2.225  -5.963  1.00  0.00     0.029 A 
ATOM     52  N   UNL     1      -4.345  -0.278  -6.475  1.00  0.00    -0.354 N 
ATOM     53  C   UNL     1      -5.962   2.134  -3.406  1.00  0.00     0.074 A 
ATOM     54  C   UNL     1      -4.679   2.801  -3.370  1.00  0.00     0.031 C 
ATOM     55  C   UNL     1      -3.453  -2.145  -7.316  1.00  0.00     0.029 A 
ATOM     56  C   UNL     1      -4.047  -0.876  -7.697  1.00  0.00     0.049 A 
ATOM     57  H   UNL     1      -4.847   0.566  -6.402  1.00  0.00     0.167 HD
ATOM     58  C   UNL     1      -7.213   2.592  -3.660  1.00  0.00     0.034 A 
ATOM     59  C   UNL     1      -4.583  -0.624  -8.914  1.00  0.00     0.034 A 
ATOM     60  C   UNL     1      -8.190   1.532  -3.759  1.00  0.00     0.049 A 
ATOM     61  C   UNL     1      -6.001  -0.300  -8.652  1.00  0.00     0.074 A 
ATOM     62  C   UNL     1      -8.624   0.514  -2.934  1.00  0.00     0.029 A 
ATOM     63  N   UNL     1      -8.598   1.193  -5.027  1.00  0.00    -0.354 N 
ATOM     64  N   UNL     1      -6.873  -1.161  -8.200  1.00  0.00    -0.248 NA
ATOM     65  C   UNL     1      -6.403   1.093  -8.591  1.00  0.00     0.031 C 
ATOM     66  C   UNL     1      -8.919  -0.583  -3.799  1.00  0.00     0.029 A 
ATOM     67  C   UNL     1      -8.667  -0.176  -5.111  1.00  0.00     0.049 A 
ATOM     68  H   UNL     1      -8.806   1.825  -5.753  1.00  0.00     0.167 HD
ATOM     69  C   UNL     1      -7.718  -0.404  -7.402  1.00  0.00     0.074 A 
ATOM     70  C   UNL     1      -7.476   0.976  -7.807  1.00  0.00     0.031 C 
ATOM     71  C   UNL     1      -8.328  -0.938  -6.302  1.00  0.00     0.034 A 
BRANCH  58  72
ATOM     72  C   UNL     1      -7.492   3.977  -4.144  1.00  0.00     0.023 A 
ATOM     73  C   UNL     1      -8.775   4.511  -3.925  1.00  0.00     0.012 A 
ATOM     74  C   UNL     1      -6.607   4.708  -4.964  1.00  0.00     0.148 A 
ATOM     75  C   UNL     1      -9.148   5.741  -4.473  1.00  0.00     0.002 A 
ATOM     76  C   UNL     1      -6.947   5.970  -5.426  1.00  0.00     0.091 A 
ATOM     77  F   UNL     1      -5.477   4.133  -5.401  1.00  0.00    -0.205 F 
ATOM     78  C   UNL     1      -8.224   6.486  -5.198  1.00  0.00     0.022 A 
BRANCH  76  79
ATOM     79  S   UNL     1      -5.738   6.989  -6.274  1.00  0.00     0.127 S 
ATOM     80  O   UNL     1      -6.066   6.735  -7.672  1.00  0.00    -0.237 OA
ATOM     81  O   UNL     1      -6.071   8.329  -5.790  1.00  0.00    -0.237 OA
ATOM     82  O   UNL     1      -4.447   6.495  -5.806  1.00  0.00    -0.744 OA
ENDBRANCH  76  79
ENDBRANCH  58  72
BRANCH  59  83
ATOM     83  C   UNL     1      -3.969  -0.614 -10.265  1.00  0.00     0.023 A 
ATOM     84  C   UNL     1      -4.788  -0.663 -11.414  1.00  0.00     0.012 A 
ATOM     85  C   UNL     1      -2.603  -0.291 -10.445  1.00  0.00     0.148 A 
ATOM     86  C   UNL     1      -4.282  -0.366 -12.686  1.00  0.00     0.002 A 
ATOM     87  C   UNL     1      -2.102   0.007 -11.716  1.00  0.00     0.091 A 
ATOM     88  F   UNL     1      -1.820  -0.184  -9.361  1.00  0.00    -0.205 F 
ATOM     89  C   UNL     1      -2.942  -0.022 -12.837  1.00  0.00     0.022 A 
BRANCH  87  90
ATOM     90  S   UNL     1      -0.389   0.494 -11.988  1.00  0.00     0.127 S 
ATOM     91  O   UNL     1      -0.057  -0.205 -13.231  1.00  0.00    -0.237 OA
ATOM     92  O   UNL     1      -0.502   1.945 -12.121  1.00  0.00    -0.237 OA
ATOM     93  O   UNL     1       0.346   0.023 -10.820  1.00  0.00    -0.744 OA
ENDBRANCH  87  90
ENDBRANCH  59  83
BRANCH  71  94
ATOM     94  C   UNL     1      -8.374  -2.444  -6.169  1.00  0.00     0.023 A 
ATOM     95  C   UNL     1      -7.205  -3.204  -5.966  1.00  0.00     0.012 A 
ATOM     96  C   UNL     1      -9.622  -3.084  -6.058  1.00  0.00     0.148 A 
ATOM     97  C   UNL     1      -7.271  -4.567  -5.661  1.00  0.00     0.002 A 
ATOM     98  C   UNL     1      -9.688  -4.432  -5.716  1.00  0.00     0.091 A 
ATOM     99  F   UNL     1     -10.728  -2.349  -6.249  1.00  0.00    -0.205 F 
ATOM    100  C   UNL     1      -8.514  -5.178  -5.521  1.00  0.00     0.022 A 
BRANCH  98 101
ATOM    101  S   UNL     1     -11.248  -5.268  -5.405  1.00  0.00     0.127 S 
ATOM    102  O   UNL     1     -11.310  -6.227  -6.506  1.00  0.00    -0.237 OA
ATOM    103  O   UNL     1     -11.021  -5.864  -4.087  1.00  0.00    -0.237 OA
ATOM    104  O   UNL     1     -12.273  -4.232  -5.425  1.00  0.00    -0.744 OA
ENDBRANCH  98 101
ENDBRANCH  71  94
ENDBRANCH  45  46
ENDBRANCH  38  40
ENDBRANCH  37  38
ENDBRANCH  36  37
ENDBRANCH  35  36
ENDBRANCH  34  35
ENDBRANCH  33  34
ENDBRANCH   1  33
TORSDOF 25
