REMARK SMILES CCC[NH2+]CC(=O)N1CCC(CC(=O)OCCOCCOCCOC(=O)c2ccc(-c3c4nc(c(-c5cccc(S(=O)(=O)[O-])c5F)c5ccc([nH]5)c(-c5cccc(S(=O)(=O)[O-])c5F)c5nc(c(-c6cccc(S(=O)(=O)[O-])c6F)c6ccc3[nH]6)C=C5)C=C4)cc2)CC1
REMARK SMILES IDX 19 1 18 2 17 3 16 4 15 5 13 6 14 7 12 8 11 9 6 10 7 11 8 12
REMARK SMILES IDX 9 13 91 14 10 15 90 16 5 17 4 18 3 21 2 22 1 23 20 24 21 25
REMARK SMILES IDX 22 26 23 27 24 28 25 29 26 30 27 31 28 32 89 33 29 34 88 35
REMARK SMILES IDX 30 36 31 37 32 38 82 39 33 40 87 41 81 42 83 43 34 44 86 45
REMARK SMILES IDX 80 46 79 47 35 49 67 50 47 51 66 52 48 53 51 54 65 55 84 56
REMARK SMILES IDX 49 57 50 58 64 60 85 61 52 62 36 63 37 64 45 65 38 66 40 67
REMARK SMILES IDX 46 68 39 69 41 70 42 71 43 72 44 73 68 74 69 75 77 76 70 77
REMARK SMILES IDX 72 78 78 79 71 80 73 81 74 82 75 83 76 84 53 85 54 86 62 87
REMARK SMILES IDX 55 88 57 89 63 90 56 91 58 92 59 93 60 94 61 95
REMARK H PARENT 4 19 4 20 83 48 51 59
REMARK Flexibility Score: inf
ROOT
ATOM      1  C   UNL     1       8.661  -2.477  -3.877  1.00  0.00     0.188 C 
ENDROOT
BRANCH   1   2
ATOM      2  O   UNL     1      10.042  -2.779  -3.708  1.00  0.00    -0.376 OA
BRANCH   2   3
ATOM      3  C   UNL     1      10.370  -3.770  -2.737  1.00  0.00     0.202 C 
BRANCH   3   4
ATOM      4  C   UNL     1      10.057  -3.401  -1.282  1.00  0.00     0.261 C 
BRANCH   4   5
ATOM      5  O   UNL     1       8.669  -3.077  -1.075  1.00  0.00    -0.463 OA
BRANCH   5   6
ATOM      6  C   UNL     1       8.427  -1.930  -0.392  1.00  0.00     0.306 C 
ATOM      7  O   UNL     1       9.284  -1.251   0.164  1.00  0.00    -0.252 OA
BRANCH   6   8
ATOM      8  C   UNL     1       6.980  -1.480  -0.448  1.00  0.00     0.126 C 
BRANCH   8   9
ATOM      9  C   UNL     1       5.884  -2.492  -0.821  1.00  0.00     0.003 C 
ATOM     10  C   UNL     1       2.616  -4.141   1.036  1.00  0.00     0.277 C 
ATOM     11  O   UNL     1       3.092  -4.617   2.074  1.00  0.00    -0.268 OA
ATOM     12  N   UNL     1       3.428  -3.880  -0.061  1.00  0.00    -0.338 N 
ATOM     13  C   UNL     1       4.676  -4.618  -0.195  1.00  0.00     0.120 C 
ATOM     14  C   UNL     1       3.328  -2.727  -0.944  1.00  0.00     0.120 C 
ATOM     15  C   UNL     1       5.878  -3.726   0.096  1.00  0.00     0.026 C 
ATOM     16  C   UNL     1       4.514  -1.781  -0.742  1.00  0.00     0.026 C 
BRANCH  10  17
ATOM     17  C   UNL     1       1.082  -4.055   0.885  1.00  0.00     0.362 C 
BRANCH  17  18
ATOM     18  N   UNL     1       0.527  -2.697   0.783  1.00  0.00    -0.338 N 
ATOM     19  H   UNL     1      -0.204  -2.584   1.485  1.00  0.00     0.346 HD
ATOM     20  H   UNL     1       1.284  -2.030   0.936  1.00  0.00     0.346 HD
BRANCH  18  21
ATOM     21  C   UNL     1      -0.042  -2.445  -0.540  1.00  0.00     0.260 C 
BRANCH  21  22
ATOM     22  C   UNL     1      -0.297  -0.968  -0.884  1.00  0.00     0.058 C 
ATOM     23  C   UNL     1       0.518   0.067  -0.121  1.00  0.00     0.010 C 
ENDBRANCH  21  22
ENDBRANCH  18  21
ENDBRANCH  17  18
ENDBRANCH  10  17
ENDBRANCH   8   9
ENDBRANCH   6   8
ENDBRANCH   5   6
ENDBRANCH   4   5
ENDBRANCH   3   4
ENDBRANCH   2   3
ENDBRANCH   1   2
BRANCH   1  24
ATOM     24  C   UNL     1       7.779  -3.638  -4.334  1.00  0.00     0.188 C 
BRANCH  24  25
ATOM     25  O   UNL     1       7.836  -4.813  -3.532  1.00  0.00    -0.376 OA
BRANCH  25  26
ATOM     26  C   UNL     1       6.975  -5.883  -3.942  1.00  0.00     0.202 C 
BRANCH  26  27
ATOM     27  C   UNL     1       7.053  -6.313  -5.422  1.00  0.00     0.261 C 
BRANCH  27  28
ATOM     28  O   UNL     1       6.676  -5.304  -6.384  1.00  0.00    -0.460 OA
BRANCH  28  29
ATOM     29  C   UNL     1       5.484  -4.678  -6.220  1.00  0.00     0.338 C 
ATOM     30  O   UNL     1       4.579  -5.029  -5.492  1.00  0.00    -0.246 OA
BRANCH  29  31
ATOM     31  C   UNL     1       5.579  -3.332  -6.857  1.00  0.00     0.060 A 
ATOM     32  C   UNL     1       5.000  -2.244  -6.186  1.00  0.00     0.016 A 
ATOM     33  C   UNL     1       6.300  -3.115  -8.035  1.00  0.00     0.016 A 
ATOM     34  C   UNL     1       5.123  -0.948  -6.699  1.00  0.00     0.010 A 
ATOM     35  C   UNL     1       6.409  -1.820  -8.556  1.00  0.00     0.010 A 
ATOM     36  C   UNL     1       5.803  -0.731  -7.904  1.00  0.00    -0.014 A 
BRANCH  36  37
ATOM     37  C   UNL     1       5.742   0.594  -8.574  1.00  0.00     0.031 A 
ATOM     38  C   UNL     1       4.719   0.802  -9.658  1.00  0.00     0.074 A 
ATOM     39  C   UNL     1       6.586   1.593  -8.255  1.00  0.00     0.049 A 
ATOM     40  N   UNL     1       4.519   1.844 -10.421  1.00  0.00    -0.248 NA
ATOM     41  C   UNL     1       3.799  -0.319  -9.913  1.00  0.00     0.031 C 
ATOM     42  C   UNL     1       7.619   1.537  -7.223  1.00  0.00     0.029 A 
ATOM     43  N   UNL     1       6.723   2.849  -8.800  1.00  0.00    -0.354 N 
ATOM     44  C   UNL     1       3.473   1.497 -11.267  1.00  0.00     0.074 A 
ATOM     45  C   UNL     1       3.080   0.147 -10.924  1.00  0.00     0.031 C 
ATOM     46  C   UNL     1       8.309   2.692  -7.235  1.00  0.00     0.029 A 
ATOM     47  C   UNL     1       7.786   3.559  -8.292  1.00  0.00     0.049 A 
ATOM     48  H   UNL     1       6.117   3.206  -9.489  1.00  0.00     0.167 HD
ATOM     49  C   UNL     1       2.882   2.235 -12.236  1.00  0.00     0.034 A 
ATOM     50  C   UNL     1       8.298   4.753  -8.658  1.00  0.00     0.034 A 
ATOM     51  C   UNL     1       3.256   3.579 -12.579  1.00  0.00     0.049 A 
ATOM     52  C   UNL     1       7.648   5.537  -9.773  1.00  0.00     0.074 A 
ATOM     53  C   UNL     1       2.676   4.417 -13.515  1.00  0.00     0.029 A 
ATOM     54  N   UNL     1       4.313   4.276 -12.018  1.00  0.00    -0.354 N 
ATOM     55  N   UNL     1       6.578   5.249 -10.474  1.00  0.00    -0.248 NA
ATOM     56  C   UNL     1       8.264   6.826 -10.129  1.00  0.00     0.031 C 
ATOM     57  C   UNL     1       3.404   5.611 -13.544  1.00  0.00     0.029 A 
ATOM     58  C   UNL     1       4.416   5.527 -12.602  1.00  0.00     0.049 A 
ATOM     59  H   UNL     1       4.903   3.933 -11.309  1.00  0.00     0.167 HD
ATOM     60  C   UNL     1       6.376   6.331 -11.327  1.00  0.00     0.074 A 
ATOM     61  C   UNL     1       7.419   7.292 -11.039  1.00  0.00     0.031 C 
ATOM     62  C   UNL     1       5.422   6.505 -12.275  1.00  0.00     0.034 A 
BRANCH  49  63
ATOM     63  C   UNL     1       1.747   1.603 -12.995  1.00  0.00     0.023 A 
ATOM     64  C   UNL     1       0.490   1.458 -12.375  1.00  0.00     0.012 A 
ATOM     65  C   UNL     1       1.910   1.212 -14.338  1.00  0.00     0.148 A 
ATOM     66  C   UNL     1      -0.584   0.909 -13.074  1.00  0.00     0.002 A 
ATOM     67  C   UNL     1       0.824   0.706 -15.040  1.00  0.00     0.091 A 
ATOM     68  F   UNL     1       3.122   1.336 -14.897  1.00  0.00    -0.205 F 
ATOM     69  C   UNL     1      -0.420   0.544 -14.408  1.00  0.00     0.022 A 
BRANCH  67  70
ATOM     70  S   UNL     1       0.915   0.276 -16.782  1.00  0.00     0.127 S 
ATOM     71  O   UNL     1       0.822  -1.182 -16.729  1.00  0.00    -0.237 OA
ATOM     72  O   UNL     1      -0.268   0.944 -17.324  1.00  0.00    -0.237 OA
ATOM     73  O   UNL     1       2.185   0.803 -17.260  1.00  0.00    -0.744 OA
ENDBRANCH  67  70
ENDBRANCH  49  63
BRANCH  50  74
ATOM     74  C   UNL     1       9.500   5.300  -7.963  1.00  0.00     0.023 A 
ATOM     75  C   UNL     1       9.379   6.455  -7.165  1.00  0.00     0.012 A 
ATOM     76  C   UNL     1      10.763   4.695  -8.107  1.00  0.00     0.148 A 
ATOM     77  C   UNL     1      10.500   7.015  -6.550  1.00  0.00     0.002 A 
ATOM     78  C   UNL     1      11.866   5.226  -7.447  1.00  0.00     0.091 A 
ATOM     79  F   UNL     1      10.863   3.613  -8.892  1.00  0.00    -0.205 F 
ATOM     80  C   UNL     1      11.740   6.396  -6.683  1.00  0.00     0.022 A 
BRANCH  78  81
ATOM     81  S   UNL     1      13.476   4.430  -7.468  1.00  0.00     0.127 S 
ATOM     82  O   UNL     1      14.252   5.348  -8.297  1.00  0.00    -0.237 OA
ATOM     83  O   UNL     1      13.830   4.430  -6.049  1.00  0.00    -0.237 OA
ATOM     84  O   UNL     1      13.250   3.106  -8.031  1.00  0.00    -0.744 OA
ENDBRANCH  78  81
ENDBRANCH  50  74
BRANCH  62  85
ATOM     85  C   UNL     1       5.425   7.794 -13.059  1.00  0.00     0.023 A 
ATOM     86  C   UNL     1       6.422   8.023 -14.029  1.00  0.00     0.012 A 
ATOM     87  C   UNL     1       4.394   8.741 -12.895  1.00  0.00     0.148 A 
ATOM     88  C   UNL     1       6.410   9.186 -14.800  1.00  0.00     0.002 A 
ATOM     89  C   UNL     1       4.361   9.874 -13.700  1.00  0.00     0.091 A 
ATOM     90  F   UNL     1       3.462   8.515 -11.957  1.00  0.00    -0.205 F 
ATOM     91  C   UNL     1       5.374  10.104 -14.644  1.00  0.00     0.022 A 
BRANCH  89  92
ATOM     92  S   UNL     1       3.015  11.064 -13.637  1.00  0.00     0.127 S 
ATOM     93  O   UNL     1       3.658  12.208 -12.993  1.00  0.00    -0.237 OA
ATOM     94  O   UNL     1       2.705  11.258 -15.054  1.00  0.00    -0.237 OA
ATOM     95  O   UNL     1       1.953  10.429 -12.869  1.00  0.00    -0.744 OA
ENDBRANCH  89  92
ENDBRANCH  62  85
ENDBRANCH  36  37
ENDBRANCH  29  31
ENDBRANCH  28  29
ENDBRANCH  27  28
ENDBRANCH  26  27
ENDBRANCH  25  26
ENDBRANCH  24  25
ENDBRANCH   1  24
TORSDOF 25
