REMARK SMILES CCNC(=O)c1ccc(N[C@@H]2COC[C@@]2(C)C(=O)OCCOCCOCCOC(=O)c2ccc(-c3c4nc(c(-c5cccc(S(=O)(=O)[O-])c5F)c5ccc([nH]5)c(-c5cccc(S(=O)(=O)[O-])c5F)c5nc(c(-c6cccc(S(=O)(=O)[O-])c6F)c6ccc3[nH]6)C=C5)C=C4)cc2)nn1
REMARK SMILES IDX 23 1 22 2 21 3 20 4 19 5 17 6 18 7 15 8 11 9 12 10 13 11
REMARK SMILES IDX 14 12 16 13 10 14 9 16 6 17 7 18 95 19 8 20 94 21 4 22 3 23
REMARK SMILES IDX 5 25 2 26 1 27 24 28 25 29 26 30 27 31 28 32 29 33 30 34
REMARK SMILES IDX 31 35 32 36 93 37 33 38 92 39 34 40 35 41 36 42 86 43 37 44
REMARK SMILES IDX 91 45 85 46 87 47 38 48 90 49 84 50 83 51 39 53 71 54 51 55
REMARK SMILES IDX 70 56 52 57 55 58 69 59 88 60 53 61 54 62 68 64 89 65 56 66
REMARK SMILES IDX 40 67 41 68 49 69 42 70 44 71 50 72 43 73 45 74 46 75 47 76
REMARK SMILES IDX 48 77 72 78 73 79 81 80 74 81 76 82 82 83 75 84 77 85 78 86
REMARK SMILES IDX 79 87 80 88 57 89 58 90 66 91 59 92 61 93 67 94 60 95 62 96
REMARK SMILES IDX 63 97 64 98 65 99
REMARK H PARENT 10 15 3 24 87 52 55 63
REMARK Flexibility Score: inf
ROOT
ATOM      1  C   UNL     1      -7.167  -6.650   3.834  1.00  0.00     0.188 C 
ENDROOT
BRANCH   1   2
ATOM      2  O   UNL     1      -8.356  -7.107   3.204  1.00  0.00    -0.376 OA
BRANCH   2   3
ATOM      3  C   UNL     1      -8.454  -6.892   1.800  1.00  0.00     0.202 C 
BRANCH   3   4
ATOM      4  C   UNL     1      -8.476  -5.434   1.309  1.00  0.00     0.261 C 
BRANCH   4   5
ATOM      5  O   UNL     1      -7.391  -4.608   1.789  1.00  0.00    -0.463 OA
BRANCH   5   6
ATOM      6  C   UNL     1      -7.764  -3.469   2.444  1.00  0.00     0.316 C 
ATOM      7  O   UNL     1      -8.926  -3.082   2.512  1.00  0.00    -0.251 OA
BRANCH   6   8
ATOM      8  C   UNL     1      -6.589  -2.659   2.988  1.00  0.00     0.111 C 
ATOM      9  C   UNL     1      -6.288  -1.541   1.986  1.00  0.00     0.126 C 
ATOM     10  C   UNL     1      -5.902  -0.341   2.844  1.00  0.00     0.186 C 
ATOM     11  O   UNL     1      -6.420  -0.565   4.163  1.00  0.00    -0.378 OA
ATOM     12  C   UNL     1      -7.065  -1.845   4.202  1.00  0.00     0.181 C 
ATOM     13  C   UNL     1      -5.378  -3.495   3.425  1.00  0.00     0.028 C 
BRANCH   9  14
ATOM     14  N   UNL     1      -5.413  -1.907   0.868  1.00  0.00    -0.362 N 
ATOM     15  H   UNL     1      -5.836  -2.033  -0.012  1.00  0.00     0.162 HD
BRANCH  14  16
ATOM     16  C   UNL     1      -4.045  -2.092   0.942  1.00  0.00     0.149 A 
ATOM     17  C   UNL     1      -1.372  -2.639   1.178  1.00  0.00     0.150 A 
ATOM     18  C   UNL     1      -2.054  -3.161   0.096  1.00  0.00     0.040 A 
ATOM     19  N   UNL     1      -1.970  -1.854   2.089  1.00  0.00    -0.143 NA
ATOM     20  C   UNL     1      -3.411  -2.866  -0.024  1.00  0.00     0.051 A 
ATOM     21  N   UNL     1      -3.315  -1.587   1.955  1.00  0.00    -0.132 NA
BRANCH  17  22
ATOM     22  C   UNL     1       0.063  -2.922   1.378  1.00  0.00     0.271 C 
ATOM     23  N   UNL     1       0.991  -2.312   0.565  1.00  0.00    -0.351 N 
ATOM     24  H   UNL     1       1.920  -2.624   0.667  1.00  0.00     0.163 HD
ATOM     25  O   UNL     1       0.426  -3.727   2.229  1.00  0.00    -0.267 OA
BRANCH  23  26
ATOM     26  C   UNL     1       0.780  -1.272  -0.421  1.00  0.00     0.113 C 
ATOM     27  C   UNL     1       1.289   0.066   0.080  1.00  0.00     0.027 C 
ENDBRANCH  23  26
ENDBRANCH  17  22
ENDBRANCH  14  16
ENDBRANCH   9  14
ENDBRANCH   6   8
ENDBRANCH   5   6
ENDBRANCH   4   5
ENDBRANCH   3   4
ENDBRANCH   2   3
ENDBRANCH   1   2
BRANCH   1  28
ATOM     28  C   UNL     1      -5.848  -7.269   3.359  1.00  0.00     0.188 C 
BRANCH  28  29
ATOM     29  O   UNL     1      -5.664  -7.329   1.947  1.00  0.00    -0.376 OA
BRANCH  29  30
ATOM     30  C   UNL     1      -4.377  -7.792   1.515  1.00  0.00     0.202 C 
BRANCH  30  31
ATOM     31  C   UNL     1      -3.896  -9.126   2.123  1.00  0.00     0.261 C 
BRANCH  31  32
ATOM     32  O   UNL     1      -3.677  -9.075   3.548  1.00  0.00    -0.460 OA
BRANCH  32  33
ATOM     33  C   UNL     1      -2.791  -8.149   3.987  1.00  0.00     0.338 C 
ATOM     34  O   UNL     1      -1.988  -7.549   3.293  1.00  0.00    -0.246 OA
BRANCH  33  35
ATOM     35  C   UNL     1      -3.117  -7.798   5.396  1.00  0.00     0.060 A 
ATOM     36  C   UNL     1      -2.955  -6.464   5.794  1.00  0.00     0.016 A 
ATOM     37  C   UNL     1      -3.623  -8.736   6.303  1.00  0.00     0.016 A 
ATOM     38  C   UNL     1      -3.226  -6.084   7.112  1.00  0.00     0.010 A 
ATOM     39  C   UNL     1      -3.893  -8.353   7.625  1.00  0.00     0.010 A 
ATOM     40  C   UNL     1      -3.650  -7.035   8.049  1.00  0.00    -0.014 A 
BRANCH  40  41
ATOM     41  C   UNL     1      -3.630  -6.691   9.497  1.00  0.00     0.031 A 
ATOM     42  C   UNL     1      -2.429  -7.096  10.314  1.00  0.00     0.074 A 
ATOM     43  C   UNL     1      -4.632  -6.012  10.087  1.00  0.00     0.049 A 
ATOM     44  N   UNL     1      -2.149  -6.832  11.565  1.00  0.00    -0.248 NA
ATOM     45  C   UNL     1      -1.408  -7.909   9.631  1.00  0.00     0.031 C 
ATOM     46  C   UNL     1      -5.867  -5.578   9.438  1.00  0.00     0.029 A 
ATOM     47  N   UNL     1      -4.766  -5.580  11.386  1.00  0.00    -0.354 N 
ATOM     48  C   UNL     1      -0.936  -7.459  11.823  1.00  0.00     0.074 A 
ATOM     49  C   UNL     1      -0.541  -8.134  10.607  1.00  0.00     0.031 C 
ATOM     50  C   UNL     1      -6.642  -4.957  10.347  1.00  0.00     0.029 A 
ATOM     51  C   UNL     1      -5.960  -4.949  11.642  1.00  0.00     0.049 A 
ATOM     52  H   UNL     1      -4.070  -5.711  12.070  1.00  0.00     0.167 HD
ATOM     53  C   UNL     1      -0.200  -7.457  12.959  1.00  0.00     0.034 A 
ATOM     54  C   UNL     1      -6.447  -4.425  12.786  1.00  0.00     0.034 A 
ATOM     55  C   UNL     1      -0.559  -6.761  14.164  1.00  0.00     0.049 A 
ATOM     56  C   UNL     1      -5.598  -4.429  14.036  1.00  0.00     0.074 A 
ATOM     57  C   UNL     1       0.172  -6.639  15.333  1.00  0.00     0.029 A 
ATOM     58  N   UNL     1      -1.750  -6.086  14.365  1.00  0.00    -0.354 N 
ATOM     59  N   UNL     1      -4.373  -4.864  14.206  1.00  0.00    -0.248 NA
ATOM     60  C   UNL     1      -6.187  -3.825  15.243  1.00  0.00     0.031 C 
ATOM     61  C   UNL     1      -0.591  -5.912  16.253  1.00  0.00     0.029 A 
ATOM     62  C   UNL     1      -1.785  -5.561  15.646  1.00  0.00     0.049 A 
ATOM     63  H   UNL     1      -2.466  -5.992  13.696  1.00  0.00     0.167 HD
ATOM     64  C   UNL     1      -4.034  -4.550  15.520  1.00  0.00     0.074 A 
ATOM     65  C   UNL     1      -5.171  -3.864  16.094  1.00  0.00     0.031 C 
ATOM     66  C   UNL     1      -2.890  -4.822  16.197  1.00  0.00     0.034 A 
BRANCH  53  67
ATOM     67  C   UNL     1       1.103  -8.207  12.947  1.00  0.00     0.023 A 
ATOM     68  C   UNL     1       2.214  -7.660  12.274  1.00  0.00     0.012 A 
ATOM     69  C   UNL     1       1.249  -9.407  13.668  1.00  0.00     0.148 A 
ATOM     70  C   UNL     1       3.447  -8.309  12.302  1.00  0.00     0.002 A 
ATOM     71  C   UNL     1       2.491 -10.026  13.725  1.00  0.00     0.091 A 
ATOM     72  F   UNL     1       0.172  -9.920  14.279  1.00  0.00    -0.205 F 
ATOM     73  C   UNL     1       3.589  -9.483  13.037  1.00  0.00     0.022 A 
BRANCH  71  74
ATOM     74  S   UNL     1       2.794 -11.499  14.707  1.00  0.00     0.127 S 
ATOM     75  O   UNL     1       2.991 -12.510  13.669  1.00  0.00    -0.237 OA
ATOM     76  O   UNL     1       4.005 -11.135  15.443  1.00  0.00    -0.237 OA
ATOM     77  O   UNL     1       1.611 -11.680  15.537  1.00  0.00    -0.744 OA
ENDBRANCH  71  74
ENDBRANCH  53  67
BRANCH  54  78
ATOM     78  C   UNL     1      -7.801  -3.798  12.814  1.00  0.00     0.023 A 
ATOM     79  C   UNL     1      -7.922  -2.408  13.011  1.00  0.00     0.012 A 
ATOM     80  C   UNL     1      -8.968  -4.576  12.689  1.00  0.00     0.148 A 
ATOM     81  C   UNL     1      -9.178  -1.812  13.128  1.00  0.00     0.002 A 
ATOM     82  C   UNL     1     -10.217  -3.967  12.752  1.00  0.00     0.091 A 
ATOM     83  F   UNL     1      -8.836  -5.901  12.529  1.00  0.00    -0.205 F 
ATOM     84  C   UNL     1     -10.325  -2.589  12.991  1.00  0.00     0.022 A 
BRANCH  82  85
ATOM     85  S   UNL     1     -11.738  -4.879  12.469  1.00  0.00     0.127 S 
ATOM     86  O   UNL     1     -12.258  -5.025  13.826  1.00  0.00    -0.237 OA
ATOM     87  O   UNL     1     -12.493  -3.959  11.617  1.00  0.00    -0.237 OA
ATOM     88  O   UNL     1     -11.333  -6.110  11.804  1.00  0.00    -0.744 OA
ENDBRANCH  82  85
ENDBRANCH  54  78
BRANCH  66  89
ATOM     89  C   UNL     1      -2.783  -4.350  17.626  1.00  0.00     0.023 A 
ATOM     90  C   UNL     1      -3.551  -4.976  18.629  1.00  0.00     0.012 A 
ATOM     91  C   UNL     1      -1.878  -3.332  17.989  1.00  0.00     0.148 A 
ATOM     92  C   UNL     1      -3.452  -4.567  19.960  1.00  0.00     0.002 A 
ATOM     93  C   UNL     1      -1.749  -2.964  19.325  1.00  0.00     0.091 A 
ATOM     94  F   UNL     1      -1.164  -2.733  17.024  1.00  0.00    -0.205 F 
ATOM     95  C   UNL     1      -2.545  -3.570  20.309  1.00  0.00     0.022 A 
BRANCH  93  96
ATOM     96  S   UNL     1      -0.533  -1.757  19.869  1.00  0.00     0.127 S 
ATOM     97  O   UNL     1      -1.351  -0.556  20.026  1.00  0.00    -0.237 OA
ATOM     98  O   UNL     1      -0.054  -2.335  21.126  1.00  0.00    -0.237 OA
ATOM     99  O   UNL     1       0.470  -1.705  18.814  1.00  0.00    -0.744 OA
ENDBRANCH  93  96
ENDBRANCH  66  89
ENDBRANCH  40  41
ENDBRANCH  33  35
ENDBRANCH  32  33
ENDBRANCH  31  32
ENDBRANCH  30  31
ENDBRANCH  29  30
ENDBRANCH  28  29
ENDBRANCH   1  28
TORSDOF 24
