REMARK SMILES Cc1ccc(C)c(/C=C2\SC(=S)N(CC(=O)OCCOCCOCCOC(=O)c3ccc(-c4c5nc(c(-c6cccc(S(=O)(=O)[O-])c6F)c6ccc([nH]6)c(-c6cccc(S(=O)(=O)[O-])c6F)c6nc(c(-c7cccc(S(=O)(=O)[O-])c7F)c7ccc4[nH]7)C=C6)C=C5)cc3)C2=O)c1
REMARK SMILES IDX 22 1 21 2 20 3 19 4 18 5 17 6 15 7 16 8 14 9 13 10 8 11 9 12
REMARK SMILES IDX 10 13 92 14 11 15 93 16 12 17 7 18 1 19 2 20 3 21 94 22 4 23
REMARK SMILES IDX 5 24 6 25 23 26 24 27 25 28 26 29 27 30 28 31 29 32 30 33
REMARK SMILES IDX 91 34 31 35 90 36 32 37 33 38 34 39 84 40 35 41 89 42 83 43
REMARK SMILES IDX 85 44 36 45 88 46 82 47 81 48 37 50 69 51 49 52 68 53 50 54
REMARK SMILES IDX 53 55 67 56 86 57 51 58 52 59 66 61 87 62 54 63 38 64 39 65
REMARK SMILES IDX 47 66 40 67 42 68 48 69 41 70 43 71 44 72 45 73 46 74 70 75
REMARK SMILES IDX 71 76 79 77 72 78 74 79 80 80 73 81 75 82 76 83 77 84 78 85
REMARK SMILES IDX 55 86 56 87 64 88 57 89 59 90 65 91 58 92 60 93 61 94 62 95
REMARK SMILES IDX 63 96
REMARK H PARENT 85 49 53 60
REMARK Flexibility Score: inf
ROOT
ATOM      1  C   UNL     1      -6.938   5.269   0.882  1.00  0.00     0.188 C 
ENDROOT
BRANCH   1   2
ATOM      2  C   UNL     1      -6.260   6.653   0.705  1.00  0.00     0.188 C 
BRANCH   2   3
ATOM      3  O   UNL     1      -6.976   7.618  -0.064  1.00  0.00    -0.376 OA
BRANCH   3   4
ATOM      4  C   UNL     1      -6.812   7.521  -1.487  1.00  0.00     0.202 C 
BRANCH   4   5
ATOM      5  C   UNL     1      -5.534   8.185  -2.088  1.00  0.00     0.261 C 
BRANCH   5   6
ATOM      6  O   UNL     1      -4.266   7.507  -1.796  1.00  0.00    -0.462 OA
BRANCH   6   7
ATOM      7  C   UNL     1      -3.152   8.092  -2.340  1.00  0.00     0.326 C 
ATOM      8  O   UNL     1      -2.981   9.308  -2.316  1.00  0.00    -0.250 OA
BRANCH   7   9
ATOM      9  C   UNL     1      -2.205   7.126  -3.139  1.00  0.00     0.250 C 
BRANCH   9  10
ATOM     10  N   UNL     1      -1.243   6.141  -2.538  1.00  0.00    -0.282 N 
ATOM     11  C   UNL     1      -0.859   2.710  -1.398  1.00  0.00     0.029 C 
ATOM     12  C   UNL     1      -0.544   3.970  -1.769  1.00  0.00     0.081 C 
ATOM     13  S   UNL     1       0.885   4.895  -1.667  1.00  0.00    -0.054 SA
ATOM     14  C   UNL     1      -1.548   4.796  -2.521  1.00  0.00     0.266 C 
ATOM     15  C   UNL     1       0.120   6.320  -2.433  1.00  0.00     0.148 C 
ATOM     16  O   UNL     1      -2.373   4.256  -3.240  1.00  0.00    -0.268 OA
ATOM     17  S   UNL     1       1.049   7.588  -2.997  1.00  0.00    -0.052 S 
BRANCH  11  18
ATOM     18  C   UNL     1      -0.182   1.518  -0.784  1.00  0.00    -0.021 A 
ATOM     19  C   UNL     1       3.357   0.197  -0.052  1.00  0.00     0.044 C 
ATOM     20  C   UNL     1       1.864   0.279  -0.175  1.00  0.00    -0.051 A 
ATOM     21  C   UNL     1       1.123  -0.870   0.090  1.00  0.00     0.004 A 
ATOM     22  C   UNL     1       1.214   1.456  -0.617  1.00  0.00     0.011 A 
ATOM     23  C   UNL     1      -0.252  -0.835  -0.033  1.00  0.00     0.004 A 
ATOM     24  C   UNL     1      -0.914   0.338  -0.446  1.00  0.00    -0.044 A 
ATOM     25  C   UNL     1      -2.406   0.172  -0.531  1.00  0.00     0.045 C 
ENDBRANCH  11  18
ENDBRANCH   9  10
ENDBRANCH   7   9
ENDBRANCH   6   7
ENDBRANCH   5   6
ENDBRANCH   4   5
ENDBRANCH   3   4
ENDBRANCH   2   3
ENDBRANCH   1   2
BRANCH   1  26
ATOM     26  O   UNL     1      -7.101   4.617  -0.363  1.00  0.00    -0.376 OA
BRANCH  26  27
ATOM     27  C   UNL     1      -7.674   3.319  -0.393  1.00  0.00     0.202 C 
BRANCH  27  28
ATOM     28  C   UNL     1      -7.100   2.207   0.501  1.00  0.00     0.261 C 
BRANCH  28  29
ATOM     29  O   UNL     1      -5.743   2.264   1.000  1.00  0.00    -0.460 OA
BRANCH  29  30
ATOM     30  C   UNL     1      -4.625   2.652   0.360  1.00  0.00     0.338 C 
ATOM     31  O   UNL     1      -3.575   2.858   0.963  1.00  0.00    -0.246 OA
BRANCH  30  32
ATOM     32  C   UNL     1      -4.737   2.984  -1.062  1.00  0.00     0.060 A 
ATOM     33  C   UNL     1      -4.519   4.318  -1.338  1.00  0.00     0.016 A 
ATOM     34  C   UNL     1      -5.144   2.092  -2.067  1.00  0.00     0.016 A 
ATOM     35  C   UNL     1      -4.916   4.785  -2.567  1.00  0.00     0.010 A 
ATOM     36  C   UNL     1      -5.487   2.587  -3.333  1.00  0.00     0.010 A 
ATOM     37  C   UNL     1      -5.422   3.958  -3.554  1.00  0.00    -0.014 A 
BRANCH  37  38
ATOM     38  C   UNL     1      -5.802   4.703  -4.755  1.00  0.00     0.031 A 
ATOM     39  C   UNL     1      -4.692   5.141  -5.642  1.00  0.00     0.074 A 
ATOM     40  C   UNL     1      -7.070   5.132  -4.922  1.00  0.00     0.049 A 
ATOM     41  N   UNL     1      -4.458   6.344  -6.082  1.00  0.00    -0.248 NA
ATOM     42  C   UNL     1      -3.664   4.155  -6.002  1.00  0.00     0.031 C 
ATOM     43  C   UNL     1      -8.202   4.747  -4.080  1.00  0.00     0.029 A 
ATOM     44  N   UNL     1      -7.647   5.893  -5.913  1.00  0.00    -0.354 N 
ATOM     45  C   UNL     1      -3.428   6.184  -7.003  1.00  0.00     0.074 A 
ATOM     46  C   UNL     1      -2.874   4.871  -6.800  1.00  0.00     0.031 C 
ATOM     47  C   UNL     1      -9.345   5.037  -4.724  1.00  0.00     0.029 A 
ATOM     48  C   UNL     1      -9.021   5.685  -5.982  1.00  0.00     0.049 A 
ATOM     49  H   UNL     1      -7.150   6.507  -6.499  1.00  0.00     0.167 HD
ATOM     50  C   UNL     1      -3.345   6.966  -8.110  1.00  0.00     0.034 A 
ATOM     51  C   UNL     1      -9.852   5.893  -7.028  1.00  0.00     0.034 A 
ATOM     52  C   UNL     1      -3.952   8.254  -7.977  1.00  0.00     0.049 A 
ATOM     53  C   UNL     1      -9.291   6.921  -7.923  1.00  0.00     0.074 A 
ATOM     54  C   UNL     1      -3.606   9.495  -7.497  1.00  0.00     0.029 A 
ATOM     55  N   UNL     1      -5.286   8.280  -8.263  1.00  0.00    -0.354 N 
ATOM     56  N   UNL     1      -9.236   8.188  -7.622  1.00  0.00    -0.248 NA
ATOM     57  C   UNL     1      -8.546   6.524  -9.115  1.00  0.00     0.031 C 
ATOM     58  C   UNL     1      -4.806  10.261  -7.447  1.00  0.00     0.029 A 
ATOM     59  C   UNL     1      -5.858   9.465  -7.888  1.00  0.00     0.049 A 
ATOM     60  H   UNL     1      -5.776   7.538  -8.686  1.00  0.00     0.167 HD
ATOM     61  C   UNL     1      -8.135   8.646  -8.318  1.00  0.00     0.074 A 
ATOM     62  C   UNL     1      -7.872   7.652  -9.346  1.00  0.00     0.031 C 
ATOM     63  C   UNL     1      -7.295   9.567  -7.769  1.00  0.00     0.034 A 
BRANCH  50  64
ATOM     64  C   UNL     1      -3.174   6.345  -9.477  1.00  0.00     0.023 A 
ATOM     65  C   UNL     1      -2.781   7.162 -10.553  1.00  0.00     0.012 A 
ATOM     66  C   UNL     1      -3.669   5.056  -9.790  1.00  0.00     0.148 A 
ATOM     67  C   UNL     1      -2.852   6.702 -11.875  1.00  0.00     0.002 A 
ATOM     68  C   UNL     1      -3.648   4.571 -11.088  1.00  0.00     0.091 A 
ATOM     69  F   UNL     1      -4.307   4.344  -8.851  1.00  0.00    -0.205 F 
ATOM     70  C   UNL     1      -3.260   5.397 -12.142  1.00  0.00     0.022 A 
BRANCH  68  71
ATOM     71  S   UNL     1      -4.109   2.873 -11.439  1.00  0.00     0.127 S 
ATOM     72  O   UNL     1      -5.480   3.030 -11.912  1.00  0.00    -0.237 OA
ATOM     73  O   UNL     1      -3.134   2.498 -12.464  1.00  0.00    -0.237 OA
ATOM     74  O   UNL     1      -3.936   2.168 -10.174  1.00  0.00    -0.744 OA
ENDBRANCH  68  71
ENDBRANCH  50  64
BRANCH  51  75
ATOM     75  C   UNL     1     -11.089   5.143  -7.346  1.00  0.00     0.023 A 
ATOM     76  C   UNL     1     -12.087   5.726  -8.147  1.00  0.00     0.012 A 
ATOM     77  C   UNL     1     -11.217   3.772  -7.020  1.00  0.00     0.148 A 
ATOM     78  C   UNL     1     -13.175   4.971  -8.601  1.00  0.00     0.002 A 
ATOM     79  C   UNL     1     -12.321   3.038  -7.433  1.00  0.00     0.091 A 
ATOM     80  F   UNL     1     -10.215   3.157  -6.377  1.00  0.00    -0.205 F 
ATOM     81  C   UNL     1     -13.298   3.631  -8.237  1.00  0.00     0.022 A 
BRANCH  79  82
ATOM     82  S   UNL     1     -12.544   1.323  -6.943  1.00  0.00     0.127 S 
ATOM     83  O   UNL     1     -13.971   1.278  -6.621  1.00  0.00    -0.237 OA
ATOM     84  O   UNL     1     -12.167   0.606  -8.157  1.00  0.00    -0.237 OA
ATOM     85  O   UNL     1     -11.674   1.128  -5.788  1.00  0.00    -0.744 OA
ENDBRANCH  79  82
ENDBRANCH  51  75
BRANCH  63  86
ATOM     86  C   UNL     1      -7.855  10.550  -6.791  1.00  0.00     0.023 A 
ATOM     87  C   UNL     1      -8.326  10.162  -5.524  1.00  0.00     0.012 A 
ATOM     88  C   UNL     1      -7.807  11.916  -7.120  1.00  0.00     0.148 A 
ATOM     89  C   UNL     1      -8.757  11.121  -4.605  1.00  0.00     0.002 A 
ATOM     90  C   UNL     1      -8.198  12.870  -6.191  1.00  0.00     0.091 A 
ATOM     91  F   UNL     1      -7.359  12.259  -8.338  1.00  0.00    -0.205 F 
ATOM     92  C   UNL     1      -8.681  12.475  -4.933  1.00  0.00     0.022 A 
BRANCH  90  93
ATOM     93  S   UNL     1      -8.030  14.628  -6.508  1.00  0.00     0.127 S 
ATOM     94  O   UNL     1      -9.422  15.047  -6.657  1.00  0.00    -0.237 OA
ATOM     95  O   UNL     1      -7.375  15.103  -5.288  1.00  0.00    -0.237 OA
ATOM     96  O   UNL     1      -7.212  14.745  -7.709  1.00  0.00    -0.744 OA
ENDBRANCH  90  93
ENDBRANCH  63  86
ENDBRANCH  37  38
ENDBRANCH  30  32
ENDBRANCH  29  30
ENDBRANCH  28  29
ENDBRANCH  27  28
ENDBRANCH  26  27
ENDBRANCH   1  26
TORSDOF 22
