REMARK SMILES O=C(OCCOCCOCCOC(=O)c1ccccc1/N=C/c1coc2ccccc2c1=O)c1ccc(-c2c3nc(c(-c4cccc(S(=O)(=O)[O-])c4F)c4ccc([nH]4)c(-c4cccc(S(=O)(=O)[O-])c4F)c4nc(c(-c5cccc(S(=O)(=O)[O-])c5F)c5ccc2[nH]5)C=C4)C=C3)cc1
REMARK SMILES IDX 7 1 6 2 5 3 4 4 3 5 2 6 1 7 34 8 35 9 96 10 36 11 95 12
REMARK SMILES IDX 37 13 38 14 39 15 89 16 40 17 94 18 88 19 90 20 41 21 93 22
REMARK SMILES IDX 87 23 86 24 42 26 74 27 54 28 73 29 55 30 58 31 72 32 91 33
REMARK SMILES IDX 56 34 57 35 71 37 92 38 59 39 43 40 44 41 52 42 45 43 47 44
REMARK SMILES IDX 53 45 46 46 48 47 49 48 50 49 51 50 75 51 76 52 84 53 77 54
REMARK SMILES IDX 79 55 85 56 78 57 80 58 81 59 82 60 83 61 60 62 61 63 69 64
REMARK SMILES IDX 62 65 64 66 70 67 63 68 65 69 66 70 67 71 68 72 8 73 9 74
REMARK SMILES IDX 10 75 11 76 12 77 13 78 14 79 15 80 16 81 20 82 17 83 19 84
REMARK SMILES IDX 18 85 21 86 22 87 23 88 24 89 32 90 25 91 31 92 33 93 26 94
REMARK SMILES IDX 30 95 27 96 29 97 28 98
REMARK H PARENT 90 25 58 36
REMARK Flexibility Score: inf
ROOT
ATOM      1  C   UNL     1       2.532   0.680  -2.047  1.00  0.00     0.188 C 
ENDROOT
BRANCH   1   2
ATOM      2  O   UNL     1       3.718   0.809  -1.244  1.00  0.00    -0.376 OA
BRANCH   2   3
ATOM      3  C   UNL     1       4.686  -0.211  -1.494  1.00  0.00     0.202 C 
BRANCH   3   4
ATOM      4  C   UNL     1       4.551  -1.431  -0.578  1.00  0.00     0.261 C 
BRANCH   4   5
ATOM      5  O   UNL     1       3.180  -1.687  -0.234  1.00  0.00    -0.460 OA
BRANCH   5   6
ATOM      6  C   UNL     1       2.504  -1.182   0.832  1.00  0.00     0.338 C 
ATOM      7  O   UNL     1       1.281  -1.293   0.874  1.00  0.00    -0.246 OA
BRANCH   6   8
ATOM      8  C   UNL     1       3.208  -0.636   2.028  1.00  0.00     0.060 A 
ATOM      9  C   UNL     1       4.288   0.249   1.984  1.00  0.00     0.016 A 
ATOM     10  C   UNL     1       2.703  -1.013   3.282  1.00  0.00     0.016 A 
ATOM     11  C   UNL     1       4.960   0.607   3.157  1.00  0.00     0.010 A 
ATOM     12  C   UNL     1       3.328  -0.596   4.461  1.00  0.00     0.010 A 
ATOM     13  C   UNL     1       4.503   0.164   4.405  1.00  0.00    -0.014 A 
BRANCH  13  14
ATOM     14  C   UNL     1       5.293   0.439   5.632  1.00  0.00     0.031 A 
ATOM     15  C   UNL     1       6.000  -0.682   6.337  1.00  0.00     0.074 A 
ATOM     16  C   UNL     1       5.403   1.690   6.114  1.00  0.00     0.049 A 
ATOM     17  N   UNL     1       6.764  -0.630   7.396  1.00  0.00    -0.248 NA
ATOM     18  C   UNL     1       5.820  -2.034   5.787  1.00  0.00     0.031 C 
ATOM     19  C   UNL     1       4.734   2.856   5.550  1.00  0.00     0.029 A 
ATOM     20  N   UNL     1       6.109   2.190   7.182  1.00  0.00    -0.354 N 
ATOM     21  C   UNL     1       7.122  -1.941   7.667  1.00  0.00     0.074 A 
ATOM     22  C   UNL     1       6.493  -2.770   6.660  1.00  0.00     0.031 C 
ATOM     23  C   UNL     1       5.085   3.934   6.266  1.00  0.00     0.029 A 
ATOM     24  C   UNL     1       5.996   3.551   7.326  1.00  0.00     0.049 A 
ATOM     25  H   UNL     1       6.645   1.626   7.786  1.00  0.00     0.167 HD
ATOM     26  C   UNL     1       7.913  -2.416   8.656  1.00  0.00     0.034 A 
ATOM     27  C   UNL     1       6.559   4.417   8.191  1.00  0.00     0.034 A 
ATOM     28  C   UNL     1       8.561  -1.599   9.644  1.00  0.00     0.049 A 
ATOM     29  C   UNL     1       7.482   3.877   9.237  1.00  0.00     0.074 A 
ATOM     30  C   UNL     1       9.378  -1.995  10.689  1.00  0.00     0.029 A 
ATOM     31  N   UNL     1       8.468  -0.217   9.711  1.00  0.00    -0.354 N 
ATOM     32  N   UNL     1       7.869   2.640   9.425  1.00  0.00    -0.248 NA
ATOM     33  C   UNL     1       8.054   4.845  10.183  1.00  0.00     0.031 C 
ATOM     34  C   UNL     1       9.781  -0.849  11.386  1.00  0.00     0.029 A 
ATOM     35  C   UNL     1       9.215   0.258  10.775  1.00  0.00     0.049 A 
ATOM     36  H   UNL     1       7.946   0.343   9.092  1.00  0.00     0.167 HD
ATOM     37  C   UNL     1       8.727   2.676  10.512  1.00  0.00     0.074 A 
ATOM     38  C   UNL     1       8.838   4.065  10.915  1.00  0.00     0.031 C 
ATOM     39  C   UNL     1       9.341   1.645  11.140  1.00  0.00     0.034 A 
BRANCH  26  40
ATOM     40  C   UNL     1       8.127  -3.901   8.685  1.00  0.00     0.023 A 
ATOM     41  C   UNL     1       9.056  -4.481   7.798  1.00  0.00     0.012 A 
ATOM     42  C   UNL     1       7.390  -4.722   9.558  1.00  0.00     0.148 A 
ATOM     43  C   UNL     1       9.230  -5.863   7.762  1.00  0.00     0.002 A 
ATOM     44  C   UNL     1       7.587  -6.098   9.532  1.00  0.00     0.091 A 
ATOM     45  F   UNL     1       6.483  -4.150  10.363  1.00  0.00    -0.205 F 
ATOM     46  C   UNL     1       8.500  -6.670   8.631  1.00  0.00     0.022 A 
BRANCH  44  47
ATOM     47  S   UNL     1       6.709  -7.211  10.633  1.00  0.00     0.127 S 
ATOM     48  O   UNL     1       5.707  -7.784   9.735  1.00  0.00    -0.237 OA
ATOM     49  O   UNL     1       7.764  -8.140  11.042  1.00  0.00    -0.237 OA
ATOM     50  O   UNL     1       6.190  -6.378  11.708  1.00  0.00    -0.744 OA
ENDBRANCH  44  47
ENDBRANCH  26  40
BRANCH  27  51
ATOM     51  C   UNL     1       6.335   5.885   8.042  1.00  0.00     0.023 A 
ATOM     52  C   UNL     1       7.383   6.691   7.554  1.00  0.00     0.012 A 
ATOM     53  C   UNL     1       5.090   6.481   8.311  1.00  0.00     0.148 A 
ATOM     54  C   UNL     1       7.199   8.062   7.356  1.00  0.00     0.002 A 
ATOM     55  C   UNL     1       4.898   7.838   8.065  1.00  0.00     0.091 A 
ATOM     56  F   UNL     1       4.096   5.711   8.778  1.00  0.00    -0.205 F 
ATOM     57  C   UNL     1       5.953   8.634   7.601  1.00  0.00     0.022 A 
BRANCH  55  58
ATOM     58  S   UNL     1       3.255   8.559   8.184  1.00  0.00     0.127 S 
ATOM     59  O   UNL     1       3.151   8.869   9.605  1.00  0.00    -0.237 OA
ATOM     60  O   UNL     1       3.349   9.724   7.302  1.00  0.00    -0.237 OA
ATOM     61  O   UNL     1       2.374   7.514   7.673  1.00  0.00    -0.744 OA
ENDBRANCH  55  58
ENDBRANCH  27  51
BRANCH  39  62
ATOM     62  C   UNL     1      10.171   1.986  12.342  1.00  0.00     0.023 A 
ATOM     63  C   UNL     1       9.526   2.257  13.565  1.00  0.00     0.012 A 
ATOM     64  C   UNL     1      11.574   2.001  12.274  1.00  0.00     0.148 A 
ATOM     65  C   UNL     1      10.271   2.561  14.702  1.00  0.00     0.002 A 
ATOM     66  C   UNL     1      12.311   2.272  13.420  1.00  0.00     0.091 A 
ATOM     67  F   UNL     1      12.164   1.773  11.091  1.00  0.00    -0.205 F 
ATOM     68  C   UNL     1      11.663   2.558  14.633  1.00  0.00     0.022 A 
BRANCH  66  69
ATOM     69  S   UNL     1      14.106   2.218  13.420  1.00  0.00     0.127 S 
ATOM     70  O   UNL     1      14.448   3.630  13.259  1.00  0.00    -0.237 OA
ATOM     71  O   UNL     1      14.408   1.664  14.741  1.00  0.00    -0.237 OA
ATOM     72  O   UNL     1      14.469   1.346  12.310  1.00  0.00    -0.744 OA
ENDBRANCH  66  69
ENDBRANCH  39  62
ENDBRANCH  13  14
ENDBRANCH   6   8
ENDBRANCH   5   6
ENDBRANCH   4   5
ENDBRANCH   3   4
ENDBRANCH   2   3
ENDBRANCH   1   2
BRANCH   1  73
ATOM     73  C   UNL     1       1.879   2.050  -2.231  1.00  0.00     0.188 C 
BRANCH  73  74
ATOM     74  O   UNL     1       2.504   2.876  -3.221  1.00  0.00    -0.376 OA
BRANCH  74  75
ATOM     75  C   UNL     1       3.876   3.186  -3.008  1.00  0.00     0.202 C 
BRANCH  75  76
ATOM     76  C   UNL     1       4.203   4.267  -1.974  1.00  0.00     0.261 C 
BRANCH  76  77
ATOM     77  O   UNL     1       3.349   4.332  -0.826  1.00  0.00    -0.460 OA
BRANCH  77  78
ATOM     78  C   UNL     1       2.298   5.177  -0.970  1.00  0.00     0.340 C 
ATOM     79  O   UNL     1       1.921   5.723  -1.994  1.00  0.00    -0.246 OA
BRANCH  78  80
ATOM     80  C   UNL     1       1.741   5.498   0.343  1.00  0.00     0.085 A 
ATOM     81  C   UNL     1       0.908   4.544   0.957  1.00  0.00     0.018 A 
ATOM     82  C   UNL     1       2.013   6.735   0.952  1.00  0.00     0.077 A 
ATOM     83  C   UNL     1       0.312   4.822   2.185  1.00  0.00     0.001 A 
ATOM     84  C   UNL     1       1.347   7.003   2.162  1.00  0.00     0.029 A 
ATOM     85  C   UNL     1       0.511   6.063   2.777  1.00  0.00     0.002 A 
BRANCH  82  86
ATOM     86  N   UNL     1       3.127   7.567   0.729  1.00  0.00    -0.255 NA
ATOM     87  C   UNL     1       3.935   7.551  -0.281  1.00  0.00     0.127 C 
BRANCH  87  88
ATOM     88  C   UNL     1       5.388   7.669   0.068  1.00  0.00     0.076 A 
ATOM     89  C   UNL     1       5.710   8.842   0.646  1.00  0.00     0.209 A 
ATOM     90  C   UNL     1       5.931   6.488   0.812  1.00  0.00     0.201 A 
ATOM     91  O   UNL     1       6.254   8.905   1.934  1.00  0.00    -0.463 OA
ATOM     92  C   UNL     1       5.632   6.606   2.249  1.00  0.00     0.065 A 
ATOM     93  O   UNL     1       6.391   5.496   0.268  1.00  0.00    -0.288 OA
ATOM     94  C   UNL     1       5.730   7.912   2.753  1.00  0.00     0.137 A 
ATOM     95  C   UNL     1       4.851   5.637   2.869  1.00  0.00     0.016 A 
ATOM     96  C   UNL     1       5.059   8.265   3.913  1.00  0.00     0.048 A 
ATOM     97  C   UNL     1       4.094   6.032   3.967  1.00  0.00     0.001 A 
ATOM     98  C   UNL     1       4.211   7.323   4.497  1.00  0.00     0.004 A 
ENDBRANCH  87  88
ENDBRANCH  82  86
ENDBRANCH  78  80
ENDBRANCH  77  78
ENDBRANCH  76  77
ENDBRANCH  75  76
ENDBRANCH  74  75
ENDBRANCH  73  74
ENDBRANCH   1  73
TORSDOF 22
