REMARK SMILES CC(C)CCc1cc2c(cc1Cl)C=C(C(=O)OCCOCCOCCOC(=O)c1ccc(-c3c4nc(c(-c5cccc(S(=O)(=O)[O-])c5F)c5ccc([nH]5)c(-c5cccc(S(=O)(=O)[O-])c5F)c5nc(c(-c6cccc(S(=O)(=O)[O-])c6F)c6ccc3[nH]6)C=C5)C=C4)cc1)[C@H](C(F)(F)F)O2
REMARK SMILES IDX 21 1 20 2 19 3 18 4 17 5 15 6 16 7 14 8 6 9 7 10 11 11 8 12
REMARK SMILES IDX 10 13 12 14 9 15 97 16 13 17 92 18 5 19 4 20 2 21 1 22 3 23
REMARK SMILES IDX 93 24 94 25 95 26 96 27 22 28 23 29 24 30 25 31 26 32 27 33
REMARK SMILES IDX 28 34 29 35 30 36 91 37 31 38 90 39 32 40 33 41 34 42 84 43
REMARK SMILES IDX 35 44 89 45 83 46 85 47 36 48 88 49 82 50 81 51 37 53 69 54
REMARK SMILES IDX 49 55 68 56 50 57 53 58 67 59 86 60 51 61 52 62 66 64 87 65
REMARK SMILES IDX 54 66 38 67 39 68 47 69 40 70 42 71 48 72 41 73 43 74 44 75
REMARK SMILES IDX 45 76 46 77 70 78 71 79 79 80 72 81 74 82 80 83 73 84 75 85
REMARK SMILES IDX 76 86 77 87 78 88 55 89 56 90 64 91 57 92 59 93 65 94 58 95
REMARK SMILES IDX 60 96 61 97 62 98 63 99
REMARK H PARENT 85 52 53 63
REMARK Flexibility Score: inf
ROOT
ATOM      1  C   UNL     1      -0.400   8.461   6.317  1.00  0.00     0.188 C 
ENDROOT
BRANCH   1   2
ATOM      2  O   UNL     1       0.260   9.697   6.567  1.00  0.00    -0.376 OA
BRANCH   2   3
ATOM      3  C   UNL     1       0.147  10.763   5.634  1.00  0.00     0.202 C 
BRANCH   3   4
ATOM      4  C   UNL     1       0.606  10.511   4.192  1.00  0.00     0.261 C 
BRANCH   4   5
ATOM      5  O   UNL     1      -0.059   9.408   3.546  1.00  0.00    -0.460 OA
BRANCH   5   6
ATOM      6  C   UNL     1       0.747   8.425   3.087  1.00  0.00     0.338 C 
ATOM      7  O   UNL     1       1.966   8.448   3.056  1.00  0.00    -0.246 OA
BRANCH   6   8
ATOM      8  C   UNL     1      -0.036   7.231   2.718  1.00  0.00     0.087 C 
ATOM      9  C   UNL     1      -1.131   2.442   1.627  1.00  0.00    -0.026 A 
ATOM     10  C   UNL     1      -1.439   3.690   1.052  1.00  0.00     0.052 A 
ATOM     11  C   UNL     1      -0.422   2.429   2.840  1.00  0.00     0.045 A 
ATOM     12  C   UNL     1      -0.985   4.878   1.623  1.00  0.00     0.128 A 
ATOM     13  C   UNL     1       0.024   3.624   3.419  1.00  0.00     0.032 A 
ATOM     14  Cl  UNL     1      -0.030   0.966   3.668  1.00  0.00    -0.084 Cl
ATOM     15  C   UNL     1      -0.237   4.849   2.799  1.00  0.00     0.019 A 
ATOM     16  O   UNL     1      -1.224   6.026   0.915  1.00  0.00    -0.475 OA
ATOM     17  C   UNL     1       0.357   6.082   3.289  1.00  0.00     0.027 C 
ATOM     18  C   UNL     1      -1.078   7.287   1.632  1.00  0.00     0.316 C 
BRANCH   9  19
ATOM     19  C   UNL     1      -1.534   1.185   0.884  1.00  0.00     0.037 C 
BRANCH  19  20
ATOM     20  C   UNL     1      -0.951   1.095  -0.539  1.00  0.00     0.008 C 
BRANCH  20  21
ATOM     21  C   UNL     1       0.591   1.092  -0.619  1.00  0.00    -0.017 C 
ATOM     22  C   UNL     1       1.194  -0.186  -0.038  1.00  0.00     0.007 C 
ATOM     23  C   UNL     1       1.037   1.256  -2.074  1.00  0.00     0.007 C 
ENDBRANCH  20  21
ENDBRANCH  19  20
ENDBRANCH   9  19
BRANCH  18  24
ATOM     24  C   UNL     1      -2.478   7.758   2.064  1.00  0.00     0.430 C 
ATOM     25  F   UNL     1      -3.358   7.667   1.033  1.00  0.00    -0.167 F 
ATOM     26  F   UNL     1      -2.984   7.023   3.080  1.00  0.00    -0.167 F 
ATOM     27  F   UNL     1      -2.483   9.055   2.445  1.00  0.00    -0.167 F 
ENDBRANCH  18  24
ENDBRANCH   6   8
ENDBRANCH   5   6
ENDBRANCH   4   5
ENDBRANCH   3   4
ENDBRANCH   2   3
ENDBRANCH   1   2
BRANCH   1  28
ATOM     28  C   UNL     1      -1.793   8.448   5.662  1.00  0.00     0.188 C 
BRANCH  28  29
ATOM     29  O   UNL     1      -2.414   9.718   5.588  1.00  0.00    -0.376 OA
BRANCH  29  30
ATOM     30  C   UNL     1      -3.642   9.855   6.284  1.00  0.00     0.202 C 
BRANCH  30  31
ATOM     31  C   UNL     1      -3.516   9.849   7.813  1.00  0.00     0.261 C 
BRANCH  31  32
ATOM     32  O   UNL     1      -2.856   8.700   8.371  1.00  0.00    -0.460 OA
BRANCH  32  33
ATOM     33  C   UNL     1      -3.496   7.510   8.282  1.00  0.00     0.338 C 
ATOM     34  O   UNL     1      -4.597   7.310   7.800  1.00  0.00    -0.246 OA
BRANCH  33  35
ATOM     35  C   UNL     1      -2.519   6.463   8.666  1.00  0.00     0.060 A 
ATOM     36  C   UNL     1      -1.827   6.557   9.876  1.00  0.00     0.016 A 
ATOM     37  C   UNL     1      -2.252   5.409   7.781  1.00  0.00     0.016 A 
ATOM     38  C   UNL     1      -0.887   5.580  10.212  1.00  0.00     0.010 A 
ATOM     39  C   UNL     1      -1.303   4.436   8.115  1.00  0.00     0.010 A 
ATOM     40  C   UNL     1      -0.631   4.501   9.345  1.00  0.00    -0.014 A 
BRANCH  40  41
ATOM     41  C   UNL     1       0.164   3.348   9.838  1.00  0.00     0.031 A 
ATOM     42  C   UNL     1       1.589   3.108   9.440  1.00  0.00     0.074 A 
ATOM     43  C   UNL     1      -0.450   2.490  10.677  1.00  0.00     0.049 A 
ATOM     44  N   UNL     1       2.423   2.214   9.907  1.00  0.00    -0.248 NA
ATOM     45  C   UNL     1       2.154   3.965   8.388  1.00  0.00     0.031 C 
ATOM     46  C   UNL     1      -1.856   2.581  11.080  1.00  0.00     0.029 A 
ATOM     47  N   UNL     1       0.018   1.387  11.342  1.00  0.00    -0.354 N 
ATOM     48  C   UNL     1       3.611   2.393   9.211  1.00  0.00     0.074 A 
ATOM     49  C   UNL     1       3.384   3.473   8.271  1.00  0.00     0.031 C 
ATOM     50  C   UNL     1      -2.130   1.590  11.940  1.00  0.00     0.029 A 
ATOM     51  C   UNL     1      -0.926   0.790  12.143  1.00  0.00     0.049 A 
ATOM     52  H   UNL     1       0.940   1.054  11.255  1.00  0.00     0.167 HD
ATOM     53  C   UNL     1       4.785   1.733   9.365  1.00  0.00     0.034 A 
ATOM     54  C   UNL     1      -0.837  -0.272  12.968  1.00  0.00     0.034 A 
ATOM     55  C   UNL     1       5.006   0.670  10.312  1.00  0.00     0.049 A 
ATOM     56  C   UNL     1       0.481  -0.967  13.139  1.00  0.00     0.074 A 
ATOM     57  C   UNL     1       6.187   0.000  10.586  1.00  0.00     0.029 A 
ATOM     58  N   UNL     1       4.034   0.112  11.127  1.00  0.00    -0.354 N 
ATOM     59  N   UNL     1       1.633  -0.681  12.585  1.00  0.00    -0.248 NA
ATOM     60  C   UNL     1       0.523  -2.105  14.067  1.00  0.00     0.031 C 
ATOM     61  C   UNL     1       5.925  -0.975  11.552  1.00  0.00     0.029 A 
ATOM     62  C   UNL     1       4.586  -0.899  11.895  1.00  0.00     0.049 A 
ATOM     63  H   UNL     1       3.091   0.393  11.155  1.00  0.00     0.167 HD
ATOM     64  C   UNL     1       2.544  -1.585  13.115  1.00  0.00     0.074 A 
ATOM     65  C   UNL     1       1.812  -2.426  14.040  1.00  0.00     0.031 C 
ATOM     66  C   UNL     1       3.865  -1.705  12.847  1.00  0.00     0.034 A 
BRANCH  53  67
ATOM     67  C   UNL     1       5.970   2.176   8.549  1.00  0.00     0.023 A 
ATOM     68  C   UNL     1       6.675   3.329   8.947  1.00  0.00     0.012 A 
ATOM     69  C   UNL     1       6.476   1.382   7.500  1.00  0.00     0.148 A 
ATOM     70  C   UNL     1       7.862   3.691   8.312  1.00  0.00     0.002 A 
ATOM     71  C   UNL     1       7.674   1.734   6.889  1.00  0.00     0.091 A 
ATOM     72  F   UNL     1       5.788   0.289   7.139  1.00  0.00    -0.205 F 
ATOM     73  C   UNL     1       8.367   2.888   7.292  1.00  0.00     0.022 A 
BRANCH  71  74
ATOM     74  S   UNL     1       8.445   0.740   5.605  1.00  0.00     0.127 S 
ATOM     75  O   UNL     1       8.358   1.633   4.450  1.00  0.00    -0.237 OA
ATOM     76  O   UNL     1       9.797   0.553   6.130  1.00  0.00    -0.237 OA
ATOM     77  O   UNL     1       7.653  -0.478   5.505  1.00  0.00    -0.744 OA
ENDBRANCH  71  74
ENDBRANCH  53  67
BRANCH  54  78
ATOM     78  C   UNL     1      -2.032  -0.663  13.760  1.00  0.00     0.023 A 
ATOM     79  C   UNL     1      -2.100  -0.305  15.120  1.00  0.00     0.012 A 
ATOM     80  C   UNL     1      -3.136  -1.286  13.149  1.00  0.00     0.148 A 
ATOM     81  C   UNL     1      -3.252  -0.565  15.861  1.00  0.00     0.002 A 
ATOM     82  C   UNL     1      -4.294  -1.508  13.883  1.00  0.00     0.091 A 
ATOM     83  F   UNL     1      -3.042  -1.607  11.851  1.00  0.00    -0.205 F 
ATOM     84  C   UNL     1      -4.351  -1.156  15.241  1.00  0.00     0.022 A 
BRANCH  82  85
ATOM     85  S   UNL     1      -5.796  -2.165  13.150  1.00  0.00     0.127 S 
ATOM     86  O   UNL     1      -5.961  -3.418  13.884  1.00  0.00    -0.237 OA
ATOM     87  O   UNL     1      -6.769  -1.124  13.482  1.00  0.00    -0.237 OA
ATOM     88  O   UNL     1      -5.517  -2.306  11.728  1.00  0.00    -0.744 OA
ENDBRANCH  82  85
ENDBRANCH  54  78
BRANCH  66  89
ATOM     89  C   UNL     1       4.647  -2.772  13.562  1.00  0.00     0.023 A 
ATOM     90  C   UNL     1       4.580  -4.102  13.104  1.00  0.00     0.012 A 
ATOM     91  C   UNL     1       5.560  -2.430  14.579  1.00  0.00     0.148 A 
ATOM     92  C   UNL     1       5.416  -5.077  13.646  1.00  0.00     0.002 A 
ATOM     93  C   UNL     1       6.413  -3.401  15.091  1.00  0.00     0.091 A 
ATOM     94  F   UNL     1       5.598  -1.157  14.999  1.00  0.00    -0.205 F 
ATOM     95  C   UNL     1       6.340  -4.725  14.628  1.00  0.00     0.022 A 
BRANCH  93  96
ATOM     96  S   UNL     1       7.687  -3.033  16.303  1.00  0.00     0.127 S 
ATOM     97  O   UNL     1       7.265  -3.854  17.438  1.00  0.00    -0.237 OA
ATOM     98  O   UNL     1       8.897  -3.501  15.628  1.00  0.00    -0.237 OA
ATOM     99  O   UNL     1       7.629  -1.595  16.531  1.00  0.00    -0.744 OA
ENDBRANCH  93  96
ENDBRANCH  66  89
ENDBRANCH  40  41
ENDBRANCH  33  35
ENDBRANCH  32  33
ENDBRANCH  31  32
ENDBRANCH  30  31
ENDBRANCH  29  30
ENDBRANCH  28  29
ENDBRANCH   1  28
TORSDOF 24
