REMARK SMILES Cc1ccccc1C(=O)Nc1ccc(N2CCC(n3c(C)nc4cccnc43)CC2)c(C(=O)OCCOCCOCCOC(=O)c2ccc(-c3c4nc(c(-c5cccc(S(=O)(=O)[O-])c5F)c5ccc([nH]5)c(-c5cccc(S(=O)(=O)[O-])c5F)c5nc(c(-c6cccc(S(=O)(=O)[O-])c6F)c6ccc3[nH]6)C=C5)C=C4)cc2)c1
REMARK SMILES IDX 39 1 38 2 37 3 36 4 35 5 34 6 32 7 33 8 31 9 11 10 12 11
REMARK SMILES IDX 109 12 13 13 14 14 10 15 8 16 9 17 7 19 1 20 2 21 3 22 4 23
REMARK SMILES IDX 6 24 5 25 15 26 16 27 30 28 17 29 29 30 18 31 19 32 20 33
REMARK SMILES IDX 28 34 21 35 22 36 23 37 27 38 24 39 26 40 25 41 40 42 41 43
REMARK SMILES IDX 42 44 43 45 44 46 45 47 46 48 47 49 108 50 48 51 107 52
REMARK SMILES IDX 49 53 50 54 51 55 101 56 52 57 106 58 100 59 102 60 53 61
REMARK SMILES IDX 105 62 99 63 98 64 54 66 86 67 66 68 85 69 67 70 70 71 84 72
REMARK SMILES IDX 103 73 68 74 69 75 83 77 104 78 71 79 55 80 56 81 64 82
REMARK SMILES IDX 57 83 59 84 65 85 58 86 60 87 61 88 62 89 63 90 87 91 88 92
REMARK SMILES IDX 96 93 89 94 91 95 97 96 90 97 92 98 93 99 94 100 95 101
REMARK SMILES IDX 72 102 73 103 81 104 74 105 76 106 82 107 75 108 77 109
REMARK SMILES IDX 78 110 79 111 80 112
REMARK H PARENT 10 18 102 65 70 76
REMARK Flexibility Score: inf
ROOT
ATOM      1  C   UNL     1      10.392   2.165   0.985  1.00  0.00     0.188 C 
ENDROOT
BRANCH   1   2
ATOM      2  C   UNL     1      10.396   2.213   2.512  1.00  0.00     0.188 C 
BRANCH   2   3
ATOM      3  O   UNL     1      10.975   1.073   3.118  1.00  0.00    -0.376 OA
BRANCH   3   4
ATOM      4  C   UNL     1       9.941   0.161   3.483  1.00  0.00     0.202 C 
BRANCH   4   5
ATOM      5  C   UNL     1       8.918  -0.156   2.363  1.00  0.00     0.261 C 
BRANCH   5   6
ATOM      6  O   UNL     1       7.570   0.794   1.913  1.00  0.00    -0.460 OA
BRANCH   6   7
ATOM      7  C   UNL     1       6.030   0.593   1.767  1.00  0.00     0.340 C 
ATOM      8  O   UNL     1       5.416   1.184   2.665  1.00  0.00    -0.246 OA
BRANCH   7   9
ATOM      9  C   UNL     1       4.936  -0.122   0.571  1.00  0.00     0.085 A 
ATOM     10  C   UNL     1       2.934   1.010  -0.429  1.00  0.00     0.042 A 
ATOM     11  C   UNL     1       2.821   0.034  -1.392  1.00  0.00     0.028 A 
ATOM     12  C   UNL     1       3.977   0.936   0.481  1.00  0.00     0.044 A 
ATOM     13  C   UNL     1       3.701  -1.071  -1.378  1.00  0.00     0.029 A 
ATOM     14  C   UNL     1       4.788  -1.285  -0.452  1.00  0.00     0.051 A 
BRANCH  10  15
ATOM     15  N   UNL     1       2.057   2.086  -0.246  1.00  0.00    -0.322 N 
ATOM     16  C   UNL     1       0.686   2.151  -0.156  1.00  0.00     0.255 C 
ATOM     17  O   UNL     1       0.157   3.267  -0.115  1.00  0.00    -0.269 OA
ATOM     18  H   UNL     1       2.506   2.959  -0.167  1.00  0.00     0.170 HD
BRANCH  16  19
ATOM     19  C   UNL     1      -0.218   0.957  -0.073  1.00  0.00     0.043 A 
ATOM     20  C   UNL     1       1.204  -0.570   1.438  1.00  0.00     0.045 C 
ATOM     21  C   UNL     1       0.049  -0.285   0.529  1.00  0.00    -0.038 A 
ATOM     22  C   UNL     1      -0.864  -1.345   0.361  1.00  0.00     0.004 A 
ATOM     23  C   UNL     1      -2.121  -1.126  -0.187  1.00  0.00     0.000 A 
ATOM     24  C   UNL     1      -1.525   1.175  -0.554  1.00  0.00     0.014 A 
ATOM     25  C   UNL     1      -2.477   0.155  -0.581  1.00  0.00     0.001 A 
ENDBRANCH  16  19
ENDBRANCH  10  15
BRANCH  14  26
ATOM     26  N   UNL     1       5.452  -2.553  -0.735  1.00  0.00    -0.371 N 
ATOM     27  C   UNL     1       5.728  -2.943  -2.161  1.00  0.00     0.118 C 
ATOM     28  C   UNL     1       6.158  -3.647   0.013  1.00  0.00     0.118 C 
ATOM     29  C   UNL     1       5.298  -4.423  -2.457  1.00  0.00     0.047 C 
ATOM     30  C   UNL     1       5.470  -4.973  -0.033  1.00  0.00     0.047 C 
ATOM     31  C   UNL     1       5.726  -5.487  -1.414  1.00  0.00     0.094 C 
BRANCH  31  32
ATOM     32  N   UNL     1       5.209  -6.821  -1.643  1.00  0.00    -0.310 N 
ATOM     33  C   UNL     1       3.952  -7.359  -1.431  1.00  0.00     0.108 A 
ATOM     34  C   UNL     1       6.006  -7.836  -2.123  1.00  0.00     0.160 A 
ATOM     35  C   UNL     1       2.870  -6.822  -0.560  1.00  0.00     0.088 C 
ATOM     36  N   UNL     1       3.846  -8.512  -2.073  1.00  0.00    -0.232 NA
ATOM     37  C   UNL     1       5.129  -8.885  -2.345  1.00  0.00     0.108 A 
ATOM     38  N   UNL     1       7.342  -7.815  -2.337  1.00  0.00    -0.237 NA
ATOM     39  C   UNL     1       5.655 -10.096  -2.798  1.00  0.00     0.034 A 
ATOM     40  C   UNL     1       7.807  -9.028  -2.725  1.00  0.00     0.113 A 
ATOM     41  C   UNL     1       7.038 -10.162  -2.971  1.00  0.00     0.022 A 
ENDBRANCH  31  32
ENDBRANCH  14  26
ENDBRANCH   7   9
ENDBRANCH   6   7
ENDBRANCH   5   6
ENDBRANCH   4   5
ENDBRANCH   3   4
ENDBRANCH   2   3
ENDBRANCH   1   2
BRANCH   1  42
ATOM     42  O   UNL     1      10.516   0.884   0.412  1.00  0.00    -0.376 OA
BRANCH  42  43
ATOM     43  C   UNL     1      11.765   0.219   0.378  1.00  0.00     0.202 C 
BRANCH  43  44
ATOM     44  C   UNL     1      12.310   0.444  -1.022  1.00  0.00     0.261 C 
BRANCH  44  45
ATOM     45  O   UNL     1      11.537  -0.342  -1.963  1.00  0.00    -0.460 OA
BRANCH  45  46
ATOM     46  C   UNL     1      10.332   0.220  -2.276  1.00  0.00     0.338 C 
ATOM     47  O   UNL     1      10.204   1.292  -2.817  1.00  0.00    -0.246 OA
BRANCH  46  48
ATOM     48  C   UNL     1       9.229  -0.570  -1.611  1.00  0.00     0.060 A 
ATOM     49  C   UNL     1       8.114   0.159  -1.372  1.00  0.00     0.016 A 
ATOM     50  C   UNL     1       9.383  -1.772  -0.880  1.00  0.00     0.016 A 
ATOM     51  C   UNL     1       7.341  -0.229  -0.270  1.00  0.00     0.010 A 
ATOM     52  C   UNL     1       8.543  -2.155   0.253  1.00  0.00     0.010 A 
ATOM     53  C   UNL     1       7.435  -1.395   0.694  1.00  0.00    -0.014 A 
BRANCH  53  54
ATOM     54  C   UNL     1       6.609  -1.770   2.305  1.00  0.00     0.031 A 
ATOM     55  C   UNL     1       5.525  -2.881   2.563  1.00  0.00     0.074 A 
ATOM     56  C   UNL     1       6.804  -1.234   3.598  1.00  0.00     0.049 A 
ATOM     57  N   UNL     1       5.835  -4.009   3.146  1.00  0.00    -0.248 NA
ATOM     58  C   UNL     1       4.112  -2.877   2.109  1.00  0.00     0.031 C 
ATOM     59  C   UNL     1       6.988  -1.987   4.844  1.00  0.00     0.029 A 
ATOM     60  N   UNL     1       7.156   0.046   4.077  1.00  0.00    -0.354 N 
ATOM     61  C   UNL     1       4.723  -4.841   3.145  1.00  0.00     0.074 A 
ATOM     62  C   UNL     1       3.678  -4.094   2.464  1.00  0.00     0.031 C 
ATOM     63  C   UNL     1       7.256  -1.152   5.873  1.00  0.00     0.029 A 
ATOM     64  C   UNL     1       7.116   0.224   5.426  1.00  0.00     0.049 A 
ATOM     65  H   UNL     1       7.418   0.773   3.466  1.00  0.00     0.167 HD
ATOM     66  C   UNL     1       4.419  -5.601   4.223  1.00  0.00     0.034 A 
ATOM     67  C   UNL     1       6.492   1.313   5.970  1.00  0.00     0.034 A 
ATOM     68  C   UNL     1       4.650  -4.888   5.460  1.00  0.00     0.049 A 
ATOM     69  C   UNL     1       5.285   0.769   6.679  1.00  0.00     0.074 A 
ATOM     70  C   UNL     1       5.691  -4.804   6.361  1.00  0.00     0.029 A 
ATOM     71  N   UNL     1       3.731  -3.920   5.814  1.00  0.00    -0.354 N 
ATOM     72  N   UNL     1       4.973  -0.495   6.604  1.00  0.00    -0.248 NA
ATOM     73  C   UNL     1       4.376   1.495   7.552  1.00  0.00     0.031 C 
ATOM     74  C   UNL     1       5.426  -3.684   7.206  1.00  0.00     0.029 A 
ATOM     75  C   UNL     1       4.206  -3.127   6.842  1.00  0.00     0.049 A 
ATOM     76  H   UNL     1       2.850  -3.809   5.388  1.00  0.00     0.167 HD
ATOM     77  C   UNL     1       3.892  -0.780   7.354  1.00  0.00     0.074 A 
ATOM     78  C   UNL     1       3.551   0.503   7.947  1.00  0.00     0.031 C 
ATOM     79  C   UNL     1       3.369  -2.038   7.356  1.00  0.00     0.034 A 
BRANCH  66  80
ATOM     80  C   UNL     1       4.344  -7.109   4.092  1.00  0.00     0.023 A 
ATOM     81  C   UNL     1       4.144  -7.825   5.287  1.00  0.00     0.012 A 
ATOM     82  C   UNL     1       4.509  -7.885   2.913  1.00  0.00     0.148 A 
ATOM     83  C   UNL     1       4.191  -9.221   5.338  1.00  0.00     0.002 A 
ATOM     84  C   UNL     1       4.480  -9.292   2.958  1.00  0.00     0.091 A 
ATOM     85  F   UNL     1       4.750  -7.274   1.747  1.00  0.00    -0.205 F 
ATOM     86  C   UNL     1       4.359  -9.957   4.177  1.00  0.00     0.022 A 
BRANCH  84  87
ATOM     87  S   UNL     1       4.522 -10.296   1.458  1.00  0.00     0.127 S 
ATOM     88  O   UNL     1       5.834  -9.999   0.891  1.00  0.00    -0.237 OA
ATOM     89  O   UNL     1       4.393 -11.671   1.950  1.00  0.00    -0.237 OA
ATOM     90  O   UNL     1       3.351  -9.826   0.731  1.00  0.00    -0.744 OA
ENDBRANCH  84  87
ENDBRANCH  66  80
BRANCH  67  91
ATOM     91  C   UNL     1       6.687   2.656   5.268  1.00  0.00     0.023 A 
ATOM     92  C   UNL     1       8.007   3.182   5.301  1.00  0.00     0.012 A 
ATOM     93  C   UNL     1       5.801   3.239   4.328  1.00  0.00     0.148 A 
ATOM     94  C   UNL     1       8.460   4.140   4.378  1.00  0.00     0.002 A 
ATOM     95  C   UNL     1       6.303   4.081   3.311  1.00  0.00     0.091 A 
ATOM     96  F   UNL     1       4.506   2.899   4.371  1.00  0.00    -0.205 F 
ATOM     97  C   UNL     1       7.632   4.528   3.336  1.00  0.00     0.022 A 
BRANCH  95  98
ATOM     98  S   UNL     1       5.400   4.489   1.790  1.00  0.00     0.127 S 
ATOM     99  O   UNL     1       5.723   5.906   1.609  1.00  0.00    -0.237 OA
ATOM    100  O   UNL     1       6.027   3.609   0.803  1.00  0.00    -0.237 OA
ATOM    101  O   UNL     1       3.994   4.221   2.059  1.00  0.00    -0.744 OA
ENDBRANCH  95  98
ENDBRANCH  67  91
BRANCH  79 102
ATOM    102  C   UNL     1       1.951  -2.318   7.760  1.00  0.00     0.023 A 
ATOM    103  C   UNL     1       0.965  -1.316   7.710  1.00  0.00     0.012 A 
ATOM    104  C   UNL     1       1.515  -3.647   7.947  1.00  0.00     0.148 A 
ATOM    105  C   UNL     1      -0.386  -1.607   7.891  1.00  0.00     0.002 A 
ATOM    106  C   UNL     1       0.162  -3.947   7.953  1.00  0.00     0.091 A 
ATOM    107  F   UNL     1       2.409  -4.639   8.085  1.00  0.00    -0.205 F 
ATOM    108  C   UNL     1      -0.793  -2.930   7.975  1.00  0.00     0.022 A 
BRANCH 106 109
ATOM    109  S   UNL     1      -0.366  -5.635   7.640  1.00  0.00     0.127 S 
ATOM    110  O   UNL     1      -0.419  -6.194   8.987  1.00  0.00    -0.237 OA
ATOM    111  O   UNL     1      -1.669  -5.444   7.000  1.00  0.00    -0.237 OA
ATOM    112  O   UNL     1       0.660  -6.165   6.749  1.00  0.00    -0.744 OA
ENDBRANCH 106 109
ENDBRANCH  79 102
ENDBRANCH  53  54
ENDBRANCH  46  48
ENDBRANCH  45  46
ENDBRANCH  44  45
ENDBRANCH  43  44
ENDBRANCH  42  43
ENDBRANCH   1  42
TORSDOF 24
