REMARK SMILES CC1(C)[C@H](C(=O)N(Cc2ccccc2)Cc2ccccc2)CC[C@@]1(C)C(=O)OCCOCCOCCOC(=O)c1ccc(-c2c3nc(c(-c4cccc(S(=O)(=O)[O-])c4F)c4ccc([nH]4)c(-c4cccc(S(=O)(=O)[O-])c4F)c4nc(c(-c5cccc(S(=O)(=O)[O-])c5F)c5ccc2[nH]5)C=C4)C=C3)cc1
REMARK SMILES IDX 32 1 31 2 30 3 29 4 28 5 26 6 27 7 24 8 1 9 2 10 3 11 4 12
REMARK SMILES IDX 22 13 23 14 25 15 5 16 6 17 7 18 8 19 9 20 10 21 14 22 11 23
REMARK SMILES IDX 13 24 12 25 15 26 16 27 17 28 21 29 18 30 20 31 19 32 33 33
REMARK SMILES IDX 34 34 35 35 36 36 37 37 38 38 39 39 40 40 41 41 102 42 42 43
REMARK SMILES IDX 101 44 43 45 44 46 45 47 95 48 46 49 100 50 94 51 96 52
REMARK SMILES IDX 47 53 99 54 93 55 92 56 48 58 80 59 60 60 79 61 61 62 64 63
REMARK SMILES IDX 78 64 97 65 62 66 63 67 77 69 98 70 65 71 49 72 50 73 58 74
REMARK SMILES IDX 51 75 53 76 59 77 52 78 54 79 55 80 56 81 57 82 81 83 82 84
REMARK SMILES IDX 90 85 83 86 85 87 91 88 84 89 86 90 87 91 88 92 89 93 66 94
REMARK SMILES IDX 67 95 75 96 68 97 70 98 76 99 69 100 71 101 72 102 73 103
REMARK SMILES IDX 74 104
REMARK H PARENT 96 57 64 68
REMARK Flexibility Score: inf
ROOT
ATOM      1  C   UNL     1       4.276   0.742   2.569  1.00  0.00     0.188 C 
ENDROOT
BRANCH   1   2
ATOM      2  O   UNL     1       5.561   0.146   2.699  1.00  0.00    -0.376 OA
BRANCH   2   3
ATOM      3  C   UNL     1       6.024  -0.607   1.585  1.00  0.00     0.202 C 
BRANCH   3   4
ATOM      4  C   UNL     1       5.245  -1.882   1.208  1.00  0.00     0.261 C 
BRANCH   4   5
ATOM      5  O   UNL     1       3.805  -1.754   1.182  1.00  0.00    -0.463 OA
BRANCH   5   6
ATOM      6  C   UNL     1       3.115  -2.671   1.909  1.00  0.00     0.312 C 
ATOM      7  O   UNL     1       3.667  -3.579   2.526  1.00  0.00    -0.252 OA
BRANCH   6   8
ATOM      8  C   UNL     1       1.585  -2.416   2.031  1.00  0.00     0.071 C 
ATOM      9  C   UNL     1       1.481  -0.769  -0.063  1.00  0.00     0.013 C 
ATOM     10  C   UNL     1       0.756  -1.789   0.830  1.00  0.00    -0.008 C 
ATOM     11  C   UNL     1      -0.458  -1.026   1.372  1.00  0.00     0.013 C 
ATOM     12  C   UNL     1       0.378  -3.028  -0.028  1.00  0.00     0.085 C 
ATOM     13  C   UNL     1       0.181  -4.193   0.925  1.00  0.00     0.015 C 
ATOM     14  C   UNL     1       0.912  -3.823   2.212  1.00  0.00     0.020 C 
ATOM     15  C   UNL     1       1.419  -1.639   3.364  1.00  0.00     0.024 C 
BRANCH  12  16
ATOM     16  C   UNL     1      -0.601  -2.961  -1.233  1.00  0.00     0.226 C 
ATOM     17  O   UNL     1      -0.081  -3.194  -2.337  1.00  0.00    -0.275 OA
ATOM     18  N   UNL     1      -1.973  -2.724  -1.165  1.00  0.00    -0.334 N 
BRANCH  18  19
ATOM     19  C   UNL     1      -2.802  -2.776   0.044  1.00  0.00     0.155 C 
BRANCH  19  20
ATOM     20  C   UNL     1      -3.650  -1.569   0.409  1.00  0.00    -0.029 A 
ATOM     21  C   UNL     1      -3.384  -0.266  -0.034  1.00  0.00     0.005 A 
ATOM     22  C   UNL     1      -4.662  -1.733   1.372  1.00  0.00     0.005 A 
ATOM     23  C   UNL     1      -4.080   0.835   0.471  1.00  0.00     0.000 A 
ATOM     24  C   UNL     1      -5.363  -0.634   1.878  1.00  0.00     0.000 A 
ATOM     25  C   UNL     1      -5.066   0.651   1.434  1.00  0.00     0.000 A 
ENDBRANCH  19  20
ENDBRANCH  18  19
BRANCH  18  26
ATOM     26  C   UNL     1      -2.720  -2.766  -2.442  1.00  0.00     0.155 C 
BRANCH  26  27
ATOM     27  C   UNL     1      -2.711  -1.474  -3.232  1.00  0.00    -0.029 A 
ATOM     28  C   UNL     1      -1.613  -1.124  -4.030  1.00  0.00     0.005 A 
ATOM     29  C   UNL     1      -3.799  -0.589  -3.174  1.00  0.00     0.005 A 
ATOM     30  C   UNL     1      -1.574   0.100  -4.701  1.00  0.00     0.000 A 
ATOM     31  C   UNL     1      -3.753   0.644  -3.829  1.00  0.00     0.000 A 
ATOM     32  C   UNL     1      -2.637   0.991  -4.586  1.00  0.00     0.000 A 
ENDBRANCH  26  27
ENDBRANCH  18  26
ENDBRANCH  12  16
ENDBRANCH   6   8
ENDBRANCH   5   6
ENDBRANCH   4   5
ENDBRANCH   3   4
ENDBRANCH   2   3
ENDBRANCH   1   2
BRANCH   1  33
ATOM     33  C   UNL     1       4.055   1.674   1.374  1.00  0.00     0.188 C 
BRANCH  33  34
ATOM     34  O   UNL     1       4.373   1.089   0.112  1.00  0.00    -0.376 OA
BRANCH  34  35
ATOM     35  C   UNL     1       3.892   1.766  -1.051  1.00  0.00     0.202 C 
BRANCH  35  36
ATOM     36  C   UNL     1       4.151   3.279  -1.113  1.00  0.00     0.261 C 
BRANCH  36  37
ATOM     37  O   UNL     1       3.452   4.022  -0.097  1.00  0.00    -0.460 OA
BRANCH  37  38
ATOM     38  C   UNL     1       2.101   3.912  -0.072  1.00  0.00     0.338 C 
ATOM     39  O   UNL     1       1.394   3.443  -0.947  1.00  0.00    -0.246 OA
BRANCH  38  40
ATOM     40  C   UNL     1       1.643   4.230   1.304  1.00  0.00     0.060 A 
ATOM     41  C   UNL     1       0.591   3.481   1.850  1.00  0.00     0.016 A 
ATOM     42  C   UNL     1       2.293   5.194   2.082  1.00  0.00     0.016 A 
ATOM     43  C   UNL     1       0.161   3.727   3.157  1.00  0.00     0.010 A 
ATOM     44  C   UNL     1       1.865   5.437   3.388  1.00  0.00     0.010 A 
ATOM     45  C   UNL     1       0.773   4.731   3.920  1.00  0.00    -0.014 A 
BRANCH  45  46
ATOM     46  C   UNL     1       0.173   5.174   5.203  1.00  0.00     0.031 A 
ATOM     47  C   UNL     1      -0.680   6.414   5.202  1.00  0.00     0.074 A 
ATOM     48  C   UNL     1       0.401   4.516   6.354  1.00  0.00     0.049 A 
ATOM     49  N   UNL     1      -1.290   7.000   6.198  1.00  0.00    -0.248 NA
ATOM     50  C   UNL     1      -0.863   7.086   3.904  1.00  0.00     0.031 C 
ATOM     51  C   UNL     1       1.224   3.318   6.501  1.00  0.00     0.029 A 
ATOM     52  N   UNL     1      -0.025   4.791   7.632  1.00  0.00    -0.354 N 
ATOM     53  C   UNL     1      -1.911   8.117   5.654  1.00  0.00     0.074 A 
ATOM     54  C   UNL     1      -1.588   8.141   4.245  1.00  0.00     0.031 C 
ATOM     55  C   UNL     1       1.265   2.974   7.801  1.00  0.00     0.029 A 
ATOM     56  C   UNL     1       0.484   3.935   8.580  1.00  0.00     0.049 A 
ATOM     57  H   UNL     1      -0.637   5.531   7.848  1.00  0.00     0.167 HD
ATOM     58  C   UNL     1      -2.699   9.033   6.264  1.00  0.00     0.034 A 
ATOM     59  C   UNL     1       0.347   3.938   9.922  1.00  0.00     0.034 A 
ATOM     60  C   UNL     1      -3.039   9.009   7.659  1.00  0.00     0.049 A 
ATOM     61  C   UNL     1      -0.519   4.984  10.581  1.00  0.00     0.074 A 
ATOM     62  C   UNL     1      -3.879   9.863   8.352  1.00  0.00     0.029 A 
ATOM     63  N   UNL     1      -2.545   8.098   8.579  1.00  0.00    -0.354 N 
ATOM     64  N   UNL     1      -1.224   5.942  10.031  1.00  0.00    -0.248 NA
ATOM     65  C   UNL     1      -0.634   4.926  12.048  1.00  0.00     0.031 C 
ATOM     66  C   UNL     1      -3.873   9.482   9.698  1.00  0.00     0.029 A 
ATOM     67  C   UNL     1      -3.051   8.376   9.837  1.00  0.00     0.049 A 
ATOM     68  H   UNL     1      -1.927   7.362   8.368  1.00  0.00     0.167 HD
ATOM     69  C   UNL     1      -1.895   6.573  11.075  1.00  0.00     0.074 A 
ATOM     70  C   UNL     1      -1.526   5.878  12.290  1.00  0.00     0.031 C 
ATOM     71  C   UNL     1      -2.729   7.641  11.032  1.00  0.00     0.034 A 
BRANCH  58  72
ATOM     72  C   UNL     1      -3.283  10.124   5.410  1.00  0.00     0.023 A 
ATOM     73  C   UNL     1      -4.335   9.820   4.522  1.00  0.00     0.012 A 
ATOM     74  C   UNL     1      -2.832  11.452   5.523  1.00  0.00     0.148 A 
ATOM     75  C   UNL     1      -4.912  10.818   3.739  1.00  0.00     0.002 A 
ATOM     76  C   UNL     1      -3.440  12.449   4.770  1.00  0.00     0.091 A 
ATOM     77  F   UNL     1      -1.813  11.713   6.354  1.00  0.00    -0.205 F 
ATOM     78  C   UNL     1      -4.472  12.132   3.871  1.00  0.00     0.022 A 
BRANCH  76  79
ATOM     79  S   UNL     1      -2.996  14.182   4.923  1.00  0.00     0.127 S 
ATOM     80  O   UNL     1      -2.291  14.417   3.664  1.00  0.00    -0.237 OA
ATOM     81  O   UNL     1      -4.305  14.828   5.020  1.00  0.00    -0.237 OA
ATOM     82  O   UNL     1      -2.180  14.281   6.125  1.00  0.00    -0.744 OA
ENDBRANCH  76  79
ENDBRANCH  58  72
BRANCH  59  83
ATOM     83  C   UNL     1       1.013   2.888  10.744  1.00  0.00     0.023 A 
ATOM     84  C   UNL     1       0.229   1.913  11.392  1.00  0.00     0.012 A 
ATOM     85  C   UNL     1       2.413   2.855  10.895  1.00  0.00     0.148 A 
ATOM     86  C   UNL     1       0.824   0.945  12.202  1.00  0.00     0.002 A 
ATOM     87  C   UNL     1       3.003   1.857  11.662  1.00  0.00     0.091 A 
ATOM     88  F   UNL     1       3.139   3.804  10.288  1.00  0.00    -0.205 F 
ATOM     89  C   UNL     1       2.209   0.910  12.329  1.00  0.00     0.022 A 
BRANCH  87  90
ATOM     90  S   UNL     1       4.784   1.668  11.793  1.00  0.00     0.127 S 
ATOM     91  O   UNL     1       5.028   2.080  13.172  1.00  0.00    -0.237 OA
ATOM     92  O   UNL     1       4.955   0.237  11.537  1.00  0.00    -0.237 OA
ATOM     93  O   UNL     1       5.345   2.534  10.764  1.00  0.00    -0.744 OA
ENDBRANCH  87  90
ENDBRANCH  59  83
BRANCH  71  94
ATOM     94  C   UNL     1      -3.345   8.115  12.325  1.00  0.00     0.023 A 
ATOM     95  C   UNL     1      -2.555   8.801  13.267  1.00  0.00     0.012 A 
ATOM     96  C   UNL     1      -4.727   7.966  12.559  1.00  0.00     0.148 A 
ATOM     97  C   UNL     1      -3.125   9.309  14.435  1.00  0.00     0.002 A 
ATOM     98  C   UNL     1      -5.297   8.516  13.703  1.00  0.00     0.091 A 
ATOM     99  F   UNL     1      -5.461   7.297  11.658  1.00  0.00    -0.205 F 
ATOM    100  C   UNL     1      -4.495   9.178  14.646  1.00  0.00     0.022 A 
BRANCH  98 101
ATOM    101  S   UNL     1      -7.067   8.481  14.010  1.00  0.00     0.127 S 
ATOM    102  O   UNL     1      -7.162   7.501  15.091  1.00  0.00    -0.237 OA
ATOM    103  O   UNL     1      -7.340   9.861  14.413  1.00  0.00    -0.237 OA
ATOM    104  O   UNL     1      -7.685   8.086  12.752  1.00  0.00    -0.744 OA
ENDBRANCH  98 101
ENDBRANCH  71  94
ENDBRANCH  45  46
ENDBRANCH  38  40
ENDBRANCH  37  38
ENDBRANCH  36  37
ENDBRANCH  35  36
ENDBRANCH  34  35
ENDBRANCH  33  34
ENDBRANCH   1  33
TORSDOF 25
