REMARK SMILES Cc1cc(/C=C2\C(=O)N(Cc3ccco3)C(=O)N=C2OCCOCCOCCOC(=O)c2ccc(-c3c4nc(c(-c5cccc(S(=O)(=O)[O-])c5F)c5ccc([nH]5)c(-c5cccc(S(=O)(=O)[O-])c5F)c5nc(c(-c6cccc(S(=O)(=O)[O-])c6F)c6ccc3[nH]6)C=C5)C=C4)cc2)c(C)n1-c1ccc(Cl)c(C(=O)[O-])c1
REMARK SMILES IDX 25 1 24 2 23 3 22 4 21 5 20 6 19 7 5 8 6 9 7 10 8 11 9 12
REMARK SMILES IDX 18 13 16 14 17 15 4 16 1 17 2 18 3 19 97 20 95 21 96 22
REMARK SMILES IDX 98 23 99 24 107 25 100 26 103 27 101 28 102 29 104 30 105 31
REMARK SMILES IDX 106 32 10 33 11 34 12 35 15 36 13 37 14 38 26 39 27 40 28 41
REMARK SMILES IDX 29 42 30 43 31 44 32 45 33 46 94 47 34 48 93 49 35 50 36 51
REMARK SMILES IDX 37 52 87 53 38 54 92 55 86 56 88 57 39 58 91 59 85 60 84 61
REMARK SMILES IDX 40 63 72 64 52 65 71 66 53 67 56 68 70 69 89 70 54 71 55 72
REMARK SMILES IDX 69 74 90 75 57 76 41 77 42 78 50 79 43 80 45 81 51 82 44 83
REMARK SMILES IDX 46 84 47 85 48 86 49 87 73 88 74 89 82 90 75 91 77 92 83 93
REMARK SMILES IDX 76 94 78 95 79 96 80 97 81 98 58 99 59 100 67 101 60 102
REMARK SMILES IDX 62 103 68 104 61 105 63 106 64 107 65 108 66 109
REMARK H PARENT 88 62 56 73
REMARK Flexibility Score: inf
ROOT
ATOM      1  C   UNL     1       2.673  -4.478   6.993  1.00  0.00     0.188 C 
ENDROOT
BRANCH   1   2
ATOM      2  C   UNL     1       1.325  -5.089   7.390  1.00  0.00     0.188 C 
BRANCH   2   3
ATOM      3  O   UNL     1       1.334  -6.496   7.259  1.00  0.00    -0.376 OA
BRANCH   3   4
ATOM      4  C   UNL     1       0.185  -7.215   6.873  1.00  0.00     0.201 C 
BRANCH   4   5
ATOM      5  C   UNL     1      -0.193  -7.236   5.364  1.00  0.00     0.260 C 
BRANCH   5   6
ATOM      6  O   UNL     1      -0.283  -6.002   4.605  1.00  0.00    -0.475 OA
BRANCH   6   7
ATOM      7  C   UNL     1      -1.000  -4.995   5.145  1.00  0.00     0.231 C 
ATOM      8  C   UNL     1      -0.312  -3.381   3.388  1.00  0.00     0.029 C 
ATOM      9  C   UNL     1      -0.589  -3.668   4.673  1.00  0.00     0.103 C 
ATOM     10  C   UNL     1      -0.553  -2.711   5.789  1.00  0.00     0.267 C 
ATOM     11  O   UNL     1       0.389  -1.941   5.950  1.00  0.00    -0.268 OA
ATOM     12  N   UNL     1      -1.570  -2.897   6.704  1.00  0.00    -0.250 N 
ATOM     13  N   UNL     1      -1.761  -5.212   6.150  1.00  0.00    -0.156 NA
ATOM     14  C   UNL     1      -2.029  -4.180   7.009  1.00  0.00     0.354 C 
ATOM     15  O   UNL     1      -2.506  -4.460   8.100  1.00  0.00    -0.245 OA
BRANCH   8  16
ATOM     16  C   UNL     1      -0.023  -2.115   2.762  1.00  0.00    -0.003 A 
ATOM     17  C   UNL     1       1.194  -0.013  -0.084  1.00  0.00     0.065 C 
ATOM     18  C   UNL     1       0.653  -0.641   1.154  1.00  0.00     0.020 A 
ATOM     19  C   UNL     1       0.635  -1.980   1.506  1.00  0.00     0.031 A 
ATOM     20  N   UNL     1       0.128   0.062   2.219  1.00  0.00    -0.318 N 
ATOM     21  C   UNL     1      -0.417  -0.836   3.134  1.00  0.00     0.027 A 
ATOM     22  C   UNL     1      -1.299  -0.327   4.232  1.00  0.00     0.065 C 
BRANCH  20  23
ATOM     23  C   UNL     1      -0.075   1.461   2.311  1.00  0.00     0.046 A 
ATOM     24  C   UNL     1       0.484   2.153   3.387  1.00  0.00     0.028 A 
ATOM     25  C   UNL     1      -1.087   2.033   1.534  1.00  0.00     0.038 A 
ATOM     26  C   UNL     1       0.018   3.431   3.687  1.00  0.00     0.023 A 
ATOM     27  C   UNL     1      -1.587   3.308   1.856  1.00  0.00     0.018 A 
ATOM     28  C   UNL     1      -1.024   4.006   2.940  1.00  0.00     0.050 A 
ATOM     29  Cl  UNL     1      -1.573   5.554   3.478  1.00  0.00    -0.084 Cl
BRANCH  27  30
ATOM     30  C   UNL     1      -2.753   3.846   1.089  1.00  0.00     0.073 C 
ATOM     31  O   UNL     1      -3.316   4.901   1.213  1.00  0.00    -0.545 OA
ATOM     32  O   UNL     1      -3.190   2.964   0.159  1.00  0.00    -0.545 OA
ENDBRANCH  27  30
ENDBRANCH  20  23
ENDBRANCH   8  16
BRANCH  12  33
ATOM     33  C   UNL     1      -1.739  -1.835   7.686  1.00  0.00     0.206 C 
BRANCH  33  34
ATOM     34  C   UNL     1      -3.161  -1.695   8.089  1.00  0.00     0.123 A 
ATOM     35  C   UNL     1      -3.881  -2.221   9.142  1.00  0.00     0.047 A 
ATOM     36  O   UNL     1      -3.982  -0.968   7.277  1.00  0.00    -0.467 OA
ATOM     37  C   UNL     1      -5.225  -1.851   8.932  1.00  0.00     0.042 A 
ATOM     38  C   UNL     1      -5.232  -1.065   7.804  1.00  0.00     0.195 A 
ENDBRANCH  33  34
ENDBRANCH  12  33
ENDBRANCH   6   7
ENDBRANCH   5   6
ENDBRANCH   4   5
ENDBRANCH   3   4
ENDBRANCH   2   3
ENDBRANCH   1   2
BRANCH   1  39
ATOM     39  O   UNL     1       3.675  -5.420   6.654  1.00  0.00    -0.376 OA
BRANCH  39  40
ATOM     40  C   UNL     1       4.005  -6.382   7.666  1.00  0.00     0.202 C 
BRANCH  40  41
ATOM     41  C   UNL     1       4.549  -5.878   9.046  1.00  0.00     0.261 C 
BRANCH  41  42
ATOM     42  O   UNL     1       3.722  -5.652  10.265  1.00  0.00    -0.460 OA
BRANCH  42  43
ATOM     43  C   UNL     1       3.849  -4.419  10.903  1.00  0.00     0.338 C 
ATOM     44  O   UNL     1       4.025  -3.399  10.242  1.00  0.00    -0.246 OA
BRANCH  43  45
ATOM     45  C   UNL     1       3.651  -4.327  12.470  1.00  0.00     0.060 A 
ATOM     46  C   UNL     1       2.687  -3.469  12.995  1.00  0.00     0.016 A 
ATOM     47  C   UNL     1       4.536  -4.789  13.476  1.00  0.00     0.016 A 
ATOM     48  C   UNL     1       2.575  -3.177  14.431  1.00  0.00     0.010 A 
ATOM     49  C   UNL     1       4.460  -4.419  14.949  1.00  0.00     0.010 A 
ATOM     50  C   UNL     1       3.462  -3.596  15.512  1.00  0.00    -0.014 A 
BRANCH  50  51
ATOM     51  C   UNL     1       3.383  -2.739  17.017  1.00  0.00     0.031 A 
ATOM     52  C   UNL     1       3.022  -1.385  16.511  1.00  0.00     0.074 A 
ATOM     53  C   UNL     1       3.636  -2.709  18.433  1.00  0.00     0.049 A 
ATOM     54  N   UNL     1       3.764  -0.854  15.577  1.00  0.00    -0.248 NA
ATOM     55  C   UNL     1       1.705  -0.758  16.639  1.00  0.00     0.031 C 
ATOM     56  C   UNL     1       4.305  -3.730  19.274  1.00  0.00     0.029 A 
ATOM     57  N   UNL     1       3.376  -1.727  19.517  1.00  0.00    -0.354 N 
ATOM     58  C   UNL     1       3.245   0.376  15.328  1.00  0.00     0.074 A 
ATOM     59  C   UNL     1       1.860   0.249  15.765  1.00  0.00     0.031 C 
ATOM     60  C   UNL     1       4.264  -3.450  20.620  1.00  0.00     0.029 A 
ATOM     61  C   UNL     1       3.612  -2.167  20.916  1.00  0.00     0.049 A 
ATOM     62  H   UNL     1       3.060  -0.817  19.316  1.00  0.00     0.167 HD
ATOM     63  C   UNL     1       4.136   1.391  15.525  1.00  0.00     0.034 A 
ATOM     64  C   UNL     1       3.427  -1.553  22.190  1.00  0.00     0.034 A 
ATOM     65  C   UNL     1       3.858   2.131  16.723  1.00  0.00     0.049 A 
ATOM     66  C   UNL     1       3.563  -0.112  21.950  1.00  0.00     0.074 A 
ATOM     67  C   UNL     1       2.683   2.508  17.348  1.00  0.00     0.029 A 
ATOM     68  N   UNL     1       4.843   2.152  17.683  1.00  0.00    -0.354 N 
ATOM     69  N   UNL     1       4.739   0.436  21.865  1.00  0.00    -0.248 NA
ATOM     70  C   UNL     1       2.443   0.821  21.995  1.00  0.00     0.031 C 
ATOM     71  C   UNL     1       2.892   2.202  18.706  1.00  0.00     0.029 A 
ATOM     72  C   UNL     1       4.256   2.108  18.930  1.00  0.00     0.049 A 
ATOM     73  H   UNL     1       5.811   2.193  17.508  1.00  0.00     0.167 HD
ATOM     74  C   UNL     1       4.462   1.616  21.252  1.00  0.00     0.074 A 
ATOM     75  C   UNL     1       3.091   1.927  21.616  1.00  0.00     0.031 C 
ATOM     76  C   UNL     1       5.083   1.791  20.062  1.00  0.00     0.034 A 
BRANCH  63  77
ATOM     77  C   UNL     1       5.525   1.098  14.977  1.00  0.00     0.023 A 
ATOM     78  C   UNL     1       5.910   1.781  13.814  1.00  0.00     0.012 A 
ATOM     79  C   UNL     1       6.345   0.029  15.440  1.00  0.00     0.148 A 
ATOM     80  C   UNL     1       7.035   1.372  13.091  1.00  0.00     0.002 A 
ATOM     81  C   UNL     1       7.386  -0.450  14.651  1.00  0.00     0.091 A 
ATOM     82  F   UNL     1       6.086  -0.520  16.638  1.00  0.00    -0.205 F 
ATOM     83  C   UNL     1       7.742   0.234  13.482  1.00  0.00     0.022 A 
BRANCH  81  84
ATOM     84  S   UNL     1       8.148  -2.063  14.938  1.00  0.00     0.127 S 
ATOM     85  O   UNL     1       8.188  -2.639  13.589  1.00  0.00    -0.237 OA
ATOM     86  O   UNL     1       9.457  -1.718  15.478  1.00  0.00    -0.237 OA
ATOM     87  O   UNL     1       7.262  -2.784  15.847  1.00  0.00    -0.744 OA
ENDBRANCH  81  84
ENDBRANCH  63  77
BRANCH  64  88
ATOM     88  C   UNL     1       3.407  -1.671  23.822  1.00  0.00     0.023 A 
ATOM     89  C   UNL     1       4.017  -0.613  24.614  1.00  0.00     0.012 A 
ATOM     90  C   UNL     1       2.467  -2.432  24.564  1.00  0.00     0.148 A 
ATOM     91  C   UNL     1       3.659  -0.270  25.943  1.00  0.00     0.002 A 
ATOM     92  C   UNL     1       2.130  -2.101  25.921  1.00  0.00     0.091 A 
ATOM     93  F   UNL     1       1.827  -3.423  23.935  1.00  0.00    -0.205 F 
ATOM     94  C   UNL     1       2.701  -1.010  26.595  1.00  0.00     0.022 A 
BRANCH  92  95
ATOM     95  S   UNL     1       0.865  -2.962  26.899  1.00  0.00     0.127 S 
ATOM     96  O   UNL     1       1.527  -3.148  28.192  1.00  0.00    -0.237 OA
ATOM     97  O   UNL     1      -0.223  -1.984  26.918  1.00  0.00    -0.237 OA
ATOM     98  O   UNL     1       0.592  -4.194  26.175  1.00  0.00    -0.744 OA
ENDBRANCH  92  95
ENDBRANCH  64  88
BRANCH  76  99
ATOM     99  C   UNL     1       6.540   1.392  19.965  1.00  0.00     0.023 A 
ATOM    100  C   UNL     1       7.069   0.128  20.311  1.00  0.00     0.012 A 
ATOM    101  C   UNL     1       7.428   2.365  19.488  1.00  0.00     0.148 A 
ATOM    102  C   UNL     1       8.439  -0.141  20.204  1.00  0.00     0.002 A 
ATOM    103  C   UNL     1       8.778   2.080  19.326  1.00  0.00     0.091 A 
ATOM    104  F   UNL     1       6.928   3.576  19.196  1.00  0.00    -0.205 F 
ATOM    105  C   UNL     1       9.293   0.831  19.692  1.00  0.00     0.022 A 
BRANCH 103 106
ATOM    106  S   UNL     1       9.870   3.301  18.602  1.00  0.00     0.127 S 
ATOM    107  O   UNL     1      10.492   3.889  19.787  1.00  0.00    -0.237 OA
ATOM    108  O   UNL     1      10.768   2.502  17.773  1.00  0.00    -0.237 OA
ATOM    109  O   UNL     1       8.998   4.196  17.847  1.00  0.00    -0.744 OA
ENDBRANCH 103 106
ENDBRANCH  76  99
ENDBRANCH  50  51
ENDBRANCH  43  45
ENDBRANCH  42  43
ENDBRANCH  41  42
ENDBRANCH  40  41
ENDBRANCH  39  40
ENDBRANCH   1  39
TORSDOF 24
