REMARK SMILES C[C@@H](CN1C(=O)CC[C@@H](C(=O)OCCOCCOCCOC(=O)c2ccc(-c3c4nc(c(-c5cccc(S(=O)(=O)[O-])c5F)c5ccc([nH]5)c(-c5cccc(S(=O)(=O)[O-])c5F)c5nc(c(-c6cccc(S(=O)(=O)[O-])c6F)c6ccc3[nH]6)C=C5)C=C4)cc2)[C@H]1c1cscn1)Cn1cccn1
REMARK SMILES IDX 16 1 15 2 14 3 13 4 12 5 10 6 11 7 9 8 4 9 5 10 87 11 6 12
REMARK SMILES IDX 7 13 8 14 3 15 2 16 1 17 93 18 94 19 95 20 98 21 96 22 97 23
REMARK SMILES IDX 88 24 89 25 92 26 90 27 91 28 17 29 18 30 19 31 20 32 21 33
REMARK SMILES IDX 22 34 23 35 24 36 25 37 86 38 26 39 85 40 27 41 28 42 29 43
REMARK SMILES IDX 79 44 30 45 84 46 78 47 80 48 31 49 83 50 77 51 76 52 32 54
REMARK SMILES IDX 64 55 44 56 63 57 45 58 48 59 62 60 81 61 46 62 47 63 61 65
REMARK SMILES IDX 82 66 49 67 33 68 34 69 42 70 35 71 37 72 43 73 36 74 38 75
REMARK SMILES IDX 39 76 40 77 41 78 65 79 66 80 74 81 67 82 69 83 75 84 68 85
REMARK SMILES IDX 70 86 71 87 72 88 73 89 50 90 51 91 59 92 52 93 54 94 60 95
REMARK SMILES IDX 53 96 55 97 56 98 57 99 58 100
REMARK H PARENT 80 53 48 64
REMARK Flexibility Score: inf
ROOT
ATOM      1  C   UNL     1       1.525  -3.211  -6.938  1.00  0.00     0.188 C 
ENDROOT
BRANCH   1   2
ATOM      2  O   UNL     1       2.803  -3.198  -7.547  1.00  0.00    -0.376 OA
BRANCH   2   3
ATOM      3  C   UNL     1       3.775  -2.331  -7.000  1.00  0.00     0.202 C 
BRANCH   3   4
ATOM      4  C   UNL     1       4.296  -2.676  -5.598  1.00  0.00     0.261 C 
BRANCH   4   5
ATOM      5  O   UNL     1       3.331  -2.958  -4.571  1.00  0.00    -0.463 OA
BRANCH   5   6
ATOM      6  C   UNL     1       2.487  -1.956  -4.224  1.00  0.00     0.311 C 
ATOM      7  O   UNL     1       2.432  -0.883  -4.805  1.00  0.00    -0.252 OA
BRANCH   6   8
ATOM      8  C   UNL     1       1.662  -2.337  -3.004  1.00  0.00     0.128 C 
ATOM      9  N   UNL     1       0.925  -0.001  -2.458  1.00  0.00    -0.333 N 
ATOM     10  C   UNL     1      -0.190  -0.124  -3.289  1.00  0.00     0.223 C 
ATOM     11  C   UNL     1       1.718  -1.172  -2.018  1.00  0.00     0.149 C 
ATOM     12  O   UNL     1      -0.918   0.829  -3.566  1.00  0.00    -0.275 OA
ATOM     13  C   UNL     1      -0.530  -1.478  -3.876  1.00  0.00     0.101 C 
ATOM     14  C   UNL     1       0.191  -2.648  -3.249  1.00  0.00     0.028 C 
BRANCH   9  15
ATOM     15  C   UNL     1       1.138   1.320  -1.851  1.00  0.00     0.125 C 
BRANCH  15  16
ATOM     16  C   UNL     1       0.462   1.530  -0.485  1.00  0.00     0.027 C 
ATOM     17  C   UNL     1       1.091   0.669   0.617  1.00  0.00     0.011 C 
BRANCH  16  18
ATOM     18  C   UNL     1      -1.065   1.355  -0.569  1.00  0.00     0.149 C 
BRANCH  18  19
ATOM     19  N   UNL     1      -1.712   1.484   0.723  1.00  0.00    -0.272 N 
ATOM     20  C   UNL     1      -2.200   0.458   1.485  1.00  0.00     0.108 A 
ATOM     21  N   UNL     1      -1.718   2.670   1.359  1.00  0.00    -0.182 NA
ATOM     22  C   UNL     1      -2.532   1.014   2.697  1.00  0.00     0.042 A 
ATOM     23  C   UNL     1      -2.230   2.381   2.556  1.00  0.00     0.135 A 
ENDBRANCH  18  19
ENDBRANCH  16  18
ENDBRANCH  15  16
ENDBRANCH   9  15
BRANCH  11  24
ATOM     24  C   UNL     1       3.155  -0.890  -1.618  1.00  0.00     0.075 A 
ATOM     25  C   UNL     1       4.117  -0.166  -2.307  1.00  0.00     0.092 A 
ATOM     26  N   UNL     1       3.631  -1.505  -0.463  1.00  0.00    -0.248 NA
ATOM     27  S   UNL     1       5.620  -0.231  -1.491  1.00  0.00    -0.130 S 
ATOM     28  C   UNL     1       4.899  -1.208  -0.287  1.00  0.00     0.175 A 
ENDBRANCH  11  24
ENDBRANCH   6   8
ENDBRANCH   5   6
ENDBRANCH   4   5
ENDBRANCH   3   4
ENDBRANCH   2   3
ENDBRANCH   1   2
BRANCH   1  29
ATOM     29  C   UNL     1       1.279  -4.495  -6.119  1.00  0.00     0.188 C 
BRANCH  29  30
ATOM     30  O   UNL     1       1.946  -5.706  -6.449  1.00  0.00    -0.376 OA
BRANCH  30  31
ATOM     31  C   UNL     1       2.305  -5.944  -7.797  1.00  0.00     0.202 C 
BRANCH  31  32
ATOM     32  C   UNL     1       1.172  -6.077  -8.824  1.00  0.00     0.261 C 
BRANCH  32  33
ATOM     33  O   UNL     1       0.176  -5.036  -8.811  1.00  0.00    -0.460 OA
BRANCH  33  34
ATOM     34  C   UNL     1      -0.995  -5.331  -8.191  1.00  0.00     0.338 C 
ATOM     35  O   UNL     1      -1.291  -6.399  -7.670  1.00  0.00    -0.246 OA
BRANCH  34  36
ATOM     36  C   UNL     1      -1.837  -4.114  -8.046  1.00  0.00     0.060 A 
ATOM     37  C   UNL     1      -2.329  -3.788  -6.771  1.00  0.00     0.016 A 
ATOM     38  C   UNL     1      -2.194  -3.331  -9.145  1.00  0.00     0.016 A 
ATOM     39  C   UNL     1      -3.200  -2.706  -6.597  1.00  0.00     0.010 A 
ATOM     40  C   UNL     1      -3.090  -2.263  -8.972  1.00  0.00     0.010 A 
ATOM     41  C   UNL     1      -3.624  -1.962  -7.704  1.00  0.00    -0.014 A 
BRANCH  41  42
ATOM     42  C   UNL     1      -4.762  -1.009  -7.578  1.00  0.00     0.031 A 
ATOM     43  C   UNL     1      -6.143  -1.483  -7.954  1.00  0.00     0.074 A 
ATOM     44  C   UNL     1      -4.591   0.258  -7.158  1.00  0.00     0.049 A 
ATOM     45  N   UNL     1      -7.267  -0.816  -8.006  1.00  0.00    -0.248 NA
ATOM     46  C   UNL     1      -6.271  -2.904  -8.319  1.00  0.00     0.031 C 
ATOM     47  C   UNL     1      -3.327   0.847  -6.725  1.00  0.00     0.029 A 
ATOM     48  N   UNL     1      -5.495   1.292  -7.059  1.00  0.00    -0.354 N 
ATOM     49  C   UNL     1      -8.227  -1.721  -8.443  1.00  0.00     0.074 A 
ATOM     50  C   UNL     1      -7.555  -2.988  -8.638  1.00  0.00     0.031 C 
ATOM     51  C   UNL     1      -3.524   2.150  -6.453  1.00  0.00     0.029 A 
ATOM     52  C   UNL     1      -4.920   2.496  -6.720  1.00  0.00     0.049 A 
ATOM     53  H   UNL     1      -6.461   1.181  -7.215  1.00  0.00     0.167 HD
ATOM     54  C   UNL     1      -9.550  -1.524  -8.658  1.00  0.00     0.034 A 
ATOM     55  C   UNL     1      -5.448   3.737  -6.667  1.00  0.00     0.034 A 
ATOM     56  C   UNL     1     -10.230  -0.273  -8.458  1.00  0.00     0.049 A 
ATOM     57  C   UNL     1      -6.916   3.941  -6.961  1.00  0.00     0.074 A 
ATOM     58  C   UNL     1     -11.578   0.004  -8.613  1.00  0.00     0.029 A 
ATOM     59  N   UNL     1      -9.620   0.912  -8.084  1.00  0.00    -0.354 N 
ATOM     60  N   UNL     1      -7.832   3.053  -7.265  1.00  0.00    -0.248 NA
ATOM     61  C   UNL     1      -7.431   5.318  -6.873  1.00  0.00     0.031 C 
ATOM     62  C   UNL     1     -11.775   1.367  -8.373  1.00  0.00     0.029 A 
ATOM     63  C   UNL     1     -10.558   1.928  -8.022  1.00  0.00     0.049 A 
ATOM     64  H   UNL     1      -8.660   1.017  -7.891  1.00  0.00     0.167 HD
ATOM     65  C   UNL     1      -9.032   3.755  -7.360  1.00  0.00     0.074 A 
ATOM     66  C   UNL     1      -8.731   5.140  -7.067  1.00  0.00     0.031 C 
ATOM     67  C   UNL     1     -10.269   3.295  -7.672  1.00  0.00     0.034 A 
BRANCH  54  68
ATOM     68  C   UNL     1     -10.364  -2.696  -9.140  1.00  0.00     0.023 A 
ATOM     69  C   UNL     1     -10.676  -3.746  -8.254  1.00  0.00     0.012 A 
ATOM     70  C   UNL     1     -10.877  -2.720 -10.452  1.00  0.00     0.148 A 
ATOM     71  C   UNL     1     -11.464  -4.817  -8.674  1.00  0.00     0.002 A 
ATOM     72  C   UNL     1     -11.699  -3.767 -10.849  1.00  0.00     0.091 A 
ATOM     73  F   UNL     1     -10.551  -1.720 -11.284  1.00  0.00    -0.205 F 
ATOM     74  C   UNL     1     -11.984  -4.821  -9.966  1.00  0.00     0.022 A 
BRANCH  72  75
ATOM     75  S   UNL     1     -12.483  -3.824 -12.464  1.00  0.00     0.127 S 
ATOM     76  O   UNL     1     -11.797  -4.957 -13.084  1.00  0.00    -0.237 OA
ATOM     77  O   UNL     1     -13.882  -4.076 -12.116  1.00  0.00    -0.237 OA
ATOM     78  O   UNL     1     -12.232  -2.531 -13.082  1.00  0.00    -0.744 OA
ENDBRANCH  72  75
ENDBRANCH  54  68
BRANCH  55  79
ATOM     79  C   UNL     1      -4.588   4.907  -6.320  1.00  0.00     0.023 A 
ATOM     80  C   UNL     1      -4.806   5.603  -5.114  1.00  0.00     0.012 A 
ATOM     81  C   UNL     1      -3.578   5.354  -7.195  1.00  0.00     0.148 A 
ATOM     82  C   UNL     1      -4.064   6.745  -4.806  1.00  0.00     0.002 A 
ATOM     83  C   UNL     1      -2.804   6.459  -6.856  1.00  0.00     0.091 A 
ATOM     84  F   UNL     1      -3.400   4.695  -8.348  1.00  0.00    -0.205 F 
ATOM     85  C   UNL     1      -3.059   7.167  -5.672  1.00  0.00     0.022 A 
BRANCH  83  86
ATOM     86  S   UNL     1      -1.421   7.014  -7.858  1.00  0.00     0.127 S 
ATOM     87  O   UNL     1      -1.916   8.288  -8.373  1.00  0.00    -0.237 OA
ATOM     88  O   UNL     1      -0.352   7.126  -6.864  1.00  0.00    -0.237 OA
ATOM     89  O   UNL     1      -1.209   5.973  -8.854  1.00  0.00    -0.744 OA
ENDBRANCH  83  86
ENDBRANCH  55  79
BRANCH  67  90
ATOM     90  C   UNL     1     -11.420   4.271  -7.662  1.00  0.00     0.023 A 
ATOM     91  C   UNL     1     -11.529   5.248  -8.671  1.00  0.00     0.012 A 
ATOM     92  C   UNL     1     -12.444   4.160  -6.699  1.00  0.00     0.148 A 
ATOM     93  C   UNL     1     -12.620   6.119  -8.703  1.00  0.00     0.002 A 
ATOM     94  C   UNL     1     -13.553   4.995  -6.767  1.00  0.00     0.091 A 
ATOM     95  F   UNL     1     -12.319   3.233  -5.738  1.00  0.00    -0.205 F 
ATOM     96  C   UNL     1     -13.637   5.984  -7.760  1.00  0.00     0.022 A 
BRANCH  94  97
ATOM     97  S   UNL     1     -14.959   4.829  -5.658  1.00  0.00     0.127 S 
ATOM     98  O   UNL     1     -14.841   6.038  -4.844  1.00  0.00    -0.237 OA
ATOM     99  O   UNL     1     -16.088   4.829  -6.589  1.00  0.00    -0.237 OA
ATOM    100  O   UNL     1     -14.763   3.575  -4.943  1.00  0.00    -0.744 OA
ENDBRANCH  94  97
ENDBRANCH  67  90
ENDBRANCH  41  42
ENDBRANCH  34  36
ENDBRANCH  33  34
ENDBRANCH  32  33
ENDBRANCH  31  32
ENDBRANCH  30  31
ENDBRANCH  29  30
ENDBRANCH   1  29
TORSDOF 25
