REMARK SMILES C[C@H](CCO)S[C@H]1CC[C@]([NH2+]C2CC2)(C(=O)OCCOCCOCCOC(=O)c2ccc(-c3c4nc(c(-c5cccc(S(=O)(=O)[O-])c5F)c5ccc([nH]5)c(-c5cccc(S(=O)(=O)[O-])c5F)c5nc(c(-c6cccc(S(=O)(=O)[O-])c6F)c6ccc3[nH]6)C=C5)C=C4)cc2)C1
REMARK SMILES IDX 21 1 20 2 19 3 18 4 17 5 15 6 16 7 10 8 7 9 8 10 92 11 9 12
REMARK SMILES IDX 6 13 2 14 1 15 3 16 4 17 5 18 11 20 12 23 13 24 14 25 22 26
REMARK SMILES IDX 23 27 24 28 25 29 26 30 27 31 28 32 29 33 30 34 91 35 31 36
REMARK SMILES IDX 90 37 32 38 33 39 34 40 84 41 35 42 89 43 83 44 85 45 36 46
REMARK SMILES IDX 88 47 82 48 81 49 37 51 69 52 49 53 68 54 50 55 53 56 67 57
REMARK SMILES IDX 86 58 51 59 52 60 66 62 87 63 54 64 38 65 39 66 47 67 40 68
REMARK SMILES IDX 42 69 48 70 41 71 43 72 44 73 45 74 46 75 70 76 71 77 79 78
REMARK SMILES IDX 72 79 74 80 80 81 73 82 75 83 76 84 77 85 78 86 55 87 56 88
REMARK SMILES IDX 64 89 57 90 59 91 65 92 58 93 60 94 61 95 62 96 63 97
REMARK H PARENT 5 19 11 21 11 22 85 50 53 61
REMARK Flexibility Score: inf
ROOT
ATOM      1  C   UNL     1      -4.140   4.397   3.325  1.00  0.00     0.188 C 
ENDROOT
BRANCH   1   2
ATOM      2  O   UNL     1      -5.339   4.858   2.709  1.00  0.00    -0.376 OA
BRANCH   2   3
ATOM      3  C   UNL     1      -6.392   3.911   2.551  1.00  0.00     0.202 C 
BRANCH   3   4
ATOM      4  C   UNL     1      -6.082   2.697   1.665  1.00  0.00     0.261 C 
BRANCH   4   5
ATOM      5  O   UNL     1      -5.181   1.725   2.248  1.00  0.00    -0.459 OA
BRANCH   5   6
ATOM      6  C   UNL     1      -3.987   1.575   1.598  1.00  0.00     0.368 C 
ATOM      7  O   UNL     1      -3.646   2.275   0.649  1.00  0.00    -0.245 OA
BRANCH   6   8
ATOM      8  C   UNL     1      -3.127   0.398   2.166  1.00  0.00     0.195 C 
ATOM      9  C   UNL     1      -1.583  -1.210   1.051  1.00  0.00     0.054 C 
ATOM     10  C   UNL     1      -2.950  -1.899   1.250  1.00  0.00     0.022 C 
ATOM     11  C   UNL     1      -1.931   0.258   1.197  1.00  0.00     0.095 C 
ATOM     12  C   UNL     1      -3.897  -0.917   1.961  1.00  0.00     0.082 C 
BRANCH   9  13
ATOM     13  S   UNL     1      -0.346  -1.962   2.163  1.00  0.00    -0.155 SA
BRANCH  13  14
ATOM     14  C   UNL     1       1.239  -1.030   1.869  1.00  0.00     0.046 C 
ATOM     15  C   UNL     1       2.260  -1.803   2.713  1.00  0.00     0.019 C 
BRANCH  14  16
ATOM     16  C   UNL     1       1.173   0.476   2.198  1.00  0.00     0.042 C 
BRANCH  16  17
ATOM     17  C   UNL     1       2.339   1.128   2.937  1.00  0.00     0.157 C 
BRANCH  17  18
ATOM     18  O   UNL     1       3.477   1.262   2.104  1.00  0.00    -0.396 OA
ATOM     19  H   UNL     1       3.771   0.384   1.814  1.00  0.00     0.210 HD
ENDBRANCH  17  18
ENDBRANCH  16  17
ENDBRANCH  14  16
ENDBRANCH  13  14
ENDBRANCH   9  13
BRANCH   8  20
ATOM     20  N   UNL     1      -2.748   0.700   3.585  1.00  0.00    -0.330 N 
ATOM     21  H   UNL     1      -3.584   1.046   4.055  1.00  0.00     0.347 HD
ATOM     22  H   UNL     1      -1.976   1.362   3.504  1.00  0.00     0.347 HD
BRANCH  20  23
ATOM     23  C   UNL     1      -2.201  -0.401   4.416  1.00  0.00     0.183 C 
ATOM     24  C   UNL     1      -0.815  -0.328   5.011  1.00  0.00     0.071 C 
ATOM     25  C   UNL     1      -2.001  -0.158   5.896  1.00  0.00     0.071 C 
ENDBRANCH  20  23
ENDBRANCH   8  20
ENDBRANCH   6   8
ENDBRANCH   5   6
ENDBRANCH   4   5
ENDBRANCH   3   4
ENDBRANCH   2   3
ENDBRANCH   1   2
BRANCH   1  26
ATOM     26  C   UNL     1      -4.320   3.861   4.743  1.00  0.00     0.188 C 
BRANCH  26  27
ATOM     27  O   UNL     1      -5.278   2.813   4.852  1.00  0.00    -0.376 OA
BRANCH  27  28
ATOM     28  C   UNL     1      -5.636   2.388   6.168  1.00  0.00     0.202 C 
BRANCH  28  29
ATOM     29  C   UNL     1      -5.934   3.478   7.218  1.00  0.00     0.261 C 
BRANCH  29  30
ATOM     30  O   UNL     1      -4.842   4.365   7.527  1.00  0.00    -0.460 OA
BRANCH  30  31
ATOM     31  C   UNL     1      -3.632   3.820   7.800  1.00  0.00     0.338 C 
ATOM     32  O   UNL     1      -3.419   2.657   8.101  1.00  0.00    -0.246 OA
BRANCH  31  33
ATOM     33  C   UNL     1      -2.582   4.798   7.404  1.00  0.00     0.060 A 
ATOM     34  C   UNL     1      -1.416   4.306   6.797  1.00  0.00     0.016 A 
ATOM     35  C   UNL     1      -2.769   6.179   7.525  1.00  0.00     0.016 A 
ATOM     36  C   UNL     1      -0.427   5.185   6.346  1.00  0.00     0.010 A 
ATOM     37  C   UNL     1      -1.773   7.059   7.085  1.00  0.00     0.010 A 
ATOM     38  C   UNL     1      -0.582   6.566   6.523  1.00  0.00    -0.014 A 
BRANCH  38  39
ATOM     39  C   UNL     1       0.577   7.474   6.327  1.00  0.00     0.031 A 
ATOM     40  C   UNL     1       1.385   7.857   7.539  1.00  0.00     0.074 A 
ATOM     41  C   UNL     1       0.919   7.955   5.118  1.00  0.00     0.049 A 
ATOM     42  N   UNL     1       2.416   8.654   7.633  1.00  0.00    -0.248 NA
ATOM     43  C   UNL     1       0.969   7.257   8.819  1.00  0.00     0.031 C 
ATOM     44  C   UNL     1       0.239   7.657   3.860  1.00  0.00     0.029 A 
ATOM     45  N   UNL     1       1.925   8.822   4.760  1.00  0.00    -0.354 N 
ATOM     46  C   UNL     1       2.758   8.670   8.980  1.00  0.00     0.074 A 
ATOM     47  C   UNL     1       1.816   7.816   9.668  1.00  0.00     0.031 C 
ATOM     48  C   UNL     1       0.832   8.350   2.870  1.00  0.00     0.029 A 
ATOM     49  C   UNL     1       1.917   9.158   3.426  1.00  0.00     0.049 A 
ATOM     50  H   UNL     1       2.589   9.169   5.399  1.00  0.00     0.167 HD
ATOM     51  C   UNL     1       3.775   9.320   9.592  1.00  0.00     0.034 A 
ATOM     52  C   UNL     1       2.684  10.031   2.740  1.00  0.00     0.034 A 
ATOM     53  C   UNL     1       4.724  10.161   8.917  1.00  0.00     0.049 A 
ATOM     54  C   UNL     1       3.782  10.783   3.455  1.00  0.00     0.074 A 
ATOM     55  C   UNL     1       5.807  10.835   9.453  1.00  0.00     0.029 A 
ATOM     56  N   UNL     1       4.697  10.457   7.564  1.00  0.00    -0.354 N 
ATOM     57  N   UNL     1       4.164  10.701   4.707  1.00  0.00    -0.248 NA
ATOM     58  C   UNL     1       4.575  11.729   2.653  1.00  0.00     0.031 C 
ATOM     59  C   UNL     1       6.420  11.562   8.427  1.00  0.00     0.029 A 
ATOM     60  C   UNL     1       5.737  11.314   7.247  1.00  0.00     0.049 A 
ATOM     61  H   UNL     1       4.037  10.108   6.922  1.00  0.00     0.167 HD
ATOM     62  C   UNL     1       5.261  11.550   4.831  1.00  0.00     0.074 A 
ATOM     63  C   UNL     1       5.494  12.125   3.523  1.00  0.00     0.031 C 
ATOM     64  C   UNL     1       6.000  11.837   5.931  1.00  0.00     0.034 A 
BRANCH  51  65
ATOM     65  C   UNL     1       3.925   9.126  11.076  1.00  0.00     0.023 A 
ATOM     66  C   UNL     1       4.408   7.898  11.573  1.00  0.00     0.012 A 
ATOM     67  C   UNL     1       3.633  10.171  11.974  1.00  0.00     0.148 A 
ATOM     68  C   UNL     1       4.568   7.702  12.944  1.00  0.00     0.002 A 
ATOM     69  C   UNL     1       3.837   9.982  13.335  1.00  0.00     0.091 A 
ATOM     70  F   UNL     1       3.150  11.321  11.482  1.00  0.00    -0.205 F 
ATOM     71  C   UNL     1       4.293   8.746  13.822  1.00  0.00     0.022 A 
BRANCH  69  72
ATOM     72  S   UNL     1       3.585  11.290  14.540  1.00  0.00     0.127 S 
ATOM     73  O   UNL     1       2.387  10.821  15.237  1.00  0.00    -0.237 OA
ATOM     74  O   UNL     1       4.815  11.222  15.329  1.00  0.00    -0.237 OA
ATOM     75  O   UNL     1       3.421  12.517  13.774  1.00  0.00    -0.744 OA
ENDBRANCH  69  72
ENDBRANCH  51  65
BRANCH  52  76
ATOM     76  C   UNL     1       2.468  10.234   1.277  1.00  0.00     0.023 A 
ATOM     77  C   UNL     1       3.452   9.806   0.364  1.00  0.00     0.012 A 
ATOM     78  C   UNL     1       1.305  10.861   0.788  1.00  0.00     0.148 A 
ATOM     79  C   UNL     1       3.297  10.027  -1.006  1.00  0.00     0.002 A 
ATOM     80  C   UNL     1       1.133  11.030  -0.581  1.00  0.00     0.091 A 
ATOM     81  F   UNL     1       0.392  11.282   1.674  1.00  0.00    -0.205 F 
ATOM     82  C   UNL     1       2.134  10.630  -1.479  1.00  0.00     0.022 A 
BRANCH  80  83
ATOM     83  S   UNL     1      -0.377  11.697  -1.290  1.00  0.00     0.127 S 
ATOM     84  O   UNL     1       0.080  12.983  -1.813  1.00  0.00    -0.237 OA
ATOM     85  O   UNL     1      -0.699  10.698  -2.308  1.00  0.00    -0.237 OA
ATOM     86  O   UNL     1      -1.331  11.768  -0.191  1.00  0.00    -0.744 OA
ENDBRANCH  80  83
ENDBRANCH  52  76
BRANCH  64  87
ATOM     87  C   UNL     1       7.165  12.784   5.780  1.00  0.00     0.023 A 
ATOM     88  C   UNL     1       6.932  14.161   5.594  1.00  0.00     0.012 A 
ATOM     89  C   UNL     1       8.490  12.321   5.917  1.00  0.00     0.148 A 
ATOM     90  C   UNL     1       7.998  15.057   5.517  1.00  0.00     0.002 A 
ATOM     91  C   UNL     1       9.545  13.227   5.888  1.00  0.00     0.091 A 
ATOM     92  F   UNL     1       8.694  11.006   6.081  1.00  0.00    -0.205 F 
ATOM     93  C   UNL     1       9.302  14.593   5.676  1.00  0.00     0.022 A 
BRANCH  91  94
ATOM     94  S   UNL     1      11.249  12.736   6.181  1.00  0.00     0.127 S 
ATOM     95  O   UNL     1      11.834  12.877   4.848  1.00  0.00    -0.237 OA
ATOM     96  O   UNL     1      11.697  13.734   7.152  1.00  0.00    -0.237 OA
ATOM     97  O   UNL     1      11.193  11.374   6.697  1.00  0.00    -0.744 OA
ENDBRANCH  91  94
ENDBRANCH  64  87
ENDBRANCH  38  39
ENDBRANCH  31  33
ENDBRANCH  30  31
ENDBRANCH  29  30
ENDBRANCH  28  29
ENDBRANCH  27  28
ENDBRANCH  26  27
ENDBRANCH   1  26
TORSDOF 27
