REMARK SMILES Cn1c(=O)c2c(nc(Nc3cccc(Cl)c3Cl)n2CC(=O)OCCOCCOCCOC(=O)c2ccc(-c3c4nc(c(-c5cccc(S(=O)(=O)[O-])c5F)c5ccc([nH]5)c(-c5cccc(S(=O)(=O)[O-])c5F)c5nc(c(-c6cccc(S(=O)(=O)[O-])c6F)c6ccc3[nH]6)C=C5)C=C4)cc2)n(C)c1=O
REMARK SMILES IDX 26 1 25 2 24 3 23 4 22 5 20 6 21 7 19 8 18 9 1 10 2 11 3 12
REMARK SMILES IDX 99 13 4 14 5 15 97 16 100 17 6 18 98 19 7 20 8 21 9 22 10 24
REMARK SMILES IDX 11 25 16 26 12 27 14 28 17 29 13 30 15 31 27 32 28 33 29 34
REMARK SMILES IDX 30 35 31 36 32 37 33 38 34 39 35 40 96 41 36 42 95 43 37 44
REMARK SMILES IDX 38 45 39 46 89 47 40 48 94 49 88 50 90 51 41 52 93 53 87 54
REMARK SMILES IDX 86 55 42 57 74 58 54 59 73 60 55 61 58 62 72 63 91 64 56 65
REMARK SMILES IDX 57 66 71 68 92 69 59 70 43 71 44 72 52 73 45 74 47 75 53 76
REMARK SMILES IDX 46 77 48 78 49 79 50 80 51 81 75 82 76 83 84 84 77 85 79 86
REMARK SMILES IDX 85 87 78 88 80 89 81 90 82 91 83 92 60 93 61 94 69 95 62 96
REMARK SMILES IDX 64 97 70 98 63 99 65 100 66 101 67 102 68 103
REMARK H PARENT 9 23 90 56 58 67
REMARK Flexibility Score: inf
ROOT
ATOM      1  C   UNL     1      -3.543   0.314  -2.143  1.00  0.00     0.188 C 
ENDROOT
BRANCH   1   2
ATOM      2  O   UNL     1      -4.954   0.505  -2.168  1.00  0.00    -0.376 OA
BRANCH   2   3
ATOM      3  C   UNL     1      -5.808  -0.628  -2.058  1.00  0.00     0.202 C 
BRANCH   3   4
ATOM      4  C   UNL     1      -5.588  -1.772  -3.066  1.00  0.00     0.261 C 
BRANCH   4   5
ATOM      5  O   UNL     1      -4.253  -2.328  -3.038  1.00  0.00    -0.462 OA
BRANCH   5   6
ATOM      6  C   UNL     1      -3.691  -2.630  -4.238  1.00  0.00     0.326 C 
ATOM      7  O   UNL     1      -4.334  -2.703  -5.282  1.00  0.00    -0.250 OA
BRANCH   6   8
ATOM      8  C   UNL     1      -2.173  -2.649  -4.217  1.00  0.00     0.248 C 
BRANCH   8   9
ATOM      9  N   UNL     1      -1.483  -3.552  -3.301  1.00  0.00    -0.293 N 
ATOM     10  C   UNL     1       1.940  -0.864  -0.778  1.00  0.00     0.159 C 
ATOM     11  N   UNL     1       1.158  -2.037  -1.124  1.00  0.00    -0.261 N 
ATOM     12  C   UNL     1       0.192  -1.931  -2.143  1.00  0.00     0.282 A 
ATOM     13  C   UNL     1       1.433  -3.184  -0.364  1.00  0.00     0.332 A 
ATOM     14  O   UNL     1      -0.067  -0.902  -2.728  1.00  0.00    -0.267 OA
ATOM     15  C   UNL     1      -0.471  -3.180  -2.416  1.00  0.00     0.154 A 
ATOM     16  N   UNL     1       0.771  -4.353  -0.726  1.00  0.00    -0.279 N 
ATOM     17  O   UNL     1       2.245  -3.165   0.565  1.00  0.00    -0.247 OA
ATOM     18  C   UNL     1      -0.150  -4.318  -1.746  1.00  0.00     0.170 A 
ATOM     19  C   UNL     1       1.089  -5.598  -0.056  1.00  0.00     0.157 C 
ATOM     20  N   UNL     1      -0.814  -5.390  -2.228  1.00  0.00    -0.194 NA
ATOM     21  C   UNL     1      -1.546  -4.939  -3.227  1.00  0.00     0.210 A 
BRANCH  21  22
ATOM     22  N   UNL     1      -2.249  -5.801  -3.986  1.00  0.00    -0.324 N 
ATOM     23  H   UNL     1      -2.219  -6.727  -3.653  1.00  0.00     0.170 HD
BRANCH  22  24
ATOM     24  C   UNL     1      -3.014  -5.656  -5.150  1.00  0.00     0.061 A 
ATOM     25  C   UNL     1      -4.354  -6.075  -5.060  1.00  0.00     0.028 A 
ATOM     26  C   UNL     1      -2.523  -5.226  -6.399  1.00  0.00     0.083 A 
ATOM     27  C   UNL     1      -5.219  -5.968  -6.144  1.00  0.00     0.004 A 
ATOM     28  C   UNL     1      -3.411  -5.072  -7.476  1.00  0.00     0.061 A 
ATOM     29  Cl  UNL     1      -0.818  -4.967  -6.619  1.00  0.00    -0.080 Cl
ATOM     30  C   UNL     1      -4.755  -5.437  -7.343  1.00  0.00     0.022 A 
ATOM     31  Cl  UNL     1      -2.916  -4.432  -9.006  1.00  0.00    -0.083 Cl
ENDBRANCH  22  24
ENDBRANCH  21  22
ENDBRANCH   8   9
ENDBRANCH   6   8
ENDBRANCH   5   6
ENDBRANCH   4   5
ENDBRANCH   3   4
ENDBRANCH   2   3
ENDBRANCH   1   2
BRANCH   1  32
ATOM     32  C   UNL     1      -2.934  -0.748  -1.210  1.00  0.00     0.188 C 
BRANCH  32  33
ATOM     33  O   UNL     1      -3.862  -1.376  -0.343  1.00  0.00    -0.376 OA
BRANCH  33  34
ATOM     34  C   UNL     1      -3.475  -1.524   1.010  1.00  0.00     0.202 C 
BRANCH  34  35
ATOM     35  C   UNL     1      -3.685  -0.237   1.810  1.00  0.00     0.261 C 
BRANCH  35  36
ATOM     36  O   UNL     1      -3.048   0.911   1.254  1.00  0.00    -0.460 OA
BRANCH  36  37
ATOM     37  C   UNL     1      -1.709   0.809   1.206  1.00  0.00     0.338 C 
ATOM     38  O   UNL     1      -1.022  -0.171   1.451  1.00  0.00    -0.246 OA
BRANCH  37  39
ATOM     39  C   UNL     1      -1.138   2.081   0.798  1.00  0.00     0.060 A 
ATOM     40  C   UNL     1       0.030   2.015   0.047  1.00  0.00     0.016 A 
ATOM     41  C   UNL     1      -1.515   3.211   1.518  1.00  0.00     0.016 A 
ATOM     42  C   UNL     1       0.992   2.964   0.281  1.00  0.00     0.010 A 
ATOM     43  C   UNL     1      -0.576   4.199   1.694  1.00  0.00     0.010 A 
ATOM     44  C   UNL     1       0.711   3.994   1.188  1.00  0.00    -0.014 A 
BRANCH  44  45
ATOM     45  C   UNL     1       1.804   4.888   1.534  1.00  0.00     0.031 A 
ATOM     46  C   UNL     1       2.401   5.552   0.355  1.00  0.00     0.074 A 
ATOM     47  C   UNL     1       2.153   5.152   2.811  1.00  0.00     0.049 A 
ATOM     48  N   UNL     1       3.635   5.531  -0.030  1.00  0.00    -0.248 NA
ATOM     49  C   UNL     1       1.475   6.181  -0.603  1.00  0.00     0.031 C 
ATOM     50  C   UNL     1       1.438   4.708   4.014  1.00  0.00     0.029 A 
ATOM     51  N   UNL     1       3.092   6.016   3.309  1.00  0.00    -0.354 N 
ATOM     52  C   UNL     1       3.669   6.396  -1.119  1.00  0.00     0.074 A 
ATOM     53  C   UNL     1       2.312   6.577  -1.560  1.00  0.00     0.031 C 
ATOM     54  C   UNL     1       1.744   5.534   5.034  1.00  0.00     0.029 A 
ATOM     55  C   UNL     1       2.779   6.452   4.594  1.00  0.00     0.049 A 
ATOM     56  H   UNL     1       3.896   6.296   2.815  1.00  0.00     0.167 HD
ATOM     57  C   UNL     1       4.747   7.195  -1.320  1.00  0.00     0.034 A 
ATOM     58  C   UNL     1       3.251   7.555   5.218  1.00  0.00     0.034 A 
ATOM     59  C   UNL     1       5.916   6.724  -0.637  1.00  0.00     0.049 A 
ATOM     60  C   UNL     1       4.535   7.933   4.591  1.00  0.00     0.074 A 
ATOM     61  C   UNL     1       6.894   5.775  -0.821  1.00  0.00     0.029 A 
ATOM     62  N   UNL     1       6.002   7.159   0.654  1.00  0.00    -0.354 N 
ATOM     63  N   UNL     1       5.622   7.215   4.664  1.00  0.00    -0.248 NA
ATOM     64  C   UNL     1       4.571   9.039   3.638  1.00  0.00     0.031 C 
ATOM     65  C   UNL     1       7.546   5.619   0.437  1.00  0.00     0.029 A 
ATOM     66  C   UNL     1       6.949   6.472   1.360  1.00  0.00     0.049 A 
ATOM     67  H   UNL     1       5.448   7.881   1.031  1.00  0.00     0.167 HD
ATOM     68  C   UNL     1       6.290   7.509   3.492  1.00  0.00     0.074 A 
ATOM     69  C   UNL     1       5.712   8.754   3.008  1.00  0.00     0.031 C 
ATOM     70  C   UNL     1       6.968   6.548   2.806  1.00  0.00     0.034 A 
BRANCH  57  71
ATOM     71  C   UNL     1       4.629   8.658  -1.692  1.00  0.00     0.023 A 
ATOM     72  C   UNL     1       5.816   9.333  -2.044  1.00  0.00     0.012 A 
ATOM     73  C   UNL     1       3.493   9.459  -1.426  1.00  0.00     0.148 A 
ATOM     74  C   UNL     1       5.869  10.729  -2.120  1.00  0.00     0.002 A 
ATOM     75  C   UNL     1       3.524  10.836  -1.602  1.00  0.00     0.091 A 
ATOM     76  F   UNL     1       2.413   8.925  -0.848  1.00  0.00    -0.205 F 
ATOM     77  C   UNL     1       4.718  11.481  -1.920  1.00  0.00     0.022 A 
BRANCH  75  78
ATOM     78  S   UNL     1       2.037  11.827  -1.420  1.00  0.00     0.127 S 
ATOM     79  O   UNL     1       2.245  12.432  -0.110  1.00  0.00    -0.237 OA
ATOM     80  O   UNL     1       2.148  12.744  -2.555  1.00  0.00    -0.237 OA
ATOM     81  O   UNL     1       0.932  10.880  -1.530  1.00  0.00    -0.744 OA
ENDBRANCH  75  78
ENDBRANCH  57  71
BRANCH  58  82
ATOM     82  C   UNL     1       2.574   8.445   6.192  1.00  0.00     0.023 A 
ATOM     83  C   UNL     1       3.357   9.318   6.974  1.00  0.00     0.012 A 
ATOM     84  C   UNL     1       1.174   8.645   6.173  1.00  0.00     0.148 A 
ATOM     85  C   UNL     1       2.777  10.383   7.670  1.00  0.00     0.002 A 
ATOM     86  C   UNL     1       0.599   9.695   6.884  1.00  0.00     0.091 A 
ATOM     87  F   UNL     1       0.416   7.871   5.386  1.00  0.00    -0.205 F 
ATOM     88  C   UNL     1       1.400  10.577   7.619  1.00  0.00     0.022 A 
BRANCH  86  89
ATOM     89  S   UNL     1      -1.173  10.002   6.870  1.00  0.00     0.127 S 
ATOM     90  O   UNL     1      -1.450  10.249   8.286  1.00  0.00    -0.237 OA
ATOM     91  O   UNL     1      -1.270  11.180   6.014  1.00  0.00    -0.237 OA
ATOM     92  O   UNL     1      -1.781   8.783   6.350  1.00  0.00    -0.744 OA
ENDBRANCH  86  89
ENDBRANCH  58  82
BRANCH  70  93
ATOM     93  C   UNL     1       7.565   5.402   3.558  1.00  0.00     0.023 A 
ATOM     94  C   UNL     1       6.790   4.429   4.215  1.00  0.00     0.012 A 
ATOM     95  C   UNL     1       8.959   5.233   3.481  1.00  0.00     0.148 A 
ATOM     96  C   UNL     1       7.400   3.308   4.785  1.00  0.00     0.002 A 
ATOM     97  C   UNL     1       9.553   4.092   3.998  1.00  0.00     0.091 A 
ATOM     98  F   UNL     1       9.680   6.188   2.873  1.00  0.00    -0.205 F 
ATOM     99  C   UNL     1       8.778   3.129   4.660  1.00  0.00     0.022 A 
BRANCH  97 100
ATOM    100  S   UNL     1      11.295   3.749   3.736  1.00  0.00     0.127 S 
ATOM    101  O   UNL     1      11.869   4.052   5.045  1.00  0.00    -0.237 OA
ATOM    102  O   UNL     1      11.287   2.328   3.385  1.00  0.00    -0.237 OA
ATOM    103  O   UNL     1      11.714   4.624   2.648  1.00  0.00    -0.744 OA
ENDBRANCH  97 100
ENDBRANCH  70  93
ENDBRANCH  44  45
ENDBRANCH  37  39
ENDBRANCH  36  37
ENDBRANCH  35  36
ENDBRANCH  34  35
ENDBRANCH  33  34
ENDBRANCH  32  33
ENDBRANCH   1  32
TORSDOF 23
