REMARK SMILES Cc1ccc(C2=NN(C(=O)CCC(=O)OCCOCCOCCOC(=O)c3ccc(-c4c5nc(c(-c6cccc(S(=O)(=O)[O-])c6F)c6ccc([nH]6)c(-c6cccc(S(=O)(=O)[O-])c6F)c6nc(c(-c7cccc(S(=O)(=O)[O-])c7F)c7ccc4[nH]7)C=C6)C=C5)cc3)[C@H](C[C@@H]3C=c4cccc(C)c4=NC3=O)C2)cc1
REMARK SMILES IDX 19 1 18 2 17 3 16 4 15 5 13 6 14 7 12 8 11 9 9 10 10 11 8 12
REMARK SMILES IDX 6 13 7 14 104 15 90 16 5 17 1 18 2 19 3 20 106 21 4 22
REMARK SMILES IDX 105 23 91 24 92 25 93 26 102 27 94 28 101 29 103 30 95 31
REMARK SMILES IDX 100 32 96 33 98 34 97 35 99 36 20 37 21 38 22 39 23 40 24 41
REMARK SMILES IDX 25 42 26 43 27 44 28 45 89 46 29 47 88 48 30 49 31 50 32 51
REMARK SMILES IDX 82 52 33 53 87 54 81 55 83 56 34 57 86 58 80 59 79 60 35 62
REMARK SMILES IDX 67 63 47 64 66 65 48 66 51 67 65 68 84 69 49 70 50 71 64 73
REMARK SMILES IDX 85 74 52 75 36 76 37 77 45 78 38 79 40 80 46 81 39 82 41 83
REMARK SMILES IDX 42 84 43 85 44 86 68 87 69 88 77 89 70 90 72 91 78 92 71 93
REMARK SMILES IDX 73 94 74 95 75 96 76 97 53 98 54 99 62 100 55 101 57 102
REMARK SMILES IDX 63 103 56 104 58 105 59 106 60 107 61 108
REMARK H PARENT 83 61 51 72
REMARK Flexibility Score: inf
ROOT
ATOM      1  C   UNL     1      -6.373   1.620  -3.919  1.00  0.00     0.188 C 
ENDROOT
BRANCH   1   2
ATOM      2  O   UNL     1      -5.543   2.549  -3.146  1.00  0.00    -0.376 OA
BRANCH   2   3
ATOM      3  C   UNL     1      -4.372   2.165  -2.387  1.00  0.00     0.202 C 
BRANCH   3   4
ATOM      4  C   UNL     1      -4.009   2.804  -0.874  1.00  0.00     0.261 C 
BRANCH   4   5
ATOM      5  O   UNL     1      -4.085   2.093   0.521  1.00  0.00    -0.463 OA
BRANCH   5   6
ATOM      6  C   UNL     1      -5.279   1.531   0.799  1.00  0.00     0.306 C 
ATOM      7  O   UNL     1      -6.011   1.602  -0.189  1.00  0.00    -0.252 OA
BRANCH   6   8
ATOM      8  C   UNL     1      -5.727   0.508   2.236  1.00  0.00     0.132 C 
BRANCH   8   9
ATOM      9  C   UNL     1      -5.426  -0.885   2.684  1.00  0.00     0.114 C 
BRANCH   9  10
ATOM     10  C   UNL     1      -4.710  -1.863   1.838  1.00  0.00     0.243 C 
ATOM     11  O   UNL     1      -4.526  -2.989   2.318  1.00  0.00    -0.273 OA
BRANCH  10  12
ATOM     12  N   UNL     1      -4.117  -1.474   0.658  1.00  0.00    -0.230 N 
ATOM     13  C   UNL     1      -2.247  -0.817  -0.126  1.00  0.00     0.070 C 
ATOM     14  N   UNL     1      -2.813  -1.220   0.949  1.00  0.00    -0.174 NA
ATOM     15  C   UNL     1      -3.067  -0.903  -1.389  1.00  0.00     0.086 C 
ATOM     16  C   UNL     1      -4.454  -0.816  -0.726  1.00  0.00     0.118 C 
BRANCH  13  17
ATOM     17  C   UNL     1      -0.847  -0.471  -0.084  1.00  0.00    -0.002 A 
ATOM     18  C   UNL     1       3.342   0.160  -0.059  1.00  0.00     0.044 C 
ATOM     19  C   UNL     1       1.862  -0.034   0.017  1.00  0.00    -0.051 A 
ATOM     20  C   UNL     1       1.367  -1.343   0.036  1.00  0.00     0.004 A 
ATOM     21  C   UNL     1       0.978   1.058   0.064  1.00  0.00     0.004 A 
ATOM     22  C   UNL     1       0.006  -1.563   0.003  1.00  0.00     0.010 A 
ATOM     23  C   UNL     1      -0.397   0.841   0.027  1.00  0.00     0.010 A 
ENDBRANCH  13  17
BRANCH  16  24
ATOM     24  C   UNL     1      -5.923  -0.737  -1.692  1.00  0.00     0.045 C 
BRANCH  24  25
ATOM     25  C   UNL     1      -7.793  -0.970  -1.466  1.00  0.00     0.106 C 
ATOM     26  C   UNL     1      -8.719  -1.798   0.326  1.00  0.00    -0.003 C 
ATOM     27  C   UNL     1      -8.569  -2.013  -3.035  1.00  0.00     0.253 C 
ATOM     28  C   UNL     1      -9.468  -3.073   0.326  1.00  0.00    -0.003 A 
ATOM     29  N   UNL     1      -9.484  -3.455  -2.609  1.00  0.00    -0.212 NA
ATOM     30  O   UNL     1      -8.506  -1.655  -4.206  1.00  0.00    -0.272 OA
ATOM     31  C   UNL     1      -9.386  -3.854   1.540  1.00  0.00     0.010 A 
ATOM     32  C   UNL     1      -9.771  -3.931  -1.270  1.00  0.00     0.077 A 
ATOM     33  C   UNL     1      -9.468  -5.182   1.494  1.00  0.00     0.001 A 
ATOM     34  C   UNL     1     -10.012  -5.408  -0.947  1.00  0.00    -0.025 A 
ATOM     35  C   UNL     1      -9.823  -5.904   0.298  1.00  0.00     0.005 A 
ATOM     36  C   UNL     1     -10.265  -6.347  -2.076  1.00  0.00     0.047 C 
ENDBRANCH  24  25
ENDBRANCH  16  24
ENDBRANCH  10  12
ENDBRANCH   9  10
ENDBRANCH   8   9
ENDBRANCH   6   8
ENDBRANCH   5   6
ENDBRANCH   4   5
ENDBRANCH   3   4
ENDBRANCH   2   3
ENDBRANCH   1   2
BRANCH   1  37
ATOM     37  C   UNL     1      -5.863   0.532  -4.959  1.00  0.00     0.188 C 
BRANCH  37  38
ATOM     38  O   UNL     1      -6.054  -0.845  -4.580  1.00  0.00    -0.376 OA
BRANCH  38  39
ATOM     39  C   UNL     1      -4.958  -1.775  -4.612  1.00  0.00     0.202 C 
BRANCH  39  40
ATOM     40  C   UNL     1      -5.382  -3.206  -4.039  1.00  0.00     0.261 C 
BRANCH  40  41
ATOM     41  O   UNL     1      -5.959  -3.131  -2.687  1.00  0.00    -0.460 OA
BRANCH  41  42
ATOM     42  C   UNL     1      -7.073  -3.834  -2.288  1.00  0.00     0.338 C 
ATOM     43  O   UNL     1      -7.333  -4.937  -2.726  1.00  0.00    -0.246 OA
BRANCH  42  44
ATOM     44  C   UNL     1      -7.935  -2.800  -1.206  1.00  0.00     0.060 A 
ATOM     45  C   UNL     1      -9.549  -1.608  -1.353  1.00  0.00     0.016 A 
ATOM     46  C   UNL     1      -6.761  -2.313  -0.158  1.00  0.00     0.016 A 
ATOM     47  C   UNL     1      -9.595   0.012  -0.531  1.00  0.00     0.010 A 
ATOM     48  C   UNL     1      -6.995  -0.649   0.449  1.00  0.00     0.010 A 
ATOM     49  C   UNL     1      -8.269   0.589   0.372  1.00  0.00    -0.014 A 
BRANCH  49  50
ATOM     50  C   UNL     1      -8.008   2.315   0.912  1.00  0.00     0.031 A 
ATOM     51  C   UNL     1      -7.135   3.130   2.282  1.00  0.00     0.074 A 
ATOM     52  C   UNL     1      -7.999   3.267  -0.086  1.00  0.00     0.049 A 
ATOM     53  N   UNL     1      -7.070   4.414   2.666  1.00  0.00    -0.248 NA
ATOM     54  C   UNL     1      -6.160   2.572   3.253  1.00  0.00     0.031 C 
ATOM     55  C   UNL     1      -6.939   4.308  -0.140  1.00  0.00     0.029 A 
ATOM     56  N   UNL     1      -8.571   3.397  -1.361  1.00  0.00    -0.354 N 
ATOM     57  C   UNL     1      -6.000   4.472   3.675  1.00  0.00     0.074 A 
ATOM     58  C   UNL     1      -6.144   3.264   4.386  1.00  0.00     0.031 C 
ATOM     59  C   UNL     1      -6.953   4.952  -1.307  1.00  0.00     0.029 A 
ATOM     60  C   UNL     1      -8.219   4.670  -1.895  1.00  0.00     0.049 A 
ATOM     61  H   UNL     1      -9.125   2.720  -1.812  1.00  0.00     0.167 HD
ATOM     62  C   UNL     1      -4.745   5.067   3.524  1.00  0.00     0.034 A 
ATOM     63  C   UNL     1      -9.115   5.673  -2.154  1.00  0.00     0.034 A 
ATOM     64  C   UNL     1      -4.801   6.032   2.459  1.00  0.00     0.049 A 
ATOM     65  C   UNL     1      -8.915   6.951  -1.320  1.00  0.00     0.074 A 
ATOM     66  C   UNL     1      -4.117   6.372   1.313  1.00  0.00     0.029 A 
ATOM     67  N   UNL     1      -5.931   6.799   2.478  1.00  0.00    -0.354 N 
ATOM     68  N   UNL     1      -7.806   7.266  -0.688  1.00  0.00    -0.248 NA
ATOM     69  C   UNL     1      -9.941   7.968  -1.077  1.00  0.00     0.031 C 
ATOM     70  C   UNL     1      -4.931   7.331   0.614  1.00  0.00     0.029 A 
ATOM     71  C   UNL     1      -6.049   7.602   1.387  1.00  0.00     0.049 A 
ATOM     72  H   UNL     1      -6.592   6.773   3.207  1.00  0.00     0.167 HD
ATOM     73  C   UNL     1      -8.069   8.221   0.273  1.00  0.00     0.074 A 
ATOM     74  C   UNL     1      -9.365   8.730  -0.125  1.00  0.00     0.031 C 
ATOM     75  C   UNL     1      -7.265   8.403   1.377  1.00  0.00     0.034 A 
BRANCH  62  76
ATOM     76  C   UNL     1      -3.396   4.759   4.311  1.00  0.00     0.023 A 
ATOM     77  C   UNL     1      -2.481   5.833   4.423  1.00  0.00     0.012 A 
ATOM     78  C   UNL     1      -2.931   3.536   4.910  1.00  0.00     0.148 A 
ATOM     79  C   UNL     1      -1.256   5.742   5.120  1.00  0.00     0.002 A 
ATOM     80  C   UNL     1      -1.748   3.472   5.688  1.00  0.00     0.091 A 
ATOM     81  F   UNL     1      -3.565   2.384   4.656  1.00  0.00    -0.205 F 
ATOM     82  C   UNL     1      -0.905   4.577   5.786  1.00  0.00     0.022 A 
BRANCH  80  83
ATOM     83  S   UNL     1      -1.232   2.015   6.647  1.00  0.00     0.127 S 
ATOM     84  O   UNL     1       0.079   1.706   6.072  1.00  0.00    -0.237 OA
ATOM     85  O   UNL     1      -1.177   2.537   8.013  1.00  0.00    -0.237 OA
ATOM     86  O   UNL     1      -2.257   1.004   6.423  1.00  0.00    -0.744 OA
ENDBRANCH  80  83
ENDBRANCH  62  76
BRANCH  63  87
ATOM     87  C   UNL     1     -10.318   5.125  -2.848  1.00  0.00     0.023 A 
ATOM     88  C   UNL     1     -10.067   4.748  -4.194  1.00  0.00     0.012 A 
ATOM     89  C   UNL     1     -11.261   4.388  -2.109  1.00  0.00     0.148 A 
ATOM     90  C   UNL     1     -10.521   3.520  -4.684  1.00  0.00     0.002 A 
ATOM     91  C   UNL     1     -11.719   3.167  -2.610  1.00  0.00     0.091 A 
ATOM     92  F   UNL     1     -11.583   4.813  -0.879  1.00  0.00    -0.205 F 
ATOM     93  C   UNL     1     -11.294   2.702  -3.867  1.00  0.00     0.022 A 
BRANCH  91  94
ATOM     94  S   UNL     1     -12.722   2.081  -1.589  1.00  0.00     0.127 S 
ATOM     95  O   UNL     1     -14.065   2.600  -1.822  1.00  0.00    -0.237 OA
ATOM     96  O   UNL     1     -12.470   0.759  -2.168  1.00  0.00    -0.237 OA
ATOM     97  O   UNL     1     -12.192   2.245  -0.242  1.00  0.00    -0.744 OA
ENDBRANCH  91  94
ENDBRANCH  63  87
BRANCH  75  98
ATOM     98  C   UNL     1      -7.626   9.140   2.710  1.00  0.00     0.023 A 
ATOM     99  C   UNL     1      -8.929   9.569   3.000  1.00  0.00     0.012 A 
ATOM    100  C   UNL     1      -6.697   9.239   3.807  1.00  0.00     0.148 A 
ATOM    101  C   UNL     1      -9.287  10.097   4.253  1.00  0.00     0.002 A 
ATOM    102  C   UNL     1      -7.097   9.623   5.091  1.00  0.00     0.091 A 
ATOM    103  F   UNL     1      -5.396   8.963   3.619  1.00  0.00    -0.205 F 
ATOM    104  C   UNL     1      -8.385  10.096   5.306  1.00  0.00     0.022 A 
BRANCH 102 105
ATOM    105  S   UNL     1      -6.046   9.346   6.536  1.00  0.00     0.127 S 
ATOM    106  O   UNL     1      -5.342  10.621   6.650  1.00  0.00    -0.237 OA
ATOM    107  O   UNL     1      -7.022   9.095   7.598  1.00  0.00    -0.237 OA
ATOM    108  O   UNL     1      -5.234   8.188   6.186  1.00  0.00    -0.744 OA
ENDBRANCH 102 105
ENDBRANCH  75  98
ENDBRANCH  49  50
ENDBRANCH  42  44
ENDBRANCH  41  42
ENDBRANCH  40  41
ENDBRANCH  39  40
ENDBRANCH  38  39
ENDBRANCH  37  38
ENDBRANCH   1  37
TORSDOF 26
