REMARK SMILES O=C(OCCOCCOCCOC(=O)[C@@H](Cc1ccccc1)/N=C1\C(=O)c2ccccc2C(=O)[C@H]1Cl)c1ccc(-c2c3nc(c(-c4cccc(S(=O)(=O)[O-])c4F)c4ccc([nH]4)c(-c4cccc(S(=O)(=O)[O-])c4F)c4nc(c(-c5cccc(S(=O)(=O)[O-])c5F)c5ccc2[nH]5)C=C4)C=C3)cc1
REMARK SMILES IDX 7 1 6 2 5 3 4 4 3 5 2 6 1 7 37 8 38 9 99 10 39 11 98 12
REMARK SMILES IDX 40 13 41 14 42 15 92 16 43 17 97 18 91 19 93 20 44 21 96 22
REMARK SMILES IDX 90 23 89 24 45 26 77 27 57 28 76 29 58 30 61 31 75 32 94 33
REMARK SMILES IDX 59 34 60 35 74 37 95 38 62 39 46 40 47 41 55 42 48 43 50 44
REMARK SMILES IDX 56 45 49 46 51 47 52 48 53 49 54 50 78 51 79 52 87 53 80 54
REMARK SMILES IDX 82 55 88 56 81 57 83 58 84 59 85 60 86 61 63 62 64 63 72 64
REMARK SMILES IDX 65 65 67 66 73 67 66 68 68 69 69 70 70 71 71 72 8 73 9 74
REMARK SMILES IDX 10 75 11 76 12 77 13 78 14 79 15 80 16 81 17 82 18 83 22 84
REMARK SMILES IDX 19 85 21 86 20 87 23 88 24 89 25 90 35 91 26 92 27 93 33 94
REMARK SMILES IDX 36 95 28 96 32 97 34 98 29 99 31 100 30 101
REMARK H PARENT 93 25 61 36
REMARK Flexibility Score: inf
ROOT
ATOM      1  C   UNL     1       2.073   1.101  -0.239  1.00  0.00     0.188 C 
ENDROOT
BRANCH   1   2
ATOM      2  O   UNL     1       3.408   0.868   0.207  1.00  0.00    -0.376 OA
BRANCH   2   3
ATOM      3  C   UNL     1       4.336   0.474  -0.794  1.00  0.00     0.202 C 
BRANCH   3   4
ATOM      4  C   UNL     1       4.224  -0.956  -1.335  1.00  0.00     0.261 C 
BRANCH   4   5
ATOM      5  O   UNL     1       3.023  -1.700  -1.067  1.00  0.00    -0.460 OA
BRANCH   5   6
ATOM      6  C   UNL     1       2.495  -2.132   0.101  1.00  0.00     0.338 C 
ATOM      7  O   UNL     1       1.404  -2.700   0.078  1.00  0.00    -0.246 OA
BRANCH   6   8
ATOM      8  C   UNL     1       3.140  -1.906   1.424  1.00  0.00     0.060 A 
ATOM      9  C   UNL     1       4.517  -1.891   1.633  1.00  0.00     0.016 A 
ATOM     10  C   UNL     1       2.289  -1.801   2.542  1.00  0.00     0.016 A 
ATOM     11  C   UNL     1       5.030  -1.721   2.921  1.00  0.00     0.010 A 
ATOM     12  C   UNL     1       2.804  -1.688   3.840  1.00  0.00     0.010 A 
ATOM     13  C   UNL     1       4.184  -1.647   4.041  1.00  0.00    -0.014 A 
BRANCH  13  14
ATOM     14  C   UNL     1       4.807  -1.697   5.392  1.00  0.00     0.031 A 
ATOM     15  C   UNL     1       5.627  -2.904   5.739  1.00  0.00     0.074 A 
ATOM     16  C   UNL     1       4.714  -0.687   6.277  1.00  0.00     0.049 A 
ATOM     17  N   UNL     1       6.557  -3.046   6.643  1.00  0.00    -0.248 NA
ATOM     18  C   UNL     1       5.366  -4.111   4.936  1.00  0.00     0.031 C 
ATOM     19  C   UNL     1       3.884   0.498   6.115  1.00  0.00     0.029 A 
ATOM     20  N   UNL     1       5.378  -0.471   7.466  1.00  0.00    -0.354 N 
ATOM     21  C   UNL     1       6.991  -4.358   6.522  1.00  0.00     0.074 A 
ATOM     22  C   UNL     1       6.259  -4.957   5.426  1.00  0.00     0.031 C 
ATOM     23  C   UNL     1       4.160   1.364   7.104  1.00  0.00     0.029 A 
ATOM     24  C   UNL     1       5.208   0.808   7.953  1.00  0.00     0.049 A 
ATOM     25  H   UNL     1       5.916  -1.159   7.920  1.00  0.00     0.167 HD
ATOM     26  C   UNL     1       7.888  -5.027   7.282  1.00  0.00     0.034 A 
ATOM     27  C   UNL     1       5.884   1.473   8.915  1.00  0.00     0.034 A 
ATOM     28  C   UNL     1       8.515  -4.484   8.451  1.00  0.00     0.049 A 
ATOM     29  C   UNL     1       6.933   0.732   9.706  1.00  0.00     0.074 A 
ATOM     30  C   UNL     1       9.331  -5.123   9.367  1.00  0.00     0.029 A 
ATOM     31  N   UNL     1       8.351  -3.182   8.896  1.00  0.00    -0.354 N 
ATOM     32  N   UNL     1       7.461  -0.448   9.488  1.00  0.00    -0.248 NA
ATOM     33  C   UNL     1       7.473   1.421  10.889  1.00  0.00     0.031 C 
ATOM     34  C   UNL     1       9.639  -4.212  10.383  1.00  0.00     0.029 A 
ATOM     35  C   UNL     1       9.037  -3.000  10.083  1.00  0.00     0.049 A 
ATOM     36  H   UNL     1       7.825  -2.490   8.435  1.00  0.00     0.167 HD
ATOM     37  C   UNL     1       8.369  -0.654  10.521  1.00  0.00     0.074 A 
ATOM     38  C   UNL     1       8.388   0.560  11.311  1.00  0.00     0.031 C 
ATOM     39  C   UNL     1       9.076  -1.769  10.829  1.00  0.00     0.034 A 
BRANCH  26  40
ATOM     40  C   UNL     1       8.165  -6.447   6.891  1.00  0.00     0.023 A 
ATOM     41  C   UNL     1       9.053  -6.713   5.830  1.00  0.00     0.012 A 
ATOM     42  C   UNL     1       7.504  -7.509   7.534  1.00  0.00     0.148 A 
ATOM     43  C   UNL     1       9.260  -8.023   5.398  1.00  0.00     0.002 A 
ATOM     44  C   UNL     1       7.731  -8.811   7.111  1.00  0.00     0.091 A 
ATOM     45  F   UNL     1       6.635  -7.220   8.513  1.00  0.00    -0.205 F 
ATOM     46  C   UNL     1       8.602  -9.070   6.040  1.00  0.00     0.022 A 
BRANCH  44  47
ATOM     47  S   UNL     1       6.937 -10.224   7.881  1.00  0.00     0.127 S 
ATOM     48  O   UNL     1       5.984 -10.624   6.846  1.00  0.00    -0.237 OA
ATOM     49  O   UNL     1       8.060 -11.143   8.066  1.00  0.00    -0.237 OA
ATOM     50  O   UNL     1       6.347  -9.728   9.116  1.00  0.00    -0.744 OA
ENDBRANCH  44  47
ENDBRANCH  26  40
BRANCH  27  51
ATOM     51  C   UNL     1       5.705   2.945   9.123  1.00  0.00     0.023 A 
ATOM     52  C   UNL     1       6.818   3.795   8.934  1.00  0.00     0.012 A 
ATOM     53  C   UNL     1       4.482   3.521   9.506  1.00  0.00     0.148 A 
ATOM     54  C   UNL     1       6.722   5.170   9.150  1.00  0.00     0.002 A 
ATOM     55  C   UNL     1       4.376   4.903   9.651  1.00  0.00     0.091 A 
ATOM     56  F   UNL     1       3.434   2.715   9.733  1.00  0.00    -0.205 F 
ATOM     57  C   UNL     1       5.497   5.728   9.495  1.00  0.00     0.022 A 
BRANCH  55  58
ATOM     58  S   UNL     1       2.779   5.679   9.919  1.00  0.00     0.127 S 
ATOM     59  O   UNL     1       2.700   5.724  11.375  1.00  0.00    -0.237 OA
ATOM     60  O   UNL     1       2.944   6.979   9.267  1.00  0.00    -0.237 OA
ATOM     61  O   UNL     1       1.835   4.798   9.242  1.00  0.00    -0.744 OA
ENDBRANCH  55  58
ENDBRANCH  27  51
BRANCH  39  62
ATOM     62  C   UNL     1       9.886  -1.755  12.099  1.00  0.00     0.023 A 
ATOM     63  C   UNL     1       9.215  -1.802  13.338  1.00  0.00     0.012 A 
ATOM     64  C   UNL     1      11.292  -1.806  12.070  1.00  0.00     0.148 A 
ATOM     65  C   UNL     1       9.931  -1.876  14.531  1.00  0.00     0.002 A 
ATOM     66  C   UNL     1      11.998  -1.926  13.262  1.00  0.00     0.091 A 
ATOM     67  F   UNL     1      11.912  -1.738  10.883  1.00  0.00    -0.205 F 
ATOM     68  C   UNL     1      11.321  -1.952  14.493  1.00  0.00     0.022 A 
BRANCH  66  69
ATOM     69  S   UNL     1      13.783  -2.131  13.300  1.00  0.00     0.127 S 
ATOM     70  O   UNL     1      14.226  -0.804  13.723  1.00  0.00    -0.237 OA
ATOM     71  O   UNL     1      13.956  -3.182  14.303  1.00  0.00    -0.237 OA
ATOM     72  O   UNL     1      14.165  -2.520  11.949  1.00  0.00    -0.744 OA
ENDBRANCH  66  69
ENDBRANCH  39  62
ENDBRANCH  13  14
ENDBRANCH   6   8
ENDBRANCH   5   6
ENDBRANCH   4   5
ENDBRANCH   3   4
ENDBRANCH   2   3
ENDBRANCH   1   2
BRANCH   1  73
ATOM     73  C   UNL     1       1.809   2.468  -0.871  1.00  0.00     0.188 C 
BRANCH  73  74
ATOM     74  O   UNL     1       2.796   2.833  -1.833  1.00  0.00    -0.376 OA
BRANCH  74  75
ATOM     75  C   UNL     1       3.285   4.165  -1.640  1.00  0.00     0.202 C 
BRANCH  75  76
ATOM     76  C   UNL     1       4.390   4.248  -0.583  1.00  0.00     0.261 C 
BRANCH  76  77
ATOM     77  O   UNL     1       3.982   3.895   0.750  1.00  0.00    -0.462 OA
BRANCH  77  78
ATOM     78  C   UNL     1       3.328   4.860   1.450  1.00  0.00     0.331 C 
ATOM     79  O   UNL     1       2.859   5.874   0.940  1.00  0.00    -0.250 OA
BRANCH  78  80
ATOM     80  C   UNL     1       3.227   4.531   2.939  1.00  0.00     0.219 C 
BRANCH  80  81
ATOM     81  C   UNL     1       3.556   3.099   3.398  1.00  0.00     0.074 C 
BRANCH  81  82
ATOM     82  C   UNL     1       4.998   2.714   3.643  1.00  0.00    -0.045 A 
ATOM     83  C   UNL     1       5.668   1.865   2.755  1.00  0.00     0.004 A 
ATOM     84  C   UNL     1       5.646   3.072   4.832  1.00  0.00     0.004 A 
ATOM     85  C   UNL     1       6.939   1.369   3.053  1.00  0.00     0.000 A 
ATOM     86  C   UNL     1       6.914   2.571   5.135  1.00  0.00     0.000 A 
ATOM     87  C   UNL     1       7.559   1.715   4.249  1.00  0.00     0.000 A 
ENDBRANCH  81  82
ENDBRANCH  80  81
BRANCH  80  88
ATOM     88  N   UNL     1       3.784   5.550   3.849  1.00  0.00    -0.268 NA
ATOM     89  C   UNL     1       4.952   6.085   3.790  1.00  0.00     0.110 C 
ATOM     90  C   UNL     1       6.003   5.845   2.736  1.00  0.00     0.209 C 
ATOM     91  C   UNL     1       5.424   6.984   4.900  1.00  0.00     0.205 C 
ATOM     92  O   UNL     1       5.776   5.989   1.555  1.00  0.00    -0.287 OA
ATOM     93  C   UNL     1       7.352   5.531   3.216  1.00  0.00     0.035 A 
ATOM     94  C   UNL     1       6.814   6.645   5.403  1.00  0.00     0.187 C 
ATOM     95  Cl  UNL     1       5.467   8.656   4.273  1.00  0.00    -0.107 Cl
ATOM     96  C   UNL     1       8.242   4.876   2.358  1.00  0.00     0.013 A 
ATOM     97  C   UNL     1       7.730   5.883   4.511  1.00  0.00     0.031 A 
ATOM     98  O   UNL     1       7.248   7.040   6.482  1.00  0.00    -0.292 OA
ATOM     99  C   UNL     1       9.517   4.543   2.811  1.00  0.00     0.001 A 
ATOM    100  C   UNL     1       9.012   5.543   4.959  1.00  0.00     0.012 A 
ATOM    101  C   UNL     1       9.899   4.871   4.112  1.00  0.00     0.001 A 
ENDBRANCH  80  88
ENDBRANCH  78  80
ENDBRANCH  77  78
ENDBRANCH  76  77
ENDBRANCH  75  76
ENDBRANCH  74  75
ENDBRANCH  73  74
ENDBRANCH   1  73
TORSDOF 23
