REMARK SMILES O=C(C[C@H](c1ccsc1)n1cccc1)OCCOCCOCCOC(=O)c1ccc(-c2c3nc(c(-c4cccc(S(=O)(=O)[O-])c4F)c4ccc([nH]4)c(-c4cccc(S(=O)(=O)[O-])c4F)c4nc(c(-c5cccc(S(=O)(=O)[O-])c5F)c5ccc2[nH]5)C=C4)C=C3)cc1
REMARK SMILES IDX 20 1 19 2 18 3 17 4 16 5 15 6 2 7 1 8 3 9 4 10 10 11 11 12
REMARK SMILES IDX 14 13 12 14 13 15 5 16 6 17 9 18 7 19 8 20 21 21 22 22 23 23
REMARK SMILES IDX 24 24 25 25 26 26 27 27 28 28 89 29 29 30 88 31 30 32 31 33
REMARK SMILES IDX 32 34 82 35 33 36 87 37 81 38 83 39 34 40 86 41 80 42 79 43
REMARK SMILES IDX 35 45 67 46 47 47 66 48 48 49 51 50 65 51 84 52 49 53 50 54
REMARK SMILES IDX 64 56 85 57 52 58 36 59 37 60 45 61 38 62 40 63 46 64 39 65
REMARK SMILES IDX 41 66 42 67 43 68 44 69 68 70 69 71 77 72 70 73 72 74 78 75
REMARK SMILES IDX 71 76 73 77 74 78 75 79 76 80 53 81 54 82 62 83 55 84 57 85
REMARK SMILES IDX 63 86 56 87 58 88 59 89 60 90 61 91
REMARK H PARENT 83 44 51 55
REMARK Flexibility Score: inf
ROOT
ATOM      1  C   UNL     1       6.068   1.011   2.445  1.00  0.00     0.188 C 
ENDROOT
BRANCH   1   2
ATOM      2  C   UNL     1       5.647   1.682   1.125  1.00  0.00     0.188 C 
BRANCH   2   3
ATOM      3  O   UNL     1       4.283   1.838   0.769  1.00  0.00    -0.376 OA
BRANCH   3   4
ATOM      4  C   UNL     1       3.305   0.884   1.138  1.00  0.00     0.202 C 
BRANCH   4   5
ATOM      5  C   UNL     1       3.627  -0.613   1.098  1.00  0.00     0.261 C 
BRANCH   5   6
ATOM      6  O   UNL     1       4.862  -1.038   0.495  1.00  0.00    -0.463 OA
BRANCH   6   7
ATOM      7  C   UNL     1       5.216  -0.964  -0.802  1.00  0.00     0.308 C 
ATOM      8  O   UNL     1       6.266  -1.488  -1.169  1.00  0.00    -0.252 OA
BRANCH   7   9
ATOM      9  C   UNL     1       4.345  -0.210  -1.761  1.00  0.00     0.153 C 
BRANCH   9  10
ATOM     10  C   UNL     1       3.534  -1.134  -2.673  1.00  0.00     0.128 C 
BRANCH  10  11
ATOM     11  N   UNL     1       4.375  -1.915  -3.599  1.00  0.00    -0.346 N 
ATOM     12  C   UNL     1       5.306  -1.336  -4.439  1.00  0.00     0.086 A 
ATOM     13  C   UNL     1       4.377  -3.267  -3.829  1.00  0.00     0.086 A 
ATOM     14  C   UNL     1       5.987  -2.337  -5.091  1.00  0.00     0.019 A 
ATOM     15  C   UNL     1       5.400  -3.559  -4.704  1.00  0.00     0.019 A 
ENDBRANCH  10  11
BRANCH  10  16
ATOM     16  C   UNL     1       2.499  -1.929  -1.884  1.00  0.00    -0.014 A 
ATOM     17  C   UNL     1       2.748  -3.088  -1.060  1.00  0.00     0.017 A 
ATOM     18  C   UNL     1       1.173  -1.541  -1.760  1.00  0.00     0.070 A 
ATOM     19  C   UNL     1       1.631  -3.517  -0.379  1.00  0.00     0.065 A 
ATOM     20  S   UNL     1       0.267  -2.549  -0.716  1.00  0.00    -0.152 S 
ENDBRANCH  10  16
ENDBRANCH   9  10
ENDBRANCH   7   9
ENDBRANCH   6   7
ENDBRANCH   5   6
ENDBRANCH   4   5
ENDBRANCH   3   4
ENDBRANCH   2   3
ENDBRANCH   1   2
BRANCH   1  21
ATOM     21  O   UNL     1       5.004   0.476   3.221  1.00  0.00    -0.376 OA
BRANCH  21  22
ATOM     22  C   UNL     1       4.780   1.072   4.490  1.00  0.00     0.202 C 
BRANCH  22  23
ATOM     23  C   UNL     1       3.949   2.355   4.455  1.00  0.00     0.261 C 
BRANCH  23  24
ATOM     24  O   UNL     1       4.356   3.310   3.483  1.00  0.00    -0.460 OA
BRANCH  24  25
ATOM     25  C   UNL     1       5.554   3.865   3.712  1.00  0.00     0.338 C 
ATOM     26  O   UNL     1       6.438   3.464   4.470  1.00  0.00    -0.246 OA
BRANCH  25  27
ATOM     27  C   UNL     1       5.638   5.135   3.018  1.00  0.00     0.060 A 
ATOM     28  C   UNL     1       6.851   5.515   2.434  1.00  0.00     0.016 A 
ATOM     29  C   UNL     1       4.607   6.038   3.280  1.00  0.00     0.016 A 
ATOM     30  C   UNL     1       7.083   6.860   2.221  1.00  0.00     0.010 A 
ATOM     31  C   UNL     1       4.873   7.376   3.137  1.00  0.00     0.010 A 
ATOM     32  C   UNL     1       6.120   7.782   2.647  1.00  0.00    -0.014 A 
BRANCH  32  33
ATOM     33  C   UNL     1       6.412   9.221   2.608  1.00  0.00     0.031 A 
ATOM     34  C   UNL     1       5.884   9.883   1.340  1.00  0.00     0.074 A 
ATOM     35  C   UNL     1       7.071   9.707   3.704  1.00  0.00     0.049 A 
ATOM     36  N   UNL     1       6.286  10.967   0.751  1.00  0.00    -0.248 NA
ATOM     37  C   UNL     1       4.834   9.193   0.538  1.00  0.00     0.031 C 
ATOM     38  C   UNL     1       7.498   8.881   4.859  1.00  0.00     0.029 A 
ATOM     39  N   UNL     1       7.508  10.958   4.092  1.00  0.00    -0.354 N 
ATOM     40  C   UNL     1       5.394  11.201  -0.316  1.00  0.00     0.074 A 
ATOM     41  C   UNL     1       4.630  10.009  -0.495  1.00  0.00     0.031 C 
ATOM     42  C   UNL     1       8.179   9.620   5.758  1.00  0.00     0.029 A 
ATOM     43  C   UNL     1       8.218  11.001   5.318  1.00  0.00     0.049 A 
ATOM     44  H   UNL     1       7.338  11.765   3.554  1.00  0.00     0.167 HD
ATOM     45  C   UNL     1       5.224  12.426  -0.884  1.00  0.00     0.034 A 
ATOM     46  C   UNL     1       8.818  12.064   5.938  1.00  0.00     0.034 A 
ATOM     47  C   UNL     1       6.050  13.382  -0.225  1.00  0.00     0.049 A 
ATOM     48  C   UNL     1       8.424  13.257   5.175  1.00  0.00     0.074 A 
ATOM     49  C   UNL     1       7.390  13.654  -0.274  1.00  0.00     0.029 A 
ATOM     50  N   UNL     1       5.497  13.974   0.886  1.00  0.00    -0.354 N 
ATOM     51  N   UNL     1       7.238  13.791   5.203  1.00  0.00    -0.248 NA
ATOM     52  C   UNL     1       9.379  13.846   4.229  1.00  0.00     0.031 C 
ATOM     53  C   UNL     1       7.691  14.135   1.016  1.00  0.00     0.029 A 
ATOM     54  C   UNL     1       6.514  14.245   1.767  1.00  0.00     0.049 A 
ATOM     55  H   UNL     1       4.542  14.169   1.025  1.00  0.00     0.167 HD
ATOM     56  C   UNL     1       7.219  14.509   4.032  1.00  0.00     0.074 A 
ATOM     57  C   UNL     1       8.597  14.779   3.696  1.00  0.00     0.031 C 
ATOM     58  C   UNL     1       6.181  14.351   3.170  1.00  0.00     0.034 A 
BRANCH  45  59
ATOM     59  C   UNL     1       4.214  12.965  -1.859  1.00  0.00     0.023 A 
ATOM     60  C   UNL     1       4.614  14.134  -2.562  1.00  0.00     0.012 A 
ATOM     61  C   UNL     1       2.858  12.600  -1.924  1.00  0.00     0.148 A 
ATOM     62  C   UNL     1       3.702  14.963  -3.210  1.00  0.00     0.002 A 
ATOM     63  C   UNL     1       1.955  13.408  -2.622  1.00  0.00     0.091 A 
ATOM     64  F   UNL     1       2.424  11.537  -1.240  1.00  0.00    -0.205 F 
ATOM     65  C   UNL     1       2.367  14.602  -3.231  1.00  0.00     0.022 A 
BRANCH  63  66
ATOM     66  S   UNL     1       0.218  12.980  -2.789  1.00  0.00     0.127 S 
ATOM     67  O   UNL     1      -0.398  13.781  -1.735  1.00  0.00    -0.237 OA
ATOM     68  O   UNL     1      -0.083  13.436  -4.149  1.00  0.00    -0.237 OA
ATOM     69  O   UNL     1       0.163  11.533  -2.631  1.00  0.00    -0.744 OA
ENDBRANCH  63  66
ENDBRANCH  45  59
BRANCH  46  70
ATOM     70  C   UNL     1       9.784  12.256   7.087  1.00  0.00     0.023 A 
ATOM     71  C   UNL     1      10.047  11.289   8.067  1.00  0.00     0.012 A 
ATOM     72  C   UNL     1      10.557  13.453   7.179  1.00  0.00     0.148 A 
ATOM     73  C   UNL     1      11.085  11.455   9.006  1.00  0.00     0.002 A 
ATOM     74  C   UNL     1      11.651  13.570   8.028  1.00  0.00     0.091 A 
ATOM     75  F   UNL     1      10.212  14.525   6.461  1.00  0.00    -0.205 F 
ATOM     76  C   UNL     1      11.917  12.572   8.958  1.00  0.00     0.022 A 
BRANCH  74  77
ATOM     77  S   UNL     1      12.838  14.918   7.862  1.00  0.00     0.127 S 
ATOM     78  O   UNL     1      12.819  15.516   9.195  1.00  0.00    -0.237 OA
ATOM     79  O   UNL     1      14.063  14.190   7.532  1.00  0.00    -0.237 OA
ATOM     80  O   UNL     1      12.342  15.774   6.791  1.00  0.00    -0.744 OA
ENDBRANCH  74  77
ENDBRANCH  46  70
BRANCH  58  81
ATOM     81  C   UNL     1       4.869  13.960   3.838  1.00  0.00     0.023 A 
ATOM     82  C   UNL     1       4.325  14.879   4.760  1.00  0.00     0.012 A 
ATOM     83  C   UNL     1       4.218  12.711   3.705  1.00  0.00     0.148 A 
ATOM     84  C   UNL     1       3.200  14.570   5.530  1.00  0.00     0.002 A 
ATOM     85  C   UNL     1       3.093  12.401   4.478  1.00  0.00     0.091 A 
ATOM     86  F   UNL     1       4.714  11.822   2.844  1.00  0.00    -0.205 F 
ATOM     87  C   UNL     1       2.584  13.333   5.390  1.00  0.00     0.022 A 
BRANCH  85  88
ATOM     88  S   UNL     1       2.226  10.821   4.404  1.00  0.00     0.127 S 
ATOM     89  O   UNL     1       2.475  10.260   5.733  1.00  0.00    -0.237 OA
ATOM     90  O   UNL     1       0.842  11.234   4.180  1.00  0.00    -0.237 OA
ATOM     91  O   UNL     1       2.828  10.075   3.308  1.00  0.00    -0.744 OA
ENDBRANCH  85  88
ENDBRANCH  58  81
ENDBRANCH  32  33
ENDBRANCH  25  27
ENDBRANCH  24  25
ENDBRANCH  23  24
ENDBRANCH  22  23
ENDBRANCH  21  22
ENDBRANCH   1  21
TORSDOF 23
