REMARK SMILES O=C(OCCOCCOCCOC(=O)c1ccc(-n2cc(CSc3nc4ccccc4c(=O)n3-c3ccc(Cl)cc3)nn2)cc1)c1ccc(-c2c3nc(c(-c4cccc(S(=O)(=O)[O-])c4F)c4ccc([nH]4)c(-c4cccc(S(=O)(=O)[O-])c4F)c4nc(c(-c5cccc(S(=O)(=O)[O-])c5F)c5ccc2[nH]5)C=C4)C=C3)cc1
REMARK SMILES IDX 8 1 7 2 6 3 5 4 4 5 3 6 2 7 1 8 46 9 47 10 108 11 48 12
REMARK SMILES IDX 107 13 49 14 50 15 51 16 101 17 52 18 106 19 100 20 102 21
REMARK SMILES IDX 53 22 105 23 99 24 98 25 54 27 86 28 66 29 85 30 67 31 70 32
REMARK SMILES IDX 84 33 103 34 68 35 69 36 83 38 104 39 71 40 55 41 56 42
REMARK SMILES IDX 64 43 57 44 59 45 65 46 58 47 60 48 61 49 62 50 63 51 87 52
REMARK SMILES IDX 88 53 96 54 89 55 91 56 97 57 90 58 92 59 93 60 94 61 95 62
REMARK SMILES IDX 72 63 73 64 81 65 74 66 76 67 82 68 75 69 77 70 78 71 79 72
REMARK SMILES IDX 80 73 9 74 10 75 11 76 12 77 13 78 14 79 15 80 16 81 45 82
REMARK SMILES IDX 17 83 44 84 18 85 19 86 20 87 43 88 21 89 42 90 22 91 23 92
REMARK SMILES IDX 24 93 25 94 34 95 26 96 32 97 27 98 31 99 33 100 28 101
REMARK SMILES IDX 30 102 29 103 35 104 36 105 41 106 37 107 40 108 38 109
REMARK SMILES IDX 39 110
REMARK H PARENT 102 26 70 37
REMARK Flexibility Score: inf
ROOT
ATOM      1  C   UNL     1       2.420   1.853   1.302  1.00  0.00     0.188 C 
ENDROOT
BRANCH   1   2
ATOM      2  C   UNL     1       3.387   0.648   1.425  1.00  0.00     0.188 C 
BRANCH   2   3
ATOM      3  O   UNL     1       4.723   0.946   1.085  1.00  0.00    -0.376 OA
BRANCH   3   4
ATOM      4  C   UNL     1       5.287   0.465  -0.116  1.00  0.00     0.202 C 
BRANCH   4   5
ATOM      5  C   UNL     1       4.533   0.511  -1.452  1.00  0.00     0.261 C 
BRANCH   5   6
ATOM      6  O   UNL     1       3.127   0.755  -1.395  1.00  0.00    -0.460 OA
BRANCH   6   7
ATOM      7  C   UNL     1       2.070  -0.081  -1.424  1.00  0.00     0.338 C 
ATOM      8  O   UNL     1       0.961   0.398  -1.658  1.00  0.00    -0.246 OA
BRANCH   7   9
ATOM      9  C   UNL     1       2.133  -1.521  -1.054  1.00  0.00     0.060 A 
ATOM     10  C   UNL     1       3.264  -2.335  -1.112  1.00  0.00     0.016 A 
ATOM     11  C   UNL     1       0.901  -2.092  -0.672  1.00  0.00     0.016 A 
ATOM     12  C   UNL     1       3.126  -3.708  -1.016  1.00  0.00     0.010 A 
ATOM     13  C   UNL     1       0.764  -3.462  -0.541  1.00  0.00     0.010 A 
ATOM     14  C   UNL     1       1.861  -4.262  -0.820  1.00  0.00    -0.014 A 
BRANCH  14  15
ATOM     15  C   UNL     1       1.742  -5.705  -0.919  1.00  0.00     0.031 A 
ATOM     16  C   UNL     1       2.491  -6.449   0.122  1.00  0.00     0.074 A 
ATOM     17  C   UNL     1       0.989  -6.281  -1.878  1.00  0.00     0.049 A 
ATOM     18  N   UNL     1       3.520  -7.217  -0.037  1.00  0.00    -0.248 NA
ATOM     19  C   UNL     1       2.171  -6.159   1.526  1.00  0.00     0.031 C 
ATOM     20  C   UNL     1       0.035  -5.626  -2.781  1.00  0.00     0.029 A 
ATOM     21  N   UNL     1       0.812  -7.601  -2.155  1.00  0.00    -0.354 N 
ATOM     22  C   UNL     1       3.816  -7.706   1.235  1.00  0.00     0.074 A 
ATOM     23  C   UNL     1       3.108  -6.864   2.159  1.00  0.00     0.031 C 
ATOM     24  C   UNL     1      -0.800  -6.557  -3.292  1.00  0.00     0.029 A 
ATOM     25  C   UNL     1      -0.353  -7.870  -2.866  1.00  0.00     0.049 A 
ATOM     26  H   UNL     1       1.449  -8.300  -1.879  1.00  0.00     0.167 HD
ATOM     27  C   UNL     1       4.387  -8.933   1.396  1.00  0.00     0.034 A 
ATOM     28  C   UNL     1      -0.956  -9.077  -3.001  1.00  0.00     0.034 A 
ATOM     29  C   UNL     1       5.033  -9.365   0.179  1.00  0.00     0.049 A 
ATOM     30  C   UNL     1       0.058 -10.113  -2.703  1.00  0.00     0.074 A 
ATOM     31  C   UNL     1       6.042  -8.874  -0.625  1.00  0.00     0.029 A 
ATOM     32  N   UNL     1       4.373 -10.304  -0.575  1.00  0.00    -0.354 N 
ATOM     33  N   UNL     1       1.101 -10.334  -3.454  1.00  0.00    -0.248 NA
ATOM     34  C   UNL     1       0.154 -10.599  -1.337  1.00  0.00     0.031 C 
ATOM     35  C   UNL     1       5.643  -9.199  -1.955  1.00  0.00     0.029 A 
ATOM     36  C   UNL     1       4.452  -9.923  -1.885  1.00  0.00     0.049 A 
ATOM     37  H   UNL     1       3.923 -11.110  -0.233  1.00  0.00     0.167 HD
ATOM     38  C   UNL     1       2.133 -10.548  -2.551  1.00  0.00     0.074 A 
ATOM     39  C   UNL     1       1.472 -10.811  -1.273  1.00  0.00     0.031 C 
ATOM     40  C   UNL     1       3.418 -10.198  -2.857  1.00  0.00     0.034 A 
BRANCH  27  41
ATOM     41  C   UNL     1       3.983  -9.935   2.470  1.00  0.00     0.023 A 
ATOM     42  C   UNL     1       4.632 -11.193   2.436  1.00  0.00     0.012 A 
ATOM     43  C   UNL     1       2.821  -9.848   3.272  1.00  0.00     0.148 A 
ATOM     44  C   UNL     1       4.082 -12.325   3.047  1.00  0.00     0.002 A 
ATOM     45  C   UNL     1       2.306 -10.964   3.922  1.00  0.00     0.091 A 
ATOM     46  F   UNL     1       2.131  -8.712   3.347  1.00  0.00    -0.205 F 
ATOM     47  C   UNL     1       2.909 -12.214   3.779  1.00  0.00     0.022 A 
BRANCH  45  48
ATOM     48  S   UNL     1       0.804 -10.876   4.909  1.00  0.00     0.127 S 
ATOM     49  O   UNL     1      -0.134 -11.615   4.070  1.00  0.00    -0.237 OA
ATOM     50  O   UNL     1       1.217 -11.561   6.134  1.00  0.00    -0.237 OA
ATOM     51  O   UNL     1       0.525  -9.457   5.083  1.00  0.00    -0.744 OA
ENDBRANCH  45  48
ENDBRANCH  27  41
BRANCH  28  52
ATOM     52  C   UNL     1      -2.404  -9.390  -3.066  1.00  0.00     0.023 A 
ATOM     53  C   UNL     1      -2.830 -10.634  -3.572  1.00  0.00     0.012 A 
ATOM     54  C   UNL     1      -3.349  -8.590  -2.384  1.00  0.00     0.148 A 
ATOM     55  C   UNL     1      -4.145 -11.078  -3.382  1.00  0.00     0.002 A 
ATOM     56  C   UNL     1      -4.658  -9.030  -2.208  1.00  0.00     0.091 A 
ATOM     57  F   UNL     1      -2.943  -7.442  -1.826  1.00  0.00    -0.205 F 
ATOM     58  C   UNL     1      -5.056 -10.280  -2.695  1.00  0.00     0.022 A 
BRANCH  56  59
ATOM     59  S   UNL     1      -5.882  -8.060  -1.317  1.00  0.00     0.127 S 
ATOM     60  O   UNL     1      -7.017  -8.086  -2.241  1.00  0.00    -0.237 OA
ATOM     61  O   UNL     1      -6.065  -8.847  -0.101  1.00  0.00    -0.237 OA
ATOM     62  O   UNL     1      -5.291  -6.740  -1.136  1.00  0.00    -0.744 OA
ENDBRANCH  56  59
ENDBRANCH  28  52
BRANCH  40  63
ATOM     63  C   UNL     1       3.732  -9.822  -4.282  1.00  0.00     0.023 A 
ATOM     64  C   UNL     1       3.172  -8.688  -4.907  1.00  0.00     0.012 A 
ATOM     65  C   UNL     1       4.755 -10.525  -4.939  1.00  0.00     0.148 A 
ATOM     66  C   UNL     1       3.610  -8.279  -6.170  1.00  0.00     0.002 A 
ATOM     67  C   UNL     1       5.221 -10.088  -6.171  1.00  0.00     0.091 A 
ATOM     68  F   UNL     1       5.279 -11.598  -4.326  1.00  0.00    -0.205 F 
ATOM     69  C   UNL     1       4.645  -8.971  -6.796  1.00  0.00     0.022 A 
BRANCH  67  70
ATOM     70  S   UNL     1       6.638 -10.855  -6.959  1.00  0.00     0.127 S 
ATOM     71  O   UNL     1       6.012 -11.622  -8.034  1.00  0.00    -0.237 OA
ATOM     72  O   UNL     1       7.415  -9.697  -7.405  1.00  0.00    -0.237 OA
ATOM     73  O   UNL     1       7.294 -11.645  -5.924  1.00  0.00    -0.744 OA
ENDBRANCH  67  70
ENDBRANCH  40  63
ENDBRANCH  14  15
ENDBRANCH   7   9
ENDBRANCH   6   7
ENDBRANCH   5   6
ENDBRANCH   4   5
ENDBRANCH   3   4
ENDBRANCH   2   3
ENDBRANCH   1   2
BRANCH   1  74
ATOM     74  O   UNL     1       2.904   3.178   1.103  1.00  0.00    -0.376 OA
BRANCH  74  75
ATOM     75  C   UNL     1       4.161   3.555   1.633  1.00  0.00     0.202 C 
BRANCH  75  76
ATOM     76  C   UNL     1       4.388   3.459   3.150  1.00  0.00     0.261 C 
BRANCH  76  77
ATOM     77  O   UNL     1       3.963   2.235   3.771  1.00  0.00    -0.460 OA
BRANCH  77  78
ATOM     78  C   UNL     1       2.857   2.299   4.538  1.00  0.00     0.338 C 
ATOM     79  O   UNL     1       2.200   3.308   4.819  1.00  0.00    -0.246 OA
BRANCH  78  80
ATOM     80  C   UNL     1       2.473   0.953   4.989  1.00  0.00     0.060 A 
ATOM     81  C   UNL     1       1.372   0.304   4.403  1.00  0.00     0.018 A 
ATOM     82  C   UNL     1       3.140   0.375   6.070  1.00  0.00     0.018 A 
ATOM     83  C   UNL     1       0.933  -0.927   4.881  1.00  0.00     0.029 A 
ATOM     84  C   UNL     1       2.641  -0.808   6.617  1.00  0.00     0.029 A 
ATOM     85  C   UNL     1       1.523  -1.437   6.035  1.00  0.00     0.066 A 
BRANCH  85  86
ATOM     86  N   UNL     1       0.801  -2.397   6.768  1.00  0.00    -0.220 N 
ATOM     87  C   UNL     1       0.464  -2.239   8.085  1.00  0.00     0.141 A 
ATOM     88  N   UNL     1       0.101  -3.419   6.244  1.00  0.00    -0.062 NA
ATOM     89  C   UNL     1      -0.468  -3.211   8.353  1.00  0.00     0.093 A 
ATOM     90  N   UNL     1      -0.614  -3.973   7.224  1.00  0.00    -0.134 NA
BRANCH  89  91
ATOM     91  C   UNL     1      -1.042  -3.594   9.661  1.00  0.00     0.138 C 
BRANCH  91  92
ATOM     92  S   UNL     1      -2.603  -2.992  10.301  1.00  0.00    -0.081 SA
BRANCH  92  93
ATOM     93  C   UNL     1      -3.211  -1.546   9.542  1.00  0.00     0.176 A 
ATOM     94  N   UNL     1      -4.513  -1.535   9.500  1.00  0.00    -0.223 NA
ATOM     95  N   UNL     1      -2.466  -0.480   9.058  1.00  0.00    -0.255 N 
ATOM     96  C   UNL     1      -5.157  -0.498   8.817  1.00  0.00     0.079 A 
ATOM     97  C   UNL     1      -2.999   0.115   7.904  1.00  0.00     0.266 A 
ATOM     98  C   UNL     1      -6.520  -0.257   8.990  1.00  0.00     0.029 A 
ATOM     99  C   UNL     1      -4.464   0.242   7.872  1.00  0.00     0.066 A 
ATOM    100  O   UNL     1      -2.360   0.550   6.949  1.00  0.00    -0.268 OA
ATOM    101  C   UNL     1      -7.183   0.670   8.176  1.00  0.00     0.002 A 
ATOM    102  C   UNL     1      -5.119   1.131   7.013  1.00  0.00     0.016 A 
ATOM    103  C   UNL     1      -6.489   1.336   7.163  1.00  0.00     0.001 A 
BRANCH  95 104
ATOM    104  C   UNL     1      -1.246   0.066   9.620  1.00  0.00     0.051 A 
ATOM    105  C   UNL     1      -0.675   1.240   9.081  1.00  0.00     0.028 A 
ATOM    106  C   UNL     1      -0.570  -0.480  10.719  1.00  0.00     0.028 A 
ATOM    107  C   UNL     1       0.605   1.683   9.434  1.00  0.00     0.022 A 
ATOM    108  C   UNL     1       0.738  -0.083  11.045  1.00  0.00     0.022 A 
ATOM    109  C   UNL     1       1.337   0.970  10.366  1.00  0.00     0.041 A 
ATOM    110  Cl  UNL     1       2.982   1.367  10.656  1.00  0.00    -0.084 Cl
ENDBRANCH  95 104
ENDBRANCH  92  93
ENDBRANCH  91  92
ENDBRANCH  89  91
ENDBRANCH  85  86
ENDBRANCH  78  80
ENDBRANCH  77  78
ENDBRANCH  76  77
ENDBRANCH  75  76
ENDBRANCH  74  75
ENDBRANCH   1  74
TORSDOF 25
