REMARK SMILES O=C(Nc1ccc2c(c1)OCO2)N[C@H]1C=C[C@@H](C(=O)OCCOCCOCCOC(=O)c2ccc(-c3c4nc(c(-c5cccc(S(=O)(=O)[O-])c5F)c5ccc([nH]5)c(-c5cccc(S(=O)(=O)[O-])c5F)c5nc(c(-c6cccc(S(=O)(=O)[O-])c6F)c6ccc3[nH]6)C=C5)C=C4)cc2)C1
REMARK SMILES IDX 25 1 24 2 23 3 22 4 21 5 20 6 18 7 19 8 17 9 14 10 15 11
REMARK SMILES IDX 95 12 16 13 13 14 1 15 2 16 3 17 4 20 5 21 9 22 6 23 8 24
REMARK SMILES IDX 7 25 10 26 12 27 11 28 26 29 27 30 28 31 29 32 30 33 31 34
REMARK SMILES IDX 32 35 33 36 94 37 34 38 93 39 35 40 36 41 37 42 87 43 38 44
REMARK SMILES IDX 92 45 86 46 88 47 39 48 91 49 85 50 84 51 40 53 72 54 52 55
REMARK SMILES IDX 71 56 53 57 56 58 70 59 89 60 54 61 55 62 69 64 90 65 57 66
REMARK SMILES IDX 41 67 42 68 50 69 43 70 45 71 51 72 44 73 46 74 47 75 48 76
REMARK SMILES IDX 49 77 73 78 74 79 82 80 75 81 77 82 83 83 76 84 78 85 79 86
REMARK SMILES IDX 80 87 81 88 58 89 59 90 67 91 60 92 62 93 68 94 61 95 63 96
REMARK SMILES IDX 64 97 65 98 66 99
REMARK H PARENT 3 18 13 19 88 52 56 63
REMARK Flexibility Score: inf
ROOT
ATOM      1  C   UNL     1       3.262   5.850  -0.137  1.00  0.00     0.188 C 
ENDROOT
BRANCH   1   2
ATOM      2  C   UNL     1       3.260   7.078   0.786  1.00  0.00     0.188 C 
BRANCH   2   3
ATOM      3  O   UNL     1       4.455   7.841   0.893  1.00  0.00    -0.376 OA
BRANCH   3   4
ATOM      4  C   UNL     1       5.682   7.161   1.133  1.00  0.00     0.202 C 
BRANCH   4   5
ATOM      5  C   UNL     1       5.745   6.074   2.223  1.00  0.00     0.261 C 
BRANCH   5   6
ATOM      6  O   UNL     1       4.745   5.035   2.109  1.00  0.00    -0.463 OA
BRANCH   6   7
ATOM      7  C   UNL     1       4.149   4.648   3.267  1.00  0.00     0.312 C 
ATOM      8  O   UNL     1       4.484   5.064   4.373  1.00  0.00    -0.252 OA
BRANCH   7   9
ATOM      9  C   UNL     1       2.967   3.681   3.092  1.00  0.00     0.124 C 
ATOM     10  C   UNL     1       2.351   1.530   2.040  1.00  0.00     0.107 C 
ATOM     11  C   UNL     1       2.880   1.339   3.417  1.00  0.00    -0.006 C 
ATOM     12  C   UNL     1       2.711   2.991   1.745  1.00  0.00     0.048 C 
ATOM     13  C   UNL     1       3.183   2.503   4.001  1.00  0.00    -0.014 C 
BRANCH  10  14
ATOM     14  N   UNL     1       3.039   0.652   1.133  1.00  0.00    -0.332 N 
ATOM     15  O   UNL     1       1.185  -0.225   0.131  1.00  0.00    -0.248 OA
ATOM     16  C   UNL     1       2.406  -0.143   0.227  1.00  0.00     0.319 C 
ATOM     17  N   UNL     1       3.200  -0.787  -0.683  1.00  0.00    -0.308 N 
ATOM     18  H   UNL     1       2.717  -1.176  -1.448  1.00  0.00     0.171 HD
ATOM     19  H   UNL     1       4.023   0.623   1.169  1.00  0.00     0.165 HD
BRANCH  17  20
ATOM     20  C   UNL     1       4.591  -0.985  -0.703  1.00  0.00     0.046 A 
ATOM     21  C   UNL     1       5.366  -1.053   0.474  1.00  0.00     0.030 A 
ATOM     22  C   UNL     1       5.209  -1.114  -1.952  1.00  0.00     0.076 A 
ATOM     23  C   UNL     1       6.759  -1.140   0.415  1.00  0.00     0.053 A 
ATOM     24  C   UNL     1       6.586  -1.186  -1.980  1.00  0.00     0.167 A 
ATOM     25  C   UNL     1       7.340  -1.183  -0.830  1.00  0.00     0.165 A 
ATOM     26  O   UNL     1       7.356  -1.235  -3.101  1.00  0.00    -0.454 OA
ATOM     27  O   UNL     1       8.675  -1.227  -1.082  1.00  0.00    -0.454 OA
ATOM     28  C   UNL     1       8.677  -1.184  -2.523  1.00  0.00     0.468 C 
ENDBRANCH  17  20
ENDBRANCH  10  14
ENDBRANCH   7   9
ENDBRANCH   6   7
ENDBRANCH   5   6
ENDBRANCH   4   5
ENDBRANCH   3   4
ENDBRANCH   2   3
ENDBRANCH   1   2
BRANCH   1  29
ATOM     29  O   UNL     1       4.507   5.525  -0.707  1.00  0.00    -0.376 OA
BRANCH  29  30
ATOM     30  C   UNL     1       4.713   5.780  -2.084  1.00  0.00     0.202 C 
BRANCH  30  31
ATOM     31  C   UNL     1       4.136   7.018  -2.800  1.00  0.00     0.261 C 
BRANCH  31  32
ATOM     32  O   UNL     1       2.892   7.553  -2.327  1.00  0.00    -0.460 OA
BRANCH  32  33
ATOM     33  C   UNL     1       1.755   6.957  -2.754  1.00  0.00     0.338 C 
ATOM     34  O   UNL     1       1.674   5.991  -3.501  1.00  0.00    -0.246 OA
BRANCH  33  35
ATOM     35  C   UNL     1       0.629   7.515  -1.972  1.00  0.00     0.060 A 
ATOM     36  C   UNL     1      -0.086   6.673  -1.106  1.00  0.00     0.016 A 
ATOM     37  C   UNL     1       0.293   8.866  -2.075  1.00  0.00     0.016 A 
ATOM     38  C   UNL     1      -1.153   7.176  -0.358  1.00  0.00     0.010 A 
ATOM     39  C   UNL     1      -0.793   9.361  -1.346  1.00  0.00     0.010 A 
ATOM     40  C   UNL     1      -1.539   8.513  -0.505  1.00  0.00    -0.014 A 
BRANCH  40  41
ATOM     41  C   UNL     1      -2.821   8.987   0.074  1.00  0.00     0.031 A 
ATOM     42  C   UNL     1      -4.021   9.087  -0.829  1.00  0.00     0.074 A 
ATOM     43  C   UNL     1      -2.921   9.340   1.368  1.00  0.00     0.049 A 
ATOM     44  N   UNL     1      -5.218   9.543  -0.572  1.00  0.00    -0.248 NA
ATOM     45  C   UNL     1      -3.842   8.613  -2.212  1.00  0.00     0.031 C 
ATOM     46  C   UNL     1      -1.841   9.277   2.350  1.00  0.00     0.029 A 
ATOM     47  N   UNL     1      -3.985   9.855   2.070  1.00  0.00    -0.354 N 
ATOM     48  C   UNL     1      -5.924   9.446  -1.765  1.00  0.00     0.074 A 
ATOM     49  C   UNL     1      -5.020   8.894  -2.749  1.00  0.00     0.031 C 
ATOM     50  C   UNL     1      -2.286   9.770   3.519  1.00  0.00     0.029 A 
ATOM     51  C   UNL     1      -3.671  10.212   3.360  1.00  0.00     0.049 A 
ATOM     52  H   UNL     1      -4.886   9.958   1.685  1.00  0.00     0.167 HD
ATOM     53  C   UNL     1      -7.212   9.779  -2.018  1.00  0.00     0.034 A 
ATOM     54  C   UNL     1      -4.406  10.852   4.292  1.00  0.00     0.034 A 
ATOM     55  C   UNL     1      -8.115  10.316  -1.037  1.00  0.00     0.049 A 
ATOM     56  C   UNL     1      -5.827  11.245   3.974  1.00  0.00     0.074 A 
ATOM     57  C   UNL     1      -9.452  10.639  -1.187  1.00  0.00     0.029 A 
ATOM     58  N   UNL     1      -7.773  10.627   0.269  1.00  0.00    -0.354 N 
ATOM     59  N   UNL     1      -6.515  11.047   2.875  1.00  0.00    -0.248 NA
ATOM     60  C   UNL     1      -6.585  11.924   5.037  1.00  0.00     0.031 C 
ATOM     61  C   UNL     1      -9.908  11.184   0.017  1.00  0.00     0.029 A 
ATOM     62  C   UNL     1      -8.868  11.155   0.932  1.00  0.00     0.049 A 
ATOM     63  H   UNL     1      -6.883  10.492   0.667  1.00  0.00     0.167 HD
ATOM     64  C   UNL     1      -7.793  11.537   3.129  1.00  0.00     0.074 A 
ATOM     65  C   UNL     1      -7.789  12.024   4.492  1.00  0.00     0.031 C 
ATOM     66  C   UNL     1      -8.869  11.589   2.305  1.00  0.00     0.034 A 
BRANCH  53  67
ATOM     67  C   UNL     1      -7.729   9.565  -3.416  1.00  0.00     0.023 A 
ATOM     68  C   UNL     1      -7.960   8.257  -3.888  1.00  0.00     0.012 A 
ATOM     69  C   UNL     1      -8.044  10.664  -4.240  1.00  0.00     0.148 A 
ATOM     70  C   UNL     1      -8.469   8.045  -5.169  1.00  0.00     0.002 A 
ATOM     71  C   UNL     1      -8.596  10.445  -5.496  1.00  0.00     0.091 A 
ATOM     72  F   UNL     1      -7.796  11.898  -3.781  1.00  0.00    -0.205 F 
ATOM     73  C   UNL     1      -8.797   9.138  -5.967  1.00  0.00     0.022 A 
BRANCH  71  74
ATOM     74  S   UNL     1      -9.128  11.785  -6.567  1.00  0.00     0.127 S 
ATOM     75  O   UNL     1      -8.167  11.685  -7.665  1.00  0.00    -0.237 OA
ATOM     76  O   UNL     1     -10.491  11.378  -6.911  1.00  0.00    -0.237 OA
ATOM     77  O   UNL     1      -9.037  13.000  -5.770  1.00  0.00    -0.744 OA
ENDBRANCH  71  74
ENDBRANCH  53  67
BRANCH  54  78
ATOM     78  C   UNL     1      -3.821  11.158   5.630  1.00  0.00     0.023 A 
ATOM     79  C   UNL     1      -4.325  10.513   6.776  1.00  0.00     0.012 A 
ATOM     80  C   UNL     1      -2.778  12.094   5.773  1.00  0.00     0.148 A 
ATOM     81  C   UNL     1      -3.828  10.821   8.043  1.00  0.00     0.002 A 
ATOM     82  C   UNL     1      -2.248  12.354   7.031  1.00  0.00     0.091 A 
ATOM     83  F   UNL     1      -2.325  12.712   4.673  1.00  0.00    -0.205 F 
ATOM     84  C   UNL     1      -2.784  11.734   8.170  1.00  0.00     0.022 A 
BRANCH  82  85
ATOM     85  S   UNL     1      -0.826  13.423   7.277  1.00  0.00     0.127 S 
ATOM     86  O   UNL     1      -1.421  14.555   7.984  1.00  0.00    -0.237 OA
ATOM     87  O   UNL     1       0.046  12.577   8.092  1.00  0.00    -0.237 OA
ATOM     88  O   UNL     1      -0.313  13.710   5.945  1.00  0.00    -0.744 OA
ENDBRANCH  82  85
ENDBRANCH  54  78
BRANCH  66  89
ATOM     89  C   UNL     1     -10.158  12.144   2.861  1.00  0.00     0.023 A 
ATOM     90  C   UNL     1     -10.278  13.521   3.132  1.00  0.00     0.012 A 
ATOM     91  C   UNL     1     -11.275  11.305   3.047  1.00  0.00     0.148 A 
ATOM     92  C   UNL     1     -11.476  14.047   3.616  1.00  0.00     0.002 A 
ATOM     93  C   UNL     1     -12.481  11.845   3.477  1.00  0.00     0.091 A 
ATOM     94  F   UNL     1     -11.139   9.994   2.797  1.00  0.00    -0.205 F 
ATOM     95  C   UNL     1     -12.579  13.213   3.777  1.00  0.00     0.022 A 
BRANCH  93  96
ATOM     96  S   UNL     1     -13.981  10.866   3.619  1.00  0.00     0.127 S 
ATOM     97  O   UNL     1     -14.161  10.804   5.068  1.00  0.00    -0.237 OA
ATOM     98  O   UNL     1     -14.960  11.698   2.918  1.00  0.00    -0.237 OA
ATOM     99  O   UNL     1     -13.695   9.593   2.971  1.00  0.00    -0.744 OA
ENDBRANCH  93  96
ENDBRANCH  66  89
ENDBRANCH  40  41
ENDBRANCH  33  35
ENDBRANCH  32  33
ENDBRANCH  31  32
ENDBRANCH  30  31
ENDBRANCH  29  30
ENDBRANCH   1  29
TORSDOF 22
