REMARK SMILES C#CCNC(=O)C[N@@H+](CC(=O)OCCOCCOCCOC(=O)c1ccc(-c2c3nc(c(-c4cccc(S(=O)(=O)[O-])c4F)c4ccc([nH]4)c(-c4cccc(S(=O)(=O)[O-])c4F)c4nc(c(-c5cccc(S(=O)(=O)[O-])c5F)c5ccc2[nH]5)C=C4)C=C3)cc1)C(C)(C)C
REMARK SMILES IDX 16 1 15 2 14 3 13 4 12 5 10 6 11 7 9 8 8 9 7 11 5 12 4 13
REMARK SMILES IDX 6 15 3 16 2 17 1 18 87 19 88 20 89 21 90 22 17 23 18 24
REMARK SMILES IDX 19 25 20 26 21 27 22 28 23 29 24 30 25 31 86 32 26 33 85 34
REMARK SMILES IDX 27 35 28 36 29 37 79 38 30 39 84 40 78 41 80 42 31 43 83 44
REMARK SMILES IDX 77 45 76 46 32 48 64 49 44 50 63 51 45 52 48 53 62 54 81 55
REMARK SMILES IDX 46 56 47 57 61 59 82 60 49 61 33 62 34 63 42 64 35 65 37 66
REMARK SMILES IDX 43 67 36 68 38 69 39 70 40 71 41 72 65 73 66 74 74 75 67 76
REMARK SMILES IDX 69 77 75 78 68 79 70 80 71 81 72 82 73 83 50 84 51 85 59 86
REMARK SMILES IDX 52 87 54 88 60 89 53 90 55 91 56 92 57 93 58 94
REMARK H PARENT 8 10 4 14 80 47 48 58
REMARK Flexibility Score: inf
ROOT
ATOM      1  C   UNL     1      -3.592   2.696  -7.216  1.00  0.00     0.188 C 
ENDROOT
BRANCH   1   2
ATOM      2  O   UNL     1      -4.927   2.478  -7.651  1.00  0.00    -0.376 OA
BRANCH   2   3
ATOM      3  C   UNL     1      -5.924   2.449  -6.635  1.00  0.00     0.202 C 
BRANCH   3   4
ATOM      4  C   UNL     1      -5.891   1.271  -5.645  1.00  0.00     0.261 C 
BRANCH   4   5
ATOM      5  O   UNL     1      -4.778   1.214  -4.714  1.00  0.00    -0.459 OA
BRANCH   5   6
ATOM      6  C   UNL     1      -4.046   0.068  -4.749  1.00  0.00     0.361 C 
ATOM      7  O   UNL     1      -4.201  -0.800  -5.610  1.00  0.00    -0.245 OA
BRANCH   6   8
ATOM      8  C   UNL     1      -3.053  -0.193  -3.610  1.00  0.00     0.387 C 
BRANCH   8   9
ATOM      9  N   UNL     1      -2.737   0.809  -2.550  1.00  0.00    -0.314 N 
ATOM     10  H   UNL     1      -2.156   0.328  -1.864  1.00  0.00     0.349 HD
BRANCH   9  11
ATOM     11  C   UNL     1      -3.933   1.179  -1.766  1.00  0.00     0.364 C 
BRANCH  11  12
ATOM     12  C   UNL     1      -3.610   1.795  -0.403  1.00  0.00     0.275 C 
ATOM     13  N   UNL     1      -2.565   1.286   0.318  1.00  0.00    -0.340 N 
ATOM     14  H   UNL     1      -2.250   1.801   1.095  1.00  0.00     0.164 HD
ATOM     15  O   UNL     1      -4.283   2.710   0.072  1.00  0.00    -0.268 OA
BRANCH  13  16
ATOM     16  C   UNL     1      -1.902   0.059   0.020  1.00  0.00     0.206 C 
BRANCH  16  17
ATOM     17  C   UNL     1      -0.382   0.059   0.020  1.00  0.00    -0.085 C 
ATOM     18  C   UNL     1       0.922   0.059   0.020  1.00  0.00     0.006 C 
ENDBRANCH  16  17
ENDBRANCH  13  16
ENDBRANCH  11  12
ENDBRANCH   9  11
BRANCH   9  19
ATOM     19  C   UNL     1      -1.684   1.819  -2.832  1.00  0.00     0.090 C 
ATOM     20  C   UNL     1      -2.336   2.801  -3.761  1.00  0.00     0.078 C 
ATOM     21  C   UNL     1      -1.091   2.729  -1.711  1.00  0.00     0.078 C 
ATOM     22  C   UNL     1      -0.450   1.117  -3.459  1.00  0.00     0.078 C 
ENDBRANCH   9  19
ENDBRANCH   8   9
ENDBRANCH   6   8
ENDBRANCH   5   6
ENDBRANCH   4   5
ENDBRANCH   3   4
ENDBRANCH   2   3
ENDBRANCH   1   2
BRANCH   1  23
ATOM     23  C   UNL     1      -3.313   4.070  -6.578  1.00  0.00     0.188 C 
BRANCH  23  24
ATOM     24  O   UNL     1      -4.159   4.354  -5.467  1.00  0.00    -0.376 OA
BRANCH  24  25
ATOM     25  C   UNL     1      -3.878   5.478  -4.632  1.00  0.00     0.202 C 
BRANCH  25  26
ATOM     26  C   UNL     1      -3.096   6.668  -5.192  1.00  0.00     0.261 C 
BRANCH  26  27
ATOM     27  O   UNL     1      -1.831   6.323  -5.789  1.00  0.00    -0.460 OA
BRANCH  27  28
ATOM     28  C   UNL     1      -0.835   5.926  -4.962  1.00  0.00     0.338 C 
ATOM     29  O   UNL     1      -0.841   5.968  -3.742  1.00  0.00    -0.246 OA
BRANCH  28  30
ATOM     30  C   UNL     1       0.178   5.212  -5.778  1.00  0.00     0.060 A 
ATOM     31  C   UNL     1       0.523   3.903  -5.428  1.00  0.00     0.016 A 
ATOM     32  C   UNL     1       0.769   5.796  -6.894  1.00  0.00     0.016 A 
ATOM     33  C   UNL     1       1.439   3.163  -6.167  1.00  0.00     0.010 A 
ATOM     34  C   UNL     1       1.721   5.071  -7.623  1.00  0.00     0.010 A 
ATOM     35  C   UNL     1       2.078   3.759  -7.250  1.00  0.00    -0.014 A 
BRANCH  35  36
ATOM     36  C   UNL     1       3.255   3.091  -7.855  1.00  0.00     0.031 A 
ATOM     37  C   UNL     1       4.615   3.652  -7.556  1.00  0.00     0.074 A 
ATOM     38  C   UNL     1       3.135   1.999  -8.631  1.00  0.00     0.049 A 
ATOM     39  N   UNL     1       5.770   3.360  -8.091  1.00  0.00    -0.248 NA
ATOM     40  C   UNL     1       4.677   4.690  -6.513  1.00  0.00     0.031 C 
ATOM     41  C   UNL     1       1.885   1.305  -8.932  1.00  0.00     0.029 A 
ATOM     42  N   UNL     1       4.088   1.305  -9.337  1.00  0.00    -0.354 N 
ATOM     43  C   UNL     1       6.681   4.233  -7.513  1.00  0.00     0.074 A 
ATOM     44  C   UNL     1       5.950   5.050  -6.569  1.00  0.00     0.031 C 
ATOM     45  C   UNL     1       2.139   0.312  -9.801  1.00  0.00     0.029 A 
ATOM     46  C   UNL     1       3.557   0.340 -10.159  1.00  0.00     0.049 A 
ATOM     47  H   UNL     1       5.053   1.481  -9.261  1.00  0.00     0.167 HD
ATOM     48  C   UNL     1       8.007   4.349  -7.753  1.00  0.00     0.034 A 
ATOM     49  C   UNL     1       4.134  -0.391 -11.134  1.00  0.00     0.034 A 
ATOM     50  C   UNL     1       8.736   3.508  -8.661  1.00  0.00     0.049 A 
ATOM     51  C   UNL     1       5.604  -0.221 -11.415  1.00  0.00     0.074 A 
ATOM     52  C   UNL     1      10.091   3.512  -8.935  1.00  0.00     0.029 A 
ATOM     53  N   UNL     1       8.169   2.524  -9.456  1.00  0.00    -0.354 N 
ATOM     54  N   UNL     1       6.472   0.566 -10.826  1.00  0.00    -0.248 NA
ATOM     55  C   UNL     1       6.179  -1.053 -12.482  1.00  0.00     0.031 C 
ATOM     56  C   UNL     1      10.337   2.563  -9.932  1.00  0.00     0.029 A 
ATOM     57  C   UNL     1       9.143   1.931 -10.241  1.00  0.00     0.049 A 
ATOM     58  H   UNL     1       7.215   2.282  -9.462  1.00  0.00     0.167 HD
ATOM     59  C   UNL     1       7.699   0.304 -11.429  1.00  0.00     0.074 A 
ATOM     60  C   UNL     1       7.464  -0.729 -12.416  1.00  0.00     0.031 C 
ATOM     61  C   UNL     1       8.907   0.874 -11.192  1.00  0.00     0.034 A 
BRANCH  48  62
ATOM     62  C   UNL     1       8.745   5.455  -7.047  1.00  0.00     0.023 A 
ATOM     63  C   UNL     1       8.984   5.386  -5.660  1.00  0.00     0.012 A 
ATOM     64  C   UNL     1       9.220   6.561  -7.777  1.00  0.00     0.148 A 
ATOM     65  C   UNL     1       9.646   6.425  -5.004  1.00  0.00     0.002 A 
ATOM     66  C   UNL     1       9.925   7.565  -7.127  1.00  0.00     0.091 A 
ATOM     67  F   UNL     1       8.958   6.621  -9.091  1.00  0.00    -0.205 F 
ATOM     68  C   UNL     1      10.125   7.507  -5.738  1.00  0.00     0.022 A 
BRANCH  66  69
ATOM     69  S   UNL     1      10.652   8.954  -8.001  1.00  0.00     0.127 S 
ATOM     70  O   UNL     1       9.792  10.056  -7.572  1.00  0.00    -0.237 OA
ATOM     71  O   UNL     1      12.007   8.987  -7.449  1.00  0.00    -0.237 OA
ATOM     72  O   UNL     1      10.582   8.619  -9.417  1.00  0.00    -0.744 OA
ENDBRANCH  66  69
ENDBRANCH  48  62
BRANCH  49  73
ATOM     73  C   UNL     1       3.304  -1.331 -11.941  1.00  0.00     0.023 A 
ATOM     74  C   UNL     1       3.491  -2.720 -11.815  1.00  0.00     0.012 A 
ATOM     75  C   UNL     1       2.308  -0.846 -12.812  1.00  0.00     0.148 A 
ATOM     76  C   UNL     1       2.715  -3.610 -12.559  1.00  0.00     0.002 A 
ATOM     77  C   UNL     1       1.499  -1.738 -13.504  1.00  0.00     0.091 A 
ATOM     78  F   UNL     1       2.161   0.481 -12.931  1.00  0.00    -0.205 F 
ATOM     79  C   UNL     1       1.711  -3.121 -13.392  1.00  0.00     0.022 A 
BRANCH  77  80
ATOM     80  S   UNL     1       0.102  -1.204 -14.498  1.00  0.00     0.127 S 
ATOM     81  O   UNL     1       0.520  -1.602 -15.840  1.00  0.00    -0.237 OA
ATOM     82  O   UNL     1      -0.987  -1.998 -13.931  1.00  0.00    -0.237 OA
ATOM     83  O   UNL     1      -0.016   0.231 -14.277  1.00  0.00    -0.744 OA
ENDBRANCH  77  80
ENDBRANCH  49  73
BRANCH  61  84
ATOM     84  C   UNL     1      10.091   0.371 -11.979  1.00  0.00     0.023 A 
ATOM     85  C   UNL     1      10.214   0.678 -13.348  1.00  0.00     0.012 A 
ATOM     86  C   UNL     1      11.125  -0.338 -11.334  1.00  0.00     0.148 A 
ATOM     87  C   UNL     1      11.333   0.260 -14.070  1.00  0.00     0.002 A 
ATOM     88  C   UNL     1      12.260  -0.704 -12.047  1.00  0.00     0.091 A 
ATOM     89  F   UNL     1      10.982  -0.634 -10.034  1.00  0.00    -0.205 F 
ATOM     90  C   UNL     1      12.360  -0.418 -13.418  1.00  0.00     0.022 A 
BRANCH  88  91
ATOM     91  S   UNL     1      13.676  -1.490 -11.269  1.00  0.00     0.127 S 
ATOM     92  O   UNL     1      13.616  -2.837 -11.834  1.00  0.00    -0.237 OA
ATOM     93  O   UNL     1      14.789  -0.674 -11.754  1.00  0.00    -0.237 OA
ATOM     94  O   UNL     1      13.445  -1.408  -9.833  1.00  0.00    -0.744 OA
ENDBRANCH  88  91
ENDBRANCH  61  84
ENDBRANCH  35  36
ENDBRANCH  28  30
ENDBRANCH  27  28
ENDBRANCH  26  27
ENDBRANCH  25  26
ENDBRANCH  24  25
ENDBRANCH  23  24
ENDBRANCH   1  23
TORSDOF 26
