REMARK SMILES O=C(CS(=O)(=O)NCc1ccc(N2CCOCC2)nc1)OCCOCCOCCOC(=O)c1ccc(-c2c3nc(c(-c4cccc(S(=O)(=O)[O-])c4F)c4ccc([nH]4)c(-c4cccc(S(=O)(=O)[O-])c4F)c4nc(c(-c5cccc(S(=O)(=O)[O-])c5F)c5ccc2[nH]5)C=C4)C=C3)cc1
REMARK SMILES IDX 25 1 24 2 23 3 22 4 21 5 2 6 1 7 3 8 4 9 5 10 6 11 7 12 8 14
REMARK SMILES IDX 9 15 10 16 20 17 11 18 19 19 12 20 13 21 14 22 18 23 15 24
REMARK SMILES IDX 17 25 16 26 26 27 27 28 28 29 29 30 30 31 31 32 32 33 33 34
REMARK SMILES IDX 34 35 95 36 35 37 94 38 36 39 37 40 38 41 88 42 39 43 93 44
REMARK SMILES IDX 87 45 89 46 40 47 92 48 86 49 85 50 41 52 73 53 53 54 72 55
REMARK SMILES IDX 54 56 57 57 71 58 90 59 55 60 56 61 70 63 91 64 58 65 42 66
REMARK SMILES IDX 43 67 51 68 44 69 46 70 52 71 45 72 47 73 48 74 49 75 50 76
REMARK SMILES IDX 74 77 75 78 83 79 76 80 78 81 84 82 77 83 79 84 80 85 81 86
REMARK SMILES IDX 82 87 59 88 60 89 68 90 61 91 63 92 69 93 62 94 64 95 65 96
REMARK SMILES IDX 66 97 67 98
REMARK H PARENT 7 13 89 51 57 62
REMARK Flexibility Score: inf
ROOT
ATOM      1  C   UNL     1       3.343   2.008   1.106  1.00  0.00     0.188 C 
ENDROOT
BRANCH   1   2
ATOM      2  O   UNL     1       4.710   1.879   0.768  1.00  0.00    -0.376 OA
BRANCH   2   3
ATOM      3  C   UNL     1       5.171   0.609   0.345  1.00  0.00     0.202 C 
BRANCH   3   4
ATOM      4  C   UNL     1       4.450   0.059  -0.873  1.00  0.00     0.261 C 
BRANCH   4   5
ATOM      5  O   UNL     1       3.041  -0.254  -0.712  1.00  0.00    -0.462 OA
BRANCH   5   6
ATOM      6  C   UNL     1       2.355  -1.028   0.145  1.00  0.00     0.322 C 
ATOM      7  O   UNL     1       1.138  -1.129  -0.029  1.00  0.00    -0.251 OA
BRANCH   6   8
ATOM      8  C   UNL     1       2.973  -1.660   1.332  1.00  0.00     0.276 C 
BRANCH   8   9
ATOM      9  S   UNL     1       3.951  -3.069   0.950  1.00  0.00     0.222 S 
ATOM     10  O   UNL     1       5.010  -2.688   0.049  1.00  0.00    -0.212 OA
ATOM     11  O   UNL     1       4.286  -3.695   2.211  1.00  0.00    -0.212 OA
BRANCH   9  12
ATOM     12  N   UNL     1       2.951  -4.158   0.209  1.00  0.00    -0.210 NA
ATOM     13  H   UNL     1       2.178  -4.294   0.861  1.00  0.00     0.141 HD
BRANCH  12  14
ATOM     14  C   UNL     1       2.322  -4.011  -1.097  1.00  0.00     0.135 C 
BRANCH  14  15
ATOM     15  C   UNL     1       3.221  -3.564  -2.207  1.00  0.00    -0.015 A 
ATOM     16  C   UNL     1       2.977  -2.394  -2.921  1.00  0.00     0.010 A 
ATOM     17  C   UNL     1       4.363  -4.283  -2.547  1.00  0.00     0.118 A 
ATOM     18  C   UNL     1       3.908  -1.963  -3.857  1.00  0.00     0.047 A 
ATOM     19  N   UNL     1       5.256  -3.905  -3.493  1.00  0.00    -0.239 NA
ATOM     20  C   UNL     1       5.040  -2.731  -4.108  1.00  0.00     0.128 A 
BRANCH  20  21
ATOM     21  N   UNL     1       5.936  -2.283  -5.034  1.00  0.00    -0.352 N 
ATOM     22  C   UNL     1       7.092  -1.489  -4.656  1.00  0.00     0.146 C 
ATOM     23  C   UNL     1       5.924  -2.821  -6.379  1.00  0.00     0.146 C 
ATOM     24  C   UNL     1       7.250  -0.366  -5.700  1.00  0.00     0.181 C 
ATOM     25  C   UNL     1       6.081  -1.631  -7.339  1.00  0.00     0.181 C 
ATOM     26  O   UNL     1       7.276  -0.875  -7.051  1.00  0.00    -0.378 OA
ENDBRANCH  20  21
ENDBRANCH  14  15
ENDBRANCH  12  14
ENDBRANCH   9  12
ENDBRANCH   8   9
ENDBRANCH   6   8
ENDBRANCH   5   6
ENDBRANCH   4   5
ENDBRANCH   3   4
ENDBRANCH   2   3
ENDBRANCH   1   2
BRANCH   1  27
ATOM     27  C   UNL     1       2.466   2.727   0.059  1.00  0.00     0.188 C 
BRANCH  27  28
ATOM     28  O   UNL     1       3.052   3.522  -0.965  1.00  0.00    -0.376 OA
BRANCH  28  29
ATOM     29  C   UNL     1       4.261   4.225  -0.720  1.00  0.00     0.202 C 
BRANCH  29  30
ATOM     30  C   UNL     1       4.278   5.298   0.378  1.00  0.00     0.261 C 
BRANCH  30  31
ATOM     31  O   UNL     1       3.933   4.827   1.692  1.00  0.00    -0.460 OA
BRANCH  31  32
ATOM     32  C   UNL     1       2.728   5.232   2.168  1.00  0.00     0.338 C 
ATOM     33  O   UNL     1       1.940   5.981   1.612  1.00  0.00    -0.246 OA
BRANCH  32  34
ATOM     34  C   UNL     1       2.379   4.483   3.400  1.00  0.00     0.060 A 
ATOM     35  C   UNL     1       1.125   3.855   3.448  1.00  0.00     0.016 A 
ATOM     36  C   UNL     1       3.243   4.400   4.495  1.00  0.00     0.016 A 
ATOM     37  C   UNL     1       0.705   3.199   4.607  1.00  0.00     0.010 A 
ATOM     38  C   UNL     1       2.812   3.760   5.666  1.00  0.00     0.010 A 
ATOM     39  C   UNL     1       1.523   3.197   5.744  1.00  0.00    -0.014 A 
BRANCH  39  40
ATOM     40  C   UNL     1       0.938   2.834   7.062  1.00  0.00     0.031 A 
ATOM     41  C   UNL     1       0.423   3.949   7.938  1.00  0.00     0.074 A 
ATOM     42  C   UNL     1       0.843   1.560   7.482  1.00  0.00     0.049 A 
ATOM     43  N   UNL     1      -0.116   3.891   9.127  1.00  0.00    -0.248 NA
ATOM     44  C   UNL     1       0.533   5.314   7.393  1.00  0.00     0.031 C 
ATOM     45  C   UNL     1       1.286   0.384   6.737  1.00  0.00     0.029 A 
ATOM     46  N   UNL     1       0.356   1.047   8.662  1.00  0.00    -0.354 N 
ATOM     47  C   UNL     1      -0.382   5.208   9.486  1.00  0.00     0.074 A 
ATOM     48  C   UNL     1       0.065   6.044   8.394  1.00  0.00     0.031 C 
ATOM     49  C   UNL     1       1.080  -0.712   7.491  1.00  0.00     0.029 A 
ATOM     50  C   UNL     1       0.507  -0.315   8.778  1.00  0.00     0.049 A 
ATOM     51  H   UNL     1      -0.062   1.604   9.358  1.00  0.00     0.167 HD
ATOM     52  C   UNL     1      -0.960   5.685  10.614  1.00  0.00     0.034 A 
ATOM     53  C   UNL     1       0.234  -1.141   9.809  1.00  0.00     0.034 A 
ATOM     54  C   UNL     1      -1.421   4.862  11.698  1.00  0.00     0.049 A 
ATOM     55  C   UNL     1      -0.381  -0.582  11.070  1.00  0.00     0.074 A 
ATOM     56  C   UNL     1      -2.057   5.254  12.863  1.00  0.00     0.029 A 
ATOM     57  N   UNL     1      -1.283   3.486  11.761  1.00  0.00    -0.354 N 
ATOM     58  N   UNL     1      -0.738   0.650  11.343  1.00  0.00    -0.248 NA
ATOM     59  C   UNL     1      -0.662  -1.537  12.155  1.00  0.00     0.031 C 
ATOM     60  C   UNL     1      -2.278   4.115  13.644  1.00  0.00     0.029 A 
ATOM     61  C   UNL     1      -1.810   3.012  12.950  1.00  0.00     0.049 A 
ATOM     62  H   UNL     1      -0.871   2.927  11.063  1.00  0.00     0.167 HD
ATOM     63  C   UNL     1      -1.320   0.611  12.607  1.00  0.00     0.074 A 
ATOM     64  C   UNL     1      -1.285  -0.770  13.040  1.00  0.00     0.031 C 
ATOM     65  C   UNL     1      -1.827   1.628  13.348  1.00  0.00     0.034 A 
BRANCH  52  66
ATOM     66  C   UNL     1      -1.145   7.175  10.722  1.00  0.00     0.023 A 
ATOM     67  C   UNL     1      -2.129   7.815   9.941  1.00  0.00     0.012 A 
ATOM     68  C   UNL     1      -0.377   7.933  11.627  1.00  0.00     0.148 A 
ATOM     69  C   UNL     1      -2.324   9.192  10.036  1.00  0.00     0.002 A 
ATOM     70  C   UNL     1      -0.609   9.297  11.749  1.00  0.00     0.091 A 
ATOM     71  F   UNL     1       0.570   7.309  12.341  1.00  0.00    -0.205 F 
ATOM     72  C   UNL     1      -1.572   9.930  10.947  1.00  0.00     0.022 A 
BRANCH  70  73
ATOM     73  S   UNL     1       0.253  10.321  12.947  1.00  0.00     0.127 S 
ATOM     74  O   UNL     1       1.119  11.121  12.082  1.00  0.00    -0.237 OA
ATOM     75  O   UNL     1      -0.847  11.063  13.565  1.00  0.00    -0.237 OA
ATOM     76  O   UNL     1       0.941   9.400  13.841  1.00  0.00    -0.744 OA
ENDBRANCH  70  73
ENDBRANCH  52  66
BRANCH  53  77
ATOM     77  C   UNL     1       0.510  -2.602   9.695  1.00  0.00     0.023 A 
ATOM     78  C   UNL     1      -0.564  -3.513   9.652  1.00  0.00     0.012 A 
ATOM     79  C   UNL     1       1.828  -3.094   9.641  1.00  0.00     0.148 A 
ATOM     80  C   UNL     1      -0.330  -4.888   9.592  1.00  0.00     0.002 A 
ATOM     81  C   UNL     1       2.054  -4.461   9.526  1.00  0.00     0.091 A 
ATOM     82  F   UNL     1       2.837  -2.214   9.704  1.00  0.00    -0.205 F 
ATOM     83  C   UNL     1       0.977  -5.361   9.519  1.00  0.00     0.022 A 
BRANCH  81  84
ATOM     84  S   UNL     1       3.697  -5.153   9.308  1.00  0.00     0.127 S 
ATOM     85  O   UNL     1       3.906  -5.835  10.583  1.00  0.00    -0.237 OA
ATOM     86  O   UNL     1       3.497  -6.039   8.160  1.00  0.00    -0.237 OA
ATOM     87  O   UNL     1       4.569  -4.016   9.047  1.00  0.00    -0.744 OA
ENDBRANCH  81  84
ENDBRANCH  53  77
BRANCH  65  88
ATOM     88  C   UNL     1      -2.434   1.295  14.688  1.00  0.00     0.023 A 
ATOM     89  C   UNL     1      -1.605   0.930  15.767  1.00  0.00     0.012 A 
ATOM     90  C   UNL     1      -3.822   1.426  14.899  1.00  0.00     0.148 A 
ATOM     91  C   UNL     1      -2.151   0.667  17.024  1.00  0.00     0.002 A 
ATOM     92  C   UNL     1      -4.353   1.210  16.166  1.00  0.00     0.091 A 
ATOM     93  F   UNL     1      -4.599   1.758  13.857  1.00  0.00    -0.205 F 
ATOM     94  C   UNL     1      -3.520   0.818  17.226  1.00  0.00     0.022 A 
BRANCH  92  95
ATOM     95  S   UNL     1      -6.090   1.478  16.541  1.00  0.00     0.127 S 
ATOM     96  O   UNL     1      -6.581   0.107  16.672  1.00  0.00    -0.237 OA
ATOM     97  O   UNL     1      -6.026   2.226  17.797  1.00  0.00    -0.237 OA
ATOM     98  O   UNL     1      -6.630   2.232  15.417  1.00  0.00    -0.744 OA
ENDBRANCH  92  95
ENDBRANCH  65  88
ENDBRANCH  39  40
ENDBRANCH  32  34
ENDBRANCH  31  32
ENDBRANCH  30  31
ENDBRANCH  29  30
ENDBRANCH  28  29
ENDBRANCH  27  28
ENDBRANCH   1  27
TORSDOF 25
