REMARK SMILES Cc1cc(NC(=O)Nc2sc(C)c(C)c2C(=O)OCCOCCOCCOC(=O)c2ccc(-c3c4nc(c(-c5cccc(S(=O)(=O)[O-])c5F)c5ccc([nH]5)c(-c5cccc(S(=O)(=O)[O-])c5F)c5nc(c(-c6cccc(S(=O)(=O)[O-])c6F)c6ccc3[nH]6)C=C5)C=C4)cc2)ccn1
REMARK SMILES IDX 23 1 22 2 21 3 20 4 19 5 18 6 16 7 17 8 15 9 9 10 10 11
REMARK SMILES IDX 11 12 13 13 12 14 14 15 8 16 5 17 6 18 7 20 4 22 1 23 2 24
REMARK SMILES IDX 3 25 95 26 94 27 93 28 24 29 25 30 26 31 27 32 28 33 29 34
REMARK SMILES IDX 30 35 31 36 92 37 32 38 91 39 33 40 34 41 35 42 85 43 36 44
REMARK SMILES IDX 90 45 84 46 86 47 37 48 89 49 83 50 82 51 38 53 70 54 50 55
REMARK SMILES IDX 69 56 51 57 54 58 68 59 87 60 52 61 53 62 67 64 88 65 55 66
REMARK SMILES IDX 39 67 40 68 48 69 41 70 43 71 49 72 42 73 44 74 45 75 46 76
REMARK SMILES IDX 47 77 71 78 72 79 80 80 73 81 75 82 81 83 74 84 76 85 77 86
REMARK SMILES IDX 78 87 79 88 56 89 57 90 65 91 58 92 60 93 66 94 59 95 61 96
REMARK SMILES IDX 62 97 63 98 64 99
REMARK H PARENT 5 19 8 21 86 52 54 63
REMARK Flexibility Score: inf
ROOT
ATOM      1  C   UNL     1      -4.124   0.396   3.656  1.00  0.00     0.188 C 
ENDROOT
BRANCH   1   2
ATOM      2  C   UNL     1      -4.731   1.787   3.897  1.00  0.00     0.188 C 
BRANCH   2   3
ATOM      3  O   UNL     1      -6.141   1.962   3.994  1.00  0.00    -0.376 OA
BRANCH   3   4
ATOM      4  C   UNL     1      -7.030   0.979   3.496  1.00  0.00     0.202 C 
BRANCH   4   5
ATOM      5  C   UNL     1      -7.254   0.983   1.983  1.00  0.00     0.261 C 
BRANCH   5   6
ATOM      6  O   UNL     1      -6.049   0.783   1.220  1.00  0.00    -0.460 OA
BRANCH   6   7
ATOM      7  C   UNL     1      -5.551   1.916   0.638  1.00  0.00     0.341 C 
ATOM      8  O   UNL     1      -6.104   3.008   0.703  1.00  0.00    -0.246 OA
BRANCH   7   9
ATOM      9  C   UNL     1      -4.287   1.730  -0.082  1.00  0.00     0.098 A 
ATOM     10  C   UNL     1      -3.719   0.533  -0.499  1.00  0.00     0.112 A 
ATOM     11  S   UNL     1      -2.576   0.819  -1.735  1.00  0.00    -0.122 S 
ATOM     12  C   UNL     1      -2.323   2.412  -1.188  1.00  0.00     0.007 A 
ATOM     13  C   UNL     1      -3.337   2.813  -0.333  1.00  0.00    -0.021 A 
ATOM     14  C   UNL     1      -1.128   3.176  -1.649  1.00  0.00     0.057 C 
ATOM     15  C   UNL     1      -3.419   4.166   0.312  1.00  0.00     0.046 C 
BRANCH  10  16
ATOM     16  N   UNL     1      -4.043  -0.766  -0.155  1.00  0.00    -0.298 N 
ATOM     17  N   UNL     1      -1.990  -2.002  -0.349  1.00  0.00    -0.308 N 
ATOM     18  C   UNL     1      -3.346  -1.920  -0.321  1.00  0.00     0.324 C 
ATOM     19  H   UNL     1      -1.660  -2.788  -0.841  1.00  0.00     0.171 HD
ATOM     20  O   UNL     1      -3.981  -2.976  -0.432  1.00  0.00    -0.248 OA
ATOM     21  H   UNL     1      -4.919  -0.873   0.281  1.00  0.00     0.172 HD
BRANCH  17  22
ATOM     22  C   UNL     1      -0.951  -1.201   0.176  1.00  0.00     0.046 A 
ATOM     23  C   UNL     1       2.782  -0.784  -0.354  1.00  0.00     0.067 C 
ATOM     24  C   UNL     1       1.383  -0.603   0.150  1.00  0.00     0.039 A 
ATOM     25  C   UNL     1       0.350  -1.436  -0.280  1.00  0.00     0.049 A 
ATOM     26  N   UNL     1       1.173   0.438   0.983  1.00  0.00    -0.261 NA
ATOM     27  C   UNL     1      -0.080   0.619   1.437  1.00  0.00     0.113 A 
ATOM     28  C   UNL     1      -1.149  -0.193   1.108  1.00  0.00     0.046 A 
ENDBRANCH  17  22
ENDBRANCH  10  16
ENDBRANCH   7   9
ENDBRANCH   6   7
ENDBRANCH   5   6
ENDBRANCH   4   5
ENDBRANCH   3   4
ENDBRANCH   2   3
ENDBRANCH   1   2
BRANCH   1  29
ATOM     29  O   UNL     1      -4.763  -0.646   4.382  1.00  0.00    -0.376 OA
BRANCH  29  30
ATOM     30  C   UNL     1      -3.955  -1.308   5.348  1.00  0.00     0.202 C 
BRANCH  30  31
ATOM     31  C   UNL     1      -3.931  -0.551   6.678  1.00  0.00     0.261 C 
BRANCH  31  32
ATOM     32  O   UNL     1      -3.248   0.710   6.614  1.00  0.00    -0.460 OA
BRANCH  32  33
ATOM     33  C   UNL     1      -1.921   0.654   6.360  1.00  0.00     0.338 C 
ATOM     34  O   UNL     1      -1.250  -0.349   6.193  1.00  0.00    -0.246 OA
BRANCH  33  35
ATOM     35  C   UNL     1      -1.436   2.027   6.130  1.00  0.00     0.060 A 
ATOM     36  C   UNL     1      -0.673   2.273   4.984  1.00  0.00     0.016 A 
ATOM     37  C   UNL     1      -1.710   3.054   7.035  1.00  0.00     0.016 A 
ATOM     38  C   UNL     1      -0.166   3.550   4.742  1.00  0.00     0.010 A 
ATOM     39  C   UNL     1      -1.182   4.326   6.806  1.00  0.00     0.010 A 
ATOM     40  C   UNL     1      -0.390   4.574   5.672  1.00  0.00    -0.014 A 
BRANCH  40  41
ATOM     41  C   UNL     1       0.331   5.862   5.551  1.00  0.00     0.031 A 
ATOM     42  C   UNL     1       1.650   6.019   6.253  1.00  0.00     0.074 A 
ATOM     43  C   UNL     1      -0.195   6.889   4.860  1.00  0.00     0.049 A 
ATOM     44  N   UNL     1       2.439   7.059   6.309  1.00  0.00    -0.248 NA
ATOM     45  C   UNL     1       2.143   4.845   6.994  1.00  0.00     0.031 C 
ATOM     46  C   UNL     1      -1.469   6.866   4.145  1.00  0.00     0.029 A 
ATOM     47  N   UNL     1       0.275   8.165   4.675  1.00  0.00    -0.354 N 
ATOM     48  C   UNL     1       3.515   6.673   7.097  1.00  0.00     0.074 A 
ATOM     49  C   UNL     1       3.272   5.308   7.510  1.00  0.00     0.031 C 
ATOM     50  C   UNL     1      -1.695   8.084   3.621  1.00  0.00     0.029 A 
ATOM     51  C   UNL     1      -0.590   8.974   3.976  1.00  0.00     0.049 A 
ATOM     52  H   UNL     1       1.148   8.473   5.010  1.00  0.00     0.167 HD
ATOM     53  C   UNL     1       4.619   7.381   7.430  1.00  0.00     0.034 A 
ATOM     54  C   UNL     1      -0.503  10.284   3.673  1.00  0.00     0.034 A 
ATOM     55  C   UNL     1       4.868   8.736   7.020  1.00  0.00     0.049 A 
ATOM     56  C   UNL     1       0.717  11.065   4.095  1.00  0.00     0.074 A 
ATOM     57  C   UNL     1       5.977   9.522   7.276  1.00  0.00     0.029 A 
ATOM     58  N   UNL     1       3.988   9.511   6.282  1.00  0.00    -0.354 N 
ATOM     59  N   UNL     1       1.792  10.646   4.716  1.00  0.00    -0.248 NA
ATOM     60  C   UNL     1       0.745  12.494   3.747  1.00  0.00     0.031 C 
ATOM     61  C   UNL     1       5.762  10.780   6.701  1.00  0.00     0.029 A 
ATOM     62  C   UNL     1       4.522  10.771   6.081  1.00  0.00     0.049 A 
ATOM     63  H   UNL     1       3.112   9.209   5.949  1.00  0.00     0.167 HD
ATOM     64  C   UNL     1       2.638  11.747   4.803  1.00  0.00     0.074 A 
ATOM     65  C   UNL     1       1.956  12.849   4.155  1.00  0.00     0.031 C 
ATOM     66  C   UNL     1       3.861  11.843   5.382  1.00  0.00     0.034 A 
BRANCH  53  67
ATOM     67  C   UNL     1       5.666   6.678   8.247  1.00  0.00     0.023 A 
ATOM     68  C   UNL     1       6.511   5.740   7.618  1.00  0.00     0.012 A 
ATOM     69  C   UNL     1       5.838   6.959   9.615  1.00  0.00     0.148 A 
ATOM     70  C   UNL     1       7.496   5.075   8.345  1.00  0.00     0.002 A 
ATOM     71  C   UNL     1       6.845   6.315  10.326  1.00  0.00     0.091 A 
ATOM     72  F   UNL     1       5.002   7.827  10.202  1.00  0.00    -0.205 F 
ATOM     73  C   UNL     1       7.670   5.369   9.695  1.00  0.00     0.022 A 
BRANCH  71  74
ATOM     74  S   UNL     1       7.175   6.677  12.054  1.00  0.00     0.127 S 
ATOM     75  O   UNL     1       6.527   5.549  12.721  1.00  0.00    -0.237 OA
ATOM     76  O   UNL     1       8.638   6.656  12.105  1.00  0.00    -0.237 OA
ATOM     77  O   UNL     1       6.584   7.984  12.302  1.00  0.00    -0.744 OA
ENDBRANCH  71  74
ENDBRANCH  53  67
BRANCH  54  78
ATOM     78  C   UNL     1      -1.583  10.938   2.882  1.00  0.00     0.023 A 
ATOM     79  C   UNL     1      -1.324  11.321   1.552  1.00  0.00     0.012 A 
ATOM     80  C   UNL     1      -2.858  11.173   3.430  1.00  0.00     0.148 A 
ATOM     81  C   UNL     1      -2.309  11.947   0.788  1.00  0.00     0.002 A 
ATOM     82  C   UNL     1      -3.850  11.754   2.648  1.00  0.00     0.091 A 
ATOM     83  F   UNL     1      -3.076  10.823   4.706  1.00  0.00    -0.205 F 
ATOM     84  C   UNL     1      -3.574  12.154   1.332  1.00  0.00     0.022 A 
BRANCH  82  85
ATOM     85  S   UNL     1      -5.537  11.958   3.232  1.00  0.00     0.127 S 
ATOM     86  O   UNL     1      -5.602  13.399   3.462  1.00  0.00    -0.237 OA
ATOM     87  O   UNL     1      -6.314  11.481   2.087  1.00  0.00    -0.237 OA
ATOM     88  O   UNL     1      -5.642  11.119   4.418  1.00  0.00    -0.744 OA
ENDBRANCH  82  85
ENDBRANCH  54  78
BRANCH  66  89
ATOM     89  C   UNL     1       4.562  13.175   5.329  1.00  0.00     0.023 A 
ATOM     90  C   UNL     1       4.137  14.217   6.176  1.00  0.00     0.012 A 
ATOM     91  C   UNL     1       5.694  13.367   4.512  1.00  0.00     0.148 A 
ATOM     92  C   UNL     1       4.813  15.436   6.195  1.00  0.00     0.002 A 
ATOM     93  C   UNL     1       6.387  14.571   4.565  1.00  0.00     0.091 A 
ATOM     94  F   UNL     1       6.072  12.371   3.696  1.00  0.00    -0.205 F 
ATOM     95  C   UNL     1       5.944  15.609   5.400  1.00  0.00     0.022 A 
BRANCH  93  96
ATOM     96  S   UNL     1       7.905  14.841   3.641  1.00  0.00     0.127 S 
ATOM     97  O   UNL     1       7.431  15.641   2.514  1.00  0.00    -0.237 OA
ATOM     98  O   UNL     1       8.734  15.571   4.601  1.00  0.00    -0.237 OA
ATOM     99  O   UNL     1       8.405  13.514   3.307  1.00  0.00    -0.744 OA
ENDBRANCH  93  96
ENDBRANCH  66  89
ENDBRANCH  40  41
ENDBRANCH  33  35
ENDBRANCH  32  33
ENDBRANCH  31  32
ENDBRANCH  30  31
ENDBRANCH  29  30
ENDBRANCH   1  29
TORSDOF 22
