REMARK SMILES O=C(OCCOCCOCCOC(=O)[C@@H](c1ccccc1)N1C(=O)/C(=C\c2ccc(-c3ccc(F)cc3)o2)SC1=S)c1ccc(-c2c3nc(c(-c4cccc(S(=O)(=O)[O-])c4F)c4ccc([nH]4)c(-c4cccc(S(=O)(=O)[O-])c4F)c4nc(c(-c5cccc(S(=O)(=O)[O-])c5F)c5ccc2[nH]5)C=C4)C=C3)cc1
REMARK SMILES IDX 7 1 6 2 5 3 4 4 3 5 2 6 1 7 42 8 43 9 104 10 44 11 103 12
REMARK SMILES IDX 45 13 46 14 47 15 97 16 48 17 102 18 96 19 98 20 49 21
REMARK SMILES IDX 101 22 95 23 94 24 50 26 82 27 62 28 81 29 63 30 66 31 80 32
REMARK SMILES IDX 99 33 64 34 65 35 79 37 100 38 67 39 51 40 52 41 60 42 53 43
REMARK SMILES IDX 55 44 61 45 54 46 56 47 57 48 58 49 59 50 83 51 84 52 92 53
REMARK SMILES IDX 85 54 87 55 93 56 86 57 88 58 89 59 90 60 91 61 68 62 69 63
REMARK SMILES IDX 77 64 70 65 72 66 78 67 71 68 73 69 74 70 75 71 76 72 8 73
REMARK SMILES IDX 9 74 10 75 11 76 12 77 13 78 14 79 15 80 16 81 17 82 21 83
REMARK SMILES IDX 18 84 20 85 19 86 22 87 23 88 40 89 24 90 25 91 39 92 41 93
REMARK SMILES IDX 26 94 27 95 28 96 38 97 29 98 30 99 31 100 32 101 37 102
REMARK SMILES IDX 33 103 36 104 34 105 35 106
REMARK H PARENT 98 25 66 36
REMARK Flexibility Score: inf
ROOT
ATOM      1  C   UNL     1       2.517   0.930   2.051  1.00  0.00     0.188 C 
ENDROOT
BRANCH   1   2
ATOM      2  O   UNL     1       3.852   0.501   1.751  1.00  0.00    -0.376 OA
BRANCH   2   3
ATOM      3  C   UNL     1       4.743   1.576   1.442  1.00  0.00     0.202 C 
BRANCH   3   4
ATOM      4  C   UNL     1       4.794   1.955  -0.043  1.00  0.00     0.261 C 
BRANCH   4   5
ATOM      5  O   UNL     1       3.526   1.783  -0.687  1.00  0.00    -0.460 OA
BRANCH   5   6
ATOM      6  C   UNL     1       3.111   0.716  -1.414  1.00  0.00     0.338 C 
ATOM      7  O   UNL     1       1.997   0.771  -1.935  1.00  0.00    -0.246 OA
BRANCH   6   8
ATOM      8  C   UNL     1       3.935  -0.513  -1.648  1.00  0.00     0.060 A 
ATOM      9  C   UNL     1       4.927  -1.011  -0.797  1.00  0.00     0.016 A 
ATOM     10  C   UNL     1       3.602  -1.283  -2.772  1.00  0.00     0.016 A 
ATOM     11  C   UNL     1       5.614  -2.195  -1.079  1.00  0.00     0.010 A 
ATOM     12  C   UNL     1       4.221  -2.517  -3.005  1.00  0.00     0.010 A 
ATOM     13  C   UNL     1       5.250  -2.981  -2.169  1.00  0.00    -0.014 A 
BRANCH  13  14
ATOM     14  C   UNL     1       5.951  -4.256  -2.479  1.00  0.00     0.031 A 
ATOM     15  C   UNL     1       6.582  -4.414  -3.836  1.00  0.00     0.074 A 
ATOM     16  C   UNL     1       5.979  -5.282  -1.601  1.00  0.00     0.049 A 
ATOM     17  N   UNL     1       7.065  -5.484  -4.407  1.00  0.00    -0.248 NA
ATOM     18  C   UNL     1       6.675  -3.198  -4.665  1.00  0.00     0.031 C 
ATOM     19  C   UNL     1       5.464  -5.261  -0.231  1.00  0.00     0.029 A 
ATOM     20  N   UNL     1       6.414  -6.578  -1.760  1.00  0.00    -0.354 N 
ATOM     21  C   UNL     1       7.491  -5.078  -5.664  1.00  0.00     0.074 A 
ATOM     22  C   UNL     1       7.149  -3.680  -5.802  1.00  0.00     0.031 C 
ATOM     23  C   UNL     1       5.519  -6.501   0.285  1.00  0.00     0.029 A 
ATOM     24  C   UNL     1       6.046  -7.405  -0.721  1.00  0.00     0.049 A 
ATOM     25  H   UNL     1       6.935  -6.884  -2.537  1.00  0.00     0.167 HD
ATOM     26  C   UNL     1       8.168  -5.784  -6.598  1.00  0.00     0.034 A 
ATOM     27  C   UNL     1       6.082  -8.746  -0.613  1.00  0.00     0.034 A 
ATOM     28  C   UNL     1       8.584  -7.144  -6.419  1.00  0.00     0.049 A 
ATOM     29  C   UNL     1       6.739  -9.536  -1.707  1.00  0.00     0.074 A 
ATOM     30  C   UNL     1       9.387  -7.916  -7.237  1.00  0.00     0.029 A 
ATOM     31  N   UNL     1       8.226  -7.936  -5.339  1.00  0.00    -0.354 N 
ATOM     32  N   UNL     1       7.266  -9.106  -2.826  1.00  0.00    -0.248 NA
ATOM     33  C   UNL     1       6.878 -10.983  -1.488  1.00  0.00     0.031 C 
ATOM     34  C   UNL     1       9.505  -9.183  -6.656  1.00  0.00     0.029 A 
ATOM     35  C   UNL     1       8.782  -9.194  -5.473  1.00  0.00     0.049 A 
ATOM     36  H   UNL     1       7.660  -7.645  -4.588  1.00  0.00     0.167 HD
ATOM     37  C   UNL     1       7.873 -10.212  -3.404  1.00  0.00     0.074 A 
ATOM     38  C   UNL     1       7.625 -11.336  -2.524  1.00  0.00     0.031 C 
ATOM     39  C   UNL     1       8.588 -10.282  -4.551  1.00  0.00     0.034 A 
BRANCH  26  40
ATOM     40  C   UNL     1       8.566  -5.059  -7.853  1.00  0.00     0.023 A 
ATOM     41  C   UNL     1       9.592  -4.092  -7.795  1.00  0.00     0.012 A 
ATOM     42  C   UNL     1       7.931  -5.326  -9.080  1.00  0.00     0.148 A 
ATOM     43  C   UNL     1       9.948  -3.366  -8.930  1.00  0.00     0.002 A 
ATOM     44  C   UNL     1       8.319  -4.625 -10.216  1.00  0.00     0.091 A 
ATOM     45  F   UNL     1       6.952  -6.240  -9.107  1.00  0.00    -0.205 F 
ATOM     46  C   UNL     1       9.315  -3.636 -10.139  1.00  0.00     0.022 A 
BRANCH  44  47
ATOM     47  S   UNL     1       7.607  -4.924 -11.836  1.00  0.00     0.127 S 
ATOM     48  O   UNL     1       6.963  -3.640 -12.117  1.00  0.00    -0.237 OA
ATOM     49  O   UNL     1       8.796  -5.198 -12.643  1.00  0.00    -0.237 OA
ATOM     50  O   UNL     1       6.698  -6.050 -11.679  1.00  0.00    -0.744 OA
ENDBRANCH  44  47
ENDBRANCH  26  40
BRANCH  27  51
ATOM     51  C   UNL     1       5.504  -9.452   0.563  1.00  0.00     0.023 A 
ATOM     52  C   UNL     1       6.353  -9.934   1.576  1.00  0.00     0.012 A 
ATOM     53  C   UNL     1       4.129  -9.741   0.624  1.00  0.00     0.148 A 
ATOM     54  C   UNL     1       5.848 -10.731   2.605  1.00  0.00     0.002 A 
ATOM     55  C   UNL     1       3.631 -10.528   1.658  1.00  0.00     0.091 A 
ATOM     56  F   UNL     1       3.335  -9.281  -0.355  1.00  0.00    -0.205 F 
ATOM     57  C   UNL     1       4.488 -11.032   2.646  1.00  0.00     0.022 A 
BRANCH  55  58
ATOM     58  S   UNL     1       1.880 -10.912   1.772  1.00  0.00     0.127 S 
ATOM     59  O   UNL     1       1.797 -12.162   1.024  1.00  0.00    -0.237 OA
ATOM     60  O   UNL     1       1.674 -11.046   3.214  1.00  0.00    -0.237 OA
ATOM     61  O   UNL     1       1.226  -9.751   1.181  1.00  0.00    -0.744 OA
ENDBRANCH  55  58
ENDBRANCH  27  51
BRANCH  39  62
ATOM     62  C   UNL     1       9.232 -11.595  -4.890  1.00  0.00     0.023 A 
ATOM     63  C   UNL     1       8.450 -12.657  -5.379  1.00  0.00     0.012 A 
ATOM     64  C   UNL     1      10.631 -11.733  -4.812  1.00  0.00     0.148 A 
ATOM     65  C   UNL     1       9.055 -13.849  -5.774  1.00  0.00     0.002 A 
ATOM     66  C   UNL     1      11.230 -12.901  -5.260  1.00  0.00     0.091 A 
ATOM     67  F   UNL     1      11.349 -10.715  -4.313  1.00  0.00    -0.205 F 
ATOM     68  C   UNL     1      10.443 -13.965  -5.731  1.00  0.00     0.022 A 
BRANCH  66  69
ATOM     69  S   UNL     1      13.014 -13.087  -5.350  1.00  0.00     0.127 S 
ATOM     70  O   UNL     1      13.275 -14.011  -4.248  1.00  0.00    -0.237 OA
ATOM     71  O   UNL     1      13.199 -13.659  -6.684  1.00  0.00    -0.237 OA
ATOM     72  O   UNL     1      13.565 -11.748  -5.188  1.00  0.00    -0.744 OA
ENDBRANCH  66  69
ENDBRANCH  39  62
ENDBRANCH  13  14
ENDBRANCH   6   8
ENDBRANCH   5   6
ENDBRANCH   4   5
ENDBRANCH   3   4
ENDBRANCH   2   3
ENDBRANCH   1   2
BRANCH   1  73
ATOM     73  C   UNL     1       1.812  -0.060   2.984  1.00  0.00     0.188 C 
BRANCH  73  74
ATOM     74  O   UNL     1       2.330  -0.148   4.312  1.00  0.00    -0.376 OA
BRANCH  74  75
ATOM     75  C   UNL     1       3.709  -0.463   4.448  1.00  0.00     0.202 C 
BRANCH  75  76
ATOM     76  C   UNL     1       4.206  -1.854   4.015  1.00  0.00     0.261 C 
BRANCH  76  77
ATOM     77  O   UNL     1       3.390  -2.593   3.096  1.00  0.00    -0.461 OA
BRANCH  77  78
ATOM     78  C   UNL     1       2.491  -3.423   3.696  1.00  0.00     0.334 C 
ATOM     79  O   UNL     1       2.183  -3.332   4.887  1.00  0.00    -0.249 OA
BRANCH  78  80
ATOM     80  C   UNL     1       2.035  -4.618   2.841  1.00  0.00     0.232 C 
BRANCH  80  81
ATOM     81  C   UNL     1       2.152  -4.633   1.319  1.00  0.00    -0.014 A 
ATOM     82  C   UNL     1       2.253  -5.851   0.615  1.00  0.00     0.006 A 
ATOM     83  C   UNL     1       1.909  -3.481   0.555  1.00  0.00     0.006 A 
ATOM     84  C   UNL     1       2.158  -5.907  -0.780  1.00  0.00     0.000 A 
ATOM     85  C   UNL     1       1.776  -3.542  -0.836  1.00  0.00     0.000 A 
ATOM     86  C   UNL     1       1.916  -4.752  -1.507  1.00  0.00     0.000 A 
ENDBRANCH  80  81
BRANCH  80  87
ATOM     87  N   UNL     1       2.561  -5.813   3.533  1.00  0.00    -0.274 N 
ATOM     88  C   UNL     1       3.904  -5.846   3.878  1.00  0.00     0.267 C 
ATOM     89  C   UNL     1       1.812  -6.914   3.902  1.00  0.00     0.149 C 
ATOM     90  O   UNL     1       4.763  -5.054   3.542  1.00  0.00    -0.268 OA
ATOM     91  C   UNL     1       4.146  -6.981   4.805  1.00  0.00     0.084 C 
ATOM     92  S   UNL     1       2.882  -8.129   4.611  1.00  0.00    -0.054 SA
ATOM     93  S   UNL     1       0.156  -7.095   3.832  1.00  0.00    -0.052 S 
ATOM     94  C   UNL     1       5.007  -7.021   5.830  1.00  0.00     0.068 C 
BRANCH  94  95
ATOM     95  C   UNL     1       5.616  -5.848   6.357  1.00  0.00     0.128 A 
ATOM     96  C   UNL     1       4.987  -4.688   6.805  1.00  0.00     0.051 A 
ATOM     97  O   UNL     1       6.957  -5.729   6.644  1.00  0.00    -0.457 OA
ATOM     98  C   UNL     1       5.967  -3.852   7.380  1.00  0.00     0.051 A 
ATOM     99  C   UNL     1       7.158  -4.523   7.247  1.00  0.00     0.134 A 
BRANCH  99 100
ATOM    100  C   UNL     1       8.519  -4.222   7.645  1.00  0.00     0.017 A 
ATOM    101  C   UNL     1       9.550  -4.212   6.696  1.00  0.00     0.015 A 
ATOM    102  C   UNL     1       8.809  -3.905   8.980  1.00  0.00     0.015 A 
ATOM    103  C   UNL     1      10.854  -3.885   7.077  1.00  0.00     0.040 A 
ATOM    104  C   UNL     1      10.114  -3.592   9.363  1.00  0.00     0.040 A 
ATOM    105  C   UNL     1      11.123  -3.581   8.406  1.00  0.00     0.123 A 
ATOM    106  F   UNL     1      12.373  -3.270   8.774  1.00  0.00    -0.207 F 
ENDBRANCH  99 100
ENDBRANCH  94  95
ENDBRANCH  80  87
ENDBRANCH  78  80
ENDBRANCH  77  78
ENDBRANCH  76  77
ENDBRANCH  75  76
ENDBRANCH  74  75
ENDBRANCH  73  74
ENDBRANCH   1  73
TORSDOF 24
