REMARK SMILES CCCC[C@H]([NH3+])C(=O)Nc1snc(C)c1C(=O)OCCOCCOCCOC(=O)c1ccc(-c2c3nc(c(-c4cccc(S(=O)(=O)[O-])c4F)c4ccc([nH]4)c(-c4cccc(S(=O)(=O)[O-])c4F)c4nc(c(-c5cccc(S(=O)(=O)[O-])c5F)c5ccc2[nH]5)C=C4)C=C3)cc1
REMARK SMILES IDX 22 1 21 2 20 3 19 4 18 5 16 6 17 7 15 8 10 9 11 10 12 11
REMARK SMILES IDX 13 12 14 13 9 14 7 15 8 16 5 18 4 19 3 20 2 21 1 22 6 23
REMARK SMILES IDX 23 27 24 28 25 29 26 30 27 31 28 32 29 33 30 34 31 35 92 36
REMARK SMILES IDX 32 37 91 38 33 39 34 40 35 41 85 42 36 43 90 44 84 45 86 46
REMARK SMILES IDX 37 47 89 48 83 49 82 50 38 52 70 53 50 54 69 55 51 56 54 57
REMARK SMILES IDX 68 58 87 59 52 60 53 61 67 63 88 64 55 65 39 66 40 67 48 68
REMARK SMILES IDX 41 69 43 70 49 71 42 72 44 73 45 74 46 75 47 76 71 77 72 78
REMARK SMILES IDX 80 79 73 80 75 81 81 82 74 83 76 84 77 85 78 86 79 87 56 88
REMARK SMILES IDX 57 89 65 90 58 91 60 92 66 93 59 94 61 95 62 96 63 97 64 98
REMARK H PARENT 9 17 6 24 6 25 6 26 86 51 54 62
REMARK Flexibility Score: inf
ROOT
ATOM      1  C   UNL     1       3.884   2.142  -3.496  1.00  0.00     0.188 C 
ENDROOT
BRANCH   1   2
ATOM      2  O   UNL     1       3.936   0.803  -3.043  1.00  0.00    -0.376 OA
BRANCH   2   3
ATOM      3  C   UNL     1       3.396   0.591  -1.748  1.00  0.00     0.202 C 
BRANCH   3   4
ATOM      4  C   UNL     1       1.867   0.696  -1.629  1.00  0.00     0.261 C 
BRANCH   4   5
ATOM      5  O   UNL     1       1.214   1.767  -2.343  1.00  0.00    -0.460 OA
BRANCH   5   6
ATOM      6  C   UNL     1       1.360   3.041  -1.875  1.00  0.00     0.343 C 
ATOM      7  O   UNL     1       2.003   3.315  -0.884  1.00  0.00    -0.246 OA
BRANCH   6   8
ATOM      8  C   UNL     1       0.761   4.034  -2.760  1.00  0.00     0.117 A 
ATOM      9  C   UNL     1      -0.382   3.882  -3.523  1.00  0.00     0.131 A 
ATOM     10  S   UNL     1      -0.477   5.154  -4.660  1.00  0.00    -0.017 S 
ATOM     11  N   UNL     1       0.777   6.027  -4.046  1.00  0.00    -0.195 NA
ATOM     12  C   UNL     1       1.380   5.312  -3.093  1.00  0.00     0.068 A 
ATOM     13  C   UNL     1       2.652   5.877  -2.553  1.00  0.00     0.069 C 
BRANCH   9  14
ATOM     14  N   UNL     1      -1.411   2.986  -3.648  1.00  0.00    -0.310 N 
ATOM     15  C   UNL     1      -2.044   2.200  -2.741  1.00  0.00     0.283 C 
ATOM     16  O   UNL     1      -2.724   1.271  -3.204  1.00  0.00    -0.268 OA
ATOM     17  H   UNL     1      -1.754   2.896  -4.566  1.00  0.00     0.171 HD
BRANCH  15  18
ATOM     18  C   UNL     1      -2.031   2.413  -1.199  1.00  0.00     0.271 C 
BRANCH  18  19
ATOM     19  C   UNL     1      -2.010   3.871  -0.701  1.00  0.00     0.075 C 
BRANCH  19  20
ATOM     20  C   UNL     1      -1.690   4.088   0.790  1.00  0.00     0.006 C 
BRANCH  20  21
ATOM     21  C   UNL     1      -0.217   4.350   1.129  1.00  0.00    -0.003 C 
ATOM     22  C   UNL     1       0.351   5.634   0.534  1.00  0.00     0.004 C 
ENDBRANCH  20  21
ENDBRANCH  19  20
ENDBRANCH  18  19
BRANCH  18  23
ATOM     23  N   UNL     1      -1.100   1.484  -0.552  1.00  0.00    -0.347 N 
ATOM     24  H   UNL     1      -0.147   1.697  -0.847  1.00  0.00     0.345 HD
ATOM     25  H   UNL     1      -1.333   0.528  -0.819  1.00  0.00     0.345 HD
ATOM     26  H   UNL     1      -1.172   1.582   0.461  1.00  0.00     0.345 HD
ENDBRANCH  18  23
ENDBRANCH  15  18
ENDBRANCH   9  14
ENDBRANCH   6   8
ENDBRANCH   5   6
ENDBRANCH   4   5
ENDBRANCH   3   4
ENDBRANCH   2   3
ENDBRANCH   1   2
BRANCH   1  27
ATOM     27  C   UNL     1       2.994   2.358  -4.737  1.00  0.00     0.188 C 
BRANCH  27  28
ATOM     28  O   UNL     1       2.074   1.371  -5.194  1.00  0.00    -0.376 OA
BRANCH  28  29
ATOM     29  C   UNL     1       2.417  -0.013  -5.228  1.00  0.00     0.202 C 
BRANCH  29  30
ATOM     30  C   UNL     1       3.610  -0.496  -6.052  1.00  0.00     0.261 C 
BRANCH  30  31
ATOM     31  O   UNL     1       4.791   0.225  -5.761  1.00  0.00    -0.460 OA
BRANCH  31  32
ATOM     32  C   UNL     1       5.018   1.257  -6.595  1.00  0.00     0.338 C 
ATOM     33  O   UNL     1       4.374   1.568  -7.583  1.00  0.00    -0.246 OA
BRANCH  32  34
ATOM     34  C   UNL     1       6.148   2.035  -6.075  1.00  0.00     0.060 A 
ATOM     35  C   UNL     1       6.439   3.224  -6.746  1.00  0.00     0.016 A 
ATOM     36  C   UNL     1       6.994   1.498  -5.091  1.00  0.00     0.016 A 
ATOM     37  C   UNL     1       7.729   3.676  -6.695  1.00  0.00     0.010 A 
ATOM     38  C   UNL     1       8.281   1.956  -5.027  1.00  0.00     0.010 A 
ATOM     39  C   UNL     1       8.645   2.921  -5.960  1.00  0.00    -0.014 A 
BRANCH  39  40
ATOM     40  C   UNL     1      10.008   2.957  -6.428  1.00  0.00     0.031 A 
ATOM     41  C   UNL     1      10.805   4.067  -5.902  1.00  0.00     0.074 A 
ATOM     42  C   UNL     1      10.451   2.000  -7.266  1.00  0.00     0.049 A 
ATOM     43  N   UNL     1      11.241   5.098  -6.543  1.00  0.00    -0.248 NA
ATOM     44  C   UNL     1      11.002   4.107  -4.449  1.00  0.00     0.031 C 
ATOM     45  C   UNL     1       9.807   0.716  -7.581  1.00  0.00     0.029 A 
ATOM     46  N   UNL     1      11.649   1.907  -7.897  1.00  0.00    -0.354 N 
ATOM     47  C   UNL     1      11.992   5.792  -5.605  1.00  0.00     0.074 A 
ATOM     48  C   UNL     1      11.629   5.274  -4.311  1.00  0.00     0.031 C 
ATOM     49  C   UNL     1      10.727  -0.119  -8.109  1.00  0.00     0.029 A 
ATOM     50  C   UNL     1      11.966   0.614  -8.290  1.00  0.00     0.049 A 
ATOM     51  H   UNL     1      12.236   2.681  -8.060  1.00  0.00     0.167 HD
ATOM     52  C   UNL     1      13.076   6.521  -5.973  1.00  0.00     0.034 A 
ATOM     53  C   UNL     1      13.197   0.164  -8.624  1.00  0.00     0.034 A 
ATOM     54  C   UNL     1      13.093   6.809  -7.381  1.00  0.00     0.049 A 
ATOM     55  C   UNL     1      14.035   1.345  -8.941  1.00  0.00     0.074 A 
ATOM     56  C   UNL     1      12.249   7.462  -8.256  1.00  0.00     0.029 A 
ATOM     57  N   UNL     1      13.957   6.075  -8.155  1.00  0.00    -0.354 N 
ATOM     58  N   UNL     1      13.847   2.118  -9.975  1.00  0.00    -0.248 NA
ATOM     59  C   UNL     1      14.849   1.915  -7.879  1.00  0.00     0.031 C 
ATOM     60  C   UNL     1      12.381   6.768  -9.494  1.00  0.00     0.029 A 
ATOM     61  C   UNL     1      13.310   5.740  -9.315  1.00  0.00     0.049 A 
ATOM     62  H   UNL     1      14.881   5.831  -7.918  1.00  0.00     0.167 HD
ATOM     63  C   UNL     1      14.145   3.397  -9.518  1.00  0.00     0.074 A 
ATOM     64  C   UNL     1      14.878   3.190  -8.274  1.00  0.00     0.031 C 
ATOM     65  C   UNL     1      13.518   4.497 -10.034  1.00  0.00     0.034 A 
BRANCH  52  66
ATOM     66  C   UNL     1      14.302   6.652  -5.112  1.00  0.00     0.023 A 
ATOM     67  C   UNL     1      15.231   7.655  -5.444  1.00  0.00     0.012 A 
ATOM     68  C   UNL     1      14.699   5.695  -4.149  1.00  0.00     0.148 A 
ATOM     69  C   UNL     1      16.497   7.698  -4.851  1.00  0.00     0.002 A 
ATOM     70  C   UNL     1      15.912   5.804  -3.487  1.00  0.00     0.091 A 
ATOM     71  F   UNL     1      13.975   4.586  -3.961  1.00  0.00    -0.205 F 
ATOM     72  C   UNL     1      16.830   6.787  -3.854  1.00  0.00     0.022 A 
BRANCH  70  73
ATOM     73  S   UNL     1      16.315   4.697  -2.132  1.00  0.00     0.127 S 
ATOM     74  O   UNL     1      17.114   3.681  -2.807  1.00  0.00    -0.237 OA
ATOM     75  O   UNL     1      17.059   5.576  -1.229  1.00  0.00    -0.237 OA
ATOM     76  O   UNL     1      15.023   4.269  -1.606  1.00  0.00    -0.744 OA
ENDBRANCH  70  73
ENDBRANCH  52  66
BRANCH  53  77
ATOM     77  C   UNL     1      13.763  -1.183  -8.397  1.00  0.00     0.023 A 
ATOM     78  C   UNL     1      14.828  -1.636  -9.195  1.00  0.00     0.012 A 
ATOM     79  C   UNL     1      13.418  -1.935  -7.249  1.00  0.00     0.148 A 
ATOM     80  C   UNL     1      15.539  -2.793  -8.854  1.00  0.00     0.002 A 
ATOM     81  C   UNL     1      14.115  -3.094  -6.924  1.00  0.00     0.091 A 
ATOM     82  F   UNL     1      12.466  -1.467  -6.431  1.00  0.00    -0.205 F 
ATOM     83  C   UNL     1      15.185  -3.519  -7.719  1.00  0.00     0.022 A 
BRANCH  81  84
ATOM     84  S   UNL     1      13.715  -4.082  -5.476  1.00  0.00     0.127 S 
ATOM     85  O   UNL     1      13.636  -5.430  -6.042  1.00  0.00    -0.237 OA
ATOM     86  O   UNL     1      14.873  -3.846  -4.618  1.00  0.00    -0.237 OA
ATOM     87  O   UNL     1      12.444  -3.569  -4.979  1.00  0.00    -0.744 OA
ENDBRANCH  81  84
ENDBRANCH  53  77
BRANCH  65  88
ATOM     88  C   UNL     1      12.725   4.331 -11.309  1.00  0.00     0.023 A 
ATOM     89  C   UNL     1      11.581   3.506 -11.369  1.00  0.00     0.012 A 
ATOM     90  C   UNL     1      13.022   5.158 -12.407  1.00  0.00     0.148 A 
ATOM     91  C   UNL     1      10.769   3.488 -12.506  1.00  0.00     0.002 A 
ATOM     92  C   UNL     1      12.184   5.172 -13.517  1.00  0.00     0.091 A 
ATOM     93  F   UNL     1      14.106   5.945 -12.334  1.00  0.00    -0.205 F 
ATOM     94  C   UNL     1      11.062   4.331 -13.575  1.00  0.00     0.022 A 
BRANCH  92  95
ATOM     95  S   UNL     1      12.431   6.331 -14.866  1.00  0.00     0.127 S 
ATOM     96  O   UNL     1      13.042   5.487 -15.890  1.00  0.00    -0.237 OA
ATOM     97  O   UNL     1      11.065   6.764 -15.167  1.00  0.00    -0.237 OA
ATOM     98  O   UNL     1      13.281   7.388 -14.330  1.00  0.00    -0.744 OA
ENDBRANCH  92  95
ENDBRANCH  65  88
ENDBRANCH  39  40
ENDBRANCH  32  34
ENDBRANCH  31  32
ENDBRANCH  30  31
ENDBRANCH  29  30
ENDBRANCH  28  29
ENDBRANCH  27  28
ENDBRANCH   1  27
TORSDOF 26
