REMARK SMILES CNc1nccc(-c2cc(C(=O)OCCOCCOCCOC(=O)c3ccc(-c4c5nc(c(-c6cccc(S(=O)(=O)[O-])c6F)c6ccc([nH]6)c(-c6cccc(S(=O)(=O)[O-])c6F)c6nc(c(-c7cccc(S(=O)(=O)[O-])c7F)c7ccc4[nH]7)C=C6)C=C5)cc3)ccn2)n1
REMARK SMILES IDX 18 1 17 2 16 3 15 4 14 5 13 6 11 7 12 8 10 9 8 10 9 11 90 12
REMARK SMILES IDX 89 13 88 14 7 15 3 16 4 17 91 18 5 19 6 20 2 21 1 22 19 24
REMARK SMILES IDX 20 25 21 26 22 27 23 28 24 29 25 30 26 31 87 32 27 33 86 34
REMARK SMILES IDX 28 35 29 36 30 37 80 38 31 39 85 40 79 41 81 42 32 43 84 44
REMARK SMILES IDX 78 45 77 46 33 48 65 49 45 50 64 51 46 52 49 53 63 54 82 55
REMARK SMILES IDX 47 56 48 57 62 59 83 60 50 61 34 62 35 63 43 64 36 65 38 66
REMARK SMILES IDX 44 67 37 68 39 69 40 70 41 71 42 72 66 73 67 74 75 75 68 76
REMARK SMILES IDX 70 77 76 78 69 79 71 80 72 81 73 82 74 83 51 84 52 85 60 86
REMARK SMILES IDX 53 87 55 88 61 89 54 90 56 91 57 92 58 93 59 94
REMARK H PARENT 2 23 81 47 49 58
REMARK Flexibility Score: inf
ROOT
ATOM      1  C   UNL     1      -3.316  -6.699   1.320  1.00  0.00     0.188 C 
ENDROOT
BRANCH   1   2
ATOM      2  C   UNL     1      -4.723  -7.334   1.288  1.00  0.00     0.188 C 
BRANCH   2   3
ATOM      3  O   UNL     1      -4.860  -8.707   0.940  1.00  0.00    -0.376 OA
BRANCH   3   4
ATOM      4  C   UNL     1      -4.226  -9.209  -0.231  1.00  0.00     0.202 C 
BRANCH   4   5
ATOM      5  C   UNL     1      -4.444  -8.494  -1.571  1.00  0.00     0.261 C 
BRANCH   5   6
ATOM      6  O   UNL     1      -4.100  -7.098  -1.550  1.00  0.00    -0.460 OA
BRANCH   6   7
ATOM      7  C   UNL     1      -5.102  -6.244  -1.870  1.00  0.00     0.338 C 
ATOM      8  O   UNL     1      -6.214  -6.527  -2.282  1.00  0.00    -0.246 OA
BRANCH   7   9
ATOM      9  C   UNL     1      -4.713  -4.867  -1.510  1.00  0.00     0.063 A 
ATOM     10  C   UNL     1      -3.209  -3.004  -1.595  1.00  0.00     0.090 A 
ATOM     11  C   UNL     1      -3.490  -4.333  -1.912  1.00  0.00     0.046 A 
ATOM     12  N   UNL     1      -4.062  -2.257  -0.845  1.00  0.00    -0.255 NA
ATOM     13  C   UNL     1      -5.226  -2.815  -0.444  1.00  0.00     0.112 A 
ATOM     14  C   UNL     1      -5.608  -4.099  -0.771  1.00  0.00     0.036 A 
BRANCH  10  15
ATOM     15  C   UNL     1      -2.067  -2.291  -2.207  1.00  0.00     0.094 A 
ATOM     16  C   UNL     1      -0.299  -0.829  -1.995  1.00  0.00     0.222 A 
ATOM     17  N   UNL     1      -0.047  -0.846  -3.312  1.00  0.00    -0.222 NA
ATOM     18  N   UNL     1      -1.282  -1.527  -1.409  1.00  0.00    -0.211 NA
ATOM     19  C   UNL     1      -0.826  -1.627  -4.072  1.00  0.00     0.117 A 
ATOM     20  C   UNL     1      -1.852  -2.380  -3.571  1.00  0.00     0.051 A 
BRANCH  16  21
ATOM     21  N   UNL     1       0.574  -0.072  -1.268  1.00  0.00    -0.357 N 
ATOM     22  C   UNL     1       0.624  -0.087   0.162  1.00  0.00     0.143 C 
ATOM     23  H   UNL     1       1.200   0.513  -1.752  1.00  0.00     0.163 HD
ENDBRANCH  16  21
ENDBRANCH  10  15
ENDBRANCH   7   9
ENDBRANCH   6   7
ENDBRANCH   5   6
ENDBRANCH   4   5
ENDBRANCH   3   4
ENDBRANCH   2   3
ENDBRANCH   1   2
BRANCH   1  24
ATOM     24  O   UNL     1      -2.275  -7.577   0.962  1.00  0.00    -0.376 OA
BRANCH  24  25
ATOM     25  C   UNL     1      -1.539  -8.246   1.970  1.00  0.00     0.202 C 
BRANCH  25  26
ATOM     26  C   UNL     1      -2.091  -8.640   3.355  1.00  0.00     0.261 C 
BRANCH  26  27
ATOM     27  O   UNL     1      -3.269  -7.987   3.830  1.00  0.00    -0.460 OA
BRANCH  27  28
ATOM     28  C   UNL     1      -3.091  -6.892   4.605  1.00  0.00     0.338 C 
ATOM     29  O   UNL     1      -2.034  -6.359   4.891  1.00  0.00    -0.246 OA
BRANCH  28  30
ATOM     30  C   UNL     1      -4.422  -6.334   4.917  1.00  0.00     0.060 A 
ATOM     31  C   UNL     1      -4.754  -5.066   4.424  1.00  0.00     0.016 A 
ATOM     32  C   UNL     1      -5.332  -7.053   5.697  1.00  0.00     0.016 A 
ATOM     33  C   UNL     1      -5.992  -4.502   4.734  1.00  0.00     0.010 A 
ATOM     34  C   UNL     1      -6.565  -6.478   6.019  1.00  0.00     0.010 A 
ATOM     35  C   UNL     1      -6.890  -5.189   5.563  1.00  0.00    -0.014 A 
BRANCH  35  36
ATOM     36  C   UNL     1      -8.102  -4.500   6.073  1.00  0.00     0.031 A 
ATOM     37  C   UNL     1      -8.067  -3.893   7.449  1.00  0.00     0.074 A 
ATOM     38  C   UNL     1      -9.222  -4.426   5.332  1.00  0.00     0.049 A 
ATOM     39  N   UNL     1      -9.006  -3.256   8.097  1.00  0.00    -0.248 NA
ATOM     40  C   UNL     1      -6.805  -4.027   8.194  1.00  0.00     0.031 C 
ATOM     41  C   UNL     1      -9.388  -4.985   3.992  1.00  0.00     0.029 A 
ATOM     42  N   UNL     1     -10.444  -3.869   5.620  1.00  0.00    -0.354 N 
ATOM     43  C   UNL     1      -8.461  -2.933   9.333  1.00  0.00     0.074 A 
ATOM     44  C   UNL     1      -7.112  -3.457   9.350  1.00  0.00     0.031 C 
ATOM     45  C   UNL     1     -10.651  -4.768   3.584  1.00  0.00     0.029 A 
ATOM     46  C   UNL     1     -11.386  -4.072   4.640  1.00  0.00     0.049 A 
ATOM     47  H   UNL     1     -10.627  -3.371   6.449  1.00  0.00     0.167 HD
ATOM     48  C   UNL     1      -9.022  -2.248  10.357  1.00  0.00     0.034 A 
ATOM     49  C   UNL     1     -12.695  -3.750   4.608  1.00  0.00     0.034 A 
ATOM     50  C   UNL     1     -10.358  -1.716  10.339  1.00  0.00     0.049 A 
ATOM     51  C   UNL     1     -13.304  -3.004   5.768  1.00  0.00     0.074 A 
ATOM     52  C   UNL     1     -10.996  -0.959  11.305  1.00  0.00     0.029 A 
ATOM     53  N   UNL     1     -11.269  -1.901   9.311  1.00  0.00    -0.354 N 
ATOM     54  N   UNL     1     -12.733  -2.581   6.870  1.00  0.00    -0.248 NA
ATOM     55  C   UNL     1     -14.730  -2.661   5.664  1.00  0.00     0.031 C 
ATOM     56  C   UNL     1     -12.304  -0.710  10.873  1.00  0.00     0.029 A 
ATOM     57  C   UNL     1     -12.470  -1.288   9.625  1.00  0.00     0.049 A 
ATOM     58  H   UNL     1     -11.089  -2.396   8.479  1.00  0.00     0.167 HD
ATOM     59  C   UNL     1     -13.719  -1.896   7.574  1.00  0.00     0.074 A 
ATOM     60  C   UNL     1     -14.918  -1.941   6.762  1.00  0.00     0.031 C 
ATOM     61  C   UNL     1     -13.644  -1.296   8.789  1.00  0.00     0.034 A 
BRANCH  48  62
ATOM     62  C   UNL     1      -8.177  -2.014  11.581  1.00  0.00     0.023 A 
ATOM     63  C   UNL     1      -7.118  -1.085  11.529  1.00  0.00     0.012 A 
ATOM     64  C   UNL     1      -8.456  -2.678  12.791  1.00  0.00     0.148 A 
ATOM     65  C   UNL     1      -6.327  -0.846  12.652  1.00  0.00     0.002 A 
ATOM     66  C   UNL     1      -7.691  -2.402  13.919  1.00  0.00     0.091 A 
ATOM     67  F   UNL     1      -9.451  -3.576  12.814  1.00  0.00    -0.205 F 
ATOM     68  C   UNL     1      -6.620  -1.496  13.848  1.00  0.00     0.022 A 
BRANCH  66  69
ATOM     69  S   UNL     1      -8.037  -3.133  15.522  1.00  0.00     0.127 S 
ATOM     70  O   UNL     1      -6.937  -4.086  15.656  1.00  0.00    -0.237 OA
ATOM     71  O   UNL     1      -7.952  -1.975  16.414  1.00  0.00    -0.237 OA
ATOM     72  O   UNL     1      -9.366  -3.719  15.416  1.00  0.00    -0.744 OA
ENDBRANCH  66  69
ENDBRANCH  48  62
BRANCH  49  73
ATOM     73  C   UNL     1     -13.516  -4.100   3.414  1.00  0.00     0.023 A 
ATOM     74  C   UNL     1     -13.978  -3.076   2.564  1.00  0.00     0.012 A 
ATOM     75  C   UNL     1     -13.827  -5.439   3.109  1.00  0.00     0.148 A 
ATOM     76  C   UNL     1     -14.757  -3.378   1.446  1.00  0.00     0.002 A 
ATOM     77  C   UNL     1     -14.558  -5.737   1.965  1.00  0.00     0.091 A 
ATOM     78  F   UNL     1     -13.394  -6.396   3.941  1.00  0.00    -0.205 F 
ATOM     79  C   UNL     1     -15.038  -4.707   1.141  1.00  0.00     0.022 A 
BRANCH  77  80
ATOM     80  S   UNL     1     -14.863  -7.423   1.426  1.00  0.00     0.127 S 
ATOM     81  O   UNL     1     -16.304  -7.547   1.635  1.00  0.00    -0.237 OA
ATOM     82  O   UNL     1     -14.445  -7.370   0.025  1.00  0.00    -0.237 OA
ATOM     83  O   UNL     1     -14.028  -8.264   2.272  1.00  0.00    -0.744 OA
ENDBRANCH  77  80
ENDBRANCH  49  73
BRANCH  61  84
ATOM     84  C   UNL     1     -14.881  -0.610   9.312  1.00  0.00     0.023 A 
ATOM     85  C   UNL     1     -15.974  -1.380   9.757  1.00  0.00     0.012 A 
ATOM     86  C   UNL     1     -14.932   0.793   9.430  1.00  0.00     0.148 A 
ATOM     87  C   UNL     1     -17.112  -0.763  10.278  1.00  0.00     0.002 A 
ATOM     88  C   UNL     1     -16.049   1.399   9.996  1.00  0.00     0.091 A 
ATOM     89  F   UNL     1     -13.891   1.512   8.986  1.00  0.00    -0.205 F 
ATOM     90  C   UNL     1     -17.145   0.623  10.408  1.00  0.00     0.022 A 
BRANCH  88  91
ATOM     91  S   UNL     1     -16.138   3.169  10.291  1.00  0.00     0.127 S 
ATOM     92  O   UNL     1     -17.061   3.600   9.242  1.00  0.00    -0.237 OA
ATOM     93  O   UNL     1     -16.684   3.233  11.647  1.00  0.00    -0.237 OA
ATOM     94  O   UNL     1     -14.774   3.664  10.168  1.00  0.00    -0.744 OA
ENDBRANCH  88  91
ENDBRANCH  61  84
ENDBRANCH  35  36
ENDBRANCH  28  30
ENDBRANCH  27  28
ENDBRANCH  26  27
ENDBRANCH  25  26
ENDBRANCH  24  25
ENDBRANCH   1  24
TORSDOF 22
