REMARK SMILES O=C(OCCOCCOCCOC(=O)c1cc(Cl)cn(Cc2ccc(Cl)cc2)c1=O)c1ccc(-c2c3nc(c(-c4cccc(S(=O)(=O)[O-])c4F)c4ccc([nH]4)c(-c4cccc(S(=O)(=O)[O-])c4F)c4nc(c(-c5cccc(S(=O)(=O)[O-])c5F)c5ccc2[nH]5)C=C4)C=C3)cc1
REMARK SMILES IDX 7 1 6 2 5 3 4 4 3 5 2 6 1 7 31 8 32 9 93 10 33 11 92 12
REMARK SMILES IDX 34 13 35 14 36 15 86 16 37 17 91 18 85 19 87 20 38 21 90 22
REMARK SMILES IDX 84 23 83 24 39 26 71 27 51 28 70 29 52 30 55 31 69 32 88 33
REMARK SMILES IDX 53 34 54 35 68 37 89 38 56 39 40 40 41 41 49 42 42 43 44 44
REMARK SMILES IDX 50 45 43 46 45 47 46 48 47 49 48 50 72 51 73 52 81 53 74 54
REMARK SMILES IDX 76 55 82 56 75 57 77 58 78 59 79 60 80 61 57 62 58 63 66 64
REMARK SMILES IDX 59 65 61 66 67 67 60 68 62 69 63 70 64 71 65 72 8 73 9 74
REMARK SMILES IDX 10 75 11 76 12 77 13 78 14 79 15 80 16 81 29 82 17 83 20 84
REMARK SMILES IDX 30 85 18 86 19 87 21 88 22 89 23 90 28 91 24 92 27 93 25 94
REMARK SMILES IDX 26 95
REMARK H PARENT 87 25 55 36
REMARK Flexibility Score: inf
ROOT
ATOM      1  C   UNL     1       2.990   1.069  -1.263  1.00  0.00     0.188 C 
ENDROOT
BRANCH   1   2
ATOM      2  O   UNL     1       4.343   0.679  -1.079  1.00  0.00    -0.376 OA
BRANCH   2   3
ATOM      3  C   UNL     1       4.655  -0.670  -1.389  1.00  0.00     0.202 C 
BRANCH   3   4
ATOM      4  C   UNL     1       4.498  -1.630  -0.211  1.00  0.00     0.261 C 
BRANCH   4   5
ATOM      5  O   UNL     1       3.168  -1.631   0.328  1.00  0.00    -0.460 OA
BRANCH   5   6
ATOM      6  C   UNL     1       2.683  -1.000   1.425  1.00  0.00     0.338 C 
ATOM      7  O   UNL     1       1.610  -1.404   1.876  1.00  0.00    -0.246 OA
BRANCH   6   8
ATOM      8  C   UNL     1       3.266   0.253   2.029  1.00  0.00     0.060 A 
ATOM      9  C   UNL     1       2.403   0.996   2.857  1.00  0.00     0.016 A 
ATOM     10  C   UNL     1       4.559   0.754   1.851  1.00  0.00     0.016 A 
ATOM     11  C   UNL     1       2.821   2.181   3.478  1.00  0.00     0.010 A 
ATOM     12  C   UNL     1       4.984   1.938   2.469  1.00  0.00     0.010 A 
ATOM     13  C   UNL     1       4.125   2.657   3.298  1.00  0.00    -0.014 A 
BRANCH  13  14
ATOM     14  C   UNL     1       4.662   3.732   4.164  1.00  0.00     0.031 A 
ATOM     15  C   UNL     1       4.996   5.107   3.663  1.00  0.00     0.074 A 
ATOM     16  C   UNL     1       4.951   3.393   5.436  1.00  0.00     0.049 A 
ATOM     17  N   UNL     1       5.237   6.187   4.362  1.00  0.00    -0.248 NA
ATOM     18  C   UNL     1       5.094   5.309   2.209  1.00  0.00     0.031 C 
ATOM     19  C   UNL     1       4.838   2.038   5.989  1.00  0.00     0.029 A 
ATOM     20  N   UNL     1       5.425   4.140   6.481  1.00  0.00    -0.354 N 
ATOM     21  C   UNL     1       5.465   7.206   3.442  1.00  0.00     0.074 A 
ATOM     22  C   UNL     1       5.416   6.598   2.132  1.00  0.00     0.031 C 
ATOM     23  C   UNL     1       5.234   2.052   7.269  1.00  0.00     0.029 A 
ATOM     24  C   UNL     1       5.611   3.413   7.632  1.00  0.00     0.049 A 
ATOM     25  H   UNL     1       5.614   5.104   6.414  1.00  0.00     0.167 HD
ATOM     26  C   UNL     1       5.635   8.526   3.698  1.00  0.00     0.034 A 
ATOM     27  C   UNL     1       6.018   3.803   8.854  1.00  0.00     0.034 A 
ATOM     28  C   UNL     1       5.761   9.061   5.026  1.00  0.00     0.049 A 
ATOM     29  C   UNL     1       6.272   5.257   9.102  1.00  0.00     0.074 A 
ATOM     30  C   UNL     1       5.845  10.389   5.405  1.00  0.00     0.029 A 
ATOM     31  N   UNL     1       5.903   8.301   6.173  1.00  0.00    -0.354 N 
ATOM     32  N   UNL     1       6.130   6.260   8.271  1.00  0.00    -0.248 NA
ATOM     33  C   UNL     1       6.703   5.646  10.452  1.00  0.00     0.031 C 
ATOM     34  C   UNL     1       6.074  10.432   6.778  1.00  0.00     0.029 A 
ATOM     35  C   UNL     1       6.130   9.130   7.251  1.00  0.00     0.049 A 
ATOM     36  H   UNL     1       5.849   7.319   6.213  1.00  0.00     0.167 HD
ATOM     37  C   UNL     1       6.425   7.401   9.002  1.00  0.00     0.074 A 
ATOM     38  C   UNL     1       6.757   6.969  10.343  1.00  0.00     0.031 C 
ATOM     39  C   UNL     1       6.420   8.689   8.589  1.00  0.00     0.034 A 
BRANCH  26  40
ATOM     40  C   UNL     1       5.581   9.548   2.591  1.00  0.00     0.023 A 
ATOM     41  C   UNL     1       4.381  10.284   2.460  1.00  0.00     0.012 A 
ATOM     42  C   UNL     1       6.708   9.956   1.863  1.00  0.00     0.148 A 
ATOM     43  C   UNL     1       4.276  11.355   1.577  1.00  0.00     0.002 A 
ATOM     44  C   UNL     1       6.611  11.060   1.014  1.00  0.00     0.091 A 
ATOM     45  F   UNL     1       7.854   9.280   2.023  1.00  0.00    -0.205 F 
ATOM     46  C   UNL     1       5.393  11.744   0.852  1.00  0.00     0.022 A 
BRANCH  44  47
ATOM     47  S   UNL     1       8.046  11.750   0.179  1.00  0.00     0.127 S 
ATOM     48  O   UNL     1       7.910  11.183  -1.160  1.00  0.00    -0.237 OA
ATOM     49  O   UNL     1       7.798  13.191   0.260  1.00  0.00    -0.237 OA
ATOM     50  O   UNL     1       9.195  11.295   0.950  1.00  0.00    -0.744 OA
ENDBRANCH  44  47
ENDBRANCH  26  40
BRANCH  27  51
ATOM     51  C   UNL     1       6.092   2.789   9.936  1.00  0.00     0.023 A 
ATOM     52  C   UNL     1       5.042   2.705  10.867  1.00  0.00     0.012 A 
ATOM     53  C   UNL     1       7.123   1.830   9.960  1.00  0.00     0.148 A 
ATOM     54  C   UNL     1       5.014   1.676  11.808  1.00  0.00     0.002 A 
ATOM     55  C   UNL     1       7.073   0.790  10.880  1.00  0.00     0.091 A 
ATOM     56  F   UNL     1       8.102   1.932   9.051  1.00  0.00    -0.205 F 
ATOM     57  C   UNL     1       6.022   0.714  11.808  1.00  0.00     0.022 A 
BRANCH  55  58
ATOM     58  S   UNL     1       8.271  -0.548  10.897  1.00  0.00     0.127 S 
ATOM     59  O   UNL     1       8.890  -0.375  12.209  1.00  0.00    -0.237 OA
ATOM     60  O   UNL     1       7.407  -1.722  10.772  1.00  0.00    -0.237 OA
ATOM     61  O   UNL     1       9.146  -0.313   9.758  1.00  0.00    -0.744 OA
ENDBRANCH  55  58
ENDBRANCH  27  51
BRANCH  39  62
ATOM     62  C   UNL     1       6.788   9.766   9.564  1.00  0.00     0.023 A 
ATOM     63  C   UNL     1       8.149  10.046   9.785  1.00  0.00     0.012 A 
ATOM     64  C   UNL     1       5.799  10.642  10.050  1.00  0.00     0.148 A 
ATOM     65  C   UNL     1       8.523  11.202  10.465  1.00  0.00     0.002 A 
ATOM     66  C   UNL     1       6.181  11.812  10.691  1.00  0.00     0.091 A 
ATOM     67  F   UNL     1       4.513  10.347   9.809  1.00  0.00    -0.205 F 
ATOM     68  C   UNL     1       7.542  12.093  10.900  1.00  0.00     0.022 A 
BRANCH  66  69
ATOM     69  S   UNL     1       4.999  13.069  11.187  1.00  0.00     0.127 S 
ATOM     70  O   UNL     1       5.162  13.071  12.640  1.00  0.00    -0.237 OA
ATOM     71  O   UNL     1       5.514  14.258  10.510  1.00  0.00    -0.237 OA
ATOM     72  O   UNL     1       3.699  12.612  10.714  1.00  0.00    -0.744 OA
ENDBRANCH  66  69
ENDBRANCH  39  62
ENDBRANCH  13  14
ENDBRANCH   6   8
ENDBRANCH   5   6
ENDBRANCH   4   5
ENDBRANCH   3   4
ENDBRANCH   2   3
ENDBRANCH   1   2
BRANCH   1  73
ATOM     73  C   UNL     1       2.419   1.089  -2.689  1.00  0.00     0.188 C 
BRANCH  73  74
ATOM     74  O   UNL     1       3.283   1.021  -3.811  1.00  0.00    -0.376 OA
BRANCH  74  75
ATOM     75  C   UNL     1       4.481   1.786  -3.827  1.00  0.00     0.202 C 
BRANCH  75  76
ATOM     76  C   UNL     1       4.362   3.308  -3.792  1.00  0.00     0.261 C 
BRANCH  76  77
ATOM     77  O   UNL     1       3.844   3.804  -2.551  1.00  0.00    -0.459 OA
BRANCH  77  78
ATOM     78  C   UNL     1       2.631   4.408  -2.619  1.00  0.00     0.343 C 
ATOM     79  O   UNL     1       1.861   4.412  -3.563  1.00  0.00    -0.246 OA
BRANCH  78  80
ATOM     80  C   UNL     1       2.316   4.986  -1.311  1.00  0.00     0.126 A 
ATOM     81  C   UNL     1       1.471   4.343  -0.486  1.00  0.00     0.043 A 
ATOM     82  C   UNL     1       2.891   6.299  -0.936  1.00  0.00     0.265 A 
ATOM     83  C   UNL     1       1.179   4.878   0.817  1.00  0.00     0.058 A 
ATOM     84  N   UNL     1       2.471   6.799   0.294  1.00  0.00    -0.309 N 
ATOM     85  O   UNL     1       3.659   6.876  -1.700  1.00  0.00    -0.268 OA
ATOM     86  Cl  UNL     1       0.163   3.987   1.877  1.00  0.00    -0.083 Cl
ATOM     87  C   UNL     1       1.679   6.066   1.167  1.00  0.00     0.110 A 
BRANCH  84  88
ATOM     88  C   UNL     1       2.878   8.143   0.665  1.00  0.00     0.161 C 
BRANCH  88  89
ATOM     89  C   UNL     1       1.782   9.164   0.458  1.00  0.00    -0.028 A 
ATOM     90  C   UNL     1       0.777   9.325   1.424  1.00  0.00     0.007 A 
ATOM     91  C   UNL     1       1.780   9.988  -0.675  1.00  0.00     0.007 A 
ATOM     92  C   UNL     1      -0.215  10.290   1.262  1.00  0.00     0.021 A 
ATOM     93  C   UNL     1       0.796  10.967  -0.829  1.00  0.00     0.021 A 
ATOM     94  C   UNL     1      -0.199  11.110   0.137  1.00  0.00     0.041 A 
ATOM     95  Cl  UNL     1      -1.413  12.315  -0.052  1.00  0.00    -0.084 Cl
ENDBRANCH  88  89
ENDBRANCH  84  88
ENDBRANCH  78  80
ENDBRANCH  77  78
ENDBRANCH  76  77
ENDBRANCH  75  76
ENDBRANCH  74  75
ENDBRANCH  73  74
ENDBRANCH   1  73
TORSDOF 22
