REMARK SMILES COc1ccc([C@@H]2[NH2+][C@H](C(=O)OCCOCCOCCOC(=O)c3ccc(-c4c5nc(c(-c6cccc(S(=O)(=O)[O-])c6F)c6ccc([nH]6)c(-c6cccc(S(=O)(=O)[O-])c6F)c6nc(c(-c7cccc(S(=O)(=O)[O-])c7F)c7ccc4[nH]7)C=C6)C=C5)cc3)CS2)cc1Cn1nc(C)c(Br)c1C
REMARK SMILES IDX 16 1 15 2 14 3 13 4 12 5 10 6 11 7 9 8 7 9 8 10 88 11 87 14
REMARK SMILES IDX 6 15 3 16 4 17 90 18 5 19 89 20 2 21 1 22 91 23 92 24 93 25
REMARK SMILES IDX 98 26 94 27 96 28 99 29 95 30 97 31 17 32 18 33 19 34 20 35
REMARK SMILES IDX 21 36 22 37 23 38 24 39 25 40 86 41 26 42 85 43 27 44 28 45
REMARK SMILES IDX 29 46 79 47 30 48 84 49 78 50 80 51 31 52 83 53 77 54 76 55
REMARK SMILES IDX 32 57 64 58 44 59 63 60 45 61 48 62 62 63 81 64 46 65 47 66
REMARK SMILES IDX 61 68 82 69 49 70 33 71 34 72 42 73 35 74 37 75 43 76 36 77
REMARK SMILES IDX 38 78 39 79 40 80 41 81 65 82 66 83 74 84 67 85 69 86 75 87
REMARK SMILES IDX 68 88 70 89 71 90 72 91 73 92 50 93 51 94 59 95 52 96 54 97
REMARK SMILES IDX 60 98 53 99 55 100 56 101 57 102 58 103
REMARK H PARENT 8 12 8 13 80 56 48 67
REMARK Flexibility Score: inf
ROOT
ATOM      1  C   UNL     1       5.444   6.783   1.650  1.00  0.00     0.188 C 
ENDROOT
BRANCH   1   2
ATOM      2  O   UNL     1       5.914   6.169   0.460  1.00  0.00    -0.376 OA
BRANCH   2   3
ATOM      3  C   UNL     1       5.440   4.856   0.204  1.00  0.00     0.202 C 
BRANCH   3   4
ATOM      4  C   UNL     1       5.448   3.878   1.377  1.00  0.00     0.261 C 
BRANCH   4   5
ATOM      5  O   UNL     1       4.658   4.231   2.522  1.00  0.00    -0.459 OA
BRANCH   5   6
ATOM      6  C   UNL     1       5.221   4.051   3.742  1.00  0.00     0.365 C 
ATOM      7  O   UNL     1       6.373   3.668   3.926  1.00  0.00    -0.245 OA
BRANCH   6   8
ATOM      8  C   UNL     1       4.296   4.383   4.918  1.00  0.00     0.304 C 
ATOM      9  C   UNL     1       1.994   3.674   4.691  1.00  0.00     0.274 C 
ATOM     10  N   UNL     1       2.914   4.799   4.556  1.00  0.00    -0.319 N 
ATOM     11  S   UNL     1       2.572   2.667   6.066  1.00  0.00    -0.087 SA
ATOM     12  H   UNL     1       2.617   5.553   5.175  1.00  0.00     0.348 HD
ATOM     13  H   UNL     1       2.907   5.118   3.588  1.00  0.00     0.348 HD
ATOM     14  C   UNL     1       4.288   3.214   5.904  1.00  0.00     0.153 C 
BRANCH   9  15
ATOM     15  C   UNL     1       1.749   2.926   3.390  1.00  0.00     0.021 A 
ATOM     16  C   UNL     1       1.240   1.642   0.929  1.00  0.00     0.123 A 
ATOM     17  C   UNL     1       0.383   2.643   1.396  1.00  0.00     0.047 A 
ATOM     18  C   UNL     1       2.375   1.264   1.662  1.00  0.00     0.016 A 
ATOM     19  C   UNL     1       0.633   3.276   2.614  1.00  0.00     0.015 A 
ATOM     20  C   UNL     1       2.604   1.918   2.894  1.00  0.00     0.020 A 
BRANCH  16  21
ATOM     21  O   UNL     1       0.953   1.133  -0.308  1.00  0.00    -0.496 OA
ATOM     22  C   UNL     1       0.426  -0.190  -0.260  1.00  0.00     0.278 C 
ENDBRANCH  16  21
BRANCH  18  23
ATOM     23  C   UNL     1       3.299   0.150   1.219  1.00  0.00     0.184 C 
BRANCH  23  24
ATOM     24  N   UNL     1       4.605   0.565   0.706  1.00  0.00    -0.264 N 
ATOM     25  N   UNL     1       4.718   0.886  -0.608  1.00  0.00    -0.177 NA
ATOM     26  C   UNL     1       5.821   0.564   1.363  1.00  0.00     0.050 A 
ATOM     27  C   UNL     1       6.014   1.181  -0.776  1.00  0.00     0.074 A 
ATOM     28  C   UNL     1       6.739   0.940   0.406  1.00  0.00     0.061 A 
ATOM     29  C   UNL     1       5.999   0.328   2.817  1.00  0.00     0.067 C 
ATOM     30  C   UNL     1       6.496   1.742  -2.064  1.00  0.00     0.070 C 
ATOM     31  Br  UNL     1       8.576   1.235   0.632  1.00  0.00    -0.047 Br
ENDBRANCH  23  24
ENDBRANCH  18  23
ENDBRANCH   9  15
ENDBRANCH   6   8
ENDBRANCH   5   6
ENDBRANCH   4   5
ENDBRANCH   3   4
ENDBRANCH   2   3
ENDBRANCH   1   2
BRANCH   1  32
ATOM     32  C   UNL     1       3.917   6.854   1.873  1.00  0.00     0.188 C 
BRANCH  32  33
ATOM     33  O   UNL     1       3.129   6.238   0.866  1.00  0.00    -0.376 OA
BRANCH  33  34
ATOM     34  C   UNL     1       2.365   7.124   0.059  1.00  0.00     0.202 C 
BRANCH  34  35
ATOM     35  C   UNL     1       3.178   8.026  -0.883  1.00  0.00     0.261 C 
BRANCH  35  36
ATOM     36  O   UNL     1       4.166   8.856  -0.248  1.00  0.00    -0.460 OA
BRANCH  36  37
ATOM     37  C   UNL     1       3.733   9.792   0.636  1.00  0.00     0.338 C 
ATOM     38  O   UNL     1       2.587  10.082   0.885  1.00  0.00    -0.246 OA
BRANCH  37  39
ATOM     39  C   UNL     1       4.913  10.183   1.456  1.00  0.00     0.060 A 
ATOM     40  C   UNL     1       4.819  10.079   2.854  1.00  0.00     0.016 A 
ATOM     41  C   UNL     1       6.127  10.533   0.858  1.00  0.00     0.016 A 
ATOM     42  C   UNL     1       5.930  10.349   3.655  1.00  0.00     0.010 A 
ATOM     43  C   UNL     1       7.228  10.844   1.661  1.00  0.00     0.010 A 
ATOM     44  C   UNL     1       7.119  10.796   3.063  1.00  0.00    -0.014 A 
BRANCH  44  45
ATOM     45  C   UNL     1       8.087  11.553   3.893  1.00  0.00     0.031 A 
ATOM     46  C   UNL     1       7.833  13.033   4.030  1.00  0.00     0.074 A 
ATOM     47  C   UNL     1       9.142  10.985   4.502  1.00  0.00     0.049 A 
ATOM     48  N   UNL     1       8.514  13.941   4.675  1.00  0.00    -0.248 NA
ATOM     49  C   UNL     1       6.640  13.557   3.337  1.00  0.00     0.031 C 
ATOM     50  C   UNL     1       9.494   9.567   4.459  1.00  0.00     0.029 A 
ATOM     51  N   UNL     1      10.132  11.554   5.267  1.00  0.00    -0.354 N 
ATOM     52  C   UNL     1       7.846  15.139   4.450  1.00  0.00     0.074 A 
ATOM     53  C   UNL     1       6.715  14.850   3.600  1.00  0.00     0.031 C 
ATOM     54  C   UNL     1      10.639   9.382   5.144  1.00  0.00     0.029 A 
ATOM     55  C   UNL     1      11.109  10.669   5.659  1.00  0.00     0.049 A 
ATOM     56  H   UNL     1      10.140  12.508   5.512  1.00  0.00     0.167 HD
ATOM     57  C   UNL     1       8.133  16.373   4.918  1.00  0.00     0.034 A 
ATOM     58  C   UNL     1      12.253  10.884   6.340  1.00  0.00     0.034 A 
ATOM     59  C   UNL     1       9.258  16.669   5.756  1.00  0.00     0.049 A 
ATOM     60  C   UNL     1      12.572  12.280   6.825  1.00  0.00     0.074 A 
ATOM     61  C   UNL     1       9.635  17.886   6.292  1.00  0.00     0.029 A 
ATOM     62  N   UNL     1      10.196  15.736   6.168  1.00  0.00    -0.354 N 
ATOM     63  N   UNL     1      11.871  13.382   6.700  1.00  0.00    -0.248 NA
ATOM     64  C   UNL     1      13.825  12.454   7.578  1.00  0.00     0.031 C 
ATOM     65  C   UNL     1      10.816  17.692   7.016  1.00  0.00     0.029 A 
ATOM     66  C   UNL     1      11.153  16.349   6.954  1.00  0.00     0.049 A 
ATOM     67  H   UNL     1      10.183  14.780   5.934  1.00  0.00     0.167 HD
ATOM     68  C   UNL     1      12.569  14.363   7.399  1.00  0.00     0.074 A 
ATOM     69  C   UNL     1      13.743  13.723   7.955  1.00  0.00     0.031 C 
ATOM     70  C   UNL     1      12.274  15.678   7.560  1.00  0.00     0.034 A 
BRANCH  57  71
ATOM     71  C   UNL     1       7.197  17.486   4.539  1.00  0.00     0.023 A 
ATOM     72  C   UNL     1       5.915  17.546   5.125  1.00  0.00     0.012 A 
ATOM     73  C   UNL     1       7.586  18.476   3.618  1.00  0.00     0.148 A 
ATOM     74  C   UNL     1       5.023  18.558   4.775  1.00  0.00     0.002 A 
ATOM     75  C   UNL     1       6.708  19.508   3.310  1.00  0.00     0.091 A 
ATOM     76  F   UNL     1       8.795  18.379   3.047  1.00  0.00    -0.205 F 
ATOM     77  C   UNL     1       5.424  19.544   3.877  1.00  0.00     0.022 A 
BRANCH  75  78
ATOM     78  S   UNL     1       7.157  20.863   2.222  1.00  0.00     0.127 S 
ATOM     79  O   UNL     1       6.340  20.579   1.043  1.00  0.00    -0.237 OA
ATOM     80  O   UNL     1       6.729  22.030   2.994  1.00  0.00    -0.237 OA
ATOM     81  O   UNL     1       8.596  20.761   2.025  1.00  0.00    -0.744 OA
ENDBRANCH  75  78
ENDBRANCH  57  71
BRANCH  58  82
ATOM     82  C   UNL     1      13.175   9.752   6.653  1.00  0.00     0.023 A 
ATOM     83  C   UNL     1      13.335   9.336   7.990  1.00  0.00     0.012 A 
ATOM     84  C   UNL     1      13.909   9.101   5.642  1.00  0.00     0.148 A 
ATOM     85  C   UNL     1      14.234   8.320   8.319  1.00  0.00     0.002 A 
ATOM     86  C   UNL     1      14.765   8.055   5.971  1.00  0.00     0.091 A 
ATOM     87  F   UNL     1      13.763   9.525   4.379  1.00  0.00    -0.205 F 
ATOM     88  C   UNL     1      14.942   7.675   7.310  1.00  0.00     0.022 A 
BRANCH  86  89
ATOM     89  S   UNL     1      15.637   7.094   4.729  1.00  0.00     0.127 S 
ATOM     90  O   UNL     1      17.019   7.518   4.937  1.00  0.00    -0.237 OA
ATOM     91  O   UNL     1      15.344   5.723   5.149  1.00  0.00    -0.237 OA
ATOM     92  O   UNL     1      15.044   7.471   3.453  1.00  0.00    -0.744 OA
ENDBRANCH  86  89
ENDBRANCH  58  82
BRANCH  70  93
ATOM     93  C   UNL     1      13.186  16.509   8.424  1.00  0.00     0.023 A 
ATOM     94  C   UNL     1      14.462  16.877   7.956  1.00  0.00     0.012 A 
ATOM     95  C   UNL     1      12.736  17.002   9.665  1.00  0.00     0.148 A 
ATOM     96  C   UNL     1      15.289  17.696   8.725  1.00  0.00     0.002 A 
ATOM     97  C   UNL     1      13.545  17.858  10.403  1.00  0.00     0.091 A 
ATOM     98  F   UNL     1      11.524  16.627  10.102  1.00  0.00    -0.205 F 
ATOM     99  C   UNL     1      14.826  18.196   9.941  1.00  0.00     0.022 A 
BRANCH  97 100
ATOM    100  S   UNL     1      12.984  18.627  11.927  1.00  0.00     0.127 S 
ATOM    101  O   UNL     1      13.692  17.841  12.936  1.00  0.00    -0.237 OA
ATOM    102  O   UNL     1      13.463  20.002  11.778  1.00  0.00    -0.237 OA
ATOM    103  O   UNL     1      11.533  18.494  11.930  1.00  0.00    -0.744 OA
ENDBRANCH  97 100
ENDBRANCH  70  93
ENDBRANCH  44  45
ENDBRANCH  37  39
ENDBRANCH  36  37
ENDBRANCH  35  36
ENDBRANCH  34  35
ENDBRANCH  33  34
ENDBRANCH  32  33
ENDBRANCH   1  32
TORSDOF 24
