REMARK SMILES Cc1nc(S(=O)(=O)N[C@H]2C=C[C@H](C(=O)OCCOCCOCCOC(=O)c3ccc(-c4c5nc(c(-c6cccc(S(=O)(=O)[O-])c6F)c6ccc([nH]6)c(-c6cccc(S(=O)(=O)[O-])c6F)c6nc(c(-c7cccc(S(=O)(=O)[O-])c7F)c7ccc4[nH]7)C=C6)C=C5)cc3)C2)cn1C
REMARK SMILES IDX 19 1 18 2 17 3 16 4 15 5 13 6 14 7 12 8 9 9 10 10 90 11
REMARK SMILES IDX 11 12 8 13 5 15 6 16 7 17 4 18 1 19 2 20 3 21 92 22 91 23
REMARK SMILES IDX 93 24 20 25 21 26 22 27 23 28 24 29 25 30 26 31 27 32 28 33
REMARK SMILES IDX 89 34 29 35 88 36 30 37 31 38 32 39 82 40 33 41 87 42 81 43
REMARK SMILES IDX 83 44 34 45 86 46 80 47 79 48 35 50 67 51 47 52 66 53 48 54
REMARK SMILES IDX 51 55 65 56 84 57 49 58 50 59 64 61 85 62 52 63 36 64 37 65
REMARK SMILES IDX 45 66 38 67 40 68 46 69 39 70 41 71 42 72 43 73 44 74 68 75
REMARK SMILES IDX 69 76 77 77 70 78 72 79 78 80 71 81 73 82 74 83 75 84 76 85
REMARK SMILES IDX 53 86 54 87 62 88 55 89 57 90 63 91 56 92 58 93 59 94 60 95
REMARK SMILES IDX 61 96
REMARK H PARENT 8 14 83 49 51 60
REMARK Flexibility Score: inf
ROOT
ATOM      1  C   UNL     1       1.543   4.370   4.121  1.00  0.00     0.188 C 
ENDROOT
BRANCH   1   2
ATOM      2  O   UNL     1       1.318   5.472   4.992  1.00  0.00    -0.376 OA
BRANCH   2   3
ATOM      3  C   UNL     1       1.345   6.787   4.463  1.00  0.00     0.202 C 
BRANCH   3   4
ATOM      4  C   UNL     1       2.628   7.255   3.762  1.00  0.00     0.261 C 
BRANCH   4   5
ATOM      5  O   UNL     1       3.136   6.376   2.728  1.00  0.00    -0.463 OA
BRANCH   5   6
ATOM      6  C   UNL     1       4.419   5.957   2.896  1.00  0.00     0.312 C 
ATOM      7  O   UNL     1       5.139   6.331   3.819  1.00  0.00    -0.252 OA
BRANCH   6   8
ATOM      8  C   UNL     1       4.953   5.004   1.815  1.00  0.00     0.123 C 
ATOM      9  C   UNL     1       3.857   2.914   0.993  1.00  0.00     0.093 C 
ATOM     10  C   UNL     1       4.876   2.650   2.044  1.00  0.00    -0.011 C 
ATOM     11  C   UNL     1       4.077   4.421   0.692  1.00  0.00     0.043 C 
ATOM     12  C   UNL     1       5.465   3.764   2.486  1.00  0.00    -0.015 C 
BRANCH   9  13
ATOM     13  N   UNL     1       4.122   2.122  -0.214  1.00  0.00    -0.203 NA
ATOM     14  H   UNL     1       3.646   2.587  -0.988  1.00  0.00     0.142 HD
BRANCH  13  15
ATOM     15  S   UNL     1       3.647   0.485  -0.247  1.00  0.00     0.260 S 
ATOM     16  O   UNL     1       4.056  -0.115   0.991  1.00  0.00    -0.205 OA
ATOM     17  O   UNL     1       4.097  -0.012  -1.539  1.00  0.00    -0.205 OA
BRANCH  15  18
ATOM     18  C   UNL     1       1.910   0.319  -0.301  1.00  0.00     0.188 A 
ATOM     19  C   UNL     1      -1.104  -1.658  -0.016  1.00  0.00     0.088 C 
ATOM     20  C   UNL     1      -0.030  -0.641  -0.185  1.00  0.00     0.106 A 
ATOM     21  N   UNL     1       1.256  -0.865  -0.000  1.00  0.00    -0.221 NA
ATOM     22  N   UNL     1      -0.232   0.658  -0.590  1.00  0.00    -0.337 N 
ATOM     23  C   UNL     1       0.989   1.284  -0.651  1.00  0.00     0.129 A 
ATOM     24  C   UNL     1      -1.492   1.268  -0.939  1.00  0.00     0.151 C 
ENDBRANCH  15  18
ENDBRANCH  13  15
ENDBRANCH   9  13
ENDBRANCH   6   8
ENDBRANCH   5   6
ENDBRANCH   4   5
ENDBRANCH   3   4
ENDBRANCH   2   3
ENDBRANCH   1   2
BRANCH   1  25
ATOM     25  C   UNL     1       0.983   4.429   2.688  1.00  0.00     0.188 C 
BRANCH  25  26
ATOM     26  O   UNL     1      -0.034   5.390   2.480  1.00  0.00    -0.376 OA
BRANCH  26  27
ATOM     27  C   UNL     1      -1.303   4.870   2.126  1.00  0.00     0.202 C 
BRANCH  27  28
ATOM     28  C   UNL     1      -2.000   4.080   3.240  1.00  0.00     0.261 C 
BRANCH  28  29
ATOM     29  O   UNL     1      -1.223   2.996   3.788  1.00  0.00    -0.460 OA
BRANCH  29  30
ATOM     30  C   UNL     1      -1.192   1.851   3.072  1.00  0.00     0.338 C 
ATOM     31  O   UNL     1      -1.765   1.651   2.016  1.00  0.00    -0.246 OA
BRANCH  30  32
ATOM     32  C   UNL     1      -0.246   0.905   3.702  1.00  0.00     0.060 A 
ATOM     33  C   UNL     1       1.053   0.790   3.196  1.00  0.00     0.016 A 
ATOM     34  C   UNL     1      -0.664   0.077   4.740  1.00  0.00     0.016 A 
ATOM     35  C   UNL     1       1.934  -0.163   3.709  1.00  0.00     0.010 A 
ATOM     36  C   UNL     1       0.217  -0.887   5.248  1.00  0.00     0.010 A 
ATOM     37  C   UNL     1       1.514  -1.029   4.720  1.00  0.00    -0.014 A 
BRANCH  37  38
ATOM     38  C   UNL     1       2.380  -2.162   5.135  1.00  0.00     0.031 A 
ATOM     39  C   UNL     1       2.029  -3.553   4.684  1.00  0.00     0.074 A 
ATOM     40  C   UNL     1       3.466  -1.960   5.903  1.00  0.00     0.049 A 
ATOM     41  N   UNL     1       2.531  -4.700   5.061  1.00  0.00    -0.248 NA
ATOM     42  C   UNL     1       0.957  -3.664   3.682  1.00  0.00     0.031 C 
ATOM     43  C   UNL     1       3.950  -0.658   6.358  1.00  0.00     0.029 A 
ATOM     44  N   UNL     1       4.343  -2.859   6.461  1.00  0.00    -0.354 N 
ATOM     45  C   UNL     1       1.802  -5.672   4.386  1.00  0.00     0.074 A 
ATOM     46  C   UNL     1       0.823  -4.978   3.574  1.00  0.00     0.031 C 
ATOM     47  C   UNL     1       5.019  -0.843   7.151  1.00  0.00     0.029 A 
ATOM     48  C   UNL     1       5.264  -2.276   7.299  1.00  0.00     0.049 A 
ATOM     49  H   UNL     1       4.315  -3.826   6.278  1.00  0.00     0.167 HD
ATOM     50  C   UNL     1       1.941  -7.018   4.431  1.00  0.00     0.034 A 
ATOM     51  C   UNL     1       6.173  -2.835   8.123  1.00  0.00     0.034 A 
ATOM     52  C   UNL     1       2.954  -7.699   5.194  1.00  0.00     0.049 A 
ATOM     53  C   UNL     1       6.291  -4.337   8.178  1.00  0.00     0.074 A 
ATOM     54  C   UNL     1       3.199  -9.058   5.281  1.00  0.00     0.029 A 
ATOM     55  N   UNL     1       3.894  -7.072   5.998  1.00  0.00    -0.354 N 
ATOM     56  N   UNL     1       5.627  -5.244   7.503  1.00  0.00    -0.248 NA
ATOM     57  C   UNL     1       7.299  -4.891   9.094  1.00  0.00     0.031 C 
ATOM     58  C   UNL     1       4.270  -9.255   6.158  1.00  0.00     0.029 A 
ATOM     59  C   UNL     1       4.714  -8.017   6.593  1.00  0.00     0.049 A 
ATOM     60  H   UNL     1       3.968  -6.099   6.127  1.00  0.00     0.167 HD
ATOM     61  C   UNL     1       6.160  -6.471   7.884  1.00  0.00     0.074 A 
ATOM     62  C   UNL     1       7.216  -6.189   8.834  1.00  0.00     0.031 C 
ATOM     63  C   UNL     1       5.798  -7.720   7.495  1.00  0.00     0.034 A 
BRANCH  50  64
ATOM     64  C   UNL     1       0.976  -7.851   3.628  1.00  0.00     0.023 A 
ATOM     65  C   UNL     1       1.080  -7.895   2.223  1.00  0.00     0.012 A 
ATOM     66  C   UNL     1      -0.006  -8.630   4.272  1.00  0.00     0.148 A 
ATOM     67  C   UNL     1       0.201  -8.674   1.471  1.00  0.00     0.002 A 
ATOM     68  C   UNL     1      -0.849  -9.439   3.519  1.00  0.00     0.091 A 
ATOM     69  F   UNL     1      -0.105  -8.558   5.608  1.00  0.00    -0.205 F 
ATOM     70  C   UNL     1      -0.755  -9.453   2.118  1.00  0.00     0.022 A 
BRANCH  68  71
ATOM     71  S   UNL     1      -2.062 -10.534   4.265  1.00  0.00     0.127 S 
ATOM     72  O   UNL     1      -3.317  -9.873   3.909  1.00  0.00    -0.237 OA
ATOM     73  O   UNL     1      -1.815 -11.793   3.560  1.00  0.00    -0.237 OA
ATOM     74  O   UNL     1      -1.756 -10.566   5.688  1.00  0.00    -0.744 OA
ENDBRANCH  68  71
ENDBRANCH  50  64
BRANCH  51  75
ATOM     75  C   UNL     1       7.050  -1.971   8.964  1.00  0.00     0.023 A 
ATOM     76  C   UNL     1       8.433  -1.919   8.702  1.00  0.00     0.012 A 
ATOM     77  C   UNL     1       6.522  -1.192  10.013  1.00  0.00     0.148 A 
ATOM     78  C   UNL     1       9.277  -1.131   9.486  1.00  0.00     0.002 A 
ATOM     79  C   UNL     1       7.359  -0.366  10.753  1.00  0.00     0.091 A 
ATOM     80  F   UNL     1       5.207  -1.271  10.262  1.00  0.00    -0.205 F 
ATOM     81  C   UNL     1       8.739  -0.347  10.503  1.00  0.00     0.022 A 
BRANCH  79  82
ATOM     82  S   UNL     1       6.737   0.772  11.996  1.00  0.00     0.127 S 
ATOM     83  O   UNL     1       7.228   0.164  13.231  1.00  0.00    -0.237 OA
ATOM     84  O   UNL     1       7.398   2.022  11.620  1.00  0.00    -0.237 OA
ATOM     85  O   UNL     1       5.290   0.785  11.831  1.00  0.00    -0.744 OA
ENDBRANCH  79  82
ENDBRANCH  51  75
BRANCH  63  86
ATOM     86  C   UNL     1       6.574  -8.882   8.063  1.00  0.00     0.023 A 
ATOM     87  C   UNL     1       6.403  -9.248   9.413  1.00  0.00     0.012 A 
ATOM     88  C   UNL     1       7.421  -9.652   7.241  1.00  0.00     0.148 A 
ATOM     89  C   UNL     1       7.091 -10.338   9.945  1.00  0.00     0.002 A 
ATOM     90  C   UNL     1       8.064 -10.767   7.765  1.00  0.00     0.091 A 
ATOM     91  F   UNL     1       7.585  -9.279   5.963  1.00  0.00    -0.205 F 
ATOM     92  C   UNL     1       7.911 -11.104   9.119  1.00  0.00     0.022 A 
BRANCH  90  93
ATOM     93  S   UNL     1       9.063 -11.867   6.755  1.00  0.00     0.127 S 
ATOM     94  O   UNL     1      10.415 -11.540   7.204  1.00  0.00    -0.237 OA
ATOM     95  O   UNL     1       8.587 -13.188   7.169  1.00  0.00    -0.237 OA
ATOM     96  O   UNL     1       8.763 -11.525   5.371  1.00  0.00    -0.744 OA
ENDBRANCH  90  93
ENDBRANCH  63  86
ENDBRANCH  37  38
ENDBRANCH  30  32
ENDBRANCH  29  30
ENDBRANCH  28  29
ENDBRANCH  27  28
ENDBRANCH  26  27
ENDBRANCH  25  26
ENDBRANCH   1  25
TORSDOF 23
