REMARK SMILES C[C@H](NC(=O)NCCc1ccccc1F)C(=O)OCCOCCOCCOC(=O)c1ccc(-c2c3nc(c(-c4cccc(S(=O)(=O)[O-])c4F)c4ccc([nH]4)c(-c4cccc(S(=O)(=O)[O-])c4F)c4nc(c(-c5cccc(S(=O)(=O)[O-])c5F)c5ccc2[nH]5)C=C4)C=C3)cc1
REMARK SMILES IDX 22 1 21 2 20 3 19 4 18 5 16 6 17 7 2 8 1 9 3 10 4 11 5 13
REMARK SMILES IDX 6 14 7 16 8 17 9 18 10 19 14 20 11 21 13 22 15 23 12 24
REMARK SMILES IDX 23 25 24 26 25 27 26 28 27 29 28 30 29 31 30 32 31 33 92 34
REMARK SMILES IDX 32 35 91 36 33 37 34 38 35 39 85 40 36 41 90 42 84 43 86 44
REMARK SMILES IDX 37 45 89 46 83 47 82 48 38 50 70 51 50 52 69 53 51 54 54 55
REMARK SMILES IDX 68 56 87 57 52 58 53 59 67 61 88 62 55 63 39 64 40 65 48 66
REMARK SMILES IDX 41 67 43 68 49 69 42 70 44 71 45 72 46 73 47 74 71 75 72 76
REMARK SMILES IDX 80 77 73 78 75 79 81 80 74 81 76 82 77 83 78 84 79 85 56 86
REMARK SMILES IDX 57 87 65 88 58 89 60 90 66 91 59 92 61 93 62 94 63 95 64 96
REMARK H PARENT 3 12 6 15 86 49 54 60
REMARK Flexibility Score: inf
ROOT
ATOM      1  C   UNL     1      -2.456  -1.946   0.001  1.00  0.00     0.188 C 
ENDROOT
BRANCH   1   2
ATOM      2  O   UNL     1      -3.856  -1.722   0.034  1.00  0.00    -0.376 OA
BRANCH   2   3
ATOM      3  C   UNL     1      -4.387  -0.490   0.502  1.00  0.00     0.202 C 
BRANCH   3   4
ATOM      4  C   UNL     1      -3.733   0.340   1.620  1.00  0.00     0.261 C 
BRANCH   4   5
ATOM      5  O   UNL     1      -2.332   0.611   1.470  1.00  0.00    -0.462 OA
BRANCH   5   6
ATOM      6  C   UNL     1      -1.538   0.023   2.398  1.00  0.00     0.328 C 
ATOM      7  O   UNL     1      -1.945  -0.673   3.323  1.00  0.00    -0.250 OA
BRANCH   6   8
ATOM      8  C   UNL     1      -0.058   0.387   2.267  1.00  0.00     0.190 C 
ATOM      9  C   UNL     1       0.220   1.310   3.452  1.00  0.00     0.043 C 
BRANCH   8  10
ATOM     10  N   UNL     1       0.438   0.968   1.019  1.00  0.00    -0.325 N 
ATOM     11  C   UNL     1       1.677   1.011   0.484  1.00  0.00     0.315 C 
ATOM     12  H   UNL     1      -0.255   1.406   0.473  1.00  0.00     0.166 HD
ATOM     13  O   UNL     1       1.815   1.450  -0.659  1.00  0.00    -0.249 OA
ATOM     14  N   UNL     1       2.778   0.590   1.142  1.00  0.00    -0.338 N 
ATOM     15  H   UNL     1       3.596   0.576   0.594  1.00  0.00     0.165 HD
BRANCH  14  16
ATOM     16  C   UNL     1       2.974   0.153   2.511  1.00  0.00     0.122 C 
BRANCH  16  17
ATOM     17  C   UNL     1       4.381  -0.296   2.896  1.00  0.00     0.060 C 
BRANCH  17  18
ATOM     18  C   UNL     1       5.417   0.748   3.236  1.00  0.00    -0.010 A 
ATOM     19  C   UNL     1       6.577   0.309   3.899  1.00  0.00     0.007 A 
ATOM     20  C   UNL     1       5.319   2.107   2.929  1.00  0.00     0.126 A 
ATOM     21  C   UNL     1       7.603   1.198   4.226  1.00  0.00     0.000 A 
ATOM     22  C   UNL     1       6.341   3.000   3.249  1.00  0.00     0.039 A 
ATOM     23  F   UNL     1       4.234   2.604   2.323  1.00  0.00    -0.207 F 
ATOM     24  C   UNL     1       7.489   2.545   3.893  1.00  0.00     0.003 A 
ENDBRANCH  17  18
ENDBRANCH  16  17
ENDBRANCH  14  16
ENDBRANCH   8  10
ENDBRANCH   6   8
ENDBRANCH   5   6
ENDBRANCH   4   5
ENDBRANCH   3   4
ENDBRANCH   2   3
ENDBRANCH   1   2
BRANCH   1  25
ATOM     25  C   UNL     1      -1.578  -1.008  -0.844  1.00  0.00     0.188 C 
BRANCH  25  26
ATOM     26  O   UNL     1      -2.178   0.231  -1.149  1.00  0.00    -0.376 OA
BRANCH  26  27
ATOM     27  C   UNL     1      -2.814   0.382  -2.412  1.00  0.00     0.202 C 
BRANCH  27  28
ATOM     28  C   UNL     1      -3.476  -0.776  -3.197  1.00  0.00     0.261 C 
BRANCH  28  29
ATOM     29  O   UNL     1      -2.996  -2.108  -2.981  1.00  0.00    -0.460 OA
BRANCH  29  30
ATOM     30  C   UNL     1      -1.931  -2.514  -3.715  1.00  0.00     0.338 C 
ATOM     31  O   UNL     1      -1.336  -1.874  -4.556  1.00  0.00    -0.246 OA
BRANCH  30  32
ATOM     32  C   UNL     1      -1.472  -3.807  -3.150  1.00  0.00     0.060 A 
ATOM     33  C   UNL     1      -0.225  -3.860  -2.510  1.00  0.00     0.016 A 
ATOM     34  C   UNL     1      -2.271  -4.948  -3.233  1.00  0.00     0.016 A 
ATOM     35  C   UNL     1       0.233  -5.059  -1.964  1.00  0.00     0.010 A 
ATOM     36  C   UNL     1      -1.797  -6.156  -2.711  1.00  0.00     0.010 A 
ATOM     37  C   UNL     1      -0.532  -6.224  -2.098  1.00  0.00    -0.014 A 
BRANCH  37  38
ATOM     38  C   UNL     1       0.059  -7.542  -1.760  1.00  0.00     0.031 A 
ATOM     39  C   UNL     1       0.612  -8.385  -2.877  1.00  0.00     0.074 A 
ATOM     40  C   UNL     1       0.100  -7.991  -0.493  1.00  0.00     0.049 A 
ATOM     41  N   UNL     1       1.111  -9.591  -2.834  1.00  0.00    -0.248 NA
ATOM     42  C   UNL     1       0.599  -7.785  -4.222  1.00  0.00     0.031 C 
ATOM     43  C   UNL     1      -0.380  -7.261   0.677  1.00  0.00     0.029 A 
ATOM     44  N   UNL     1       0.547  -9.188   0.014  1.00  0.00    -0.354 N 
ATOM     45  C   UNL     1       1.438  -9.910  -4.146  1.00  0.00     0.074 A 
ATOM     46  C   UNL     1       1.077  -8.774  -4.963  1.00  0.00     0.031 C 
ATOM     47  C   UNL     1      -0.230  -8.036   1.765  1.00  0.00     0.029 A 
ATOM     48  C   UNL     1       0.325  -9.329   1.364  1.00  0.00     0.049 A 
ATOM     49  H   UNL     1       0.984  -9.877  -0.536  1.00  0.00     0.167 HD
ATOM     50  C   UNL     1       1.999 -11.044  -4.626  1.00  0.00     0.034 A 
ATOM     51  C   UNL     1       0.521 -10.388   2.177  1.00  0.00     0.034 A 
ATOM     52  C   UNL     1       2.374 -12.165  -3.808  1.00  0.00     0.049 A 
ATOM     53  C   UNL     1       1.112 -11.656   1.615  1.00  0.00     0.074 A 
ATOM     54  C   UNL     1       2.990 -13.341  -4.200  1.00  0.00     0.029 A 
ATOM     55  N   UNL     1       2.159 -12.260  -2.443  1.00  0.00    -0.354 N 
ATOM     56  N   UNL     1       1.501 -11.911   0.389  1.00  0.00    -0.248 NA
ATOM     57  C   UNL     1       1.320 -12.773   2.550  1.00  0.00     0.031 C 
ATOM     58  C   UNL     1       3.108 -14.164  -3.078  1.00  0.00     0.029 A 
ATOM     59  C   UNL     1       2.615 -13.481  -1.978  1.00  0.00     0.049 A 
ATOM     60  H   UNL     1       1.743 -11.562  -1.886  1.00  0.00     0.167 HD
ATOM     61  C   UNL     1       2.032 -13.197   0.413  1.00  0.00     0.074 A 
ATOM     62  C   UNL     1       1.925 -13.668   1.778  1.00  0.00     0.031 C 
ATOM     63  C   UNL     1       2.554 -13.922  -0.607  1.00  0.00     0.034 A 
BRANCH  50  64
ATOM     64  C   UNL     1       2.264 -11.133  -6.105  1.00  0.00     0.023 A 
ATOM     65  C   UNL     1       3.304 -10.373  -6.678  1.00  0.00     0.012 A 
ATOM     66  C   UNL     1       1.544 -12.038  -6.909  1.00  0.00     0.148 A 
ATOM     67  C   UNL     1       3.609 -10.498  -8.032  1.00  0.00     0.002 A 
ATOM     68  C   UNL     1       1.887 -12.194  -8.246  1.00  0.00     0.091 A 
ATOM     69  F   UNL     1       0.544 -12.734  -6.349  1.00  0.00    -0.205 F 
ATOM     70  C   UNL     1       2.912 -11.418  -8.812  1.00  0.00     0.022 A 
BRANCH  68  71
ATOM     71  S   UNL     1       1.113 -13.417  -9.310  1.00  0.00     0.127 S 
ATOM     72  O   UNL     1       0.396 -12.569 -10.261  1.00  0.00    -0.237 OA
ATOM     73  O   UNL     1       2.272 -14.114  -9.868  1.00  0.00    -0.237 OA
ATOM     74  O   UNL     1       0.270 -14.230  -8.445  1.00  0.00    -0.744 OA
ENDBRANCH  68  71
ENDBRANCH  50  64
BRANCH  51  75
ATOM     75  C   UNL     1       0.182 -10.276   3.625  1.00  0.00     0.023 A 
ATOM     76  C   UNL     1       1.216 -10.249   4.581  1.00  0.00     0.012 A 
ATOM     77  C   UNL     1      -1.154 -10.144   4.054  1.00  0.00     0.148 A 
ATOM     78  C   UNL     1       0.926 -10.104   5.938  1.00  0.00     0.002 A 
ATOM     79  C   UNL     1      -1.432  -9.942   5.400  1.00  0.00     0.091 A 
ATOM     80  F   UNL     1      -2.123 -10.190   3.129  1.00  0.00    -0.205 F 
ATOM     81  C   UNL     1      -0.395  -9.937   6.346  1.00  0.00     0.022 A 
BRANCH  79  82
ATOM     82  S   UNL     1      -3.085  -9.584   6.005  1.00  0.00     0.127 S 
ATOM     83  O   UNL     1      -3.351 -10.743   6.854  1.00  0.00    -0.237 OA
ATOM     84  O   UNL     1      -2.871  -8.329   6.726  1.00  0.00    -0.237 OA
ATOM     85  O   UNL     1      -3.925  -9.468   4.821  1.00  0.00    -0.744 OA
ENDBRANCH  79  82
ENDBRANCH  51  75
BRANCH  63  86
ATOM     86  C   UNL     1       3.103 -15.295  -0.309  1.00  0.00     0.023 A 
ATOM     87  C   UNL     1       2.225 -16.364  -0.048  1.00  0.00     0.012 A 
ATOM     88  C   UNL     1       4.486 -15.549  -0.431  1.00  0.00     0.148 A 
ATOM     89  C   UNL     1       2.716 -17.662   0.103  1.00  0.00     0.002 A 
ATOM     90  C   UNL     1       4.960 -16.851  -0.333  1.00  0.00     0.091 A 
ATOM     91  F   UNL     1       5.306 -14.515  -0.668  1.00  0.00    -0.205 F 
ATOM     92  C   UNL     1       4.078 -17.907  -0.056  1.00  0.00     0.022 A 
BRANCH  90  93
ATOM     93  S   UNL     1       6.679 -17.280  -0.633  1.00  0.00     0.127 S 
ATOM     94  O   UNL     1       7.117 -17.702   0.698  1.00  0.00    -0.237 OA
ATOM     95  O   UNL     1       6.562 -18.364  -1.608  1.00  0.00    -0.237 OA
ATOM     96  O   UNL     1       7.316 -16.072  -1.140  1.00  0.00    -0.744 OA
ENDBRANCH  90  93
ENDBRANCH  63  86
ENDBRANCH  37  38
ENDBRANCH  30  32
ENDBRANCH  29  30
ENDBRANCH  28  29
ENDBRANCH  27  28
ENDBRANCH  26  27
ENDBRANCH  25  26
ENDBRANCH   1  25
TORSDOF 24
