REMARK SMILES O=C(OCCOCCOCCOC(=O)[C@@H]1CC2(CC[NH+](C(=O)C3(c4ccccc4F)CC3)CC2)C[NH2+]1)c1ccc(-c2c3nc(c(-c4cccc(S(=O)(=O)[O-])c4F)c4ccc([nH]4)c(-c4cccc(S(=O)(=O)[O-])c4F)c4nc(c(-c5cccc(S(=O)(=O)[O-])c5F)c5ccc2[nH]5)C=C4)C=C3)cc1
REMARK SMILES IDX 7 1 6 2 5 3 4 4 3 5 2 6 1 7 37 8 38 9 99 10 39 11 98 12
REMARK SMILES IDX 40 13 41 14 42 15 92 16 43 17 97 18 91 19 93 20 44 21 96 22
REMARK SMILES IDX 90 23 89 24 45 26 77 27 57 28 76 29 58 30 61 31 75 32 94 33
REMARK SMILES IDX 59 34 60 35 74 37 95 38 62 39 46 40 47 41 55 42 48 43 50 44
REMARK SMILES IDX 56 45 49 46 51 47 52 48 53 49 54 50 78 51 79 52 87 53 80 54
REMARK SMILES IDX 82 55 88 56 81 57 83 58 84 59 85 60 86 61 63 62 64 63 72 64
REMARK SMILES IDX 65 65 67 66 73 67 66 68 68 69 69 70 70 71 71 72 8 73 9 74
REMARK SMILES IDX 10 75 11 76 12 77 13 78 14 79 15 80 16 81 36 82 17 83 35 84
REMARK SMILES IDX 18 87 34 88 19 89 33 90 20 91 21 93 22 94 23 95 31 96 32 97
REMARK SMILES IDX 24 98 25 99 29 100 26 101 28 102 30 103 27 104
REMARK H PARENT 93 25 61 36 36 85 36 86 20 92
REMARK Flexibility Score: inf
ROOT
ATOM      1  C   UNL     1       2.719   1.186   1.449  1.00  0.00     0.188 C 
ENDROOT
BRANCH   1   2
ATOM      2  O   UNL     1       4.031   0.624   1.425  1.00  0.00    -0.376 OA
BRANCH   2   3
ATOM      3  C   UNL     1       4.929   1.243   0.499  1.00  0.00     0.202 C 
BRANCH   3   4
ATOM      4  C   UNL     1       4.600   1.067  -0.994  1.00  0.00     0.261 C 
BRANCH   4   5
ATOM      5  O   UNL     1       3.210   0.820  -1.273  1.00  0.00    -0.460 OA
BRANCH   5   6
ATOM      6  C   UNL     1       2.568  -0.368  -1.409  1.00  0.00     0.338 C 
ATOM      7  O   UNL     1       1.395  -0.358  -1.778  1.00  0.00    -0.246 OA
BRANCH   6   8
ATOM      8  C   UNL     1       3.201  -1.689  -1.114  1.00  0.00     0.060 A 
ATOM      9  C   UNL     1       4.302  -1.869  -0.281  1.00  0.00     0.016 A 
ATOM     10  C   UNL     1       2.604  -2.836  -1.663  1.00  0.00     0.016 A 
ATOM     11  C   UNL     1       4.873  -3.110  -0.079  1.00  0.00     0.010 A 
ATOM     12  C   UNL     1       3.143  -4.106  -1.431  1.00  0.00     0.010 A 
ATOM     13  C   UNL     1       4.309  -4.232  -0.669  1.00  0.00    -0.014 A 
BRANCH  13  14
ATOM     14  C   UNL     1       5.080  -5.481  -0.592  1.00  0.00     0.031 A 
ATOM     15  C   UNL     1       5.833  -5.912  -1.810  1.00  0.00     0.074 A 
ATOM     16  C   UNL     1       5.227  -6.097   0.594  1.00  0.00     0.049 A 
ATOM     17  N   UNL     1       6.585  -6.961  -1.983  1.00  0.00    -0.248 NA
ATOM     18  C   UNL     1       5.744  -5.032  -2.991  1.00  0.00     0.031 C 
ATOM     19  C   UNL     1       4.624  -5.647   1.850  1.00  0.00     0.029 A 
ATOM     20  N   UNL     1       5.946  -7.205   0.946  1.00  0.00    -0.354 N 
ATOM     21  C   UNL     1       7.008  -6.901  -3.303  1.00  0.00     0.074 A 
ATOM     22  C   UNL     1       6.449  -5.704  -3.886  1.00  0.00     0.031 C 
ATOM     23  C   UNL     1       5.011  -6.466   2.840  1.00  0.00     0.029 A 
ATOM     24  C   UNL     1       5.821  -7.537   2.275  1.00  0.00     0.049 A 
ATOM     25  H   UNL     1       6.499  -7.716   0.311  1.00  0.00     0.167 HD
ATOM     26  C   UNL     1       7.790  -7.781  -3.963  1.00  0.00     0.034 A 
ATOM     27  C   UNL     1       6.280  -8.612   2.943  1.00  0.00     0.034 A 
ATOM     28  C   UNL     1       8.334  -8.954  -3.341  1.00  0.00     0.049 A 
ATOM     29  C   UNL     1       7.090  -9.615   2.168  1.00  0.00     0.074 A 
ATOM     30  C   UNL     1       9.104  -9.950  -3.908  1.00  0.00     0.029 A 
ATOM     31  N   UNL     1       8.153  -9.289  -2.005  1.00  0.00    -0.354 N 
ATOM     32  N   UNL     1       7.476  -9.563   0.914  1.00  0.00    -0.248 NA
ATOM     33  C   UNL     1       7.533 -10.815   2.886  1.00  0.00     0.031 C 
ATOM     34  C   UNL     1       9.352 -10.910  -2.924  1.00  0.00     0.029 A 
ATOM     35  C   UNL     1       8.783 -10.486  -1.730  1.00  0.00     0.049 A 
ATOM     36  H   UNL     1       7.649  -8.753  -1.352  1.00  0.00     0.167 HD
ATOM     37  C   UNL     1       8.224 -10.710   0.694  1.00  0.00     0.074 A 
ATOM     38  C   UNL     1       8.254 -11.429   1.955  1.00  0.00     0.031 C 
ATOM     39  C   UNL     1       8.819 -11.143  -0.445  1.00  0.00     0.034 A 
BRANCH  26  40
ATOM     40  C   UNL     1       8.045  -7.528  -5.422  1.00  0.00     0.023 A 
ATOM     41  C   UNL     1       8.897  -6.482  -5.829  1.00  0.00     0.012 A 
ATOM     42  C   UNL     1       7.435  -8.343  -6.396  1.00  0.00     0.148 A 
ATOM     43  C   UNL     1       9.113  -6.231  -7.185  1.00  0.00     0.002 A 
ATOM     44  C   UNL     1       7.693  -8.118  -7.742  1.00  0.00     0.091 A 
ATOM     45  F   UNL     1       6.601  -9.309  -5.987  1.00  0.00    -0.205 F 
ATOM     46  C   UNL     1       8.520  -7.055  -8.139  1.00  0.00     0.022 A 
BRANCH  44  47
ATOM     47  S   UNL     1       7.034  -9.168  -9.040  1.00  0.00     0.127 S 
ATOM     48  O   UNL     1       6.160  -8.237  -9.756  1.00  0.00    -0.237 OA
ATOM     49  O   UNL     1       8.247  -9.544  -9.769  1.00  0.00    -0.237 OA
ATOM     50  O   UNL     1       6.355 -10.264  -8.372  1.00  0.00    -0.744 OA
ENDBRANCH  44  47
ENDBRANCH  26  40
BRANCH  27  51
ATOM     51  C   UNL     1       5.971  -8.775   4.393  1.00  0.00     0.023 A 
ATOM     52  C   UNL     1       7.008  -8.720   5.343  1.00  0.00     0.012 A 
ATOM     53  C   UNL     1       4.640  -8.910   4.843  1.00  0.00     0.148 A 
ATOM     54  C   UNL     1       6.727  -8.808   6.709  1.00  0.00     0.002 A 
ATOM     55  C   UNL     1       4.361  -8.929   6.204  1.00  0.00     0.091 A 
ATOM     56  F   UNL     1       3.665  -8.981   3.925  1.00  0.00    -0.205 F 
ATOM     57  C   UNL     1       5.405  -8.898   7.140  1.00  0.00     0.022 A 
BRANCH  55  58
ATOM     58  S   UNL     1       2.684  -8.888   6.849  1.00  0.00     0.127 S 
ATOM     59  O   UNL     1       2.602 -10.169   7.549  1.00  0.00    -0.237 OA
ATOM     60  O   UNL     1       2.727  -7.711   7.718  1.00  0.00    -0.237 OA
ATOM     61  O   UNL     1       1.811  -8.749   5.693  1.00  0.00    -0.744 OA
ENDBRANCH  55  58
ENDBRANCH  27  51
BRANCH  39  62
ATOM     62  C   UNL     1       9.581 -12.437  -0.384  1.00  0.00     0.023 A 
ATOM     63  C   UNL     1       8.883 -13.658  -0.334  1.00  0.00     0.012 A 
ATOM     64  C   UNL     1      10.982 -12.436  -0.528  1.00  0.00     0.148 A 
ATOM     65  C   UNL     1       9.575 -14.865  -0.416  1.00  0.00     0.002 A 
ATOM     66  C   UNL     1      11.656 -13.639  -0.669  1.00  0.00     0.091 A 
ATOM     67  F   UNL     1      11.620 -11.256  -0.556  1.00  0.00    -0.205 F 
ATOM     68  C   UNL     1      10.956 -14.855  -0.602  1.00  0.00     0.022 A 
BRANCH  66  69
ATOM     69  S   UNL     1      13.411 -13.718  -1.039  1.00  0.00     0.127 S 
ATOM     70  O   UNL     1      13.950 -14.276   0.200  1.00  0.00    -0.237 OA
ATOM     71  O   UNL     1      13.443 -14.628  -2.184  1.00  0.00    -0.237 OA
ATOM     72  O   UNL     1      13.823 -12.354  -1.337  1.00  0.00    -0.744 OA
ENDBRANCH  66  69
ENDBRANCH  39  62
ENDBRANCH  13  14
ENDBRANCH   6   8
ENDBRANCH   5   6
ENDBRANCH   4   5
ENDBRANCH   3   4
ENDBRANCH   2   3
ENDBRANCH   1   2
BRANCH   1  73
ATOM     73  C   UNL     1       2.139   1.260   2.855  1.00  0.00     0.188 C 
BRANCH  73  74
ATOM     74  O   UNL     1       2.813   2.079   3.806  1.00  0.00    -0.376 OA
BRANCH  74  75
ATOM     75  C   UNL     1       4.233   2.041   3.876  1.00  0.00     0.202 C 
BRANCH  75  76
ATOM     76  C   UNL     1       4.966   0.819   4.474  1.00  0.00     0.261 C 
BRANCH  76  77
ATOM     77  O   UNL     1       4.599  -0.482   3.999  1.00  0.00    -0.459 OA
BRANCH  77  78
ATOM     78  C   UNL     1       3.481  -0.958   4.609  1.00  0.00     0.364 C 
ATOM     79  O   UNL     1       2.808  -0.275   5.376  1.00  0.00    -0.245 OA
BRANCH  78  80
ATOM     80  C   UNL     1       3.118  -2.381   4.170  1.00  0.00     0.294 C 
ATOM     81  C   UNL     1       1.794  -2.821   4.776  1.00  0.00     0.090 C 
ATOM     82  N   UNL     1       4.045  -3.406   4.669  1.00  0.00    -0.334 N 
ATOM     83  C   UNL     1       2.166  -3.307   6.194  1.00  0.00     0.036 C 
ATOM     84  C   UNL     1       3.545  -3.941   5.950  1.00  0.00     0.268 C 
ATOM     85  H   UNL     1       4.966  -2.991   4.811  1.00  0.00     0.347 HD
ATOM     86  H   UNL     1       4.113  -4.163   3.989  1.00  0.00     0.347 HD
ATOM     87  C   UNL     1       1.097  -4.268   6.744  1.00  0.00     0.075 C 
ATOM     88  C   UNL     1       2.301  -2.207   7.272  1.00  0.00     0.075 C 
ATOM     89  C   UNL     1      -0.222  -3.540   7.072  1.00  0.00     0.271 C 
ATOM     90  C   UNL     1       1.003  -1.429   7.411  1.00  0.00     0.271 C 
ATOM     91  N   UNL     1      -0.038  -2.333   7.898  1.00  0.00    -0.271 N 
ATOM     92  H   UNL     1      -0.684  -2.008   7.230  1.00  0.00     0.356 HD
BRANCH  91  93
ATOM     93  C   UNL     1      -0.728  -1.885   9.028  1.00  0.00     0.322 C 
ATOM     94  O   UNL     1      -0.483  -0.755   9.468  1.00  0.00    -0.230 OA
BRANCH  93  95
ATOM     95  C   UNL     1      -1.756  -2.688   9.819  1.00  0.00     0.113 C 
ATOM     96  C   UNL     1      -2.598  -3.849   9.309  1.00  0.00     0.028 C 
ATOM     97  C   UNL     1      -1.399  -4.130  10.165  1.00  0.00     0.028 C 
BRANCH  95  98
ATOM     98  C   UNL     1      -2.469  -1.827  10.886  1.00  0.00     0.007 A 
ATOM     99  C   UNL     1      -3.714  -1.228  10.615  1.00  0.00     0.008 A 
ATOM    100  C   UNL     1      -1.844  -1.484  12.095  1.00  0.00     0.127 A 
ATOM    101  C   UNL     1      -4.297  -0.324  11.507  1.00  0.00     0.001 A 
ATOM    102  C   UNL     1      -2.411  -0.573  12.985  1.00  0.00     0.039 A 
ATOM    103  F   UNL     1      -0.647  -2.008  12.400  1.00  0.00    -0.207 F 
ATOM    104  C   UNL     1      -3.640   0.012  12.689  1.00  0.00     0.003 A 
ENDBRANCH  95  98
ENDBRANCH  93  95
ENDBRANCH  91  93
ENDBRANCH  78  80
ENDBRANCH  77  78
ENDBRANCH  76  77
ENDBRANCH  75  76
ENDBRANCH  74  75
ENDBRANCH  73  74
ENDBRANCH   1  73
TORSDOF 23
