REMARK SMILES O=C(CSC(=S)N1CCCCC1)OCCOCCOCCOC(=O)c1ccc(-c2c3nc(c(-c4cccc(S(=O)(=O)[O-])c4F)c4ccc([nH]4)c(-c4cccc(S(=O)(=O)[O-])c4F)c4nc(c(-c5cccc(S(=O)(=O)[O-])c5F)c5ccc2[nH]5)C=C4)C=C3)cc1
REMARK SMILES IDX 17 1 16 2 15 3 14 4 13 5 2 6 1 7 3 8 4 9 5 10 6 11 7 12 8 13
REMARK SMILES IDX 12 14 9 15 11 16 10 17 18 18 19 19 20 20 21 21 22 22 23 23
REMARK SMILES IDX 24 24 25 25 26 26 87 27 27 28 86 29 28 30 29 31 30 32 80 33
REMARK SMILES IDX 31 34 85 35 79 36 81 37 32 38 84 39 78 40 77 41 33 43 65 44
REMARK SMILES IDX 45 45 64 46 46 47 49 48 63 49 82 50 47 51 48 52 62 54 83 55
REMARK SMILES IDX 50 56 34 57 35 58 43 59 36 60 38 61 44 62 37 63 39 64 40 65
REMARK SMILES IDX 41 66 42 67 66 68 67 69 75 70 68 71 70 72 76 73 69 74 71 75
REMARK SMILES IDX 72 76 73 77 74 78 51 79 52 80 60 81 53 82 55 83 61 84 54 85
REMARK SMILES IDX 56 86 57 87 58 88 59 89
REMARK H PARENT 81 42 49 53
REMARK Flexibility Score: inf
ROOT
ATOM      1  C   UNL     1       2.994   1.686   0.795  1.00  0.00     0.188 C 
ENDROOT
BRANCH   1   2
ATOM      2  O   UNL     1       4.273   1.564   0.189  1.00  0.00    -0.376 OA
BRANCH   2   3
ATOM      3  C   UNL     1       4.842   0.262   0.251  1.00  0.00     0.202 C 
BRANCH   3   4
ATOM      4  C   UNL     1       4.575  -0.500  -1.044  1.00  0.00     0.261 C 
BRANCH   4   5
ATOM      5  O   UNL     1       3.187  -0.661  -1.416  1.00  0.00    -0.463 OA
BRANCH   5   6
ATOM      6  C   UNL     1       2.173  -1.220  -0.726  1.00  0.00     0.316 C 
ATOM      7  O   UNL     1       1.022  -1.042  -1.128  1.00  0.00    -0.251 OA
BRANCH   6   8
ATOM      8  C   UNL     1       2.426  -1.957   0.566  1.00  0.00     0.199 C 
BRANCH   8   9
ATOM      9  S   UNL     1       3.550  -3.357   0.433  1.00  0.00    -0.085 SA
BRANCH   9  10
ATOM     10  C   UNL     1       2.793  -4.363  -0.806  1.00  0.00     0.136 C 
ATOM     11  S   UNL     1       1.127  -4.542  -0.958  1.00  0.00    -0.053 S 
BRANCH  10  12
ATOM     12  N   UNL     1       3.726  -5.005  -1.631  1.00  0.00    -0.358 N 
ATOM     13  C   UNL     1       3.388  -5.458  -2.982  1.00  0.00     0.118 C 
ATOM     14  C   UNL     1       4.877  -5.722  -1.065  1.00  0.00     0.118 C 
ATOM     15  C   UNL     1       3.006  -6.937  -2.971  1.00  0.00     0.021 C 
ATOM     16  C   UNL     1       4.508  -7.201  -0.932  1.00  0.00     0.021 C 
ATOM     17  C   UNL     1       4.074  -7.788  -2.279  1.00  0.00     0.004 C 
ENDBRANCH  10  12
ENDBRANCH   9  10
ENDBRANCH   8   9
ENDBRANCH   6   8
ENDBRANCH   5   6
ENDBRANCH   4   5
ENDBRANCH   3   4
ENDBRANCH   2   3
ENDBRANCH   1   2
BRANCH   1  18
ATOM     18  C   UNL     1       2.407   3.105   0.723  1.00  0.00     0.188 C 
BRANCH  18  19
ATOM     19  O   UNL     1       3.227   4.166   0.252  1.00  0.00    -0.376 OA
BRANCH  19  20
ATOM     20  C   UNL     1       4.513   4.342   0.837  1.00  0.00     0.202 C 
BRANCH  20  21
ATOM     21  C   UNL     1       4.563   4.596   2.345  1.00  0.00     0.261 C 
BRANCH  21  22
ATOM     22  O   UNL     1       4.142   3.465   3.135  1.00  0.00    -0.460 OA
BRANCH  22  23
ATOM     23  C   UNL     1       3.114   3.727   3.980  1.00  0.00     0.338 C 
ATOM     24  O   UNL     1       2.514   4.780   4.101  1.00  0.00    -0.246 OA
BRANCH  23  25
ATOM     25  C   UNL     1       2.698   2.520   4.716  1.00  0.00     0.060 A 
ATOM     26  C   UNL     1       1.380   2.077   4.549  1.00  0.00     0.016 A 
ATOM     27  C   UNL     1       3.505   1.985   5.723  1.00  0.00     0.016 A 
ATOM     28  C   UNL     1       0.836   1.156   5.445  1.00  0.00     0.010 A 
ATOM     29  C   UNL     1       2.954   1.065   6.624  1.00  0.00     0.010 A 
ATOM     30  C   UNL     1       1.600   0.696   6.527  1.00  0.00    -0.014 A 
BRANCH  30  31
ATOM     31  C   UNL     1       0.917   0.019   7.660  1.00  0.00     0.031 A 
ATOM     32  C   UNL     1       0.501   0.843   8.854  1.00  0.00     0.074 A 
ATOM     33  C   UNL     1       0.647  -1.298   7.633  1.00  0.00     0.049 A 
ATOM     34  N   UNL     1      -0.149   0.476   9.928  1.00  0.00    -0.248 NA
ATOM     35  C   UNL     1       0.866   2.270   8.832  1.00  0.00     0.031 C 
ATOM     36  C   UNL     1       0.996  -2.211   6.549  1.00  0.00     0.029 A 
ATOM     37  N   UNL     1       0.023  -2.095   8.561  1.00  0.00    -0.354 N 
ATOM     38  C   UNL     1      -0.252   1.615  10.718  1.00  0.00     0.074 A 
ATOM     39  C   UNL     1       0.415   2.684  10.008  1.00  0.00     0.031 C 
ATOM     40  C   UNL     1       0.598  -3.452   6.881  1.00  0.00     0.029 A 
ATOM     41  C   UNL     1      -0.030  -3.421   8.202  1.00  0.00     0.049 A 
ATOM     42  H   UNL     1      -0.351  -1.750   9.403  1.00  0.00     0.167 HD
ATOM     43  C   UNL     1      -0.867   1.771  11.915  1.00  0.00     0.034 A 
ATOM     44  C   UNL     1      -0.528  -4.486   8.863  1.00  0.00     0.034 A 
ATOM     45  C   UNL     1      -1.562   0.725  12.614  1.00  0.00     0.049 A 
ATOM     46  C   UNL     1      -1.204  -4.286  10.197  1.00  0.00     0.074 A 
ATOM     47  C   UNL     1      -2.265   0.805  13.804  1.00  0.00     0.029 A 
ATOM     48  N   UNL     1      -1.635  -0.593  12.194  1.00  0.00    -0.354 N 
ATOM     49  N   UNL     1      -1.427  -3.174  10.854  1.00  0.00    -0.248 NA
ATOM     50  C   UNL     1      -1.734  -5.488  10.861  1.00  0.00     0.031 C 
ATOM     51  C   UNL     1      -2.754  -0.470  14.109  1.00  0.00     0.029 A 
ATOM     52  C   UNL     1      -2.364  -1.340  13.104  1.00  0.00     0.049 A 
ATOM     53  H   UNL     1      -1.230  -0.946  11.370  1.00  0.00     0.167 HD
ATOM     54  C   UNL     1      -2.159  -3.535  11.982  1.00  0.00     0.074 A 
ATOM     55  C   UNL     1      -2.354  -4.968  11.912  1.00  0.00     0.031 C 
ATOM     56  C   UNL     1      -2.615  -2.753  12.992  1.00  0.00     0.034 A 
BRANCH  43  57
ATOM     57  C   UNL     1      -0.853   3.144  12.529  1.00  0.00     0.023 A 
ATOM     58  C   UNL     1      -1.707   4.140  12.013  1.00  0.00     0.012 A 
ATOM     59  C   UNL     1      -0.040   3.437  13.640  1.00  0.00     0.148 A 
ATOM     60  C   UNL     1      -1.733   5.414  12.577  1.00  0.00     0.002 A 
ATOM     61  C   UNL     1      -0.098   4.699  14.220  1.00  0.00     0.091 A 
ATOM     62  F   UNL     1       0.786   2.486  14.098  1.00  0.00    -0.205 F 
ATOM     63  C   UNL     1      -0.937   5.691  13.686  1.00  0.00     0.022 A 
BRANCH  61  64
ATOM     64  S   UNL     1       0.844   5.121  15.691  1.00  0.00     0.127 S 
ATOM     65  O   UNL     1       1.944   5.900  15.125  1.00  0.00    -0.237 OA
ATOM     66  O   UNL     1      -0.120   5.904  16.466  1.00  0.00    -0.237 OA
ATOM     67  O   UNL     1       1.216   3.852  16.299  1.00  0.00    -0.744 OA
ENDBRANCH  61  64
ENDBRANCH  43  57
BRANCH  44  68
ATOM     68  C   UNL     1      -0.473  -5.839   8.242  1.00  0.00     0.023 A 
ATOM     69  C   UNL     1      -1.665  -6.440   7.792  1.00  0.00     0.012 A 
ATOM     70  C   UNL     1       0.745  -6.528   8.089  1.00  0.00     0.148 A 
ATOM     71  C   UNL     1      -1.648  -7.715   7.226  1.00  0.00     0.002 A 
ATOM     72  C   UNL     1       0.761  -7.777   7.478  1.00  0.00     0.091 A 
ATOM     73  F   UNL     1       1.865  -5.950   8.545  1.00  0.00    -0.205 F 
ATOM     74  C   UNL     1      -0.436  -8.379   7.060  1.00  0.00     0.022 A 
BRANCH  72  75
ATOM     75  S   UNL     1       2.291  -8.648   7.120  1.00  0.00     0.127 S 
ATOM     76  O   UNL     1       2.288  -9.693   8.140  1.00  0.00    -0.237 OA
ATOM     77  O   UNL     1       2.063  -9.120   5.753  1.00  0.00    -0.237 OA
ATOM     78  O   UNL     1       3.344  -7.647   7.236  1.00  0.00    -0.744 OA
ENDBRANCH  72  75
ENDBRANCH  44  68
BRANCH  56  79
ATOM     79  C   UNL     1      -3.404  -3.411  14.094  1.00  0.00     0.023 A 
ATOM     80  C   UNL     1      -2.739  -4.202  15.051  1.00  0.00     0.012 A 
ATOM     81  C   UNL     1      -4.788  -3.181  14.230  1.00  0.00     0.148 A 
ATOM     82  C   UNL     1      -3.443  -4.777  16.110  1.00  0.00     0.002 A 
ATOM     83  C   UNL     1      -5.475  -3.722  15.312  1.00  0.00     0.091 A 
ATOM     84  F   UNL     1      -5.412  -2.444  13.299  1.00  0.00    -0.205 F 
ATOM     85  C   UNL     1      -4.807  -4.528  16.247  1.00  0.00     0.022 A 
BRANCH  83  86
ATOM     86  S   UNL     1      -7.213  -3.367  15.605  1.00  0.00     0.127 S 
ATOM     87  O   UNL     1      -7.861  -4.548  15.038  1.00  0.00    -0.237 OA
ATOM     88  O   UNL     1      -7.278  -3.279  17.065  1.00  0.00    -0.237 OA
ATOM     89  O   UNL     1      -7.474  -2.108  14.920  1.00  0.00    -0.744 OA
ENDBRANCH  83  86
ENDBRANCH  56  79
ENDBRANCH  30  31
ENDBRANCH  23  25
ENDBRANCH  22  23
ENDBRANCH  21  22
ENDBRANCH  20  21
ENDBRANCH  19  20
ENDBRANCH  18  19
ENDBRANCH   1  18
TORSDOF 23
