REMARK SMILES O=C(OCCOCCOCCOC(=O)[C@H](c1c[nH]c2cc(F)ccc12)[NH+]1CC[NH+](CC(=O)N2CCOCC2)CC1)c1ccc(-c2c3nc(c(-c4cccc(S(=O)(=O)[O-])c4F)c4ccc([nH]4)c(-c4cccc(S(=O)(=O)[O-])c4F)c4nc(c(-c5cccc(S(=O)(=O)[O-])c5F)c5ccc2[nH]5)C=C4)C=C3)cc1
REMARK SMILES IDX 7 1 6 2 5 3 4 4 3 5 2 6 1 7 41 8 42 9 103 10 43 11 102 12
REMARK SMILES IDX 44 13 45 14 46 15 96 16 47 17 101 18 95 19 97 20 48 21
REMARK SMILES IDX 100 22 94 23 93 24 49 26 81 27 61 28 80 29 62 30 65 31 79 32
REMARK SMILES IDX 98 33 63 34 64 35 78 37 99 38 66 39 50 40 51 41 59 42 52 43
REMARK SMILES IDX 54 44 60 45 53 46 55 47 56 48 57 49 58 50 82 51 83 52 91 53
REMARK SMILES IDX 84 54 86 55 92 56 85 57 87 58 88 59 89 60 90 61 67 62 68 63
REMARK SMILES IDX 76 64 69 65 71 66 77 67 70 68 72 69 73 70 74 71 75 72 8 73
REMARK SMILES IDX 9 74 10 75 11 76 12 77 13 78 14 79 15 80 26 81 27 82 40 83
REMARK SMILES IDX 28 85 39 86 29 87 30 89 31 90 32 91 33 92 34 93 38 94 35 95
REMARK SMILES IDX 37 96 36 97 16 98 17 99 25 100 18 101 19 102 24 103 20 105
REMARK SMILES IDX 23 106 21 107 22 108
REMARK H PARENT 97 25 65 36 26 84 29 88 18 104
REMARK Flexibility Score: inf
ROOT
ATOM      1  C   UNL     1       1.792  -1.219  -2.626  1.00  0.00     0.188 C 
ENDROOT
BRANCH   1   2
ATOM      2  O   UNL     1       1.448  -2.565  -2.931  1.00  0.00    -0.376 OA
BRANCH   2   3
ATOM      3  C   UNL     1       0.383  -2.823  -3.844  1.00  0.00     0.202 C 
BRANCH   3   4
ATOM      4  C   UNL     1      -0.787  -1.838  -3.945  1.00  0.00     0.261 C 
BRANCH   4   5
ATOM      5  O   UNL     1      -1.616  -1.667  -2.780  1.00  0.00    -0.460 OA
BRANCH   5   6
ATOM      6  C   UNL     1      -1.113  -1.319  -1.579  1.00  0.00     0.338 C 
ATOM      7  O   UNL     1      -0.760  -0.202  -1.223  1.00  0.00    -0.246 OA
BRANCH   6   8
ATOM      8  C   UNL     1      -1.391  -2.447  -0.681  1.00  0.00     0.060 A 
ATOM      9  C   UNL     1      -0.734  -3.666  -0.861  1.00  0.00     0.016 A 
ATOM     10  C   UNL     1      -2.385  -2.314   0.285  1.00  0.00     0.016 A 
ATOM     11  C   UNL     1      -1.159  -4.794  -0.187  1.00  0.00     0.010 A 
ATOM     12  C   UNL     1      -2.770  -3.435   1.017  1.00  0.00     0.010 A 
ATOM     13  C   UNL     1      -2.192  -4.685   0.744  1.00  0.00    -0.014 A 
BRANCH  13  14
ATOM     14  C   UNL     1      -2.673  -5.920   1.386  1.00  0.00     0.031 A 
ATOM     15  C   UNL     1      -3.995  -6.482   0.986  1.00  0.00     0.074 A 
ATOM     16  C   UNL     1      -1.893  -6.528   2.295  1.00  0.00     0.049 A 
ATOM     17  N   UNL     1      -4.580  -7.559   1.426  1.00  0.00    -0.248 NA
ATOM     18  C   UNL     1      -4.784  -5.720   0.003  1.00  0.00     0.031 C 
ATOM     19  C   UNL     1      -0.634  -5.981   2.789  1.00  0.00     0.029 A 
ATOM     20  N   UNL     1      -2.017  -7.723   2.954  1.00  0.00    -0.354 N 
ATOM     21  C   UNL     1      -5.857  -7.529   0.891  1.00  0.00     0.074 A 
ATOM     22  C   UNL     1      -5.932  -6.382   0.014  1.00  0.00     0.031 C 
ATOM     23  C   UNL     1      -0.074  -6.864   3.626  1.00  0.00     0.029 A 
ATOM     24  C   UNL     1      -0.919  -8.040   3.725  1.00  0.00     0.049 A 
ATOM     25  H   UNL     1      -2.812  -8.299   2.884  1.00  0.00     0.167 HD
ATOM     26  C   UNL     1      -6.885  -8.356   1.178  1.00  0.00     0.034 A 
ATOM     27  C   UNL     1      -0.626  -9.162   4.413  1.00  0.00     0.034 A 
ATOM     28  C   UNL     1      -6.768  -9.490   2.052  1.00  0.00     0.049 A 
ATOM     29  C   UNL     1      -1.719 -10.186   4.519  1.00  0.00     0.074 A 
ATOM     30  C   UNL     1      -7.742 -10.402   2.409  1.00  0.00     0.029 A 
ATOM     31  N   UNL     1      -5.607  -9.854   2.721  1.00  0.00    -0.354 N 
ATOM     32  N   UNL     1      -2.900 -10.185   3.948  1.00  0.00    -0.248 NA
ATOM     33  C   UNL     1      -1.476 -11.327   5.409  1.00  0.00     0.031 C 
ATOM     34  C   UNL     1      -7.180 -11.296   3.326  1.00  0.00     0.029 A 
ATOM     35  C   UNL     1      -5.844 -10.969   3.503  1.00  0.00     0.049 A 
ATOM     36  H   UNL     1      -4.744  -9.386   2.651  1.00  0.00     0.167 HD
ATOM     37  C   UNL     1      -3.567 -11.283   4.464  1.00  0.00     0.074 A 
ATOM     38  C   UNL     1      -2.619 -11.989   5.306  1.00  0.00     0.031 C 
ATOM     39  C   UNL     1      -4.867 -11.637   4.323  1.00  0.00     0.034 A 
BRANCH  26  40
ATOM     40  C   UNL     1      -8.234  -8.003   0.624  1.00  0.00     0.023 A 
ATOM     41  C   UNL     1      -8.534  -8.203  -0.736  1.00  0.00     0.012 A 
ATOM     42  C   UNL     1      -9.224  -7.494   1.488  1.00  0.00     0.148 A 
ATOM     43  C   UNL     1      -9.797  -7.881  -1.233  1.00  0.00     0.002 A 
ATOM     44  C   UNL     1     -10.493  -7.222   0.997  1.00  0.00     0.091 A 
ATOM     45  F   UNL     1      -8.901  -7.281   2.772  1.00  0.00    -0.205 F 
ATOM     46  C   UNL     1     -10.778  -7.404  -0.365  1.00  0.00     0.022 A 
BRANCH  44  47
ATOM     47  S   UNL     1     -11.841  -6.673   2.047  1.00  0.00     0.127 S 
ATOM     48  O   UNL     1     -12.158  -5.370   1.464  1.00  0.00    -0.237 OA
ATOM     49  O   UNL     1     -12.846  -7.709   1.811  1.00  0.00    -0.237 OA
ATOM     50  O   UNL     1     -11.309  -6.627   3.402  1.00  0.00    -0.744 OA
ENDBRANCH  44  47
ENDBRANCH  26  40
BRANCH  27  51
ATOM     51  C   UNL     1       0.723  -9.390   5.020  1.00  0.00     0.023 A 
ATOM     52  C   UNL     1       1.489 -10.501   4.607  1.00  0.00     0.012 A 
ATOM     53  C   UNL     1       1.286  -8.510   5.962  1.00  0.00     0.148 A 
ATOM     54  C   UNL     1       2.765 -10.733   5.130  1.00  0.00     0.002 A 
ATOM     55  C   UNL     1       2.594  -8.690   6.403  1.00  0.00     0.091 A 
ATOM     56  F   UNL     1       0.538  -7.492   6.417  1.00  0.00    -0.205 F 
ATOM     57  C   UNL     1       3.329  -9.814   6.010  1.00  0.00     0.022 A 
BRANCH  55  58
ATOM     58  S   UNL     1       3.421  -7.413   7.359  1.00  0.00     0.127 S 
ATOM     59  O   UNL     1       3.145  -7.829   8.730  1.00  0.00    -0.237 OA
ATOM     60  O   UNL     1       4.819  -7.546   6.946  1.00  0.00    -0.237 OA
ATOM     61  O   UNL     1       2.795  -6.170   6.921  1.00  0.00    -0.744 OA
ENDBRANCH  55  58
ENDBRANCH  27  51
BRANCH  39  62
ATOM     62  C   UNL     1      -5.333 -12.806   5.140  1.00  0.00     0.023 A 
ATOM     63  C   UNL     1      -5.497 -12.655   6.532  1.00  0.00     0.012 A 
ATOM     64  C   UNL     1      -5.665 -14.023   4.522  1.00  0.00     0.148 A 
ATOM     65  C   UNL     1      -5.955 -13.718   7.305  1.00  0.00     0.002 A 
ATOM     66  C   UNL     1      -6.170 -15.060   5.291  1.00  0.00     0.091 A 
ATOM     67  F   UNL     1      -5.483 -14.138   3.199  1.00  0.00    -0.205 F 
ATOM     68  C   UNL     1      -6.303 -14.916   6.683  1.00  0.00     0.022 A 
BRANCH  66  69
ATOM     69  S   UNL     1      -6.731 -16.602   4.569  1.00  0.00     0.127 S 
ATOM     70  O   UNL     1      -5.750 -17.550   5.094  1.00  0.00    -0.237 OA
ATOM     71  O   UNL     1      -8.074 -16.735   5.133  1.00  0.00    -0.237 OA
ATOM     72  O   UNL     1      -6.695 -16.410   3.125  1.00  0.00    -0.744 OA
ENDBRANCH  66  69
ENDBRANCH  39  62
ENDBRANCH  13  14
ENDBRANCH   6   8
ENDBRANCH   5   6
ENDBRANCH   4   5
ENDBRANCH   3   4
ENDBRANCH   2   3
ENDBRANCH   1   2
BRANCH   1  73
ATOM     73  C   UNL     1       3.288  -0.950  -2.405  1.00  0.00     0.188 C 
BRANCH  73  74
ATOM     74  O   UNL     1       4.177  -1.373  -3.432  1.00  0.00    -0.376 OA
BRANCH  74  75
ATOM     75  C   UNL     1       4.171  -2.762  -3.744  1.00  0.00     0.202 C 
BRANCH  75  76
ATOM     76  C   UNL     1       4.387  -3.750  -2.596  1.00  0.00     0.261 C 
BRANCH  76  77
ATOM     77  O   UNL     1       3.413  -3.660  -1.546  1.00  0.00    -0.459 OA
BRANCH  77  78
ATOM     78  C   UNL     1       3.911  -3.552  -0.275  1.00  0.00     0.370 C 
ATOM     79  O   UNL     1       5.058  -3.179  -0.051  1.00  0.00    -0.245 OA
BRANCH  78  80
ATOM     80  C   UNL     1       2.896  -4.155   0.765  1.00  0.00     0.328 C 
BRANCH  80  81
ATOM     81  N   UNL     1       3.074  -5.620   0.760  1.00  0.00    -0.310 N 
ATOM     82  C   UNL     1       2.926  -6.467   1.934  1.00  0.00     0.325 C 
ATOM     83  C   UNL     1       3.157  -6.274  -0.538  1.00  0.00     0.325 C 
ATOM     84  H   UNL     1       3.971  -5.409   1.197  1.00  0.00     0.349 HD
ATOM     85  C   UNL     1       2.500  -7.949   1.642  1.00  0.00     0.325 C 
ATOM     86  C   UNL     1       2.512  -7.638  -0.695  1.00  0.00     0.325 C 
ATOM     87  N   UNL     1       2.946  -8.537   0.363  1.00  0.00    -0.318 N 
ATOM     88  H   UNL     1       2.505  -9.454   0.299  1.00  0.00     0.348 HD
BRANCH  87  89
ATOM     89  C   UNL     1       4.373  -8.933   0.235  1.00  0.00     0.364 C 
BRANCH  89  90
ATOM     90  C   UNL     1       5.366  -8.520   1.336  1.00  0.00     0.277 C 
ATOM     91  O   UNL     1       5.289  -9.091   2.431  1.00  0.00    -0.268 OA
ATOM     92  N   UNL     1       6.410  -7.614   1.086  1.00  0.00    -0.333 N 
ATOM     93  C   UNL     1       6.425  -6.573   0.056  1.00  0.00     0.148 C 
ATOM     94  C   UNL     1       7.277  -7.320   2.229  1.00  0.00     0.148 C 
ATOM     95  C   UNL     1       7.770  -5.873  -0.191  1.00  0.00     0.181 C 
ATOM     96  C   UNL     1       8.623  -6.730   1.810  1.00  0.00     0.181 C 
ATOM     97  O   UNL     1       8.451  -5.549   1.020  1.00  0.00    -0.378 OA
ENDBRANCH  89  90
ENDBRANCH  87  89
ENDBRANCH  80  81
BRANCH  80  98
ATOM     98  C   UNL     1       3.106  -3.396   2.069  1.00  0.00     0.046 A 
ATOM     99  C   UNL     1       4.296  -3.267   2.767  1.00  0.00     0.094 A 
ATOM    100  C   UNL     1       2.194  -2.450   2.683  1.00  0.00     0.009 A 
ATOM    101  N   UNL     1       4.199  -2.201   3.619  1.00  0.00    -0.361 N 
ATOM    102  C   UNL     1       2.943  -1.650   3.553  1.00  0.00     0.049 A 
ATOM    103  C   UNL     1       0.826  -2.130   2.527  1.00  0.00     0.014 A 
ATOM    104  H   UNL     1       4.926  -1.876   4.198  1.00  0.00     0.166 HD
ATOM    105  C   UNL     1       2.426  -0.511   4.190  1.00  0.00     0.065 A 
ATOM    106  C   UNL     1       0.273  -1.032   3.205  1.00  0.00     0.040 A 
ATOM    107  C   UNL     1       1.078  -0.225   3.995  1.00  0.00     0.125 A 
ATOM    108  F   UNL     1       0.547   0.857   4.585  1.00  0.00    -0.207 F 
ENDBRANCH  80  98
ENDBRANCH  78  80
ENDBRANCH  77  78
ENDBRANCH  76  77
ENDBRANCH  75  76
ENDBRANCH  74  75
ENDBRANCH  73  74
ENDBRANCH   1  73
TORSDOF 24
