REMARK SMILES O=C(OCCOCCOCCOC(=O)c1cc(-c2cccc(C(F)(F)F)c2)nc2c(F)cccc12)c1ccc(-c2c3nc(c(-c4cccc(S(=O)(=O)[O-])c4F)c4ccc([nH]4)c(-c4cccc(S(=O)(=O)[O-])c4F)c4nc(c(-c5cccc(S(=O)(=O)[O-])c5F)c5ccc2[nH]5)C=C4)C=C3)cc1
REMARK SMILES IDX 7 1 6 2 5 3 4 4 3 5 2 6 1 7 36 8 37 9 98 10 38 11 97 12
REMARK SMILES IDX 39 13 40 14 41 15 91 16 42 17 96 18 90 19 92 20 43 21 95 22
REMARK SMILES IDX 89 23 88 24 44 26 76 27 56 28 75 29 57 30 60 31 74 32 93 33
REMARK SMILES IDX 58 34 59 35 73 37 94 38 61 39 45 40 46 41 54 42 47 43 49 44
REMARK SMILES IDX 55 45 48 46 50 47 51 48 52 49 53 50 77 51 78 52 86 53 79 54
REMARK SMILES IDX 81 55 87 56 80 57 82 58 83 59 84 60 85 61 62 62 63 63 71 64
REMARK SMILES IDX 64 65 66 66 72 67 65 68 67 69 68 70 69 71 70 72 8 73 9 74
REMARK SMILES IDX 10 75 11 76 12 77 13 78 14 79 15 80 16 81 35 82 17 83 29 84
REMARK SMILES IDX 34 85 28 86 30 87 33 88 31 89 32 90 18 91 19 92 27 93 20 94
REMARK SMILES IDX 22 95 21 96 23 97 24 98 25 99 26 100
REMARK H PARENT 92 25 60 36
REMARK Flexibility Score: inf
ROOT
ATOM      1  C   UNL     1       2.498   2.109  -0.803  1.00  0.00     0.188 C 
ENDROOT
BRANCH   1   2
ATOM      2  O   UNL     1       3.705   1.583  -0.241  1.00  0.00    -0.376 OA
BRANCH   2   3
ATOM      3  C   UNL     1       4.602   1.030  -1.205  1.00  0.00     0.202 C 
BRANCH   3   4
ATOM      4  C   UNL     1       4.340  -0.443  -1.550  1.00  0.00     0.261 C 
BRANCH   4   5
ATOM      5  O   UNL     1       2.949  -0.788  -1.436  1.00  0.00    -0.460 OA
BRANCH   5   6
ATOM      6  C   UNL     1       2.364  -1.445  -0.402  1.00  0.00     0.338 C 
ATOM      7  O   UNL     1       1.169  -1.728  -0.456  1.00  0.00    -0.246 OA
BRANCH   6   8
ATOM      8  C   UNL     1       3.142  -1.894   0.784  1.00  0.00     0.060 A 
ATOM      9  C   UNL     1       4.109  -1.109   1.411  1.00  0.00     0.016 A 
ATOM     10  C   UNL     1       2.813  -3.130   1.357  1.00  0.00     0.016 A 
ATOM     11  C   UNL     1       4.856  -1.609   2.471  1.00  0.00     0.010 A 
ATOM     12  C   UNL     1       3.478  -3.582   2.504  1.00  0.00     0.010 A 
ATOM     13  C   UNL     1       4.555  -2.854   3.030  1.00  0.00    -0.014 A 
BRANCH  13  14
ATOM     14  C   UNL     1       5.450  -3.412   4.079  1.00  0.00     0.031 A 
ATOM     15  C   UNL     1       6.190  -4.696   3.806  1.00  0.00     0.074 A 
ATOM     16  C   UNL     1       5.674  -2.729   5.221  1.00  0.00     0.049 A 
ATOM     17  N   UNL     1       7.008  -5.360   4.581  1.00  0.00    -0.248 NA
ATOM     18  C   UNL     1       5.978  -5.327   2.490  1.00  0.00     0.031 C 
ATOM     19  C   UNL     1       5.026  -1.469   5.600  1.00  0.00     0.029 A 
ATOM     20  N   UNL     1       6.530  -2.981   6.263  1.00  0.00    -0.354 N 
ATOM     21  C   UNL     1       7.348  -6.510   3.877  1.00  0.00     0.074 A 
ATOM     22  C   UNL     1       6.645  -6.462   2.616  1.00  0.00     0.031 C 
ATOM     23  C   UNL     1       5.545  -1.038   6.761  1.00  0.00     0.029 A 
ATOM     24  C   UNL     1       6.514  -2.011   7.239  1.00  0.00     0.049 A 
ATOM     25  H   UNL     1       7.101  -3.781   6.309  1.00  0.00     0.167 HD
ATOM     26  C   UNL     1       8.192  -7.506   4.233  1.00  0.00     0.034 A 
ATOM     27  C   UNL     1       7.200  -1.917   8.394  1.00  0.00     0.034 A 
ATOM     28  C   UNL     1       8.944  -7.514   5.455  1.00  0.00     0.049 A 
ATOM     29  C   UNL     1       8.177  -3.007   8.735  1.00  0.00     0.074 A 
ATOM     30  C   UNL     1       9.812  -8.480   5.931  1.00  0.00     0.029 A 
ATOM     31  N   UNL     1       8.935  -6.486   6.386  1.00  0.00    -0.354 N 
ATOM     32  N   UNL     1       8.494  -4.074   8.043  1.00  0.00    -0.248 NA
ATOM     33  C   UNL     1       8.909  -2.865  10.001  1.00  0.00     0.031 C 
ATOM     34  C   UNL     1      10.338  -8.028   7.146  1.00  0.00     0.029 A 
ATOM     35  C   UNL     1       9.802  -6.780   7.422  1.00  0.00     0.049 A 
ATOM     36  H   UNL     1       8.392  -5.668   6.318  1.00  0.00     0.167 HD
ATOM     37  C   UNL     1       9.460  -4.734   8.790  1.00  0.00     0.074 A 
ATOM     38  C   UNL     1       9.712  -3.919   9.962  1.00  0.00     0.031 C 
ATOM     39  C   UNL     1      10.061  -5.924   8.550  1.00  0.00     0.034 A 
BRANCH  26  40
ATOM     40  C   UNL     1       8.358  -8.643   3.262  1.00  0.00     0.023 A 
ATOM     41  C   UNL     1       9.123  -8.452   2.093  1.00  0.00     0.012 A 
ATOM     42  C   UNL     1       7.746  -9.890   3.492  1.00  0.00     0.148 A 
ATOM     43  C   UNL     1       9.244  -9.470   1.148  1.00  0.00     0.002 A 
ATOM     44  C   UNL     1       7.900 -10.913   2.562  1.00  0.00     0.091 A 
ATOM     45  F   UNL     1       7.003 -10.044   4.597  1.00  0.00    -0.205 F 
ATOM     46  C   UNL     1       8.638 -10.701   1.385  1.00  0.00     0.022 A 
BRANCH  44  47
ATOM     47  S   UNL     1       7.198 -12.550   2.793  1.00  0.00     0.127 S 
ATOM     48  O   UNL     1       6.142 -12.562   1.781  1.00  0.00    -0.237 OA
ATOM     49  O   UNL     1       8.337 -13.418   2.495  1.00  0.00    -0.237 OA
ATOM     50  O   UNL     1       6.740 -12.600   4.174  1.00  0.00    -0.744 OA
ENDBRANCH  44  47
ENDBRANCH  26  40
BRANCH  27  51
ATOM     51  C   UNL     1       7.034  -0.744   9.298  1.00  0.00     0.023 A 
ATOM     52  C   UNL     1       8.051   0.230   9.348  1.00  0.00     0.012 A 
ATOM     53  C   UNL     1       5.910  -0.611  10.136  1.00  0.00     0.148 A 
ATOM     54  C   UNL     1       7.969   1.301  10.239  1.00  0.00     0.002 A 
ATOM     55  C   UNL     1       5.827   0.468  11.012  1.00  0.00     0.091 A 
ATOM     56  F   UNL     1       4.956  -1.548  10.070  1.00  0.00    -0.205 F 
ATOM     57  C   UNL     1       6.858   1.420  11.068  1.00  0.00     0.022 A 
BRANCH  55  58
ATOM     58  S   UNL     1       4.424   0.745  12.101  1.00  0.00     0.127 S 
ATOM     59  O   UNL     1       5.029   0.555  13.417  1.00  0.00    -0.237 OA
ATOM     60  O   UNL     1       4.075   2.131  11.783  1.00  0.00    -0.237 OA
ATOM     61  O   UNL     1       3.425  -0.240  11.720  1.00  0.00    -0.744 OA
ENDBRANCH  55  58
ENDBRANCH  27  51
BRANCH  39  62
ATOM     62  C   UNL     1      11.045  -6.409   9.574  1.00  0.00     0.023 A 
ATOM     63  C   UNL     1      10.570  -6.938  10.790  1.00  0.00     0.012 A 
ATOM     64  C   UNL     1      12.426  -6.404   9.307  1.00  0.00     0.148 A 
ATOM     65  C   UNL     1      11.461  -7.435  11.739  1.00  0.00     0.002 A 
ATOM     66  C   UNL     1      13.305  -6.939  10.240  1.00  0.00     0.091 A 
ATOM     67  F   UNL     1      12.856  -5.867   8.156  1.00  0.00    -0.205 F 
ATOM     68  C   UNL     1      12.826  -7.447  11.459  1.00  0.00     0.022 A 
BRANCH  66  69
ATOM     69  S   UNL     1      15.065  -7.069   9.911  1.00  0.00     0.127 S 
ATOM     70  O   UNL     1      15.591  -5.908  10.624  1.00  0.00    -0.237 OA
ATOM     71  O   UNL     1      15.405  -8.360  10.511  1.00  0.00    -0.237 OA
ATOM     72  O   UNL     1      15.195  -7.034   8.460  1.00  0.00    -0.744 OA
ENDBRANCH  66  69
ENDBRANCH  39  62
ENDBRANCH  13  14
ENDBRANCH   6   8
ENDBRANCH   5   6
ENDBRANCH   4   5
ENDBRANCH   3   4
ENDBRANCH   2   3
ENDBRANCH   1   2
BRANCH   1  73
ATOM     73  C   UNL     1       1.943   3.226   0.083  1.00  0.00     0.188 C 
BRANCH  73  74
ATOM     74  O   UNL     1       2.672   4.455   0.019  1.00  0.00    -0.376 OA
BRANCH  74  75
ATOM     75  C   UNL     1       4.019   4.433   0.486  1.00  0.00     0.202 C 
BRANCH  75  76
ATOM     76  C   UNL     1       4.213   4.424   2.005  1.00  0.00     0.261 C 
BRANCH  76  77
ATOM     77  O   UNL     1       3.751   3.234   2.669  1.00  0.00    -0.460 OA
BRANCH  77  78
ATOM     78  C   UNL     1       2.642   3.415   3.427  1.00  0.00     0.338 C 
ATOM     79  O   UNL     1       1.920   4.396   3.460  1.00  0.00    -0.246 OA
BRANCH  78  80
ATOM     80  C   UNL     1       2.422   2.261   4.310  1.00  0.00     0.071 A 
ATOM     81  C   UNL     1       1.519   1.280   3.901  1.00  0.00     0.045 A 
ATOM     82  C   UNL     1       2.949   2.290   5.617  1.00  0.00     0.018 A 
ATOM     83  C   UNL     1       1.121   0.343   4.837  1.00  0.00     0.072 A 
ATOM     84  C   UNL     1       2.458   1.317   6.501  1.00  0.00     0.107 A 
ATOM     85  C   UNL     1       3.903   3.238   6.074  1.00  0.00     0.011 A 
ATOM     86  N   UNL     1       1.569   0.379   6.109  1.00  0.00    -0.245 NA
ATOM     87  C   UNL     1       2.903   1.355   7.819  1.00  0.00     0.149 A 
ATOM     88  C   UNL     1       4.346   3.231   7.392  1.00  0.00     0.004 A 
ATOM     89  F   UNL     1       2.437   0.453   8.695  1.00  0.00    -0.205 F 
ATOM     90  C   UNL     1       3.828   2.294   8.271  1.00  0.00     0.041 A 
BRANCH  83  91
ATOM     91  C   UNL     1       0.168  -0.740   4.552  1.00  0.00     0.001 A 
ATOM     92  C   UNL     1       0.356  -1.603   3.466  1.00  0.00     0.010 A 
ATOM     93  C   UNL     1      -0.940  -0.971   5.387  1.00  0.00     0.023 A 
ATOM     94  C   UNL     1      -0.509  -2.671   3.223  1.00  0.00     0.001 A 
ATOM     95  C   UNL     1      -1.841  -2.023   5.141  1.00  0.00     0.056 A 
ATOM     96  C   UNL     1      -1.605  -2.879   4.056  1.00  0.00     0.013 A 
BRANCH  95  97
ATOM     97  C   UNL     1      -3.058  -2.232   6.005  1.00  0.00     0.416 C 
ATOM     98  F   UNL     1      -4.215  -2.086   5.293  1.00  0.00    -0.166 F 
ATOM     99  F   UNL     1      -3.121  -3.481   6.545  1.00  0.00    -0.166 F 
ATOM    100  F   UNL     1      -3.162  -1.362   7.046  1.00  0.00    -0.166 F 
ENDBRANCH  95  97
ENDBRANCH  83  91
ENDBRANCH  78  80
ENDBRANCH  77  78
ENDBRANCH  76  77
ENDBRANCH  75  76
ENDBRANCH  74  75
ENDBRANCH  73  74
ENDBRANCH   1  73
TORSDOF 22
