REMARK SMILES CC(C)(C)c1cc(Nc2ccccc2C(=O)OCCOCCOCCOC(=O)c2ccc(-c3c4nc(c(-c5cccc(S(=O)(=O)[O-])c5F)c5ccc([nH]5)c(-c5cccc(S(=O)(=O)[O-])c5F)c5nc(c(-c6cccc(S(=O)(=O)[O-])c6F)c6ccc3[nH]6)C=C5)C=C4)cc2)cc2c1OCC2(C)C
REMARK SMILES IDX 21 1 20 2 19 3 18 4 17 5 15 6 16 7 14 8 9 9 10 10 11 11
REMARK SMILES IDX 13 12 12 13 8 14 7 16 5 17 6 18 94 19 93 20 95 21 92 22
REMARK SMILES IDX 97 23 96 24 98 25 99 26 2 27 1 28 3 29 4 30 22 31 23 32
REMARK SMILES IDX 24 33 25 34 26 35 27 36 28 37 29 38 30 39 91 40 31 41 90 42
REMARK SMILES IDX 32 43 33 44 34 45 84 46 35 47 89 48 83 49 85 50 36 51 88 52
REMARK SMILES IDX 82 53 81 54 37 56 69 57 49 58 68 59 50 60 53 61 67 62 86 63
REMARK SMILES IDX 51 64 52 65 66 67 87 68 54 69 38 70 39 71 47 72 40 73 42 74
REMARK SMILES IDX 48 75 41 76 43 77 44 78 45 79 46 80 70 81 71 82 79 83 72 84
REMARK SMILES IDX 74 85 80 86 73 87 75 88 76 89 77 90 78 91 55 92 56 93 64 94
REMARK SMILES IDX 57 95 59 96 65 97 58 98 60 99 61 100 62 101 63 102
REMARK H PARENT 8 15 85 55 53 66
REMARK Flexibility Score: inf
ROOT
ATOM      1  C   UNL     1      -2.292   6.162   6.145  1.00  0.00     0.188 C 
ENDROOT
BRANCH   1   2
ATOM      2  O   UNL     1      -3.495   6.524   5.491  1.00  0.00    -0.376 OA
BRANCH   2   3
ATOM      3  C   UNL     1      -3.550   6.584   4.074  1.00  0.00     0.202 C 
BRANCH   3   4
ATOM      4  C   UNL     1      -2.401   7.149   3.223  1.00  0.00     0.261 C 
BRANCH   4   5
ATOM      5  O   UNL     1      -1.085   6.720   3.597  1.00  0.00    -0.460 OA
BRANCH   5   6
ATOM      6  C   UNL     1      -0.262   7.699   4.051  1.00  0.00     0.340 C 
ATOM      7  O   UNL     1      -0.508   8.894   4.067  1.00  0.00    -0.246 OA
BRANCH   6   8
ATOM      8  C   UNL     1       0.944   7.127   4.699  1.00  0.00     0.083 A 
ATOM      9  C   UNL     1       1.696   6.059   4.176  1.00  0.00     0.053 A 
ATOM     10  C   UNL     1       2.877   5.710   4.861  1.00  0.00     0.027 A 
ATOM     11  C   UNL     1       3.207   6.268   6.098  1.00  0.00     0.002 A 
ATOM     12  C   UNL     1       1.286   7.697   5.942  1.00  0.00     0.018 A 
ATOM     13  C   UNL     1       2.389   7.238   6.658  1.00  0.00     0.001 A 
BRANCH   9  14
ATOM     14  N   UNL     1       1.236   5.259   3.101  1.00  0.00    -0.355 N 
ATOM     15  H   UNL     1       0.832   5.750   2.350  1.00  0.00     0.167 HD
BRANCH  14  16
ATOM     16  C   UNL     1       1.275   3.851   2.958  1.00  0.00     0.039 A 
ATOM     17  C   UNL     1       1.030   1.860   1.475  1.00  0.00     0.002 A 
ATOM     18  C   UNL     1       0.938   3.259   1.721  1.00  0.00     0.034 A 
ATOM     19  C   UNL     1       1.511   1.092   2.537  1.00  0.00     0.127 A 
ATOM     20  C   UNL     1       1.833   1.653   3.761  1.00  0.00     0.006 A 
ATOM     21  O   UNL     1       1.721  -0.261   2.517  1.00  0.00    -0.492 OA
ATOM     22  C   UNL     1       1.692   3.010   3.988  1.00  0.00     0.034 A 
ATOM     23  C   UNL     1       2.348   0.629   4.713  1.00  0.00     0.028 C 
ATOM     24  C   UNL     1       2.197  -0.624   3.834  1.00  0.00     0.240 C 
ATOM     25  C   UNL     1       3.816   0.901   5.069  1.00  0.00     0.020 C 
ATOM     26  C   UNL     1       1.503   0.536   5.987  1.00  0.00     0.020 C 
BRANCH  17  27
ATOM     27  C   UNL     1       0.554   1.283   0.130  1.00  0.00    -0.009 C 
ATOM     28  C   UNL     1       0.994  -0.172  -0.155  1.00  0.00     0.016 C 
ATOM     29  C   UNL     1       1.074   2.126  -1.059  1.00  0.00     0.016 C 
ATOM     30  C   UNL     1      -0.990   1.307   0.121  1.00  0.00     0.016 C 
ENDBRANCH  17  27
ENDBRANCH  14  16
ENDBRANCH   9  14
ENDBRANCH   6   8
ENDBRANCH   5   6
ENDBRANCH   4   5
ENDBRANCH   3   4
ENDBRANCH   2   3
ENDBRANCH   1   2
BRANCH   1  31
ATOM     31  C   UNL     1      -1.602   4.823   5.815  1.00  0.00     0.188 C 
BRANCH  31  32
ATOM     32  O   UNL     1      -2.101   4.100   4.717  1.00  0.00    -0.376 OA
BRANCH  32  33
ATOM     33  C   UNL     1      -3.220   3.243   4.857  1.00  0.00     0.202 C 
BRANCH  33  34
ATOM     34  C   UNL     1      -4.014   2.971   6.149  1.00  0.00     0.261 C 
BRANCH  34  35
ATOM     35  O   UNL     1      -3.809   3.826   7.272  1.00  0.00    -0.460 OA
BRANCH  35  36
ATOM     36  C   UNL     1      -3.048   3.310   8.271  1.00  0.00     0.338 C 
ATOM     37  O   UNL     1      -2.476   2.232   8.278  1.00  0.00    -0.246 OA
BRANCH  36  38
ATOM     38  C   UNL     1      -2.863   4.357   9.293  1.00  0.00     0.060 A 
ATOM     39  C   UNL     1      -3.969   4.900   9.947  1.00  0.00     0.016 A 
ATOM     40  C   UNL     1      -1.567   4.801   9.588  1.00  0.00     0.016 A 
ATOM     41  C   UNL     1      -3.771   5.877  10.924  1.00  0.00     0.010 A 
ATOM     42  C   UNL     1      -1.373   5.785  10.562  1.00  0.00     0.010 A 
ATOM     43  C   UNL     1      -2.473   6.312  11.253  1.00  0.00    -0.014 A 
BRANCH  43  44
ATOM     44  C   UNL     1      -2.279   7.169  12.448  1.00  0.00     0.031 A 
ATOM     45  C   UNL     1      -1.967   8.630  12.351  1.00  0.00     0.074 A 
ATOM     46  C   UNL     1      -2.399   6.588  13.657  1.00  0.00     0.049 A 
ATOM     47  N   UNL     1      -1.911   9.514  13.314  1.00  0.00    -0.248 NA
ATOM     48  C   UNL     1      -1.673   9.171  11.017  1.00  0.00     0.031 C 
ATOM     49  C   UNL     1      -2.626   5.158  13.876  1.00  0.00     0.029 A 
ATOM     50  N   UNL     1      -2.358   7.120  14.919  1.00  0.00    -0.354 N 
ATOM     51  C   UNL     1      -1.592  10.721  12.708  1.00  0.00     0.074 A 
ATOM     52  C   UNL     1      -1.426  10.447  11.294  1.00  0.00     0.031 C 
ATOM     53  C   UNL     1      -2.734   4.930  15.192  1.00  0.00     0.029 A 
ATOM     54  C   UNL     1      -2.573   6.192  15.909  1.00  0.00     0.049 A 
ATOM     55  H   UNL     1      -2.191   8.073  15.099  1.00  0.00     0.167 HD
ATOM     56  C   UNL     1      -1.480  11.946  13.275  1.00  0.00     0.034 A 
ATOM     57  C   UNL     1      -2.652   6.334  17.246  1.00  0.00     0.034 A 
ATOM     58  C   UNL     1      -1.644  12.213  14.681  1.00  0.00     0.049 A 
ATOM     59  C   UNL     1      -2.537   7.700  17.852  1.00  0.00     0.074 A 
ATOM     60  C   UNL     1      -1.593  13.432  15.335  1.00  0.00     0.029 A 
ATOM     61  N   UNL     1      -1.879  11.251  15.652  1.00  0.00    -0.354 N 
ATOM     62  N   UNL     1      -2.366   8.851  17.249  1.00  0.00    -0.248 NA
ATOM     63  C   UNL     1      -2.657   7.797  19.313  1.00  0.00     0.031 C 
ATOM     64  C   UNL     1      -1.783  13.207  16.702  1.00  0.00     0.029 A 
ATOM     65  C   UNL     1      -1.971  11.848  16.899  1.00  0.00     0.049 A 
ATOM     66  H   UNL     1      -1.968  10.286  15.481  1.00  0.00     0.167 HD
ATOM     67  C   UNL     1      -2.370   9.811  18.252  1.00  0.00     0.074 A 
ATOM     68  C   UNL     1      -2.577   9.109  19.503  1.00  0.00     0.031 C 
ATOM     69  C   UNL     1      -2.206  11.151  18.139  1.00  0.00     0.034 A 
BRANCH  56  70
ATOM     70  C   UNL     1      -1.242  13.121  12.365  1.00  0.00     0.023 A 
ATOM     71  C   UNL     1      -2.318  13.613  11.598  1.00  0.00     0.012 A 
ATOM     72  C   UNL     1      -0.006  13.796  12.337  1.00  0.00     0.148 A 
ATOM     73  C   UNL     1      -2.165  14.747  10.803  1.00  0.00     0.002 A 
ATOM     74  C   UNL     1       0.132  14.943  11.562  1.00  0.00     0.091 A 
ATOM     75  F   UNL     1       1.004  13.307  13.070  1.00  0.00    -0.205 F 
ATOM     76  C   UNL     1      -0.944  15.416  10.792  1.00  0.00     0.022 A 
BRANCH  74  77
ATOM     77  S   UNL     1       1.646  15.909  11.511  1.00  0.00     0.127 S 
ATOM     78  O   UNL     1       2.085  15.694  10.133  1.00  0.00    -0.237 OA
ATOM     79  O   UNL     1       1.159  17.259  11.793  1.00  0.00    -0.237 OA
ATOM     80  O   UNL     1       2.517  15.348  12.534  1.00  0.00    -0.744 OA
ENDBRANCH  74  77
ENDBRANCH  56  70
BRANCH  57  81
ATOM     81  C   UNL     1      -2.935   5.130  18.067  1.00  0.00     0.023 A 
ATOM     82  C   UNL     1      -4.244   4.903  18.531  1.00  0.00     0.012 A 
ATOM     83  C   UNL     1      -1.946   4.147  18.266  1.00  0.00     0.148 A 
ATOM     84  C   UNL     1      -4.567   3.710  19.177  1.00  0.00     0.002 A 
ATOM     85  C   UNL     1      -2.284   2.946  18.875  1.00  0.00     0.091 A 
ATOM     86  F   UNL     1      -0.713   4.389  17.800  1.00  0.00    -0.205 F 
ATOM     87  C   UNL     1      -3.592   2.727  19.337  1.00  0.00     0.022 A 
BRANCH  85  88
ATOM     88  S   UNL     1      -1.129   1.580  19.030  1.00  0.00     0.127 S 
ATOM     89  O   UNL     1      -1.092   1.383  20.477  1.00  0.00    -0.237 OA
ATOM     90  O   UNL     1      -1.814   0.527  18.281  1.00  0.00    -0.237 OA
ATOM     91  O   UNL     1       0.118   2.041  18.435  1.00  0.00    -0.744 OA
ENDBRANCH  85  88
ENDBRANCH  57  81
BRANCH  69  92
ATOM     92  C   UNL     1      -2.233  11.977  19.396  1.00  0.00     0.023 A 
ATOM     93  C   UNL     1      -1.095  12.012  20.224  1.00  0.00     0.012 A 
ATOM     94  C   UNL     1      -3.330  12.814  19.685  1.00  0.00     0.148 A 
ATOM     95  C   UNL     1      -1.048  12.866  21.326  1.00  0.00     0.002 A 
ATOM     96  C   UNL     1      -3.263  13.686  20.765  1.00  0.00     0.091 A 
ATOM     97  F   UNL     1      -4.404  12.757  18.884  1.00  0.00    -0.205 F 
ATOM     98  C   UNL     1      -2.125  13.711  21.588  1.00  0.00     0.022 A 
BRANCH  96  99
ATOM     99  S   UNL     1      -4.568  14.860  21.150  1.00  0.00     0.127 S 
ATOM    100  O   UNL     1      -5.022  14.382  22.456  1.00  0.00    -0.237 OA
ATOM    101  O   UNL     1      -3.840  16.128  21.185  1.00  0.00    -0.237 OA
ATOM    102  O   UNL     1      -5.546  14.745  20.077  1.00  0.00    -0.744 OA
ENDBRANCH  96  99
ENDBRANCH  69  92
ENDBRANCH  43  44
ENDBRANCH  36  38
ENDBRANCH  35  36
ENDBRANCH  34  35
ENDBRANCH  33  34
ENDBRANCH  32  33
ENDBRANCH  31  32
ENDBRANCH   1  31
TORSDOF 23
