REMARK SMILES COc1ccc(-c2ncn(CC(=O)OCCOCCOCCOC(=O)c3ccc(-c4c5nc(c(-c6cccc(S(=O)(=O)[O-])c6F)c6ccc([nH]6)c(-c6cccc(S(=O)(=O)[O-])c6F)c6nc(c(-c7cccc(S(=O)(=O)[O-])c7F)c7ccc4[nH]7)C=C6)C=C5)cc3)c2-c2ccc(OC)cc2)cc1
REMARK SMILES IDX 18 1 17 2 16 3 15 4 14 5 12 6 13 7 11 8 10 9 7 10 8 11 89 12
REMARK SMILES IDX 9 13 6 14 3 15 4 16 99 17 5 18 98 19 2 20 1 21 90 22 91 23
REMARK SMILES IDX 97 24 92 25 96 26 93 27 94 28 95 29 19 30 20 31 21 32 22 33
REMARK SMILES IDX 23 34 24 35 25 36 26 37 27 38 88 39 28 40 87 41 29 42 30 43
REMARK SMILES IDX 31 44 81 45 32 46 86 47 80 48 82 49 33 50 85 51 79 52 78 53
REMARK SMILES IDX 34 55 66 56 46 57 65 58 47 59 50 60 64 61 83 62 48 63 49 64
REMARK SMILES IDX 63 66 84 67 51 68 35 69 36 70 44 71 37 72 39 73 45 74 38 75
REMARK SMILES IDX 40 76 41 77 42 78 43 79 67 80 68 81 76 82 69 83 71 84 77 85
REMARK SMILES IDX 70 86 72 87 73 88 74 89 75 90 52 91 53 92 61 93 54 94 56 95
REMARK SMILES IDX 62 96 55 97 57 98 58 99 59 100 60 101
REMARK H PARENT 82 54 50 65
REMARK Flexibility Score: inf
ROOT
ATOM      1  C   UNL     1      -2.224  -3.321  -8.615  1.00  0.00     0.188 C 
ENDROOT
BRANCH   1   2
ATOM      2  O   UNL     1      -3.062  -4.023  -9.506  1.00  0.00    -0.376 OA
BRANCH   2   3
ATOM      3  C   UNL     1      -2.618  -5.322  -9.854  1.00  0.00     0.202 C 
BRANCH   3   4
ATOM      4  C   UNL     1      -1.181  -5.483 -10.415  1.00  0.00     0.261 C 
BRANCH   4   5
ATOM      5  O   UNL     1      -0.103  -4.931  -9.594  1.00  0.00    -0.462 OA
BRANCH   5   6
ATOM      6  C   UNL     1       0.839  -4.159 -10.189  1.00  0.00     0.326 C 
ATOM      7  O   UNL     1       0.917  -4.062 -11.414  1.00  0.00    -0.250 OA
BRANCH   6   8
ATOM      8  C   UNL     1       1.789  -3.343  -9.305  1.00  0.00     0.246 C 
BRANCH   8   9
ATOM      9  N   UNL     1       1.886  -3.516  -7.848  1.00  0.00    -0.319 N 
ATOM     10  C   UNL     1       2.103  -3.266  -5.672  1.00  0.00     0.096 A 
ATOM     11  N   UNL     1       2.581  -4.518  -5.984  1.00  0.00    -0.236 NA
ATOM     12  C   UNL     1       1.766  -2.544  -6.828  1.00  0.00     0.076 A 
ATOM     13  C   UNL     1       2.473  -4.622  -7.284  1.00  0.00     0.201 A 
BRANCH  10  14
ATOM     14  C   UNL     1       1.883  -2.880  -4.282  1.00  0.00     0.003 A 
ATOM     15  C   UNL     1       1.261  -2.016  -1.672  1.00  0.00     0.118 A 
ATOM     16  C   UNL     1       0.423  -2.911  -2.328  1.00  0.00     0.047 A 
ATOM     17  C   UNL     1       2.467  -1.645  -2.271  1.00  0.00     0.047 A 
ATOM     18  C   UNL     1       0.752  -3.364  -3.611  1.00  0.00     0.014 A 
ATOM     19  C   UNL     1       2.774  -2.070  -3.575  1.00  0.00     0.014 A 
BRANCH  15  20
ATOM     20  O   UNL     1       0.850  -1.598  -0.436  1.00  0.00    -0.497 OA
ATOM     21  C   UNL     1       1.104  -0.217  -0.174  1.00  0.00     0.278 C 
ENDBRANCH  15  20
ENDBRANCH  10  14
BRANCH  12  22
ATOM     22  C   UNL     1       1.222  -1.171  -6.995  1.00  0.00     0.001 A 
ATOM     23  C   UNL     1       0.053  -0.996  -7.731  1.00  0.00     0.014 A 
ATOM     24  C   UNL     1       1.772  -0.015  -6.439  1.00  0.00     0.014 A 
ATOM     25  C   UNL     1      -0.597   0.225  -7.909  1.00  0.00     0.047 A 
ATOM     26  C   UNL     1       1.151   1.242  -6.631  1.00  0.00     0.047 A 
ATOM     27  C   UNL     1      -0.048   1.354  -7.339  1.00  0.00     0.118 A 
BRANCH  27  28
ATOM     28  O   UNL     1      -0.587   2.595  -7.509  1.00  0.00    -0.497 OA
ATOM     29  C   UNL     1      -1.979   2.686  -7.192  1.00  0.00     0.278 C 
ENDBRANCH  27  28
ENDBRANCH  12  22
ENDBRANCH   8   9
ENDBRANCH   6   8
ENDBRANCH   5   6
ENDBRANCH   4   5
ENDBRANCH   3   4
ENDBRANCH   2   3
ENDBRANCH   1   2
BRANCH   1  30
ATOM     30  C   UNL     1      -1.586  -4.071  -7.418  1.00  0.00     0.188 C 
BRANCH  30  31
ATOM     31  O   UNL     1      -2.270  -5.137  -6.800  1.00  0.00    -0.376 OA
BRANCH  31  32
ATOM     32  C   UNL     1      -3.514  -4.855  -6.189  1.00  0.00     0.202 C 
BRANCH  32  33
ATOM     33  C   UNL     1      -3.601  -3.659  -5.251  1.00  0.00     0.261 C 
BRANCH  33  34
ATOM     34  O   UNL     1      -3.350  -2.405  -5.887  1.00  0.00    -0.460 OA
BRANCH  34  35
ATOM     35  C   UNL     1      -2.347  -1.730  -5.295  1.00  0.00     0.338 C 
ATOM     36  O   UNL     1      -1.240  -2.178  -5.008  1.00  0.00    -0.246 OA
BRANCH  35  37
ATOM     37  C   UNL     1      -2.779  -0.462  -4.766  1.00  0.00     0.060 A 
ATOM     38  C   UNL     1      -1.807   0.333  -4.142  1.00  0.00     0.016 A 
ATOM     39  C   UNL     1      -4.150  -0.226  -4.657  1.00  0.00     0.016 A 
ATOM     40  C   UNL     1      -2.226   1.332  -3.305  1.00  0.00     0.010 A 
ATOM     41  C   UNL     1      -4.566   0.752  -3.803  1.00  0.00     0.010 A 
ATOM     42  C   UNL     1      -3.600   1.484  -3.111  1.00  0.00    -0.014 A 
BRANCH  42  43
ATOM     43  C   UNL     1      -4.056   2.599  -2.321  1.00  0.00     0.031 A 
ATOM     44  C   UNL     1      -3.824   3.884  -3.032  1.00  0.00     0.074 A 
ATOM     45  C   UNL     1      -4.784   2.393  -1.210  1.00  0.00     0.049 A 
ATOM     46  N   UNL     1      -3.000   4.826  -2.713  1.00  0.00    -0.248 NA
ATOM     47  C   UNL     1      -4.373   4.019  -4.397  1.00  0.00     0.031 C 
ATOM     48  C   UNL     1      -5.293   1.121  -0.688  1.00  0.00     0.029 A 
ATOM     49  N   UNL     1      -5.383   3.305  -0.411  1.00  0.00    -0.354 N 
ATOM     50  C   UNL     1      -3.171   5.800  -3.697  1.00  0.00     0.074 A 
ATOM     51  C   UNL     1      -3.763   5.128  -4.814  1.00  0.00     0.031 C 
ATOM     52  C   UNL     1      -6.341   1.371   0.130  1.00  0.00     0.029 A 
ATOM     53  C   UNL     1      -6.485   2.809   0.279  1.00  0.00     0.049 A 
ATOM     54  H   UNL     1      -5.069   4.234  -0.325  1.00  0.00     0.167 HD
ATOM     55  C   UNL     1      -3.156   7.122  -3.368  1.00  0.00     0.034 A 
ATOM     56  C   UNL     1      -7.486   3.549   0.821  1.00  0.00     0.034 A 
ATOM     57  C   UNL     1      -2.522   7.306  -2.080  1.00  0.00     0.049 A 
ATOM     58  C   UNL     1      -6.991   4.948   0.914  1.00  0.00     0.074 A 
ATOM     59  C   UNL     1      -1.299   6.953  -1.540  1.00  0.00     0.029 A 
ATOM     60  N   UNL     1      -3.355   7.530  -1.008  1.00  0.00    -0.354 N 
ATOM     61  N   UNL     1      -5.995   5.302   1.680  1.00  0.00    -0.248 NA
ATOM     62  C   UNL     1      -7.259   5.834  -0.211  1.00  0.00     0.031 C 
ATOM     63  C   UNL     1      -1.602   6.503  -0.220  1.00  0.00     0.029 A 
ATOM     64  C   UNL     1      -2.963   6.707   0.011  1.00  0.00     0.049 A 
ATOM     65  H   UNL     1      -4.102   8.171  -0.980  1.00  0.00     0.167 HD
ATOM     66  C   UNL     1      -5.232   6.147   0.883  1.00  0.00     0.074 A 
ATOM     67  C   UNL     1      -6.109   6.516  -0.231  1.00  0.00     0.031 C 
ATOM     68  C   UNL     1      -3.873   6.203   1.016  1.00  0.00     0.034 A 
BRANCH  55  69
ATOM     69  C   UNL     1      -4.124   8.160  -3.928  1.00  0.00     0.023 A 
ATOM     70  C   UNL     1      -4.026   9.460  -3.380  1.00  0.00     0.012 A 
ATOM     71  C   UNL     1      -5.282   7.891  -4.697  1.00  0.00     0.148 A 
ATOM     72  C   UNL     1      -5.078  10.378  -3.464  1.00  0.00     0.002 A 
ATOM     73  C   UNL     1      -6.306   8.823  -4.821  1.00  0.00     0.091 A 
ATOM     74  F   UNL     1      -5.469   6.703  -5.264  1.00  0.00    -0.205 F 
ATOM     75  C   UNL     1      -6.227  10.053  -4.171  1.00  0.00     0.022 A 
BRANCH  73  76
ATOM     76  S   UNL     1      -7.805   8.466  -5.753  1.00  0.00     0.127 S 
ATOM     77  O   UNL     1      -8.807   8.445  -4.691  1.00  0.00    -0.237 OA
ATOM     78  O   UNL     1      -7.871   9.619  -6.650  1.00  0.00    -0.237 OA
ATOM     79  O   UNL     1      -7.571   7.194  -6.425  1.00  0.00    -0.744 OA
ENDBRANCH  73  76
ENDBRANCH  55  69
BRANCH  56  80
ATOM     80  C   UNL     1      -8.928   3.218   0.955  1.00  0.00     0.023 A 
ATOM     81  C   UNL     1      -9.733   3.945   1.856  1.00  0.00     0.012 A 
ATOM     82  C   UNL     1      -9.575   2.378   0.020  1.00  0.00     0.148 A 
ATOM     83  C   UNL     1     -11.131   3.856   1.811  1.00  0.00     0.002 A 
ATOM     84  C   UNL     1     -10.964   2.286  -0.016  1.00  0.00     0.091 A 
ATOM     85  F   UNL     1      -8.836   1.740  -0.896  1.00  0.00    -0.205 F 
ATOM     86  C   UNL     1     -11.747   3.033   0.872  1.00  0.00     0.022 A 
BRANCH  84  87
ATOM     87  S   UNL     1     -11.826   1.262  -1.218  1.00  0.00     0.127 S 
ATOM     88  O   UNL     1     -12.748   0.508  -0.368  1.00  0.00    -0.237 OA
ATOM     89  O   UNL     1     -12.459   2.264  -2.071  1.00  0.00    -0.237 OA
ATOM     90  O   UNL     1     -10.799   0.448  -1.857  1.00  0.00    -0.744 OA
ENDBRANCH  84  87
ENDBRANCH  56  80
BRANCH  68  91
ATOM     91  C   UNL     1      -3.238   5.500   2.188  1.00  0.00     0.023 A 
ATOM     92  C   UNL     1      -3.272   4.099   2.360  1.00  0.00     0.012 A 
ATOM     93  C   UNL     1      -2.424   6.265   3.036  1.00  0.00     0.148 A 
ATOM     94  C   UNL     1      -2.527   3.481   3.369  1.00  0.00     0.002 A 
ATOM     95  C   UNL     1      -1.649   5.645   4.006  1.00  0.00     0.091 A 
ATOM     96  F   UNL     1      -2.397   7.594   2.855  1.00  0.00    -0.205 F 
ATOM     97  C   UNL     1      -1.704   4.254   4.184  1.00  0.00     0.022 A 
BRANCH  95  98
ATOM     98  S   UNL     1      -0.481   6.581   4.990  1.00  0.00     0.127 S 
ATOM     99  O   UNL     1      -1.180   6.690   6.268  1.00  0.00    -0.237 OA
ATOM    100  O   UNL     1       0.692   5.705   5.005  1.00  0.00    -0.237 OA
ATOM    101  O   UNL     1      -0.273   7.835   4.276  1.00  0.00    -0.744 OA
ENDBRANCH  95  98
ENDBRANCH  68  91
ENDBRANCH  42  43
ENDBRANCH  35  37
ENDBRANCH  34  35
ENDBRANCH  33  34
ENDBRANCH  32  33
ENDBRANCH  31  32
ENDBRANCH  30  31
ENDBRANCH   1  30
TORSDOF 25
