REMARK SMILES Cc1ccccc1NC(=O)CSc1nc(C(=O)OCCOCCOCCOC(=O)c2ccc(-c3c4nc(c(-c5cccc(S(=O)(=O)[O-])c5F)c5ccc([nH]5)c(-c5cccc(S(=O)(=O)[O-])c5F)c5nc(c(-c6cccc(S(=O)(=O)[O-])c6F)c6ccc3[nH]6)C=C5)C=C4)cc2)c2ccccc2n1
REMARK SMILES IDX 22 1 21 2 20 3 19 4 18 5 16 6 17 7 15 8 13 9 14 10 99 11
REMARK SMILES IDX 98 12 93 13 97 14 94 15 96 16 95 17 12 18 11 19 9 20 8 21
REMARK SMILES IDX 10 23 7 24 1 25 2 26 3 27 4 28 6 29 5 30 23 31 24 32 25 33
REMARK SMILES IDX 26 34 27 35 28 36 29 37 30 38 31 39 92 40 32 41 91 42 33 43
REMARK SMILES IDX 34 44 35 45 85 46 36 47 90 48 84 49 86 50 37 51 89 52 83 53
REMARK SMILES IDX 82 54 38 56 70 57 50 58 69 59 51 60 54 61 68 62 87 63 52 64
REMARK SMILES IDX 53 65 67 67 88 68 55 69 39 70 40 71 48 72 41 73 43 74 49 75
REMARK SMILES IDX 42 76 44 77 45 78 46 79 47 80 71 81 72 82 80 83 73 84 75 85
REMARK SMILES IDX 81 86 74 87 76 88 77 89 78 90 79 91 56 92 57 93 65 94 58 95
REMARK SMILES IDX 60 96 66 97 59 98 61 99 62 100 63 101 64 102
REMARK H PARENT 8 22 86 55 54 66
REMARK Flexibility Score: inf
ROOT
ATOM      1  C   UNL     1      -4.316  10.011  -4.991  1.00  0.00     0.188 C 
ENDROOT
BRANCH   1   2
ATOM      2  O   UNL     1      -3.099  10.450  -5.635  1.00  0.00    -0.376 OA
BRANCH   2   3
ATOM      3  C   UNL     1      -2.542   9.982  -6.887  1.00  0.00     0.202 C 
BRANCH   3   4
ATOM      4  C   UNL     1      -1.289   8.819  -7.221  1.00  0.00     0.261 C 
BRANCH   4   5
ATOM      5  O   UNL     1      -1.165   7.064  -6.895  1.00  0.00    -0.458 OA
BRANCH   5   6
ATOM      6  C   UNL     1      -0.685   6.116  -5.852  1.00  0.00     0.357 C 
ATOM      7  O   UNL     1       0.067   6.334  -4.899  1.00  0.00    -0.244 OA
BRANCH   6   8
ATOM      8  C   UNL     1      -1.025   4.683  -5.668  1.00  0.00     0.160 A 
ATOM      9  C   UNL     1      -0.852   3.093  -3.962  1.00  0.00     0.189 A 
ATOM     10  N   UNL     1      -1.253   4.306  -4.344  1.00  0.00    -0.215 NA
ATOM     11  N   UNL     1      -0.357   2.196  -4.830  1.00  0.00    -0.222 NA
ATOM     12  C   UNL     1      -0.190   2.564  -6.106  1.00  0.00     0.076 A 
ATOM     13  C   UNL     1      -0.490   3.833  -6.602  1.00  0.00     0.034 A 
ATOM     14  C   UNL     1       0.341   1.647  -6.993  1.00  0.00     0.029 A 
ATOM     15  C   UNL     1      -0.180   4.205  -7.923  1.00  0.00     0.013 A 
ATOM     16  C   UNL     1       0.595   1.983  -8.327  1.00  0.00     0.002 A 
ATOM     17  C   UNL     1       0.352   3.270  -8.787  1.00  0.00     0.001 A 
BRANCH   9  18
ATOM     18  S   UNL     1      -1.208   2.385  -2.365  1.00  0.00    -0.076 SA
BRANCH  18  19
ATOM     19  C   UNL     1      -0.828   3.635  -1.078  1.00  0.00     0.178 C 
BRANCH  19  20
ATOM     20  C   UNL     1       0.468   3.405  -0.295  1.00  0.00     0.234 C 
ATOM     21  N   UNL     1       0.893   2.200   0.198  1.00  0.00    -0.325 N 
ATOM     22  H   UNL     1       1.801   2.229   0.579  1.00  0.00     0.169 HD
ATOM     23  O   UNL     1       1.209   4.360  -0.016  1.00  0.00    -0.274 OA
BRANCH  21  24
ATOM     24  C   UNL     1       0.296   0.933   0.270  1.00  0.00     0.044 A 
ATOM     25  C   UNL     1       2.588  -0.196  -0.078  1.00  0.00     0.046 C 
ATOM     26  C   UNL     1       1.094  -0.220   0.115  1.00  0.00    -0.027 A 
ATOM     27  C   UNL     1       0.469  -1.481   0.073  1.00  0.00     0.005 A 
ATOM     28  C   UNL     1      -0.910  -1.604   0.230  1.00  0.00     0.000 A 
ATOM     29  C   UNL     1      -1.074   0.788   0.513  1.00  0.00     0.026 A 
ATOM     30  C   UNL     1      -1.676  -0.472   0.479  1.00  0.00     0.002 A 
ENDBRANCH  21  24
ENDBRANCH  19  20
ENDBRANCH  18  19
ENDBRANCH   9  18
ENDBRANCH   6   8
ENDBRANCH   5   6
ENDBRANCH   4   5
ENDBRANCH   3   4
ENDBRANCH   2   3
ENDBRANCH   1   2
BRANCH   1  31
ATOM     31  C   UNL     1      -5.584   9.618  -5.726  1.00  0.00     0.188 C 
BRANCH  31  32
ATOM     32  O   UNL     1      -5.282   9.153  -7.019  1.00  0.00    -0.376 OA
BRANCH  32  33
ATOM     33  C   UNL     1      -6.394   8.831  -7.824  1.00  0.00     0.202 C 
BRANCH  33  34
ATOM     34  C   UNL     1      -7.252   7.660  -7.301  1.00  0.00     0.261 C 
BRANCH  34  35
ATOM     35  O   UNL     1      -6.476   6.450  -7.129  1.00  0.00    -0.460 OA
BRANCH  35  36
ATOM     36  C   UNL     1      -6.357   5.946  -5.835  1.00  0.00     0.338 C 
ATOM     37  O   UNL     1      -7.303   5.642  -5.163  1.00  0.00    -0.246 OA
BRANCH  36  38
ATOM     38  C   UNL     1      -4.909   6.060  -5.396  1.00  0.00     0.060 A 
ATOM     39  C   UNL     1      -4.356   6.096  -4.103  1.00  0.00     0.016 A 
ATOM     40  C   UNL     1      -4.098   6.517  -6.355  1.00  0.00     0.016 A 
ATOM     41  C   UNL     1      -3.087   6.797  -3.777  1.00  0.00     0.010 A 
ATOM     42  C   UNL     1      -3.151   7.433  -5.933  1.00  0.00     0.010 A 
ATOM     43  C   UNL     1      -2.429   7.603  -4.708  1.00  0.00    -0.014 A 
BRANCH  43  44
ATOM     44  C   UNL     1      -1.026   8.593  -4.518  1.00  0.00     0.031 A 
ATOM     45  C   UNL     1       0.617   8.475  -5.133  1.00  0.00     0.074 A 
ATOM     46  C   UNL     1      -1.164   9.688  -3.746  1.00  0.00     0.049 A 
ATOM     47  N   UNL     1       1.712   8.607  -4.410  1.00  0.00    -0.248 NA
ATOM     48  C   UNL     1       1.101   7.993  -6.518  1.00  0.00     0.031 C 
ATOM     49  C   UNL     1      -0.232  10.789  -3.518  1.00  0.00     0.029 A 
ATOM     50  N   UNL     1      -2.245  10.018  -2.929  1.00  0.00    -0.354 N 
ATOM     51  C   UNL     1       2.806   8.279  -5.253  1.00  0.00     0.074 A 
ATOM     52  C   UNL     1       2.297   7.501  -6.292  1.00  0.00     0.031 C 
ATOM     53  C   UNL     1      -0.616  11.436  -2.400  1.00  0.00     0.029 A 
ATOM     54  C   UNL     1      -1.708  10.666  -1.820  1.00  0.00     0.049 A 
ATOM     55  H   UNL     1      -3.196   9.830  -3.103  1.00  0.00     0.167 HD
ATOM     56  C   UNL     1       3.978   8.975  -5.323  1.00  0.00     0.034 A 
ATOM     57  C   UNL     1      -1.749  10.015  -0.623  1.00  0.00     0.034 A 
ATOM     58  C   UNL     1       3.988   9.879  -4.190  1.00  0.00     0.049 A 
ATOM     59  C   UNL     1      -0.341   9.763  -0.121  1.00  0.00     0.074 A 
ATOM     60  C   UNL     1       3.565  11.185  -4.024  1.00  0.00     0.029 A 
ATOM     61  N   UNL     1       3.969   9.293  -2.935  1.00  0.00    -0.354 N 
ATOM     62  N   UNL     1       0.736   9.921  -0.852  1.00  0.00    -0.248 NA
ATOM     63  C   UNL     1      -0.018   9.418   1.255  1.00  0.00     0.031 C 
ATOM     64  C   UNL     1       3.121  11.312  -2.669  1.00  0.00     0.029 A 
ATOM     65  C   UNL     1       3.332  10.108  -2.011  1.00  0.00     0.049 A 
ATOM     66  H   UNL     1       4.356   8.412  -2.725  1.00  0.00     0.167 HD
ATOM     67  C   UNL     1       1.856   9.643  -0.124  1.00  0.00     0.074 A 
ATOM     68  C   UNL     1       1.327   9.400   1.211  1.00  0.00     0.031 C 
ATOM     69  C   UNL     1       3.118   9.590  -0.659  1.00  0.00     0.034 A 
BRANCH  56  70
ATOM     70  C   UNL     1       4.866   9.079  -6.610  1.00  0.00     0.023 A 
ATOM     71  C   UNL     1       5.701  10.211  -6.699  1.00  0.00     0.012 A 
ATOM     72  C   UNL     1       4.911   8.231  -7.769  1.00  0.00     0.148 A 
ATOM     73  C   UNL     1       6.441  10.531  -7.855  1.00  0.00     0.002 A 
ATOM     74  C   UNL     1       5.573   8.596  -8.957  1.00  0.00     0.091 A 
ATOM     75  F   UNL     1       4.430   6.987  -7.732  1.00  0.00    -0.205 F 
ATOM     76  C   UNL     1       6.347   9.749  -8.999  1.00  0.00     0.022 A 
BRANCH  74  77
ATOM     77  S   UNL     1       5.413   7.663 -10.507  1.00  0.00     0.127 S 
ATOM     78  O   UNL     1       5.153   8.721 -11.486  1.00  0.00    -0.237 OA
ATOM     79  O   UNL     1       6.724   7.031 -10.639  1.00  0.00    -0.237 OA
ATOM     80  O   UNL     1       4.288   6.753 -10.319  1.00  0.00    -0.744 OA
ENDBRANCH  74  77
ENDBRANCH  56  70
BRANCH  57  81
ATOM     81  C   UNL     1      -3.048   9.253  -0.413  1.00  0.00     0.023 A 
ATOM     82  C   UNL     1      -4.239  10.011  -0.640  1.00  0.00     0.012 A 
ATOM     83  C   UNL     1      -3.203   7.856  -0.305  1.00  0.00     0.148 A 
ATOM     84  C   UNL     1      -5.473   9.416  -0.922  1.00  0.00     0.002 A 
ATOM     85  C   UNL     1      -4.469   7.266  -0.526  1.00  0.00     0.091 A 
ATOM     86  F   UNL     1      -2.129   7.101  -0.040  1.00  0.00    -0.205 F 
ATOM     87  C   UNL     1      -5.581   8.039  -0.897  1.00  0.00     0.022 A 
BRANCH  85  88
ATOM     88  S   UNL     1      -4.739   5.482  -0.421  1.00  0.00     0.127 S 
ATOM     89  O   UNL     1      -4.965   5.289   1.008  1.00  0.00    -0.237 OA
ATOM     90  O   UNL     1      -5.928   5.267  -1.248  1.00  0.00    -0.237 OA
ATOM     91  O   UNL     1      -3.526   4.901  -0.968  1.00  0.00    -0.744 OA
ENDBRANCH  85  88
ENDBRANCH  57  81
BRANCH  69  92
ATOM     92  C   UNL     1       4.295   8.937   0.048  1.00  0.00     0.023 A 
ATOM     93  C   UNL     1       4.109   7.963   1.046  1.00  0.00     0.012 A 
ATOM     94  C   UNL     1       5.622   9.115  -0.422  1.00  0.00     0.148 A 
ATOM     95  C   UNL     1       5.180   7.270   1.614  1.00  0.00     0.002 A 
ATOM     96  C   UNL     1       6.654   8.295   0.021  1.00  0.00     0.091 A 
ATOM     97  F   UNL     1       5.902  10.076  -1.317  1.00  0.00    -0.205 F 
ATOM     98  C   UNL     1       6.451   7.411   1.079  1.00  0.00     0.022 A 
BRANCH  96  99
ATOM     99  S   UNL     1       8.180   8.183  -0.926  1.00  0.00     0.127 S 
ATOM    100  O   UNL     1       8.975   9.274  -0.371  1.00  0.00    -0.237 OA
ATOM    101  O   UNL     1       8.669   6.844  -0.593  1.00  0.00    -0.237 OA
ATOM    102  O   UNL     1       7.754   8.329  -2.313  1.00  0.00    -0.744 OA
ENDBRANCH  96  99
ENDBRANCH  69  92
ENDBRANCH  43  44
ENDBRANCH  36  38
ENDBRANCH  35  36
ENDBRANCH  34  35
ENDBRANCH  33  34
ENDBRANCH  32  33
ENDBRANCH  31  32
ENDBRANCH   1  31
TORSDOF 24
