REMARK SMILES O=C(OCCOCCOCCOC(=O)c1ccccc1-c1ccccc1C(=O)N1CC[NH+](Cc2ccc3c(c2)OCO3)CC1)c1ccc(-c2c3nc(c(-c4cccc(S(=O)(=O)[O-])c4F)c4ccc([nH]4)c(-c4cccc(S(=O)(=O)[O-])c4F)c4nc(c(-c5cccc(S(=O)(=O)[O-])c5F)c5ccc2[nH]5)C=C4)C=C3)cc1
REMARK SMILES IDX 8 1 7 2 6 3 5 4 4 5 3 6 2 7 1 8 45 9 46 10 107 11 47 12
REMARK SMILES IDX 106 13 48 14 49 15 50 16 100 17 51 18 105 19 99 20 101 21
REMARK SMILES IDX 52 22 104 23 98 24 97 25 53 27 85 28 65 29 84 30 66 31 69 32
REMARK SMILES IDX 83 33 102 34 67 35 68 36 82 38 103 39 70 40 54 41 55 42
REMARK SMILES IDX 63 43 56 44 58 45 64 46 57 47 59 48 60 49 61 50 62 51 86 52
REMARK SMILES IDX 87 53 95 54 88 55 90 56 96 57 89 58 91 59 92 60 93 61 94 62
REMARK SMILES IDX 71 63 72 64 80 65 73 66 75 67 81 68 74 69 76 70 77 71 78 72
REMARK SMILES IDX 79 73 9 74 10 75 11 76 12 77 13 78 14 79 15 80 16 81 20 82
REMARK SMILES IDX 17 83 19 84 18 85 21 86 22 87 26 88 23 89 25 90 24 91 27 92
REMARK SMILES IDX 28 93 29 94 30 95 44 96 31 97 43 98 32 99 33 101 34 102
REMARK SMILES IDX 35 103 39 104 36 105 38 106 37 107 40 108 42 109 41 110
REMARK H PARENT 101 26 69 37 32 100
REMARK Flexibility Score: inf
ROOT
ATOM      1  C   UNL     1       2.805   3.549   0.100  1.00  0.00     0.188 C 
ENDROOT
BRANCH   1   2
ATOM      2  C   UNL     1       2.929   2.107  -0.435  1.00  0.00     0.188 C 
BRANCH   2   3
ATOM      3  O   UNL     1       4.238   1.562  -0.279  1.00  0.00    -0.376 OA
BRANCH   3   4
ATOM      4  C   UNL     1       4.843   1.002  -1.428  1.00  0.00     0.202 C 
BRANCH   4   5
ATOM      5  C   UNL     1       4.267  -0.342  -1.894  1.00  0.00     0.261 C 
BRANCH   5   6
ATOM      6  O   UNL     1       2.870  -0.499  -1.588  1.00  0.00    -0.460 OA
BRANCH   6   7
ATOM      7  C   UNL     1       2.324  -1.300  -0.635  1.00  0.00     0.338 C 
ATOM      8  O   UNL     1       1.116  -1.524  -0.668  1.00  0.00    -0.246 OA
BRANCH   7   9
ATOM      9  C   UNL     1       3.144  -1.966   0.422  1.00  0.00     0.060 A 
ATOM     10  C   UNL     1       4.308  -1.421   0.961  1.00  0.00     0.016 A 
ATOM     11  C   UNL     1       2.677  -3.179   0.955  1.00  0.00     0.016 A 
ATOM     12  C   UNL     1       5.073  -2.124   1.889  1.00  0.00     0.010 A 
ATOM     13  C   UNL     1       3.401  -3.855   1.948  1.00  0.00     0.010 A 
ATOM     14  C   UNL     1       4.635  -3.354   2.384  1.00  0.00    -0.014 A 
BRANCH  14  15
ATOM     15  C   UNL     1       5.527  -4.109   3.302  1.00  0.00     0.031 A 
ATOM     16  C   UNL     1       6.212  -5.336   2.805  1.00  0.00     0.074 A 
ATOM     17  C   UNL     1       5.808  -3.640   4.532  1.00  0.00     0.049 A 
ATOM     18  N   UNL     1       7.109  -6.062   3.411  1.00  0.00    -0.248 NA
ATOM     19  C   UNL     1       5.873  -5.791   1.448  1.00  0.00     0.031 C 
ATOM     20  C   UNL     1       5.231  -2.426   5.068  1.00  0.00     0.029 A 
ATOM     21  N   UNL     1       6.626  -4.075   5.544  1.00  0.00    -0.354 N 
ATOM     22  C   UNL     1       7.432  -7.071   2.521  1.00  0.00     0.074 A 
ATOM     23  C   UNL     1       6.628  -6.872   1.335  1.00  0.00     0.031 C 
ATOM     24  C   UNL     1       5.677  -2.208   6.308  1.00  0.00     0.029 A 
ATOM     25  C   UNL     1       6.598  -3.264   6.660  1.00  0.00     0.049 A 
ATOM     26  H   UNL     1       7.179  -4.887   5.480  1.00  0.00     0.167 HD
ATOM     27  C   UNL     1       8.333  -8.063   2.682  1.00  0.00     0.034 A 
ATOM     28  C   UNL     1       7.250  -3.332   7.836  1.00  0.00     0.034 A 
ATOM     29  C   UNL     1       9.106  -8.249   3.878  1.00  0.00     0.049 A 
ATOM     30  C   UNL     1       8.245  -4.437   7.981  1.00  0.00     0.074 A 
ATOM     31  C   UNL     1       9.991  -9.265   4.182  1.00  0.00     0.029 A 
ATOM     32  N   UNL     1       9.077  -7.399   4.977  1.00  0.00    -0.354 N 
ATOM     33  N   UNL     1       8.570  -5.354   7.103  1.00  0.00    -0.248 NA
ATOM     34  C   UNL     1       8.991  -4.506   9.241  1.00  0.00     0.031 C 
ATOM     35  C   UNL     1      10.485  -9.038   5.473  1.00  0.00     0.029 A 
ATOM     36  C   UNL     1       9.927  -7.867   5.963  1.00  0.00     0.049 A 
ATOM     37  H   UNL     1       8.531  -6.582   5.043  1.00  0.00     0.167 HD
ATOM     38  C   UNL     1       9.558  -6.115   7.699  1.00  0.00     0.074 A 
ATOM     39  C   UNL     1       9.819  -5.513   8.995  1.00  0.00     0.031 C 
ATOM     40  C   UNL     1      10.169  -7.231   7.234  1.00  0.00     0.034 A 
BRANCH  27  41
ATOM     41  C   UNL     1       8.487  -9.015   1.533  1.00  0.00     0.023 A 
ATOM     42  C   UNL     1       9.173  -8.605   0.371  1.00  0.00     0.012 A 
ATOM     43  C   UNL     1       7.908 -10.296   1.583  1.00  0.00     0.148 A 
ATOM     44  C   UNL     1       9.251  -9.445  -0.738  1.00  0.00     0.002 A 
ATOM     45  C   UNL     1       8.020 -11.141   0.487  1.00  0.00     0.091 A 
ATOM     46  F   UNL     1       7.232 -10.647   2.686  1.00  0.00    -0.205 F 
ATOM     47  C   UNL     1       8.680 -10.714  -0.678  1.00  0.00     0.022 A 
BRANCH  45  48
ATOM     48  S   UNL     1       7.352 -12.807   0.476  1.00  0.00     0.127 S 
ATOM     49  O   UNL     1       6.322 -12.705  -0.557  1.00  0.00    -0.237 OA
ATOM     50  O   UNL     1       8.522 -13.599   0.097  1.00  0.00    -0.237 OA
ATOM     51  O   UNL     1       6.856 -13.053   1.823  1.00  0.00    -0.744 OA
ENDBRANCH  45  48
ENDBRANCH  27  41
BRANCH  28  52
ATOM     52  C   UNL     1       7.039  -2.292   8.891  1.00  0.00     0.023 A 
ATOM     53  C   UNL     1       8.086  -1.411   9.226  1.00  0.00     0.012 A 
ATOM     54  C   UNL     1       5.788  -2.124   9.522  1.00  0.00     0.148 A 
ATOM     55  C   UNL     1       7.902  -0.410  10.185  1.00  0.00     0.002 A 
ATOM     56  C   UNL     1       5.593  -1.085  10.429  1.00  0.00     0.091 A 
ATOM     57  F   UNL     1       4.797  -2.972   9.212  1.00  0.00    -0.205 F 
ATOM     58  C   UNL     1       6.654  -0.238  10.777  1.00  0.00     0.022 A 
BRANCH  56  59
ATOM     59  S   UNL     1       3.963  -0.713  11.091  1.00  0.00     0.127 S 
ATOM     60  O   UNL     1       3.983  -1.419  12.367  1.00  0.00    -0.237 OA
ATOM     61  O   UNL     1       3.990   0.747  11.191  1.00  0.00    -0.237 OA
ATOM     62  O   UNL     1       3.029  -1.212  10.088  1.00  0.00    -0.744 OA
ENDBRANCH  56  59
ENDBRANCH  28  52
BRANCH  40  63
ATOM     63  C   UNL     1      11.155  -7.876   8.159  1.00  0.00     0.023 A 
ATOM     64  C   UNL     1      10.687  -8.571   9.293  1.00  0.00     0.012 A 
ATOM     65  C   UNL     1      12.533  -7.827   7.887  1.00  0.00     0.148 A 
ATOM     66  C   UNL     1      11.584  -9.181  10.165  1.00  0.00     0.002 A 
ATOM     67  C   UNL     1      13.417  -8.480   8.734  1.00  0.00     0.091 A 
ATOM     68  F   UNL     1      12.952  -7.132   6.820  1.00  0.00    -0.205 F 
ATOM     69  C   UNL     1      12.947  -9.146   9.879  1.00  0.00     0.022 A 
BRANCH  67  70
ATOM     70  S   UNL     1      15.175  -8.561   8.388  1.00  0.00     0.127 S 
ATOM     71  O   UNL     1      15.710  -7.578   9.328  1.00  0.00    -0.237 OA
ATOM     72  O   UNL     1      15.492  -9.953   8.712  1.00  0.00    -0.237 OA
ATOM     73  O   UNL     1      15.317  -8.226   6.977  1.00  0.00    -0.744 OA
ENDBRANCH  67  70
ENDBRANCH  40  63
ENDBRANCH  14  15
ENDBRANCH   7   9
ENDBRANCH   6   7
ENDBRANCH   5   6
ENDBRANCH   4   5
ENDBRANCH   3   4
ENDBRANCH   2   3
ENDBRANCH   1   2
BRANCH   1  74
ATOM     74  O   UNL     1       3.376   3.835   1.375  1.00  0.00    -0.376 OA
BRANCH  74  75
ATOM     75  C   UNL     1       4.794   3.771   1.452  1.00  0.00     0.202 C 
BRANCH  75  76
ATOM     76  C   UNL     1       5.260   3.395   2.861  1.00  0.00     0.261 C 
BRANCH  76  77
ATOM     77  O   UNL     1       5.011   2.080   3.428  1.00  0.00    -0.460 OA
BRANCH  77  78
ATOM     78  C   UNL     1       3.824   1.454   3.294  1.00  0.00     0.338 C 
ATOM     79  O   UNL     1       3.091   1.487   2.323  1.00  0.00    -0.246 OA
BRANCH  78  80
ATOM     80  C   UNL     1       3.420   0.632   4.470  1.00  0.00     0.067 A 
ATOM     81  C   UNL     1       2.551  -0.449   4.190  1.00  0.00     0.016 A 
ATOM     82  C   UNL     1       3.719   0.948   5.810  1.00  0.00    -0.003 A 
ATOM     83  C   UNL     1       2.017  -1.238   5.208  1.00  0.00     0.001 A 
ATOM     84  C   UNL     1       3.175   0.128   6.823  1.00  0.00     0.009 A 
ATOM     85  C   UNL     1       2.346  -0.958   6.527  1.00  0.00     0.001 A 
BRANCH  82  86
ATOM     86  C   UNL     1       4.568   2.074   6.215  1.00  0.00    -0.005 A 
ATOM     87  C   UNL     1       5.888   1.755   6.623  1.00  0.00     0.009 A 
ATOM     88  C   UNL     1       4.189   3.432   6.155  1.00  0.00     0.047 A 
ATOM     89  C   UNL     1       6.831   2.735   6.917  1.00  0.00     0.001 A 
ATOM     90  C   UNL     1       5.166   4.411   6.461  1.00  0.00     0.014 A 
ATOM     91  C   UNL     1       6.472   4.069   6.826  1.00  0.00     0.001 A 
BRANCH  88  92
ATOM     92  C   UNL     1       2.889   3.973   5.604  1.00  0.00     0.254 C 
ATOM     93  O   UNL     1       2.846   5.157   5.257  1.00  0.00    -0.269 OA
ATOM     94  N   UNL     1       1.812   3.121   5.358  1.00  0.00    -0.327 N 
ATOM     95  C   UNL     1       1.108   3.325   4.103  1.00  0.00     0.181 C 
ATOM     96  C   UNL     1       0.917   2.760   6.453  1.00  0.00     0.181 C 
ATOM     97  C   UNL     1       0.270   2.101   3.700  1.00  0.00     0.284 C 
ATOM     98  C   UNL     1      -0.163   1.698   6.089  1.00  0.00     0.284 C 
ATOM     99  N   UNL     1      -0.682   1.626   4.712  1.00  0.00    -0.328 N 
ATOM    100  H   UNL     1      -0.752   0.620   4.557  1.00  0.00     0.348 HD
BRANCH  99 101
ATOM    101  C   UNL     1      -2.084   1.985   4.492  1.00  0.00     0.299 C 
BRANCH 101 102
ATOM    102  C   UNL     1      -2.285   3.471   4.282  1.00  0.00     0.010 A 
ATOM    103  C   UNL     1      -2.295   4.330   5.404  1.00  0.00     0.013 A 
ATOM    104  C   UNL     1      -2.120   3.994   2.986  1.00  0.00     0.060 A 
ATOM    105  C   UNL     1      -1.950   5.675   5.264  1.00  0.00     0.051 A 
ATOM    106  C   UNL     1      -1.688   5.293   2.896  1.00  0.00     0.166 A 
ATOM    107  C   UNL     1      -1.579   6.101   4.007  1.00  0.00     0.165 A 
ATOM    108  O   UNL     1      -1.110   5.851   1.794  1.00  0.00    -0.454 OA
ATOM    109  O   UNL     1      -0.922   7.262   3.721  1.00  0.00    -0.454 OA
ATOM    110  C   UNL     1      -0.360   6.901   2.440  1.00  0.00     0.468 C 
ENDBRANCH 101 102
ENDBRANCH  99 101
ENDBRANCH  88  92
ENDBRANCH  82  86
ENDBRANCH  78  80
ENDBRANCH  77  78
ENDBRANCH  76  77
ENDBRANCH  75  76
ENDBRANCH  74  75
ENDBRANCH   1  74
TORSDOF 24
