REMARK SMILES C[C@]12C(=O)N(c3ccc(C(=O)OCCOCCOCCOC(=O)c4ccc(-c5c6nc(c(-c7cccc(S(=O)(=O)[O-])c7F)c7ccc([nH]7)c(-c7cccc(S(=O)(=O)[O-])c7F)c7nc(c(-c8cccc(S(=O)(=O)[O-])c8F)c8ccc5[nH]8)C=C7)C=C6)cc4)cc3)C(=O)[C@H]1[C@H]1c3ccccc3[C@@H]2c2ccccc21
REMARK SMILES IDX 17 1 16 2 15 3 14 4 13 5 12 6 10 7 11 8 9 9 6 10 7 11 88 12
REMARK SMILES IDX 8 13 87 14 5 15 1 16 2 17 3 18 91 19 99 20 4 21 89 22 92 23
REMARK SMILES IDX 98 24 100 25 90 26 93 27 105 28 97 29 101 30 94 31 104 32
REMARK SMILES IDX 96 33 102 34 95 35 103 36 18 37 19 38 20 39 21 40 22 41
REMARK SMILES IDX 23 42 24 43 25 44 86 45 26 46 85 47 27 48 28 49 29 50 79 51
REMARK SMILES IDX 30 52 84 53 78 54 80 55 31 56 83 57 77 58 76 59 32 61 64 62
REMARK SMILES IDX 44 63 63 64 45 65 48 66 62 67 81 68 46 69 47 70 61 72 82 73
REMARK SMILES IDX 49 74 33 75 34 76 42 77 35 78 37 79 43 80 36 81 38 82 39 83
REMARK SMILES IDX 40 84 41 85 65 86 66 87 74 88 67 89 69 90 75 91 68 92 70 93
REMARK SMILES IDX 71 94 72 95 73 96 50 97 51 98 59 99 52 100 54 101 60 102
REMARK SMILES IDX 53 103 55 104 56 105 57 106 58 107
REMARK H PARENT 80 60 48 71
REMARK Flexibility Score: inf
ROOT
ATOM      1  C   UNL     1       2.800   8.606  -2.457  1.00  0.00     0.188 C 
ENDROOT
BRANCH   1   2
ATOM      2  C   UNL     1       1.597   9.526  -2.765  1.00  0.00     0.188 C 
BRANCH   2   3
ATOM      3  O   UNL     1       1.778  10.931  -2.822  1.00  0.00    -0.376 OA
BRANCH   3   4
ATOM      4  C   UNL     1       2.235  11.616  -1.658  1.00  0.00     0.202 C 
BRANCH   4   5
ATOM      5  C   UNL     1       1.548  11.305  -0.328  1.00  0.00     0.261 C 
BRANCH   5   6
ATOM      6  O   UNL     1       1.854   9.968   0.107  1.00  0.00    -0.460 OA
BRANCH   6   7
ATOM      7  C   UNL     1       0.832   9.331   0.727  1.00  0.00     0.338 C 
ATOM      8  O   UNL     1      -0.225   9.815   1.087  1.00  0.00    -0.246 OA
BRANCH   7   9
ATOM      9  C   UNL     1       1.089   7.879   0.704  1.00  0.00     0.060 A 
ATOM     10  C   UNL     1       1.448   5.075   0.605  1.00  0.00     0.052 A 
ATOM     11  C   UNL     1       0.480   5.731  -0.189  1.00  0.00     0.028 A 
ATOM     12  C   UNL     1       2.249   5.869   1.436  1.00  0.00     0.028 A 
ATOM     13  C   UNL     1       0.276   7.108  -0.119  1.00  0.00     0.018 A 
ATOM     14  C   UNL     1       2.094   7.271   1.462  1.00  0.00     0.018 A 
BRANCH  10  15
ATOM     15  N   UNL     1       1.435   3.646   0.664  1.00  0.00    -0.250 N 
ATOM     16  C   UNL     1       1.000   0.469  -0.021  1.00  0.00     0.024 C 
ATOM     17  C   UNL     1       0.185   1.683   0.467  1.00  0.00     0.071 C 
ATOM     18  C   UNL     1       0.716   2.896  -0.243  1.00  0.00     0.241 C 
ATOM     19  C   UNL     1       0.471   1.998   1.968  1.00  0.00     0.107 C 
ATOM     20  C   UNL     1      -1.353   1.551   0.235  1.00  0.00     0.066 C 
ATOM     21  O   UNL     1       0.560   3.102  -1.439  1.00  0.00    -0.273 OA
ATOM     22  C   UNL     1       1.702   2.893   1.822  1.00  0.00     0.238 C 
ATOM     23  C   UNL     1      -0.790   1.587   2.830  1.00  0.00     0.063 C 
ATOM     24  C   UNL     1      -2.045   2.702   0.989  1.00  0.00    -0.036 A 
ATOM     25  C   UNL     1      -1.764   0.278   0.962  1.00  0.00    -0.036 A 
ATOM     26  O   UNL     1       2.624   2.984   2.615  1.00  0.00    -0.274 OA
ATOM     27  C   UNL     1      -1.831   2.683   2.404  1.00  0.00    -0.036 A 
ATOM     28  C   UNL     1      -1.426   0.275   2.343  1.00  0.00    -0.036 A 
ATOM     29  C   UNL     1      -2.686   3.777   0.392  1.00  0.00     0.005 A 
ATOM     30  C   UNL     1      -2.505  -0.748   0.388  1.00  0.00     0.005 A 
ATOM     31  C   UNL     1      -2.232   3.747   3.203  1.00  0.00     0.004 A 
ATOM     32  C   UNL     1      -1.871  -0.766   3.149  1.00  0.00     0.004 A 
ATOM     33  C   UNL     1      -3.084   4.845   1.200  1.00  0.00     0.000 A 
ATOM     34  C   UNL     1      -2.936  -1.790   1.202  1.00  0.00     0.000 A 
ATOM     35  C   UNL     1      -2.856   4.832   2.587  1.00  0.00     0.000 A 
ATOM     36  C   UNL     1      -2.626  -1.797   2.571  1.00  0.00     0.000 A 
ENDBRANCH  10  15
ENDBRANCH   7   9
ENDBRANCH   6   7
ENDBRANCH   5   6
ENDBRANCH   4   5
ENDBRANCH   3   4
ENDBRANCH   2   3
ENDBRANCH   1   2
BRANCH   1  37
ATOM     37  O   UNL     1       4.099   9.151  -2.299  1.00  0.00    -0.376 OA
BRANCH  37  38
ATOM     38  C   UNL     1       4.655   9.907  -3.365  1.00  0.00     0.202 C 
BRANCH  38  39
ATOM     39  C   UNL     1       4.779   9.248  -4.739  1.00  0.00     0.261 C 
BRANCH  39  40
ATOM     40  O   UNL     1       3.501   8.950  -5.320  1.00  0.00    -0.460 OA
BRANCH  40  41
ATOM     41  C   UNL     1       3.288   7.647  -5.631  1.00  0.00     0.338 C 
ATOM     42  O   UNL     1       4.065   6.717  -5.498  1.00  0.00    -0.246 OA
BRANCH  41  43
ATOM     43  C   UNL     1       1.875   7.490  -6.014  1.00  0.00     0.060 A 
ATOM     44  C   UNL     1       1.369   8.169  -7.123  1.00  0.00     0.016 A 
ATOM     45  C   UNL     1       1.056   6.648  -5.252  1.00  0.00     0.016 A 
ATOM     46  C   UNL     1       0.030   7.997  -7.476  1.00  0.00     0.010 A 
ATOM     47  C   UNL     1      -0.287   6.492  -5.596  1.00  0.00     0.010 A 
ATOM     48  C   UNL     1      -0.805   7.158  -6.717  1.00  0.00    -0.014 A 
BRANCH  48  49
ATOM     49  C   UNL     1      -2.183   6.882  -7.179  1.00  0.00     0.031 A 
ATOM     50  C   UNL     1      -3.364   7.601  -6.603  1.00  0.00     0.074 A 
ATOM     51  C   UNL     1      -2.358   5.952  -8.137  1.00  0.00     0.049 A 
ATOM     52  N   UNL     1      -4.619   7.526  -6.961  1.00  0.00    -0.248 NA
ATOM     53  C   UNL     1      -3.109   8.519  -5.482  1.00  0.00     0.031 C 
ATOM     54  C   UNL     1      -1.286   5.157  -8.738  1.00  0.00     0.029 A 
ATOM     55  N   UNL     1      -3.494   5.517  -8.767  1.00  0.00    -0.354 N 
ATOM     56  C   UNL     1      -5.309   8.383  -6.115  1.00  0.00     0.074 A 
ATOM     57  C   UNL     1      -4.334   8.957  -5.211  1.00  0.00     0.031 C 
ATOM     58  C   UNL     1      -1.816   4.330  -9.652  1.00  0.00     0.029 A 
ATOM     59  C   UNL     1      -3.262   4.533  -9.697  1.00  0.00     0.049 A 
ATOM     60  H   UNL     1      -4.391   5.874  -8.571  1.00  0.00     0.167 HD
ATOM     61  C   UNL     1      -6.631   8.679  -6.114  1.00  0.00     0.034 A 
ATOM     62  C   UNL     1      -4.114   3.872 -10.502  1.00  0.00     0.034 A 
ATOM     63  C   UNL     1      -7.594   8.116  -7.025  1.00  0.00     0.049 A 
ATOM     64  C   UNL     1      -5.573   4.222 -10.480  1.00  0.00     0.074 A 
ATOM     65  C   UNL     1      -8.943   8.410  -7.135  1.00  0.00     0.029 A 
ATOM     66  N   UNL     1      -7.321   7.138  -7.968  1.00  0.00    -0.354 N 
ATOM     67  N   UNL     1      -6.186   5.138  -9.772  1.00  0.00    -0.248 NA
ATOM     68  C   UNL     1      -6.453   3.470 -11.386  1.00  0.00     0.031 C 
ATOM     69  C   UNL     1      -9.488   7.599  -8.135  1.00  0.00     0.029 A 
ATOM     70  C   UNL     1      -8.477   6.808  -8.655  1.00  0.00     0.049 A 
ATOM     71  H   UNL     1      -6.436   6.738  -8.126  1.00  0.00     0.167 HD
ATOM     72  C   UNL     1      -7.520   5.084 -10.154  1.00  0.00     0.074 A 
ATOM     73  C   UNL     1      -7.623   4.059 -11.173  1.00  0.00     0.031 C 
ATOM     74  C   UNL     1      -8.566   5.809  -9.688  1.00  0.00     0.034 A 
BRANCH  61  75
ATOM     75  C   UNL     1      -7.125   9.711  -5.138  1.00  0.00     0.023 A 
ATOM     76  C   UNL     1      -6.939  11.075  -5.438  1.00  0.00     0.012 A 
ATOM     77  C   UNL     1      -7.874   9.343  -4.004  1.00  0.00     0.148 A 
ATOM     78  C   UNL     1      -7.489  12.060  -4.620  1.00  0.00     0.002 A 
ATOM     79  C   UNL     1      -8.442  10.331  -3.208  1.00  0.00     0.091 A 
ATOM     80  F   UNL     1      -8.027   8.038  -3.736  1.00  0.00    -0.205 F 
ATOM     81  C   UNL     1      -8.248  11.689  -3.514  1.00  0.00     0.022 A 
BRANCH  79  82
ATOM     82  S   UNL     1      -9.483   9.965  -1.791  1.00  0.00     0.127 S 
ATOM     83  O   UNL     1      -8.679  10.495  -0.690  1.00  0.00    -0.237 OA
ATOM     84  O   UNL     1     -10.691  10.734  -2.091  1.00  0.00    -0.237 OA
ATOM     85  O   UNL     1      -9.662   8.520  -1.784  1.00  0.00    -0.744 OA
ENDBRANCH  79  82
ENDBRANCH  61  75
BRANCH  62  86
ATOM     86  C   UNL     1      -3.576   2.860 -11.448  1.00  0.00     0.023 A 
ATOM     87  C   UNL     1      -3.450   3.191 -12.809  1.00  0.00     0.012 A 
ATOM     88  C   UNL     1      -3.116   1.611 -10.990  1.00  0.00     0.148 A 
ATOM     89  C   UNL     1      -2.880   2.288 -13.706  1.00  0.00     0.002 A 
ATOM     90  C   UNL     1      -2.515   0.732 -11.881  1.00  0.00     0.091 A 
ATOM     91  F   UNL     1      -3.251   1.325  -9.688  1.00  0.00    -0.205 F 
ATOM     92  C   UNL     1      -2.403   1.064 -13.241  1.00  0.00     0.022 A 
BRANCH  90  93
ATOM     93  S   UNL     1      -1.782  -0.824 -11.363  1.00  0.00     0.127 S 
ATOM     94  O   UNL     1      -2.605  -1.795 -12.080  1.00  0.00    -0.237 OA
ATOM     95  O   UNL     1      -0.413  -0.688 -11.861  1.00  0.00    -0.237 OA
ATOM     96  O   UNL     1      -1.900  -0.856  -9.912  1.00  0.00    -0.744 OA
ENDBRANCH  90  93
ENDBRANCH  62  86
BRANCH  74  97
ATOM     97  C   UNL     1      -9.928   5.519 -10.260  1.00  0.00     0.023 A 
ATOM     98  C   UNL     1     -10.625   4.375  -9.827  1.00  0.00     0.012 A 
ATOM     99  C   UNL     1     -10.551   6.420 -11.146  1.00  0.00     0.148 A 
ATOM    100  C   UNL     1     -11.919   4.121 -10.280  1.00  0.00     0.002 A 
ATOM    101  C   UNL     1     -11.854   6.178 -11.567  1.00  0.00     0.091 A 
ATOM    102  F   UNL     1      -9.862   7.495 -11.553  1.00  0.00    -0.205 F 
ATOM    103  C   UNL     1     -12.536   5.027 -11.139  1.00  0.00     0.022 A 
BRANCH 101 104
ATOM    104  S   UNL     1     -12.759   7.319 -12.619  1.00  0.00     0.127 S 
ATOM    105  O   UNL     1     -12.846   6.566 -13.869  1.00  0.00    -0.237 OA
ATOM    106  O   UNL     1     -14.027   7.461 -11.903  1.00  0.00    -0.237 OA
ATOM    107  O   UNL     1     -11.958   8.534 -12.679  1.00  0.00    -0.744 OA
ENDBRANCH 101 104
ENDBRANCH  74  97
ENDBRANCH  48  49
ENDBRANCH  41  43
ENDBRANCH  40  41
ENDBRANCH  39  40
ENDBRANCH  38  39
ENDBRANCH  37  38
ENDBRANCH   1  37
TORSDOF 21
