REMARK SMILES Cc1oc(C[N@H+]2C[C@@H](C)[C@@H](C)C2)cc1C(=O)OCCOCCOCCOC(=O)c1ccc(-c2c3nc(c(-c4cccc(S(=O)(=O)[O-])c4F)c4ccc([nH]4)c(-c4cccc(S(=O)(=O)[O-])c4F)c4nc(c(-c5cccc(S(=O)(=O)[O-])c5F)c5ccc2[nH]5)C=C4)C=C3)cc1
REMARK SMILES IDX 22 1 21 2 20 3 19 4 18 5 17 6 15 7 16 8 14 9 1 10 2 11 3 12
REMARK SMILES IDX 4 13 13 14 5 15 6 16 7 17 12 18 8 20 10 21 9 22 11 23 23 24
REMARK SMILES IDX 24 25 25 26 26 27 27 28 28 29 29 30 30 31 91 32 31 33 90 34
REMARK SMILES IDX 32 35 33 36 34 37 84 38 35 39 89 40 83 41 85 42 36 43 88 44
REMARK SMILES IDX 82 45 81 46 37 48 69 49 49 50 68 51 50 52 53 53 67 54 86 55
REMARK SMILES IDX 51 56 52 57 66 59 87 60 54 61 38 62 39 63 47 64 40 65 42 66
REMARK SMILES IDX 48 67 41 68 43 69 44 70 45 71 46 72 70 73 71 74 79 75 72 76
REMARK SMILES IDX 74 77 80 78 73 79 75 80 76 81 77 82 78 83 55 84 56 85 64 86
REMARK SMILES IDX 57 87 59 88 65 89 58 90 60 91 61 92 62 93 63 94
REMARK H PARENT 6 19 85 47 53 58
REMARK Flexibility Score: inf
ROOT
ATOM      1  C   UNL     1       0.529  -2.986   2.161  1.00  0.00     0.188 C 
ENDROOT
BRANCH   1   2
ATOM      2  C   UNL     1      -0.314  -4.027   1.394  1.00  0.00     0.188 C 
BRANCH   2   3
ATOM      3  O   UNL     1       0.281  -5.242   0.968  1.00  0.00    -0.376 OA
BRANCH   3   4
ATOM      4  C   UNL     1       1.453  -5.199   0.163  1.00  0.00     0.202 C 
BRANCH   4   5
ATOM      5  C   UNL     1       1.358  -4.456  -1.166  1.00  0.00     0.261 C 
BRANCH   5   6
ATOM      6  O   UNL     1       1.269  -3.042  -0.935  1.00  0.00    -0.460 OA
BRANCH   6   7
ATOM      7  C   UNL     1       0.326  -2.389  -1.668  1.00  0.00     0.341 C 
ATOM      8  O   UNL     1      -0.271  -2.873  -2.622  1.00  0.00    -0.246 OA
BRANCH   7   9
ATOM      9  C   UNL     1      -0.013  -1.094  -1.113  1.00  0.00     0.101 A 
ATOM     10  C   UNL     1       2.273  -0.092  -0.239  1.00  0.00     0.088 C 
ATOM     11  C   UNL     1       0.821  -0.169  -0.506  1.00  0.00     0.115 A 
ATOM     12  O   UNL     1       0.097   0.910  -0.092  1.00  0.00    -0.459 OA
ATOM     13  C   UNL     1      -1.211   0.681  -0.400  1.00  0.00     0.159 A 
ATOM     14  C   UNL     1      -1.320  -0.527  -1.053  1.00  0.00     0.067 A 
BRANCH  13  15
ATOM     15  C   UNL     1      -2.232   1.715  -0.037  1.00  0.00     0.338 C 
BRANCH  15  16
ATOM     16  N   UNL     1      -2.074   2.397   1.244  1.00  0.00    -0.328 N 
ATOM     17  C   UNL     1      -2.038   1.547   2.427  1.00  0.00     0.266 C 
ATOM     18  C   UNL     1      -0.995   3.380   1.317  1.00  0.00     0.266 C 
ATOM     19  H   UNL     1      -2.957   2.908   1.266  1.00  0.00     0.348 HD
ATOM     20  C   UNL     1      -1.553   2.522   3.496  1.00  0.00     0.049 C 
ATOM     21  C   UNL     1      -0.467   3.322   2.760  1.00  0.00     0.049 C 
ATOM     22  C   UNL     1      -1.131   1.838   4.787  1.00  0.00     0.014 C 
ATOM     23  C   UNL     1       0.925   2.690   2.810  1.00  0.00     0.014 C 
ENDBRANCH  15  16
ENDBRANCH  13  15
ENDBRANCH   7   9
ENDBRANCH   6   7
ENDBRANCH   5   6
ENDBRANCH   4   5
ENDBRANCH   3   4
ENDBRANCH   2   3
ENDBRANCH   1   2
BRANCH   1  24
ATOM     24  O   UNL     1       1.795  -3.312   2.712  1.00  0.00    -0.376 OA
BRANCH  24  25
ATOM     25  C   UNL     1       1.959  -4.504   3.463  1.00  0.00     0.202 C 
BRANCH  25  26
ATOM     26  C   UNL     1       1.107  -4.738   4.710  1.00  0.00     0.261 C 
BRANCH  26  27
ATOM     27  O   UNL     1      -0.301  -4.639   4.476  1.00  0.00    -0.460 OA
BRANCH  27  28
ATOM     28  C   UNL     1      -0.911  -3.608   5.109  1.00  0.00     0.338 C 
ATOM     29  O   UNL     1      -0.394  -2.773   5.832  1.00  0.00    -0.246 OA
BRANCH  28  30
ATOM     30  C   UNL     1      -2.317  -3.533   4.679  1.00  0.00     0.060 A 
ATOM     31  C   UNL     1      -2.786  -2.313   4.177  1.00  0.00     0.016 A 
ATOM     32  C   UNL     1      -3.175  -4.625   4.827  1.00  0.00     0.016 A 
ATOM     33  C   UNL     1      -4.134  -2.169   3.856  1.00  0.00     0.010 A 
ATOM     34  C   UNL     1      -4.527  -4.474   4.519  1.00  0.00     0.010 A 
ATOM     35  C   UNL     1      -5.016  -3.237   4.063  1.00  0.00    -0.014 A 
BRANCH  35  36
ATOM     36  C   UNL     1      -6.476  -3.019   3.949  1.00  0.00     0.031 A 
ATOM     37  C   UNL     1      -7.257  -2.686   5.188  1.00  0.00     0.074 A 
ATOM     38  C   UNL     1      -7.097  -3.144   2.764  1.00  0.00     0.049 A 
ATOM     39  N   UNL     1      -8.539  -2.470   5.324  1.00  0.00    -0.248 NA
ATOM     40  C   UNL     1      -6.492  -2.584   6.443  1.00  0.00     0.031 C 
ATOM     41  C   UNL     1      -6.447  -3.479   1.499  1.00  0.00     0.029 A 
ATOM     42  N   UNL     1      -8.426  -3.029   2.442  1.00  0.00    -0.354 N 
ATOM     43  C   UNL     1      -8.739  -2.223   6.676  1.00  0.00     0.074 A 
ATOM     44  C   UNL     1      -7.449  -2.329   7.323  1.00  0.00     0.031 C 
ATOM     45  C   UNL     1      -7.385  -3.576   0.540  1.00  0.00     0.029 A 
ATOM     46  C   UNL     1      -8.699  -3.321   1.127  1.00  0.00     0.049 A 
ATOM     47  H   UNL     1      -9.117  -2.763   3.091  1.00  0.00     0.167 HD
ATOM     48  C   UNL     1      -9.889  -1.916   7.319  1.00  0.00     0.034 A 
ATOM     49  C   UNL     1      -9.879  -3.387   0.479  1.00  0.00     0.034 A 
ATOM     50  C   UNL     1     -11.168  -1.800   6.675  1.00  0.00     0.049 A 
ATOM     51  C   UNL     1     -11.149  -3.060   1.223  1.00  0.00     0.074 A 
ATOM     52  C   UNL     1     -12.383  -1.446   7.232  1.00  0.00     0.029 A 
ATOM     53  N   UNL     1     -11.400  -2.047   5.331  1.00  0.00    -0.354 N 
ATOM     54  N   UNL     1     -11.302  -2.683   2.470  1.00  0.00    -0.248 NA
ATOM     55  C   UNL     1     -12.405  -3.135   0.461  1.00  0.00     0.031 C 
ATOM     56  C   UNL     1     -13.355  -1.492   6.226  1.00  0.00     0.029 A 
ATOM     57  C   UNL     1     -12.740  -1.865   5.041  1.00  0.00     0.049 A 
ATOM     58  H   UNL     1     -10.712  -2.314   4.679  1.00  0.00     0.167 HD
ATOM     59  C   UNL     1     -12.663  -2.444   2.632  1.00  0.00     0.074 A 
ATOM     60  C   UNL     1     -13.288  -2.701   1.351  1.00  0.00     0.031 C 
ATOM     61  C   UNL     1     -13.338  -2.064   3.745  1.00  0.00     0.034 A 
BRANCH  48  62
ATOM     62  C   UNL     1      -9.805  -1.640   8.794  1.00  0.00     0.023 A 
ATOM     63  C   UNL     1      -9.280  -0.409   9.234  1.00  0.00     0.012 A 
ATOM     64  C   UNL     1     -10.282  -2.569   9.739  1.00  0.00     0.148 A 
ATOM     65  C   UNL     1      -9.209  -0.114  10.595  1.00  0.00     0.002 A 
ATOM     66  C   UNL     1     -10.239  -2.253  11.092  1.00  0.00     0.091 A 
ATOM     67  F   UNL     1     -10.749  -3.746   9.300  1.00  0.00    -0.205 F 
ATOM     68  C   UNL     1      -9.697  -1.031  11.522  1.00  0.00     0.022 A 
BRANCH  66  69
ATOM     69  S   UNL     1     -10.901  -3.346  12.355  1.00  0.00     0.127 S 
ATOM     70  O   UNL     1      -9.680  -3.911  12.926  1.00  0.00    -0.237 OA
ATOM     71  O   UNL     1     -11.609  -2.414  13.233  1.00  0.00    -0.237 OA
ATOM     72  O   UNL     1     -11.763  -4.287  11.654  1.00  0.00    -0.744 OA
ENDBRANCH  66  69
ENDBRANCH  48  62
BRANCH  49  73
ATOM     73  C   UNL     1      -9.912  -3.730  -0.970  1.00  0.00     0.023 A 
ATOM     74  C   UNL     1     -10.242  -2.733  -1.908  1.00  0.00     0.012 A 
ATOM     75  C   UNL     1      -9.605  -5.027  -1.424  1.00  0.00     0.148 A 
ATOM     76  C   UNL     1     -10.290  -3.027  -3.271  1.00  0.00     0.002 A 
ATOM     77  C   UNL     1      -9.608  -5.301  -2.787  1.00  0.00     0.091 A 
ATOM     78  F   UNL     1      -9.316  -5.968  -0.514  1.00  0.00    -0.205 F 
ATOM     79  C   UNL     1      -9.963  -4.307  -3.711  1.00  0.00     0.022 A 
BRANCH  77  80
ATOM     80  S   UNL     1      -9.086  -6.890  -3.444  1.00  0.00     0.127 S 
ATOM     81  O   UNL     1     -10.364  -7.497  -3.809  1.00  0.00    -0.237 OA
ATOM     82  O   UNL     1      -8.248  -6.493  -4.576  1.00  0.00    -0.237 OA
ATOM     83  O   UNL     1      -8.359  -7.537  -2.361  1.00  0.00    -0.744 OA
ENDBRANCH  77  80
ENDBRANCH  49  73
BRANCH  61  84
ATOM     84  C   UNL     1     -14.827  -1.874   3.634  1.00  0.00     0.023 A 
ATOM     85  C   UNL     1     -15.668  -3.002   3.566  1.00  0.00     0.012 A 
ATOM     86  C   UNL     1     -15.399  -0.588   3.688  1.00  0.00     0.148 A 
ATOM     87  C   UNL     1     -17.053  -2.853   3.530  1.00  0.00     0.002 A 
ATOM     88  C   UNL     1     -16.782  -0.448   3.694  1.00  0.00     0.091 A 
ATOM     89  F   UNL     1     -14.583   0.476   3.731  1.00  0.00    -0.205 F 
ATOM     90  C   UNL     1     -17.611  -1.579   3.607  1.00  0.00     0.022 A 
BRANCH  88  91
ATOM     91  S   UNL     1     -17.581   1.151   3.884  1.00  0.00     0.127 S 
ATOM     92  O   UNL     1     -17.986   1.447   2.512  1.00  0.00    -0.237 OA
ATOM     93  O   UNL     1     -18.686   0.846   4.794  1.00  0.00    -0.237 OA
ATOM     94  O   UNL     1     -16.567   2.034   4.447  1.00  0.00    -0.744 OA
ENDBRANCH  88  91
ENDBRANCH  61  84
ENDBRANCH  35  36
ENDBRANCH  28  30
ENDBRANCH  27  28
ENDBRANCH  26  27
ENDBRANCH  25  26
ENDBRANCH  24  25
ENDBRANCH   1  24
TORSDOF 22
