REMARK SMILES Cc1ccc(C(=O)OCCOCCOCCOC(=O)c2ccc(-c3c4nc(c(-c5cccc(S(=O)(=O)[O-])c5F)c5ccc([nH]5)c(-c5cccc(S(=O)(=O)[O-])c5F)c5nc(c(-c6cccc(S(=O)(=O)[O-])c6F)c6ccc3[nH]6)C=C5)C=C4)cc2)cc1/[NH+]=C1\NCCS1
REMARK SMILES IDX 13 1 12 2 11 3 10 4 9 5 8 6 6 7 7 8 5 9 1 10 2 11 3 12 84 13
REMARK SMILES IDX 4 14 83 15 85 16 86 17 87 19 90 20 88 21 89 23 14 24 15 25
REMARK SMILES IDX 16 26 17 27 18 28 19 29 20 30 21 31 82 32 22 33 81 34 23 35
REMARK SMILES IDX 24 36 25 37 75 38 26 39 80 40 74 41 76 42 27 43 79 44 73 45
REMARK SMILES IDX 72 46 28 48 60 49 40 50 59 51 41 52 44 53 58 54 77 55 42 56
REMARK SMILES IDX 43 57 57 59 78 60 45 61 29 62 30 63 38 64 31 65 33 66 39 67
REMARK SMILES IDX 32 68 34 69 35 70 36 71 37 72 61 73 62 74 70 75 63 76 65 77
REMARK SMILES IDX 71 78 64 79 66 80 67 81 68 82 69 83 46 84 47 85 55 86 48 87
REMARK SMILES IDX 50 88 56 89 49 90 51 91 52 92 53 93 54 94
REMARK H PARENT 85 18 87 22 76 47 44 58
REMARK Flexibility Score: inf
ROOT
ATOM      1  C   UNL     1      -4.909   2.347  -4.742  1.00  0.00     0.188 C 
ENDROOT
BRANCH   1   2
ATOM      2  C   UNL     1      -5.015   2.076  -3.241  1.00  0.00     0.188 C 
BRANCH   2   3
ATOM      3  O   UNL     1      -5.945   2.944  -2.596  1.00  0.00    -0.376 OA
BRANCH   3   4
ATOM      4  C   UNL     1      -5.806   2.866  -1.167  1.00  0.00     0.202 C 
BRANCH   4   5
ATOM      5  C   UNL     1      -4.829   3.947  -0.557  1.00  0.00     0.261 C 
BRANCH   5   6
ATOM      6  O   UNL     1      -3.368   4.047  -0.908  1.00  0.00    -0.460 OA
BRANCH   6   7
ATOM      7  C   UNL     1      -2.704   2.872  -0.806  1.00  0.00     0.338 C 
ATOM      8  O   UNL     1      -3.427   1.889  -0.765  1.00  0.00    -0.246 OA
BRANCH   7   9
ATOM      9  C   UNL     1      -1.182   2.667  -0.475  1.00  0.00     0.064 A 
ATOM     10  C   UNL     1       2.897   1.317   0.420  1.00  0.00     0.049 C 
ATOM     11  C   UNL     1       1.514   1.877   0.244  1.00  0.00    -0.004 A 
ATOM     12  C   UNL     1       0.502   0.995   0.453  1.00  0.00     0.008 A 
ATOM     13  C   UNL     1       1.171   3.164  -0.270  1.00  0.00     0.129 A 
ATOM     14  C   UNL     1      -0.760   1.406   0.076  1.00  0.00     0.016 A 
ATOM     15  C   UNL     1      -0.168   3.572  -0.586  1.00  0.00     0.067 A 
BRANCH  13  16
ATOM     16  N   UNL     1       2.188   4.041  -0.641  1.00  0.00    -0.235 N 
ATOM     17  C   UNL     1       2.772   3.736  -1.741  1.00  0.00     0.309 C 
ATOM     18  H   UNL     1       2.437   4.828  -0.104  1.00  0.00     0.313 HD
ATOM     19  N   UNL     1       2.580   2.682  -2.590  1.00  0.00    -0.268 N 
ATOM     20  S   UNL     1       4.083   4.750  -2.311  1.00  0.00    -0.035 SA
ATOM     21  C   UNL     1       3.431   2.606  -3.740  1.00  0.00     0.246 C 
ATOM     22  H   UNL     1       1.888   2.003  -2.417  1.00  0.00     0.305 HD
ATOM     23  C   UNL     1       4.676   3.414  -3.386  1.00  0.00     0.128 C 
ENDBRANCH  13  16
ENDBRANCH   7   9
ENDBRANCH   6   7
ENDBRANCH   5   6
ENDBRANCH   4   5
ENDBRANCH   3   4
ENDBRANCH   2   3
ENDBRANCH   1   2
BRANCH   1  24
ATOM     24  O   UNL     1      -5.971   1.932  -5.603  1.00  0.00    -0.376 OA
BRANCH  24  25
ATOM     25  C   UNL     1      -6.710   0.785  -5.206  1.00  0.00     0.202 C 
BRANCH  25  26
ATOM     26  C   UNL     1      -5.993  -0.582  -5.248  1.00  0.00     0.261 C 
BRANCH  26  27
ATOM     27  O   UNL     1      -4.596  -0.508  -4.943  1.00  0.00    -0.460 OA
BRANCH  27  28
ATOM     28  C   UNL     1      -3.982  -1.730  -4.767  1.00  0.00     0.338 C 
ATOM     29  O   UNL     1      -4.260  -2.745  -5.320  1.00  0.00    -0.246 OA
BRANCH  28  30
ATOM     30  C   UNL     1      -3.180  -1.574  -3.512  1.00  0.00     0.060 A 
ATOM     31  C   UNL     1      -3.236  -2.506  -2.491  1.00  0.00     0.016 A 
ATOM     32  C   UNL     1      -2.574  -0.390  -3.219  1.00  0.00     0.016 A 
ATOM     33  C   UNL     1      -3.030  -2.110  -1.133  1.00  0.00     0.010 A 
ATOM     34  C   UNL     1      -2.407  -0.053  -1.869  1.00  0.00     0.010 A 
ATOM     35  C   UNL     1      -2.879  -0.778  -0.745  1.00  0.00    -0.014 A 
BRANCH  35  36
ATOM     36  C   UNL     1      -3.576  -0.221   0.670  1.00  0.00     0.031 A 
ATOM     37  C   UNL     1      -3.244   0.869   1.891  1.00  0.00     0.074 A 
ATOM     38  C   UNL     1      -4.818  -0.729   0.848  1.00  0.00     0.049 A 
ATOM     39  N   UNL     1      -3.532   0.744   3.178  1.00  0.00    -0.248 NA
ATOM     40  C   UNL     1      -2.595   2.203   1.807  1.00  0.00     0.031 C 
ATOM     41  C   UNL     1      -5.851  -0.311   1.781  1.00  0.00     0.029 A 
ATOM     42  N   UNL     1      -5.342  -1.896   0.321  1.00  0.00    -0.354 N 
ATOM     43  C   UNL     1      -3.269   2.017   3.767  1.00  0.00     0.074 A 
ATOM     44  C   UNL     1      -2.202   2.565   3.025  1.00  0.00     0.031 C 
ATOM     45  C   UNL     1      -6.707  -1.332   1.952  1.00  0.00     0.029 A 
ATOM     46  C   UNL     1      -6.163  -2.489   1.262  1.00  0.00     0.049 A 
ATOM     47  H   UNL     1      -5.159  -2.248  -0.581  1.00  0.00     0.167 HD
ATOM     48  C   UNL     1      -4.184   2.738   4.497  1.00  0.00     0.034 A 
ATOM     49  C   UNL     1      -5.768  -3.669   1.837  1.00  0.00     0.034 A 
ATOM     50  C   UNL     1      -5.165   1.826   5.020  1.00  0.00     0.049 A 
ATOM     51  C   UNL     1      -5.520  -3.557   3.340  1.00  0.00     0.074 A 
ATOM     52  C   UNL     1      -6.507   1.592   4.832  1.00  0.00     0.029 A 
ATOM     53  N   UNL     1      -4.667   0.768   5.742  1.00  0.00    -0.354 N 
ATOM     54  N   UNL     1      -5.811  -2.511   4.074  1.00  0.00    -0.248 NA
ATOM     55  C   UNL     1      -4.909  -4.614   4.145  1.00  0.00     0.031 C 
ATOM     56  C   UNL     1      -6.736   0.237   5.230  1.00  0.00     0.029 A 
ATOM     57  C   UNL     1      -5.549  -0.290   5.720  1.00  0.00     0.049 A 
ATOM     58  H   UNL     1      -3.801   0.766   6.210  1.00  0.00     0.167 HD
ATOM     59  C   UNL     1      -5.225  -2.637   5.313  1.00  0.00     0.074 A 
ATOM     60  C   UNL     1      -4.796  -4.022   5.347  1.00  0.00     0.031 C 
ATOM     61  C   UNL     1      -5.031  -1.580   6.166  1.00  0.00     0.034 A 
BRANCH  48  62
ATOM     62  C   UNL     1      -4.306   4.283   4.682  1.00  0.00     0.023 A 
ATOM     63  C   UNL     1      -5.160   4.718   5.726  1.00  0.00     0.012 A 
ATOM     64  C   UNL     1      -3.779   5.336   3.868  1.00  0.00     0.148 A 
ATOM     65  C   UNL     1      -5.491   6.069   5.941  1.00  0.00     0.002 A 
ATOM     66  C   UNL     1      -4.053   6.697   4.132  1.00  0.00     0.091 A 
ATOM     67  F   UNL     1      -3.084   5.047   2.763  1.00  0.00    -0.205 F 
ATOM     68  C   UNL     1      -4.929   7.061   5.154  1.00  0.00     0.022 A 
BRANCH  66  69
ATOM     69  S   UNL     1      -3.336   8.075   3.196  1.00  0.00     0.127 S 
ATOM     70  O   UNL     1      -4.520   8.691   2.596  1.00  0.00    -0.237 OA
ATOM     71  O   UNL     1      -2.707   8.877   4.247  1.00  0.00    -0.237 OA
ATOM     72  O   UNL     1      -2.406   7.478   2.247  1.00  0.00    -0.744 OA
ENDBRANCH  66  69
ENDBRANCH  48  62
BRANCH  49  73
ATOM     73  C   UNL     1      -5.142  -4.637   0.854  1.00  0.00     0.023 A 
ATOM     74  C   UNL     1      -5.948  -4.963  -0.273  1.00  0.00     0.012 A 
ATOM     75  C   UNL     1      -3.773  -4.979   0.790  1.00  0.00     0.148 A 
ATOM     76  C   UNL     1      -5.411  -5.502  -1.445  1.00  0.00     0.002 A 
ATOM     77  C   UNL     1      -3.235  -5.520  -0.396  1.00  0.00     0.091 A 
ATOM     78  F   UNL     1      -2.981  -4.676   1.827  1.00  0.00    -0.205 F 
ATOM     79  C   UNL     1      -4.052  -5.773  -1.510  1.00  0.00     0.022 A 
BRANCH  77  80
ATOM     80  S   UNL     1      -1.447  -5.655  -0.672  1.00  0.00     0.127 S 
ATOM     81  O   UNL     1      -1.198  -7.052  -0.332  1.00  0.00    -0.237 OA
ATOM     82  O   UNL     1      -1.315  -5.342  -2.097  1.00  0.00    -0.237 OA
ATOM     83  O   UNL     1      -0.855  -4.659   0.209  1.00  0.00    -0.744 OA
ENDBRANCH  77  80
ENDBRANCH  49  73
BRANCH  61  84
ATOM     84  C   UNL     1      -4.152  -1.593   7.424  1.00  0.00     0.023 A 
ATOM     85  C   UNL     1      -3.069  -2.477   7.583  1.00  0.00     0.012 A 
ATOM     86  C   UNL     1      -4.246  -0.538   8.376  1.00  0.00     0.148 A 
ATOM     87  C   UNL     1      -2.159  -2.352   8.644  1.00  0.00     0.002 A 
ATOM     88  C   UNL     1      -3.255  -0.334   9.336  1.00  0.00     0.091 A 
ATOM     89  F   UNL     1      -5.287   0.309   8.333  1.00  0.00    -0.205 F 
ATOM     90  C   UNL     1      -2.230  -1.262   9.502  1.00  0.00     0.022 A 
BRANCH  88  91
ATOM     91  S   UNL     1      -3.158   1.246  10.198  1.00  0.00     0.127 S 
ATOM     92  O   UNL     1      -4.156   1.095  11.252  1.00  0.00    -0.237 OA
ATOM     93  O   UNL     1      -1.773   1.277  10.674  1.00  0.00    -0.237 OA
ATOM     94  O   UNL     1      -3.450   2.224   9.156  1.00  0.00    -0.744 OA
ENDBRANCH  88  91
ENDBRANCH  61  84
ENDBRANCH  35  36
ENDBRANCH  28  30
ENDBRANCH  27  28
ENDBRANCH  26  27
ENDBRANCH  25  26
ENDBRANCH  24  25
ENDBRANCH   1  24
TORSDOF 21
