REMARK SMILES Cc1c(-c2nn(-c3ccccc3)cc2/C=N/O)nnn1-c1ccc(C(=O)OCCOCCOCCOC(=O)c2ccc(-c3c4nc(c(-c5cccc(S(=O)(=O)[O-])c5F)c5ccc([nH]5)c(-c5cccc(S(=O)(=O)[O-])c5F)c5nc(c(-c6cccc(S(=O)(=O)[O-])c6F)c6ccc3[nH]6)C=C5)C=C4)cc2)cc1
REMARK SMILES IDX 31 1 30 2 29 3 28 4 27 5 25 6 26 7 24 8 21 9 22 10 103 11
REMARK SMILES IDX 23 12 102 13 20 14 1 15 2 16 3 17 18 18 19 19 4 20 5 21
REMARK SMILES IDX 14 22 6 23 13 24 15 25 16 26 17 27 7 29 8 30 12 31 9 32
REMARK SMILES IDX 11 33 10 34 32 35 33 36 34 37 35 38 36 39 37 40 38 41 39 42
REMARK SMILES IDX 40 43 101 44 41 45 100 46 42 47 43 48 44 49 94 50 45 51
REMARK SMILES IDX 99 52 93 53 95 54 46 55 98 56 92 57 91 58 47 60 79 61 59 62
REMARK SMILES IDX 78 63 60 64 63 65 77 66 96 67 61 68 62 69 76 71 97 72 64 73
REMARK SMILES IDX 48 74 49 75 57 76 50 77 52 78 58 79 51 80 53 81 54 82 55 83
REMARK SMILES IDX 56 84 80 85 81 86 89 87 82 88 84 89 90 90 83 91 85 92 86 93
REMARK SMILES IDX 87 94 88 95 65 96 66 97 74 98 67 99 69 100 75 101 68 102
REMARK SMILES IDX 70 103 71 104 72 105 73 106
REMARK H PARENT 17 28 95 59 63 70
REMARK Flexibility Score: inf
ROOT
ATOM      1  C   UNL     1      -3.467   3.457  -5.987  1.00  0.00     0.188 C 
ENDROOT
BRANCH   1   2
ATOM      2  O   UNL     1      -4.075   4.736  -6.104  1.00  0.00    -0.376 OA
BRANCH   2   3
ATOM      3  C   UNL     1      -3.423   5.888  -5.588  1.00  0.00     0.202 C 
BRANCH   3   4
ATOM      4  C   UNL     1      -2.827   5.896  -4.167  1.00  0.00     0.261 C 
BRANCH   4   5
ATOM      5  O   UNL     1      -2.069   4.733  -3.799  1.00  0.00    -0.460 OA
BRANCH   5   6
ATOM      6  C   UNL     1      -2.599   3.976  -2.813  1.00  0.00     0.338 C 
ATOM      7  O   UNL     1      -3.572   4.235  -2.127  1.00  0.00    -0.246 OA
BRANCH   6   8
ATOM      8  C   UNL     1      -1.913   2.667  -2.742  1.00  0.00     0.060 A 
ATOM      9  C   UNL     1      -0.774   0.166  -2.283  1.00  0.00     0.067 A 
ATOM     10  C   UNL     1      -2.148   0.263  -2.525  1.00  0.00     0.029 A 
ATOM     11  C   UNL     1       0.047   1.299  -2.400  1.00  0.00     0.029 A 
ATOM     12  C   UNL     1      -2.719   1.520  -2.715  1.00  0.00     0.018 A 
ATOM     13  C   UNL     1      -0.523   2.553  -2.651  1.00  0.00     0.018 A 
BRANCH   9  14
ATOM     14  N   UNL     1      -0.266  -1.066  -1.803  1.00  0.00    -0.217 N 
ATOM     15  C   UNL     1       1.196  -0.251   0.136  1.00  0.00     0.069 C 
ATOM     16  C   UNL     1       0.611  -1.283  -0.752  1.00  0.00     0.071 A 
ATOM     17  C   UNL     1       0.659  -2.660  -0.656  1.00  0.00     0.137 A 
ATOM     18  N   UNL     1      -0.173  -3.231  -1.570  1.00  0.00    -0.128 NA
ATOM     19  N   UNL     1      -0.777  -2.250  -2.229  1.00  0.00    -0.061 NA
BRANCH  17  20
ATOM     20  C   UNL     1       1.375  -3.462   0.331  1.00  0.00     0.124 A 
ATOM     21  N   UNL     1       0.949  -3.575   1.596  1.00  0.00    -0.165 NA
ATOM     22  C   UNL     1       2.598  -4.132   0.109  1.00  0.00     0.044 A 
ATOM     23  N   UNL     1       1.935  -4.250   2.227  1.00  0.00    -0.240 N 
ATOM     24  C   UNL     1       2.952  -4.590   1.364  1.00  0.00     0.125 A 
BRANCH  22  25
ATOM     25  C   UNL     1       3.372  -4.335  -1.089  1.00  0.00     0.166 C 
ATOM     26  N   UNL     1       3.032  -3.746  -2.186  1.00  0.00    -0.097 NA
BRANCH  26  27
ATOM     27  O   UNL     1       3.909  -4.128  -3.208  1.00  0.00    -0.411 OA
ATOM     28  H   UNL     1       3.798  -3.785  -4.073  1.00  0.00     0.330 HD
ENDBRANCH  26  27
ENDBRANCH  22  25
BRANCH  23  29
ATOM     29  C   UNL     1       1.865  -4.517   3.617  1.00  0.00     0.065 A 
ATOM     30  C   UNL     1       0.612  -4.654   4.230  1.00  0.00     0.028 A 
ATOM     31  C   UNL     1       3.035  -4.644   4.377  1.00  0.00     0.028 A 
ATOM     32  C   UNL     1       0.534  -4.954   5.591  1.00  0.00     0.002 A 
ATOM     33  C   UNL     1       2.946  -4.899   5.747  1.00  0.00     0.002 A 
ATOM     34  C   UNL     1       1.699  -5.068   6.350  1.00  0.00     0.000 A 
ENDBRANCH  23  29
ENDBRANCH  17  20
ENDBRANCH   9  14
ENDBRANCH   6   8
ENDBRANCH   5   6
ENDBRANCH   4   5
ENDBRANCH   3   4
ENDBRANCH   2   3
ENDBRANCH   1   2
BRANCH   1  35
ATOM     35  C   UNL     1      -1.967   3.260  -6.310  1.00  0.00     0.188 C 
BRANCH  35  36
ATOM     36  O   UNL     1      -1.213   4.454  -6.368  1.00  0.00    -0.376 OA
BRANCH  36  37
ATOM     37  C   UNL     1      -0.774   4.983  -7.609  1.00  0.00     0.202 C 
BRANCH  37  38
ATOM     38  C   UNL     1      -1.630   4.994  -8.878  1.00  0.00     0.261 C 
BRANCH  38  39
ATOM     39  O   UNL     1      -2.739   4.120  -8.890  1.00  0.00    -0.460 OA
BRANCH  39  40
ATOM     40  C   UNL     1      -2.462   2.878  -9.336  1.00  0.00     0.338 C 
ATOM     41  O   UNL     1      -1.358   2.388  -9.494  1.00  0.00    -0.246 OA
BRANCH  40  42
ATOM     42  C   UNL     1      -3.725   2.199  -9.639  1.00  0.00     0.060 A 
ATOM     43  C   UNL     1      -3.665   0.818  -9.838  1.00  0.00     0.016 A 
ATOM     44  C   UNL     1      -4.848   2.961  -9.994  1.00  0.00     0.016 A 
ATOM     45  C   UNL     1      -4.638   0.232 -10.612  1.00  0.00     0.010 A 
ATOM     46  C   UNL     1      -5.813   2.377 -10.779  1.00  0.00     0.010 A 
ATOM     47  C   UNL     1      -5.630   1.048 -11.160  1.00  0.00    -0.014 A 
BRANCH  47  48
ATOM     48  C   UNL     1      -6.369   0.517 -12.283  1.00  0.00     0.031 A 
ATOM     49  C   UNL     1      -7.528  -0.332 -11.958  1.00  0.00     0.074 A 
ATOM     50  C   UNL     1      -6.053   0.883 -13.539  1.00  0.00     0.049 A 
ATOM     51  N   UNL     1      -7.716  -1.566 -12.288  1.00  0.00    -0.248 NA
ATOM     52  C   UNL     1      -8.565   0.239 -11.091  1.00  0.00     0.031 C 
ATOM     53  C   UNL     1      -5.148   1.964 -13.948  1.00  0.00     0.029 A 
ATOM     54  N   UNL     1      -6.620   0.485 -14.711  1.00  0.00    -0.354 N 
ATOM     55  C   UNL     1      -9.000  -1.865 -11.851  1.00  0.00     0.074 A 
ATOM     56  C   UNL     1      -9.409  -0.785 -10.987  1.00  0.00     0.031 C 
ATOM     57  C   UNL     1      -5.447   2.320 -15.215  1.00  0.00     0.029 A 
ATOM     58  C   UNL     1      -6.469   1.421 -15.723  1.00  0.00     0.049 A 
ATOM     59  H   UNL     1      -7.087  -0.374 -14.827  1.00  0.00     0.167 HD
ATOM     60  C   UNL     1      -9.737  -2.857 -12.413  1.00  0.00     0.034 A 
ATOM     61  C   UNL     1      -7.239   1.528 -16.831  1.00  0.00     0.034 A 
ATOM     62  C   UNL     1      -8.945  -3.772 -13.187  1.00  0.00     0.049 A 
ATOM     63  C   UNL     1      -7.923   0.227 -17.035  1.00  0.00     0.074 A 
ATOM     64  C   UNL     1      -7.837  -4.556 -12.934  1.00  0.00     0.029 A 
ATOM     65  N   UNL     1      -9.065  -3.725 -14.555  1.00  0.00    -0.354 N 
ATOM     66  N   UNL     1      -7.310  -0.881 -17.355  1.00  0.00    -0.248 NA
ATOM     67  C   UNL     1      -9.261   0.062 -16.490  1.00  0.00     0.031 C 
ATOM     68  C   UNL     1      -7.087  -4.540 -14.145  1.00  0.00     0.029 A 
ATOM     69  C   UNL     1      -7.793  -3.760 -15.064  1.00  0.00     0.049 A 
ATOM     70  H   UNL     1      -9.903  -3.676 -15.070  1.00  0.00     0.167 HD
ATOM     71  C   UNL     1      -7.992  -1.875 -16.662  1.00  0.00     0.074 A 
ATOM     72  C   UNL     1      -9.249  -1.252 -16.253  1.00  0.00     0.031 C 
ATOM     73  C   UNL     1      -7.362  -3.008 -16.224  1.00  0.00     0.034 A 
BRANCH  60  74
ATOM     74  C   UNL     1     -11.235  -2.815 -12.513  1.00  0.00     0.023 A 
ATOM     75  C   UNL     1     -11.914  -4.017 -12.793  1.00  0.00     0.012 A 
ATOM     76  C   UNL     1     -11.980  -1.617 -12.581  1.00  0.00     0.148 A 
ATOM     77  C   UNL     1     -13.270  -4.022 -13.133  1.00  0.00     0.002 A 
ATOM     78  C   UNL     1     -13.347  -1.638 -12.822  1.00  0.00     0.091 A 
ATOM     79  F   UNL     1     -11.355  -0.433 -12.547  1.00  0.00    -0.205 F 
ATOM     80  C   UNL     1     -13.994  -2.835 -13.127  1.00  0.00     0.022 A 
BRANCH  78  81
ATOM     81  S   UNL     1     -14.307  -0.125 -12.715  1.00  0.00     0.127 S 
ATOM     82  O   UNL     1     -14.276   0.346 -14.096  1.00  0.00    -0.237 OA
ATOM     83  O   UNL     1     -15.608  -0.613 -12.255  1.00  0.00    -0.237 OA
ATOM     84  O   UNL     1     -13.598   0.685 -11.731  1.00  0.00    -0.744 OA
ENDBRANCH  78  81
ENDBRANCH  60  74
BRANCH  61  85
ATOM     85  C   UNL     1      -7.618   2.770 -17.544  1.00  0.00     0.023 A 
ATOM     86  C   UNL     1      -8.063   2.704 -18.877  1.00  0.00     0.012 A 
ATOM     87  C   UNL     1      -7.738   4.007 -16.867  1.00  0.00     0.148 A 
ATOM     88  C   UNL     1      -8.603   3.830 -19.512  1.00  0.00     0.002 A 
ATOM     89  C   UNL     1      -8.235   5.133 -17.515  1.00  0.00     0.091 A 
ATOM     90  F   UNL     1      -7.455   4.069 -15.559  1.00  0.00    -0.205 F 
ATOM     91  C   UNL     1      -8.681   5.046 -18.837  1.00  0.00     0.022 A 
BRANCH  89  92
ATOM     92  S   UNL     1      -8.298   6.731 -16.691  1.00  0.00     0.127 S 
ATOM     93  O   UNL     1      -7.983   7.658 -17.779  1.00  0.00    -0.237 OA
ATOM     94  O   UNL     1      -9.680   6.784 -16.223  1.00  0.00    -0.237 OA
ATOM     95  O   UNL     1      -7.271   6.668 -15.657  1.00  0.00    -0.744 OA
ENDBRANCH  89  92
ENDBRANCH  61  85
BRANCH  73  96
ATOM     96  C   UNL     1      -5.964  -3.308 -16.717  1.00  0.00     0.023 A 
ATOM     97  C   UNL     1      -4.899  -2.411 -16.492  1.00  0.00     0.012 A 
ATOM     98  C   UNL     1      -5.669  -4.593 -17.210  1.00  0.00     0.148 A 
ATOM     99  C   UNL     1      -3.580  -2.772 -16.775  1.00  0.00     0.002 A 
ATOM    100  C   UNL     1      -4.349  -4.967 -17.445  1.00  0.00     0.091 A 
ATOM    101  F   UNL     1      -6.685  -5.448 -17.411  1.00  0.00    -0.205 F 
ATOM    102  C   UNL     1      -3.303  -4.055 -17.238  1.00  0.00     0.022 A 
BRANCH 100 103
ATOM    103  S   UNL     1      -3.912  -6.649 -17.903  1.00  0.00     0.127 S 
ATOM    104  O   UNL     1      -3.699  -6.530 -19.343  1.00  0.00    -0.237 OA
ATOM    105  O   UNL     1      -2.695  -6.886 -17.124  1.00  0.00    -0.237 OA
ATOM    106  O   UNL     1      -5.043  -7.475 -17.497  1.00  0.00    -0.744 OA
ENDBRANCH 100 103
ENDBRANCH  73  96
ENDBRANCH  47  48
ENDBRANCH  40  42
ENDBRANCH  39  40
ENDBRANCH  38  39
ENDBRANCH  37  38
ENDBRANCH  36  37
ENDBRANCH  35  36
ENDBRANCH   1  35
TORSDOF 25
