REMARK SMILES O=C(C[N@@H+]1CCC[C@@H]1c1ccccc1Cl)OCCOCCOCCOC(=O)c1ccc(-c2c3nc(c(-c4cccc(S(=O)(=O)[O-])c4F)c4ccc([nH]4)c(-c4cccc(S(=O)(=O)[O-])c4F)c4nc(c(-c5cccc(S(=O)(=O)[O-])c5F)c5ccc2[nH]5)C=C4)C=C3)cc1
REMARK SMILES IDX 21 1 20 2 19 3 18 4 17 5 16 6 2 7 1 8 3 9 4 10 5 11 8 12
REMARK SMILES IDX 6 14 7 15 9 16 10 17 14 18 11 19 13 20 15 21 12 22 22 23
REMARK SMILES IDX 23 24 24 25 25 26 26 27 27 28 28 29 29 30 90 31 30 32 89 33
REMARK SMILES IDX 31 34 32 35 33 36 83 37 34 38 88 39 82 40 84 41 35 42 87 43
REMARK SMILES IDX 81 44 80 45 36 47 68 48 48 49 67 50 49 51 52 52 66 53 85 54
REMARK SMILES IDX 50 55 51 56 65 58 86 59 53 60 37 61 38 62 46 63 39 64 41 65
REMARK SMILES IDX 47 66 40 67 42 68 43 69 44 70 45 71 69 72 70 73 78 74 71 75
REMARK SMILES IDX 73 76 79 77 72 78 74 79 75 80 76 81 77 82 54 83 55 84 63 85
REMARK SMILES IDX 56 86 58 87 64 88 57 89 59 90 60 91 61 92 62 93
REMARK H PARENT 4 13 84 46 52 57
REMARK Flexibility Score: inf
ROOT
ATOM      1  C   UNL     1       2.250  -2.356  -2.048  1.00  0.00     0.188 C 
ENDROOT
BRANCH   1   2
ATOM      2  C   UNL     1       3.001  -1.034  -1.831  1.00  0.00     0.188 C 
BRANCH   2   3
ATOM      3  O   UNL     1       4.365  -1.191  -1.489  1.00  0.00    -0.376 OA
BRANCH   3   4
ATOM      4  C   UNL     1       4.889  -0.250  -0.567  1.00  0.00     0.202 C 
BRANCH   4   5
ATOM      5  C   UNL     1       4.551  -0.621   0.876  1.00  0.00     0.261 C 
BRANCH   5   6
ATOM      6  O   UNL     1       3.151  -0.728   1.223  1.00  0.00    -0.459 OA
BRANCH   6   7
ATOM      7  C   UNL     1       2.223   0.250   1.311  1.00  0.00     0.361 C 
ATOM      8  O   UNL     1       1.133  -0.004   1.828  1.00  0.00    -0.245 OA
BRANCH   7   9
ATOM      9  C   UNL     1       2.443   1.592   0.634  1.00  0.00     0.387 C 
BRANCH   9  10
ATOM     10  N   UNL     1       3.696   2.319   0.966  1.00  0.00    -0.319 N 
ATOM     11  C   UNL     1       3.854   2.395   2.435  1.00  0.00     0.263 C 
ATOM     12  C   UNL     1       3.664   3.788   0.536  1.00  0.00     0.217 C 
ATOM     13  H   UNL     1       4.438   1.808   0.487  1.00  0.00     0.349 HD
ATOM     14  C   UNL     1       2.875   3.456   2.854  1.00  0.00     0.068 C 
ATOM     15  C   UNL     1       3.063   4.503   1.779  1.00  0.00     0.076 C 
BRANCH  12  16
ATOM     16  C   UNL     1       2.950   4.162  -0.767  1.00  0.00     0.028 A 
ATOM     17  C   UNL     1       2.785   3.225  -1.792  1.00  0.00     0.011 A 
ATOM     18  C   UNL     1       2.351   5.417  -0.986  1.00  0.00     0.050 A 
ATOM     19  C   UNL     1       1.716   3.331  -2.677  1.00  0.00     0.001 A 
ATOM     20  C   UNL     1       1.323   5.561  -1.920  1.00  0.00     0.021 A 
ATOM     21  Cl  UNL     1       2.875   6.859  -0.189  1.00  0.00    -0.084 Cl
ATOM     22  C   UNL     1       0.939   4.481  -2.703  1.00  0.00     0.002 A 
ENDBRANCH  12  16
ENDBRANCH   9  10
ENDBRANCH   7   9
ENDBRANCH   6   7
ENDBRANCH   5   6
ENDBRANCH   4   5
ENDBRANCH   3   4
ENDBRANCH   2   3
ENDBRANCH   1   2
BRANCH   1  23
ATOM     23  O   UNL     1       2.936  -3.590  -1.905  1.00  0.00    -0.376 OA
BRANCH  23  24
ATOM     24  C   UNL     1       4.231  -3.720  -2.474  1.00  0.00     0.202 C 
BRANCH  24  25
ATOM     25  C   UNL     1       4.418  -3.405  -3.969  1.00  0.00     0.261 C 
BRANCH  25  26
ATOM     26  O   UNL     1       4.021  -2.086  -4.408  1.00  0.00    -0.460 OA
BRANCH  26  27
ATOM     27  C   UNL     1       2.939  -2.028  -5.222  1.00  0.00     0.338 C 
ATOM     28  O   UNL     1       2.226  -2.972  -5.559  1.00  0.00    -0.246 OA
BRANCH  27  29
ATOM     29  C   UNL     1       2.612  -0.632  -5.588  1.00  0.00     0.060 A 
ATOM     30  C   UNL     1       1.361  -0.107  -5.236  1.00  0.00     0.016 A 
ATOM     31  C   UNL     1       3.486   0.130  -6.367  1.00  0.00     0.016 A 
ATOM     32  C   UNL     1       0.990   1.179  -5.658  1.00  0.00     0.010 A 
ATOM     33  C   UNL     1       3.103   1.409  -6.803  1.00  0.00     0.010 A 
ATOM     34  C   UNL     1       1.855   1.951  -6.454  1.00  0.00    -0.014 A 
BRANCH  34  35
ATOM     35  C   UNL     1       1.428   3.289  -6.965  1.00  0.00     0.031 A 
ATOM     36  C   UNL     1       0.536   3.381  -8.169  1.00  0.00     0.074 A 
ATOM     37  C   UNL     1       1.877   4.433  -6.409  1.00  0.00     0.049 A 
ATOM     38  N   UNL     1       0.057   4.447  -8.756  1.00  0.00    -0.248 NA
ATOM     39  C   UNL     1       0.196   2.116  -8.838  1.00  0.00     0.031 C 
ATOM     40  C   UNL     1       2.865   4.502  -5.342  1.00  0.00     0.029 A 
ATOM     41  N   UNL     1       1.552   5.752  -6.638  1.00  0.00    -0.354 N 
ATOM     42  C   UNL     1      -0.534   3.997  -9.929  1.00  0.00     0.074 A 
ATOM     43  C   UNL     1      -0.435   2.552  -9.921  1.00  0.00     0.031 C 
ATOM     44  C   UNL     1       2.975   5.773  -4.922  1.00  0.00     0.029 A 
ATOM     45  C   UNL     1       2.116   6.629  -5.732  1.00  0.00     0.049 A 
ATOM     46  H   UNL     1       0.971   6.042  -7.379  1.00  0.00     0.167 HD
ATOM     47  C   UNL     1      -1.052   4.724 -10.947  1.00  0.00     0.034 A 
ATOM     48  C   UNL     1       1.953   7.961  -5.569  1.00  0.00     0.034 A 
ATOM     49  C   UNL     1      -1.156   6.160 -10.962  1.00  0.00     0.049 A 
ATOM     50  C   UNL     1       1.179   8.727  -6.613  1.00  0.00     0.074 A 
ATOM     51  C   UNL     1      -1.709   6.966 -11.943  1.00  0.00     0.029 A 
ATOM     52  N   UNL     1      -0.683   7.007  -9.974  1.00  0.00    -0.354 N 
ATOM     53  N   UNL     1       0.505   8.273  -7.641  1.00  0.00    -0.248 NA
ATOM     54  C   UNL     1       1.185  10.196  -6.505  1.00  0.00     0.031 C 
ATOM     55  C   UNL     1      -1.537   8.300 -11.566  1.00  0.00     0.029 A 
ATOM     56  C   UNL     1      -0.918   8.325 -10.328  1.00  0.00     0.049 A 
ATOM     57  H   UNL     1      -0.244   6.715  -9.142  1.00  0.00     0.167 HD
ATOM     58  C   UNL     1       0.056   9.397  -8.326  1.00  0.00     0.074 A 
ATOM     59  C   UNL     1       0.442  10.551  -7.544  1.00  0.00     0.031 C 
ATOM     60  C   UNL     1      -0.557   9.469  -9.533  1.00  0.00     0.034 A 
BRANCH  47  61
ATOM     61  C   UNL     1      -1.508   3.984 -12.174  1.00  0.00     0.023 A 
ATOM     62  C   UNL     1      -2.714   3.260 -12.160  1.00  0.00     0.012 A 
ATOM     63  C   UNL     1      -0.770   4.085 -13.372  1.00  0.00     0.148 A 
ATOM     64  C   UNL     1      -3.170   2.628 -13.316  1.00  0.00     0.002 A 
ATOM     65  C   UNL     1      -1.254   3.494 -14.530  1.00  0.00     0.091 A 
ATOM     66  F   UNL     1       0.386   4.765 -13.354  1.00  0.00    -0.205 F 
ATOM     67  C   UNL     1      -2.449   2.756 -14.502  1.00  0.00     0.022 A 
BRANCH  65  68
ATOM     68  S   UNL     1      -0.445   3.671 -16.123  1.00  0.00     0.127 S 
ATOM     69  O   UNL     1      -0.048   2.292 -16.406  1.00  0.00    -0.237 OA
ATOM     70  O   UNL     1      -1.532   4.177 -16.961  1.00  0.00    -0.237 OA
ATOM     71  O   UNL     1       0.656   4.601 -15.919  1.00  0.00    -0.744 OA
ENDBRANCH  65  68
ENDBRANCH  47  61
BRANCH  48  72
ATOM     72  C   UNL     1       2.510   8.684  -4.380  1.00  0.00     0.023 A 
ATOM     73  C   UNL     1       1.623   9.367  -3.517  1.00  0.00     0.012 A 
ATOM     74  C   UNL     1       3.885   8.732  -4.096  1.00  0.00     0.148 A 
ATOM     75  C   UNL     1       2.098  10.103  -2.428  1.00  0.00     0.002 A 
ATOM     76  C   UNL     1       4.343   9.390  -2.958  1.00  0.00     0.091 A 
ATOM     77  F   UNL     1       4.739   8.147  -4.949  1.00  0.00    -0.205 F 
ATOM     78  C   UNL     1       3.458  10.101  -2.138  1.00  0.00     0.022 A 
BRANCH  76  79
ATOM     79  S   UNL     1       6.058   9.244  -2.444  1.00  0.00     0.127 S 
ATOM     80  O   UNL     1       6.671  10.397  -3.094  1.00  0.00    -0.237 OA
ATOM     81  O   UNL     1       5.968   9.336  -0.986  1.00  0.00    -0.237 OA
ATOM     82  O   UNL     1       6.471   7.931  -2.928  1.00  0.00    -0.744 OA
ENDBRANCH  76  79
ENDBRANCH  48  72
BRANCH  60  83
ATOM     83  C   UNL     1      -0.819  10.839 -10.106  1.00  0.00     0.023 A 
ATOM     84  C   UNL     1       0.264  11.613 -10.573  1.00  0.00     0.012 A 
ATOM     85  C   UNL     1      -2.131  11.326 -10.260  1.00  0.00     0.148 A 
ATOM     86  C   UNL     1       0.048  12.861 -11.156  1.00  0.00     0.002 A 
ATOM     87  C   UNL     1      -2.342  12.549 -10.885  1.00  0.00     0.091 A 
ATOM     88  F   UNL     1      -3.145  10.581  -9.798  1.00  0.00    -0.205 F 
ATOM     89  C   UNL     1      -1.255  13.323 -11.322  1.00  0.00     0.022 A 
BRANCH  87  90
ATOM     90  S   UNL     1      -3.985  13.192 -11.224  1.00  0.00     0.127 S 
ATOM     91  O   UNL     1      -4.039  14.353 -10.337  1.00  0.00    -0.237 OA
ATOM     92  O   UNL     1      -3.903  13.514 -12.648  1.00  0.00    -0.237 OA
ATOM     93  O   UNL     1      -4.914  12.118 -10.896  1.00  0.00    -0.744 OA
ENDBRANCH  87  90
ENDBRANCH  60  83
ENDBRANCH  34  35
ENDBRANCH  27  29
ENDBRANCH  26  27
ENDBRANCH  25  26
ENDBRANCH  24  25
ENDBRANCH  23  24
ENDBRANCH   1  23
TORSDOF 22
