REMARK SMILES CC[C@H](NC(=O)N1CCO[C@@H](CC(=O)OCCOCCOCCOC(=O)c2ccc(-c3c4nc(c(-c5cccc(S(=O)(=O)[O-])c5F)c5ccc([nH]5)c(-c5cccc(S(=O)(=O)[O-])c5F)c5nc(c(-c6cccc(S(=O)(=O)[O-])c6F)c6ccc3[nH]6)C=C5)C=C4)cc2)C1)c1cccs1
REMARK SMILES IDX 19 1 18 2 17 3 16 4 15 5 13 6 14 7 12 8 11 9 7 10 8 11 90 12
REMARK SMILES IDX 9 13 10 14 5 15 4 16 6 18 3 19 2 20 1 21 91 22 92 23 95 24
REMARK SMILES IDX 93 25 94 26 20 27 21 28 22 29 23 30 24 31 25 32 26 33 27 34
REMARK SMILES IDX 28 35 89 36 29 37 88 38 30 39 31 40 32 41 82 42 33 43 87 44
REMARK SMILES IDX 81 45 83 46 34 47 86 48 80 49 79 50 35 52 67 53 47 54 66 55
REMARK SMILES IDX 48 56 51 57 65 58 84 59 49 60 50 61 64 63 85 64 52 65 36 66
REMARK SMILES IDX 37 67 45 68 38 69 40 70 46 71 39 72 41 73 42 74 43 75 44 76
REMARK SMILES IDX 68 77 69 78 77 79 70 80 72 81 78 82 71 83 73 84 74 85 75 86
REMARK SMILES IDX 76 87 53 88 54 89 62 90 55 91 57 92 63 93 56 94 58 95 59 96
REMARK SMILES IDX 60 97 61 98
REMARK H PARENT 4 17 83 51 51 62
REMARK Flexibility Score: inf
ROOT
ATOM      1  C   UNL     1       5.384  -4.282   3.933  1.00  0.00     0.188 C 
ENDROOT
BRANCH   1   2
ATOM      2  O   UNL     1       5.759  -5.552   3.409  1.00  0.00    -0.376 OA
BRANCH   2   3
ATOM      3  C   UNL     1       4.814  -6.226   2.581  1.00  0.00     0.202 C 
BRANCH   3   4
ATOM      4  C   UNL     1       3.490  -6.638   3.240  1.00  0.00     0.261 C 
BRANCH   4   5
ATOM      5  O   UNL     1       2.828  -5.575   3.959  1.00  0.00    -0.463 OA
BRANCH   5   6
ATOM      6  C   UNL     1       2.737  -5.758   5.295  1.00  0.00     0.308 C 
ATOM      7  O   UNL     1       3.068  -6.786   5.880  1.00  0.00    -0.252 OA
BRANCH   6   8
ATOM      8  C   UNL     1       2.268  -4.561   6.077  1.00  0.00     0.156 C 
BRANCH   8   9
ATOM      9  C   UNL     1       1.750  -3.244   5.491  1.00  0.00     0.149 C 
ATOM     10  N   UNL     1       0.383  -1.887   3.890  1.00  0.00    -0.320 N 
ATOM     11  C   UNL     1      -0.412  -1.395   5.012  1.00  0.00     0.150 C 
ATOM     12  C   UNL     1       0.982  -3.228   4.148  1.00  0.00     0.154 C 
ATOM     13  C   UNL     1       0.390  -1.446   6.311  1.00  0.00     0.182 C 
ATOM     14  O   UNL     1       0.872  -2.766   6.554  1.00  0.00    -0.374 OA
BRANCH  10  15
ATOM     15  C   UNL     1       0.279  -1.399   2.605  1.00  0.00     0.318 C 
ATOM     16  N   UNL     1      -0.256  -0.151   2.407  1.00  0.00    -0.330 N 
ATOM     17  H   UNL     1      -1.224  -0.079   2.246  1.00  0.00     0.166 HD
ATOM     18  O   UNL     1       0.528  -2.081   1.611  1.00  0.00    -0.249 OA
BRANCH  16  19
ATOM     19  C   UNL     1       0.548   1.093   2.423  1.00  0.00     0.124 C 
BRANCH  19  20
ATOM     20  C   UNL     1       0.193   2.076   1.264  1.00  0.00     0.027 C 
ATOM     21  C   UNL     1       0.155   1.515  -0.148  1.00  0.00     0.006 C 
ENDBRANCH  19  20
BRANCH  19  22
ATOM     22  C   UNL     1       0.349   1.767   3.779  1.00  0.00     0.027 A 
ATOM     23  C   UNL     1       1.034   1.512   4.953  1.00  0.00     0.017 A 
ATOM     24  S   UNL     1      -0.847   2.981   4.053  1.00  0.00    -0.147 S 
ATOM     25  C   UNL     1       0.414   2.108   6.093  1.00  0.00     0.012 A 
ATOM     26  C   UNL     1      -0.589   2.976   5.735  1.00  0.00     0.065 A 
ENDBRANCH  19  22
ENDBRANCH  16  19
ENDBRANCH  10  15
ENDBRANCH   8   9
ENDBRANCH   6   8
ENDBRANCH   5   6
ENDBRANCH   4   5
ENDBRANCH   3   4
ENDBRANCH   2   3
ENDBRANCH   1   2
BRANCH   1  27
ATOM     27  C   UNL     1       4.910  -3.243   2.917  1.00  0.00     0.188 C 
BRANCH  27  28
ATOM     28  O   UNL     1       3.924  -3.694   2.000  1.00  0.00    -0.376 OA
BRANCH  28  29
ATOM     29  C   UNL     1       3.598  -2.800   0.931  1.00  0.00     0.202 C 
BRANCH  29  30
ATOM     30  C   UNL     1       4.762  -2.337   0.028  1.00  0.00     0.261 C 
BRANCH  30  31
ATOM     31  O   UNL     1       5.828  -1.612   0.680  1.00  0.00    -0.460 OA
BRANCH  31  32
ATOM     32  C   UNL     1       5.491  -0.572   1.484  1.00  0.00     0.338 C 
ATOM     33  O   UNL     1       4.415  -0.013   1.528  1.00  0.00    -0.246 OA
BRANCH  32  34
ATOM     34  C   UNL     1       6.566  -0.389   2.504  1.00  0.00     0.060 A 
ATOM     35  C   UNL     1       6.177  -0.069   3.813  1.00  0.00     0.016 A 
ATOM     36  C   UNL     1       7.921  -0.571   2.212  1.00  0.00     0.016 A 
ATOM     37  C   UNL     1       7.136   0.152   4.806  1.00  0.00     0.010 A 
ATOM     38  C   UNL     1       8.884  -0.343   3.206  1.00  0.00     0.010 A 
ATOM     39  C   UNL     1       8.499   0.078   4.493  1.00  0.00    -0.014 A 
BRANCH  39  40
ATOM     40  C   UNL     1       9.494   0.693   5.415  1.00  0.00     0.031 A 
ATOM     41  C   UNL     1       9.991   2.082   5.088  1.00  0.00     0.074 A 
ATOM     42  C   UNL     1       9.924   0.082   6.535  1.00  0.00     0.049 A 
ATOM     43  N   UNL     1      10.851   2.832   5.727  1.00  0.00    -0.248 NA
ATOM     44  C   UNL     1       9.440   2.707   3.873  1.00  0.00     0.031 C 
ATOM     45  C   UNL     1       9.520  -1.247   6.989  1.00  0.00     0.029 A 
ATOM     46  N   UNL     1      10.819   0.505   7.490  1.00  0.00    -0.354 N 
ATOM     47  C   UNL     1      10.963   4.000   4.981  1.00  0.00     0.074 A 
ATOM     48  C   UNL     1      10.101   3.852   3.830  1.00  0.00     0.031 C 
ATOM     49  C   UNL     1      10.182  -1.539   8.125  1.00  0.00     0.029 A 
ATOM     50  C   UNL     1      11.073  -0.431   8.467  1.00  0.00     0.049 A 
ATOM     51  H   UNL     1      11.239   1.395   7.476  1.00  0.00     0.167 HD
ATOM     52  C   UNL     1      11.697   5.109   5.233  1.00  0.00     0.034 A 
ATOM     53  C   UNL     1      11.937  -0.402   9.504  1.00  0.00     0.034 A 
ATOM     54  C   UNL     1      12.544   5.276   6.382  1.00  0.00     0.049 A 
ATOM     55  C   UNL     1      12.778   0.832   9.740  1.00  0.00     0.074 A 
ATOM     56  C   UNL     1      13.304   6.377   6.735  1.00  0.00     0.029 A 
ATOM     57  N   UNL     1      12.754   4.315   7.357  1.00  0.00    -0.354 N 
ATOM     58  N   UNL     1      12.792   1.966   9.081  1.00  0.00    -0.248 NA
ATOM     59  C   UNL     1      13.697   0.800  10.889  1.00  0.00     0.031 C 
ATOM     60  C   UNL     1      14.001   6.069   7.908  1.00  0.00     0.029 A 
ATOM     61  C   UNL     1      13.639   4.793   8.308  1.00  0.00     0.049 A 
ATOM     62  H   UNL     1      12.336   3.424   7.371  1.00  0.00     0.167 HD
ATOM     63  C   UNL     1      13.683   2.793   9.762  1.00  0.00     0.074 A 
ATOM     64  C   UNL     1      14.169   2.039  10.897  1.00  0.00     0.031 C 
ATOM     65  C   UNL     1      14.074   4.059   9.468  1.00  0.00     0.034 A 
BRANCH  52  66
ATOM     66  C   UNL     1      11.601   6.247   4.250  1.00  0.00     0.023 A 
ATOM     67  C   UNL     1      10.422   7.017   4.184  1.00  0.00     0.012 A 
ATOM     68  C   UNL     1      12.696   6.586   3.433  1.00  0.00     0.148 A 
ATOM     69  C   UNL     1      10.322   8.087   3.296  1.00  0.00     0.002 A 
ATOM     70  C   UNL     1      12.607   7.684   2.586  1.00  0.00     0.091 A 
ATOM     71  F   UNL     1      13.800   5.828   3.496  1.00  0.00    -0.205 F 
ATOM     72  C   UNL     1      11.418   8.427   2.507  1.00  0.00     0.022 A 
BRANCH  70  73
ATOM     73  S   UNL     1      13.986   8.254   1.587  1.00  0.00     0.127 S 
ATOM     74  O   UNL     1      13.501   7.985   0.234  1.00  0.00    -0.237 OA
ATOM     75  O   UNL     1      14.053   9.672   1.941  1.00  0.00    -0.237 OA
ATOM     76  O   UNL     1      15.138   7.466   2.002  1.00  0.00    -0.744 OA
ENDBRANCH  70  73
ENDBRANCH  52  66
BRANCH  53  77
ATOM     77  C   UNL     1      12.056  -1.569  10.428  1.00  0.00     0.023 A 
ATOM     78  C   UNL     1      11.667  -1.437  11.777  1.00  0.00     0.012 A 
ATOM     79  C   UNL     1      12.596  -2.794   9.989  1.00  0.00     0.148 A 
ATOM     80  C   UNL     1      11.856  -2.485  12.680  1.00  0.00     0.002 A 
ATOM     81  C   UNL     1      12.727  -3.853  10.881  1.00  0.00     0.091 A 
ATOM     82  F   UNL     1      12.981  -2.895   8.710  1.00  0.00    -0.205 F 
ATOM     83  C   UNL     1      12.378  -3.694  12.231  1.00  0.00     0.022 A 
BRANCH  81  84
ATOM     84  S   UNL     1      13.284  -5.481  10.368  1.00  0.00     0.127 S 
ATOM     85  O   UNL     1      14.589  -5.570  11.018  1.00  0.00    -0.237 OA
ATOM     86  O   UNL     1      12.250  -6.345  10.940  1.00  0.00    -0.237 OA
ATOM     87  O   UNL     1      13.305  -5.449   8.912  1.00  0.00    -0.744 OA
ENDBRANCH  81  84
ENDBRANCH  53  77
BRANCH  65  88
ATOM     88  C   UNL     1      15.029   4.742  10.415  1.00  0.00     0.023 A 
ATOM     89  C   UNL     1      16.369   4.313  10.506  1.00  0.00     0.012 A 
ATOM     90  C   UNL     1      14.609   5.851  11.178  1.00  0.00     0.148 A 
ATOM     91  C   UNL     1      17.260   4.944  11.375  1.00  0.00     0.002 A 
ATOM     92  C   UNL     1      15.517   6.510  11.999  1.00  0.00     0.091 A 
ATOM     93  F   UNL     1      13.329   6.240  11.091  1.00  0.00    -0.205 F 
ATOM     94  C   UNL     1      16.837   6.048  12.113  1.00  0.00     0.022 A 
BRANCH  92  95
ATOM     95  S   UNL     1      15.089   8.000  12.908  1.00  0.00     0.127 S 
ATOM     96  O   UNL     1      15.029   7.504  14.282  1.00  0.00    -0.237 OA
ATOM     97  O   UNL     1      16.227   8.874  12.624  1.00  0.00    -0.237 OA
ATOM     98  O   UNL     1      13.823   8.459  12.353  1.00  0.00    -0.744 OA
ENDBRANCH  92  95
ENDBRANCH  65  88
ENDBRANCH  39  40
ENDBRANCH  32  34
ENDBRANCH  31  32
ENDBRANCH  30  31
ENDBRANCH  29  30
ENDBRANCH  28  29
ENDBRANCH  27  28
ENDBRANCH   1  27
TORSDOF 25
