REMARK SMILES O=C(NNS(=O)(=O)c1cccc(C(=O)OCCOCCOCCOC(=O)c2ccc(-c3c4nc(c(-c5cccc(S(=O)(=O)[O-])c5F)c5ccc([nH]5)c(-c5cccc(S(=O)(=O)[O-])c5F)c5nc(c(-c6cccc(S(=O)(=O)[O-])c6F)c6ccc3[nH]6)C=C5)C=C4)cc2)c1)c1ccc2c(c1)OCO2
REMARK SMILES IDX 19 1 18 2 17 3 16 4 15 5 13 6 14 7 12 8 8 9 9 10 90 11 10 12
REMARK SMILES IDX 11 13 5 14 6 15 7 16 4 17 3 19 1 20 2 21 91 23 92 24 96 25
REMARK SMILES IDX 93 26 95 27 94 28 97 29 99 30 98 31 20 32 21 33 22 34 23 35
REMARK SMILES IDX 24 36 25 37 26 38 27 39 28 40 89 41 29 42 88 43 30 44 31 45
REMARK SMILES IDX 32 46 82 47 33 48 87 49 81 50 83 51 34 52 86 53 80 54 79 55
REMARK SMILES IDX 35 57 67 58 47 59 66 60 48 61 51 62 65 63 84 64 49 65 50 66
REMARK SMILES IDX 64 68 85 69 52 70 36 71 37 72 45 73 38 74 40 75 46 76 39 77
REMARK SMILES IDX 41 78 42 79 43 80 44 81 68 82 69 83 77 84 70 85 72 86 78 87
REMARK SMILES IDX 71 88 73 89 74 90 75 91 76 92 53 93 54 94 62 95 55 96 57 97
REMARK SMILES IDX 63 98 56 99 58 100 59 101 60 102 61 103
REMARK H PARENT 4 18 3 22 83 56 51 67
REMARK Flexibility Score: inf
ROOT
ATOM      1  C   UNL     1       5.076  -5.264   7.633  1.00  0.00     0.188 C 
ENDROOT
BRANCH   1   2
ATOM      2  O   UNL     1       4.640  -6.583   7.948  1.00  0.00    -0.376 OA
BRANCH   2   3
ATOM      3  C   UNL     1       4.226  -7.452   6.901  1.00  0.00     0.202 C 
BRANCH   3   4
ATOM      4  C   UNL     1       3.078  -6.987   5.999  1.00  0.00     0.261 C 
BRANCH   4   5
ATOM      5  O   UNL     1       3.370  -5.754   5.321  1.00  0.00    -0.460 OA
BRANCH   5   6
ATOM      6  C   UNL     1       2.437  -4.779   5.447  1.00  0.00     0.338 C 
ATOM      7  O   UNL     1       1.323  -4.877   5.928  1.00  0.00    -0.246 OA
BRANCH   6   8
ATOM      8  C   UNL     1       3.039  -3.486   5.055  1.00  0.00     0.061 A 
ATOM      9  C   UNL     1       4.346  -2.111   3.570  1.00  0.00     0.084 A 
ATOM     10  C   UNL     1       4.250  -1.033   4.456  1.00  0.00     0.022 A 
ATOM     11  C   UNL     1       3.756  -3.346   3.865  1.00  0.00     0.037 A 
ATOM     12  C   UNL     1       3.530  -1.183   5.641  1.00  0.00     0.002 A 
ATOM     13  C   UNL     1       2.914  -2.402   5.934  1.00  0.00     0.016 A 
BRANCH   9  14
ATOM     14  S   UNL     1       5.169  -1.898   2.017  1.00  0.00     0.257 S 
ATOM     15  O   UNL     1       4.960  -3.087   1.219  1.00  0.00    -0.205 OA
ATOM     16  O   UNL     1       6.491  -1.373   2.274  1.00  0.00    -0.205 OA
BRANCH  14  17
ATOM     17  N   UNL     1       4.276  -0.666   1.282  1.00  0.00    -0.123 NA
ATOM     18  H   UNL     1       4.464   0.187   1.810  1.00  0.00     0.167 HD
BRANCH  17  19
ATOM     19  N   UNL     1       2.843  -0.771   1.165  1.00  0.00    -0.273 N 
ATOM     20  O   UNL     1       0.878   0.039   0.369  1.00  0.00    -0.268 OA
ATOM     21  C   UNL     1       2.090  -0.094   0.234  1.00  0.00     0.266 C 
ATOM     22  H   UNL     1       2.373  -1.367   1.792  1.00  0.00     0.186 HD
BRANCH  21  23
ATOM     23  C   UNL     1       2.741   0.389  -1.007  1.00  0.00     0.045 A 
ATOM     24  C   UNL     1       3.662  -0.433  -1.698  1.00  0.00     0.018 A 
ATOM     25  C   UNL     1       2.302   1.595  -1.565  1.00  0.00     0.064 A 
ATOM     26  C   UNL     1       4.163  -0.046  -2.944  1.00  0.00     0.051 A 
ATOM     27  C   UNL     1       2.798   1.935  -2.805  1.00  0.00     0.166 A 
ATOM     28  C   UNL     1       3.699   1.137  -3.476  1.00  0.00     0.165 A 
ATOM     29  O   UNL     1       2.448   3.035  -3.525  1.00  0.00    -0.454 OA
ATOM     30  O   UNL     1       4.019   1.635  -4.700  1.00  0.00    -0.454 OA
ATOM     31  C   UNL     1       3.126   2.767  -4.769  1.00  0.00     0.468 C 
ENDBRANCH  21  23
ENDBRANCH  17  19
ENDBRANCH  14  17
ENDBRANCH   9  14
ENDBRANCH   6   8
ENDBRANCH   5   6
ENDBRANCH   4   5
ENDBRANCH   3   4
ENDBRANCH   2   3
ENDBRANCH   1   2
BRANCH   1  32
ATOM     32  C   UNL     1       6.071  -5.054   6.473  1.00  0.00     0.188 C 
BRANCH  32  33
ATOM     33  O   UNL     1       6.618  -6.251   5.944  1.00  0.00    -0.376 OA
BRANCH  33  34
ATOM     34  C   UNL     1       7.998  -6.468   6.199  1.00  0.00     0.202 C 
BRANCH  34  35
ATOM     35  C   UNL     1       8.349  -6.782   7.660  1.00  0.00     0.261 C 
BRANCH  35  36
ATOM     36  O   UNL     1       7.999  -5.759   8.609  1.00  0.00    -0.460 OA
BRANCH  36  37
ATOM     37  C   UNL     1       8.673  -4.591   8.524  1.00  0.00     0.338 C 
ATOM     38  O   UNL     1       9.549  -4.310   7.725  1.00  0.00    -0.246 OA
BRANCH  37  39
ATOM     39  C   UNL     1       8.047  -3.627   9.454  1.00  0.00     0.060 A 
ATOM     40  C   UNL     1       7.603  -2.398   8.952  1.00  0.00     0.016 A 
ATOM     41  C   UNL     1       7.917  -3.923  10.814  1.00  0.00     0.016 A 
ATOM     42  C   UNL     1       7.068  -1.444   9.821  1.00  0.00     0.010 A 
ATOM     43  C   UNL     1       7.391  -2.962  11.684  1.00  0.00     0.010 A 
ATOM     44  C   UNL     1       7.000  -1.703  11.197  1.00  0.00    -0.014 A 
BRANCH  44  45
ATOM     45  C   UNL     1       6.684  -0.597  12.136  1.00  0.00     0.031 A 
ATOM     46  C   UNL     1       7.821   0.143  12.791  1.00  0.00     0.074 A 
ATOM     47  C   UNL     1       5.413  -0.240  12.399  1.00  0.00     0.049 A 
ATOM     48  N   UNL     1       7.786   1.175  13.593  1.00  0.00    -0.248 NA
ATOM     49  C   UNL     1       9.179  -0.347  12.501  1.00  0.00     0.031 C 
ATOM     50  C   UNL     1       4.222  -0.887  11.854  1.00  0.00     0.029 A 
ATOM     51  N   UNL     1       4.917   0.752  13.210  1.00  0.00    -0.354 N 
ATOM     52  C   UNL     1       9.110   1.450  13.915  1.00  0.00     0.074 A 
ATOM     53  C   UNL     1       9.924   0.464  13.238  1.00  0.00     0.031 C 
ATOM     54  C   UNL     1       3.130  -0.287  12.362  1.00  0.00     0.029 A 
ATOM     55  C   UNL     1       3.544   0.782  13.270  1.00  0.00     0.049 A 
ATOM     56  H   UNL     1       5.491   1.383  13.701  1.00  0.00     0.167 HD
ATOM     57  C   UNL     1       9.610   2.447  14.683  1.00  0.00     0.034 A 
ATOM     58  C   UNL     1       2.718   1.580  13.977  1.00  0.00     0.034 A 
ATOM     59  C   UNL     1       8.808   3.437  15.348  1.00  0.00     0.049 A 
ATOM     60  C   UNL     1       3.299   2.684  14.825  1.00  0.00     0.074 A 
ATOM     61  C   UNL     1       9.226   4.511  16.114  1.00  0.00     0.029 A 
ATOM     62  N   UNL     1       7.423   3.471  15.335  1.00  0.00    -0.354 N 
ATOM     63  N   UNL     1       4.554   3.022  14.996  1.00  0.00    -0.248 NA
ATOM     64  C   UNL     1       2.345   3.546  15.542  1.00  0.00     0.031 C 
ATOM     65  C   UNL     1       8.091   5.186  16.577  1.00  0.00     0.029 A 
ATOM     66  C   UNL     1       6.968   4.544  16.082  1.00  0.00     0.049 A 
ATOM     67  H   UNL     1       6.846   2.826  14.865  1.00  0.00     0.167 HD
ATOM     68  C   UNL     1       4.539   4.157  15.802  1.00  0.00     0.074 A 
ATOM     69  C   UNL     1       3.148   4.459  16.071  1.00  0.00     0.031 C 
ATOM     70  C   UNL     1       5.582   4.876  16.287  1.00  0.00     0.034 A 
BRANCH  57  71
ATOM     71  C   UNL     1      11.106   2.541  14.809  1.00  0.00     0.023 A 
ATOM     72  C   UNL     1      11.863   3.017  13.719  1.00  0.00     0.012 A 
ATOM     73  C   UNL     1      11.758   2.209  16.012  1.00  0.00     0.148 A 
ATOM     74  C   UNL     1      13.249   3.134  13.813  1.00  0.00     0.002 A 
ATOM     75  C   UNL     1      13.136   2.366  16.112  1.00  0.00     0.091 A 
ATOM     76  F   UNL     1      11.024   1.733  17.028  1.00  0.00    -0.205 F 
ATOM     77  C   UNL     1      13.883   2.819  15.012  1.00  0.00     0.022 A 
BRANCH  75  78
ATOM     78  S   UNL     1      14.034   2.055  17.636  1.00  0.00     0.127 S 
ATOM     79  O   UNL     1      14.711   0.797  17.328  1.00  0.00    -0.237 OA
ATOM     80  O   UNL     1      14.918   3.219  17.718  1.00  0.00    -0.237 OA
ATOM     81  O   UNL     1      13.027   1.987  18.686  1.00  0.00    -0.744 OA
ENDBRANCH  75  78
ENDBRANCH  57  71
BRANCH  58  82
ATOM     82  C   UNL     1       1.241   1.409  13.867  1.00  0.00     0.023 A 
ATOM     83  C   UNL     1       0.475   2.391  13.208  1.00  0.00     0.012 A 
ATOM     84  C   UNL     1       0.593   0.280  14.403  1.00  0.00     0.148 A 
ATOM     85  C   UNL     1      -0.911   2.267  13.111  1.00  0.00     0.002 A 
ATOM     86  C   UNL     1      -0.782   0.136  14.258  1.00  0.00     0.091 A 
ATOM     87  F   UNL     1       1.335  -0.632  15.047  1.00  0.00    -0.205 F 
ATOM     88  C   UNL     1      -1.538   1.135  13.626  1.00  0.00     0.022 A 
BRANCH  86  89
ATOM     89  S   UNL     1      -1.654  -1.344  14.784  1.00  0.00     0.127 S 
ATOM     90  O   UNL     1      -2.361  -0.869  15.969  1.00  0.00    -0.237 OA
ATOM     91  O   UNL     1      -2.506  -1.621  13.626  1.00  0.00    -0.237 OA
ATOM     92  O   UNL     1      -0.619  -2.342  15.018  1.00  0.00    -0.744 OA
ENDBRANCH  86  89
ENDBRANCH  58  82
BRANCH  70  93
ATOM     93  C   UNL     1       5.272   6.091  17.122  1.00  0.00     0.023 A 
ATOM     94  C   UNL     1       4.791   5.935  18.437  1.00  0.00     0.012 A 
ATOM     95  C   UNL     1       5.527   7.387  16.631  1.00  0.00     0.148 A 
ATOM     96  C   UNL     1       4.537   7.050  19.237  1.00  0.00     0.002 A 
ATOM     97  C   UNL     1       5.316   8.491  17.449  1.00  0.00     0.091 A 
ATOM     98  F   UNL     1       5.965   7.520  15.370  1.00  0.00    -0.205 F 
ATOM     99  C   UNL     1       4.811   8.325  18.748  1.00  0.00     0.022 A 
BRANCH  97 100
ATOM    100  S   UNL     1       5.734  10.158  16.925  1.00  0.00     0.127 S 
ATOM    101  O   UNL     1       4.428  10.685  16.535  1.00  0.00    -0.237 OA
ATOM    102  O   UNL     1       6.287  10.745  18.146  1.00  0.00    -0.237 OA
ATOM    103  O   UNL     1       6.700  10.001  15.846  1.00  0.00    -0.744 OA
ENDBRANCH  97 100
ENDBRANCH  70  93
ENDBRANCH  44  45
ENDBRANCH  37  39
ENDBRANCH  36  37
ENDBRANCH  35  36
ENDBRANCH  34  35
ENDBRANCH  33  34
ENDBRANCH  32  33
ENDBRANCH   1  32
TORSDOF 24
