REMARK SMILES O=C(CCCOc1ccc([N+](=O)[O-])cc1F)OCCOCCOCCOC(=O)c1ccc(-c2c3nc(c(-c4cccc(S(=O)(=O)[O-])c4F)c4ccc([nH]4)c(-c4cccc(S(=O)(=O)[O-])c4F)c4nc(c(-c5cccc(S(=O)(=O)[O-])c5F)c5ccc2[nH]5)C=C4)C=C3)cc1
REMARK SMILES IDX 21 1 20 2 19 3 18 4 17 5 2 6 1 7 3 8 4 9 5 10 6 11 7 12 8 13
REMARK SMILES IDX 15 14 9 15 14 16 16 17 10 18 11 19 12 20 13 21 22 22 23 23
REMARK SMILES IDX 24 24 25 25 26 26 27 27 28 28 29 29 30 30 91 31 31 32 90 33
REMARK SMILES IDX 32 34 33 35 34 36 84 37 35 38 89 39 83 40 85 41 36 42 88 43
REMARK SMILES IDX 82 44 81 45 37 47 69 48 49 49 68 50 50 51 53 52 67 53 86 54
REMARK SMILES IDX 51 55 52 56 66 58 87 59 54 60 38 61 39 62 47 63 40 64 42 65
REMARK SMILES IDX 48 66 41 67 43 68 44 69 45 70 46 71 70 72 71 73 79 74 72 75
REMARK SMILES IDX 74 76 80 77 73 78 75 79 76 80 77 81 78 82 55 83 56 84 64 85
REMARK SMILES IDX 57 86 59 87 65 88 58 89 60 90 61 91 62 92 63 93
REMARK H PARENT 85 46 53 57
REMARK Flexibility Score: inf
ROOT
ATOM      1  C   UNL     1       2.443  -0.325  -2.483  1.00  0.00     0.188 C 
ENDROOT
BRANCH   1   2
ATOM      2  O   UNL     1       3.711  -0.198  -1.858  1.00  0.00    -0.376 OA
BRANCH   2   3
ATOM      3  C   UNL     1       4.421  -1.433  -1.699  1.00  0.00     0.202 C 
BRANCH   3   4
ATOM      4  C   UNL     1       3.834  -2.438  -0.686  1.00  0.00     0.261 C 
BRANCH   4   5
ATOM      5  O   UNL     1       3.832  -1.849   0.621  1.00  0.00    -0.463 OA
BRANCH   5   6
ATOM      6  C   UNL     1       2.651  -1.324   1.027  1.00  0.00     0.305 C 
ATOM      7  O   UNL     1       1.558  -1.635   0.574  1.00  0.00    -0.252 OA
BRANCH   6   8
ATOM      8  C   UNL     1       2.865  -0.156   1.958  1.00  0.00     0.126 C 
BRANCH   8   9
ATOM      9  C   UNL     1       4.162  -0.131   2.786  1.00  0.00     0.053 C 
BRANCH   9  10
ATOM     10  C   UNL     1       5.489   0.096   2.025  1.00  0.00     0.230 C 
BRANCH  10  11
ATOM     11  O   UNL     1       5.976   1.459   2.053  1.00  0.00    -0.490 OA
BRANCH  11  12
ATOM     12  C   UNL     1       5.276   2.213   1.155  1.00  0.00     0.155 A 
ATOM     13  C   UNL     1       5.632   2.196  -0.181  1.00  0.00     0.056 A 
ATOM     14  C   UNL     1       4.114   2.862   1.569  1.00  0.00     0.171 A 
ATOM     15  C   UNL     1       4.667   2.581  -1.099  1.00  0.00     0.089 A 
ATOM     16  C   UNL     1       3.140   3.203   0.655  1.00  0.00     0.128 A 
ATOM     17  F   UNL     1       3.809   2.938   2.866  1.00  0.00    -0.203 F 
ATOM     18  C   UNL     1       3.373   2.920  -0.676  1.00  0.00     0.272 A 
BRANCH  18  19
ATOM     19  N   UNL     1       2.182   2.778  -1.518  1.00  0.00     0.062 N 
ATOM     20  O   UNL     1       2.280   2.895  -2.736  1.00  0.00    -0.258 OA
ATOM     21  O   UNL     1       1.107   2.522  -0.960  1.00  0.00    -0.258 OA
ENDBRANCH  18  19
ENDBRANCH  11  12
ENDBRANCH  10  11
ENDBRANCH   9  10
ENDBRANCH   8   9
ENDBRANCH   6   8
ENDBRANCH   5   6
ENDBRANCH   4   5
ENDBRANCH   3   4
ENDBRANCH   2   3
ENDBRANCH   1   2
BRANCH   1  22
ATOM     22  C   UNL     1       2.219   0.381  -3.859  1.00  0.00     0.188 C 
BRANCH  22  23
ATOM     23  O   UNL     1       3.224   0.856  -4.762  1.00  0.00    -0.376 OA
BRANCH  23  24
ATOM     24  C   UNL     1       4.330   1.691  -4.393  1.00  0.00     0.202 C 
BRANCH  24  25
ATOM     25  C   UNL     1       4.316   3.289  -4.624  1.00  0.00     0.261 C 
BRANCH  25  26
ATOM     26  O   UNL     1       4.199   4.173  -3.432  1.00  0.00    -0.460 OA
BRANCH  26  27
ATOM     27  C   UNL     1       3.599   5.409  -3.550  1.00  0.00     0.338 C 
ATOM     28  O   UNL     1       3.394   5.981  -4.600  1.00  0.00    -0.246 OA
BRANCH  27  29
ATOM     29  C   UNL     1       3.034   5.931  -2.231  1.00  0.00     0.060 A 
ATOM     30  C   UNL     1       1.683   5.669  -1.946  1.00  0.00     0.016 A 
ATOM     31  C   UNL     1       3.718   6.757  -1.328  1.00  0.00     0.016 A 
ATOM     32  C   UNL     1       1.056   6.108  -0.759  1.00  0.00     0.010 A 
ATOM     33  C   UNL     1       3.058   7.280  -0.170  1.00  0.00     0.010 A 
ATOM     34  C   UNL     1       1.714   6.963   0.129  1.00  0.00    -0.014 A 
BRANCH  34  35
ATOM     35  C   UNL     1       0.877   7.746   1.115  1.00  0.00     0.031 A 
ATOM     36  C   UNL     1       0.267   9.044   0.623  1.00  0.00     0.074 A 
ATOM     37  C   UNL     1       0.540   7.327   2.357  1.00  0.00     0.049 A 
ATOM     38  N   UNL     1      -0.482   9.917   1.248  1.00  0.00    -0.248 NA
ATOM     39  C   UNL     1       0.530   9.386  -0.784  1.00  0.00     0.031 C 
ATOM     40  C   UNL     1       0.938   6.061   2.965  1.00  0.00     0.029 A 
ATOM     41  N   UNL     1      -0.228   7.931   3.339  1.00  0.00    -0.354 N 
ATOM     42  C   UNL     1      -0.741  10.927   0.325  1.00  0.00     0.074 A 
ATOM     43  C   UNL     1      -0.085  10.551  -0.906  1.00  0.00     0.031 C 
ATOM     44  C   UNL     1       0.433   5.989   4.212  1.00  0.00     0.029 A 
ATOM     45  C   UNL     1      -0.295   7.222   4.522  1.00  0.00     0.049 A 
ATOM     46  H   UNL     1      -0.686   8.792   3.205  1.00  0.00     0.167 HD
ATOM     47  C   UNL     1      -1.454  12.069   0.475  1.00  0.00     0.034 A 
ATOM     48  C   UNL     1      -0.848   7.529   5.721  1.00  0.00     0.034 A 
ATOM     49  C   UNL     1      -2.134  12.447   1.683  1.00  0.00     0.049 A 
ATOM     50  C   UNL     1      -1.585   8.838   5.901  1.00  0.00     0.074 A 
ATOM     51  C   UNL     1      -2.886  13.585   1.921  1.00  0.00     0.029 A 
ATOM     52  N   UNL     1      -2.140  11.710   2.855  1.00  0.00    -0.354 N 
ATOM     53  N   UNL     1      -1.832   9.770   5.011  1.00  0.00    -0.248 NA
ATOM     54  C   UNL     1      -2.135   9.138   7.236  1.00  0.00     0.031 C 
ATOM     55  C   UNL     1      -3.304  13.559   3.252  1.00  0.00     0.029 A 
ATOM     56  C   UNL     1      -2.865  12.377   3.826  1.00  0.00     0.049 A 
ATOM     57  H   UNL     1      -1.694  10.841   2.979  1.00  0.00     0.167 HD
ATOM     58  C   UNL     1      -2.589  10.741   5.663  1.00  0.00     0.074 A 
ATOM     59  C   UNL     1      -2.765  10.289   7.026  1.00  0.00     0.031 C 
ATOM     60  C   UNL     1      -3.087  11.901   5.169  1.00  0.00     0.034 A 
BRANCH  47  61
ATOM     61  C   UNL     1      -1.517  13.019  -0.695  1.00  0.00     0.023 A 
ATOM     62  C   UNL     1      -2.278  12.696  -1.836  1.00  0.00     0.012 A 
ATOM     63  C   UNL     1      -0.856  14.264  -0.636  1.00  0.00     0.148 A 
ATOM     64  C   UNL     1      -2.350  13.578  -2.914  1.00  0.00     0.002 A 
ATOM     65  C   UNL     1      -0.977  15.160  -1.690  1.00  0.00     0.091 A 
ATOM     66  F   UNL     1      -0.121  14.545   0.449  1.00  0.00    -0.205 F 
ATOM     67  C   UNL     1      -1.710  14.813  -2.837  1.00  0.00     0.022 A 
BRANCH  65  68
ATOM     68  S   UNL     1      -0.266  16.809  -1.646  1.00  0.00     0.127 S 
ATOM     69  O   UNL     1       0.786  16.705  -2.656  1.00  0.00    -0.237 OA
ATOM     70  O   UNL     1      -1.403  17.643  -2.034  1.00  0.00    -0.237 OA
ATOM     71  O   UNL     1       0.200  17.011  -0.281  1.00  0.00    -0.744 OA
ENDBRANCH  65  68
ENDBRANCH  47  61
BRANCH  48  72
ATOM     72  C   UNL     1      -0.726   6.566   6.865  1.00  0.00     0.023 A 
ATOM     73  C   UNL     1      -1.863   5.893   7.353  1.00  0.00     0.012 A 
ATOM     74  C   UNL     1       0.531   6.277   7.436  1.00  0.00     0.148 A 
ATOM     75  C   UNL     1      -1.750   4.945   8.375  1.00  0.00     0.002 A 
ATOM     76  C   UNL     1       0.646   5.289   8.410  1.00  0.00     0.091 A 
ATOM     77  F   UNL     1       1.597   6.958   6.994  1.00  0.00    -0.205 F 
ATOM     78  C   UNL     1      -0.495   4.629   8.889  1.00  0.00     0.022 A 
BRANCH  76  79
ATOM     79  S   UNL     1       2.234   4.719   9.031  1.00  0.00     0.127 S 
ATOM     80  O   UNL     1       2.141   5.054  10.450  1.00  0.00    -0.237 OA
ATOM     81  O   UNL     1       2.172   3.288   8.732  1.00  0.00    -0.237 OA
ATOM     82  O   UNL     1       3.242   5.453   8.280  1.00  0.00    -0.744 OA
ENDBRANCH  76  79
ENDBRANCH  48  72
BRANCH  60  83
ATOM     83  C   UNL     1      -3.924  12.784   6.061  1.00  0.00     0.023 A 
ATOM     84  C   UNL     1      -3.308  13.586   7.039  1.00  0.00     0.012 A 
ATOM     85  C   UNL     1      -5.298  12.957   5.788  1.00  0.00     0.148 A 
ATOM     86  C   UNL     1      -4.045  14.547   7.734  1.00  0.00     0.002 A 
ATOM     87  C   UNL     1      -6.013  13.951   6.446  1.00  0.00     0.091 A 
ATOM     88  F   UNL     1      -5.866  12.176   4.859  1.00  0.00    -0.205 F 
ATOM     89  C   UNL     1      -5.390  14.742   7.424  1.00  0.00     0.022 A 
BRANCH  87  90
ATOM     90  S   UNL     1      -7.715  14.357   6.030  1.00  0.00     0.127 S 
ATOM     91  O   UNL     1      -8.416  13.996   7.262  1.00  0.00    -0.237 OA
ATOM     92  O   UNL     1      -7.635  15.794   5.773  1.00  0.00    -0.237 OA
ATOM     93  O   UNL     1      -8.053  13.547   4.868  1.00  0.00    -0.744 OA
ENDBRANCH  87  90
ENDBRANCH  60  83
ENDBRANCH  34  35
ENDBRANCH  27  29
ENDBRANCH  26  27
ENDBRANCH  25  26
ENDBRANCH  24  25
ENDBRANCH  23  24
ENDBRANCH  22  23
ENDBRANCH   1  22
TORSDOF 25
