REMARK SMILES Cc1ccc(N2C(=O)N=C(OCCOCCOCCOC(=O)c3ccc(-c4c5nc(c(-c6cccc(S(=O)(=O)[O-])c6F)c6ccc([nH]6)c(-c6cccc(S(=O)(=O)[O-])c6F)c6nc(c(-c7cccc(S(=O)(=O)[O-])c7F)c7ccc4[nH]7)C=C6)C=C5)cc3)/C(=C/c3ccccc3OCc3cccc(C(=O)[O-])c3)C2=O)cc1
REMARK SMILES IDX 15 1 14 2 13 3 12 4 11 5 10 6 6 7 7 8 105 9 8 10 9 11 86 12
REMARK SMILES IDX 106 13 87 14 5 15 1 16 2 17 3 18 108 19 4 20 107 21 88 22
REMARK SMILES IDX 89 23 93 24 90 25 92 26 91 27 94 28 95 29 96 30 97 31 104 32
REMARK SMILES IDX 98 33 100 34 99 35 101 36 102 37 103 38 16 39 17 40 18 41
REMARK SMILES IDX 19 42 20 43 21 44 22 45 23 46 24 47 85 48 25 49 84 50 26 51
REMARK SMILES IDX 27 52 28 53 78 54 29 55 83 56 77 57 79 58 30 59 82 60 76 61
REMARK SMILES IDX 75 62 31 64 63 65 43 66 62 67 44 68 47 69 61 70 80 71 45 72
REMARK SMILES IDX 46 73 60 75 81 76 48 77 32 78 33 79 41 80 34 81 36 82 42 83
REMARK SMILES IDX 35 84 37 85 38 86 39 87 40 88 64 89 65 90 73 91 66 92 68 93
REMARK SMILES IDX 74 94 67 95 69 96 70 97 71 98 72 99 49 100 50 101 58 102
REMARK SMILES IDX 51 103 53 104 59 105 52 106 54 107 55 108 56 109 57 110
REMARK H PARENT 79 63 47 74
REMARK Flexibility Score: inf
ROOT
ATOM      1  C   UNL     1      -6.141   5.565  -0.495  1.00  0.00     0.188 C 
ENDROOT
BRANCH   1   2
ATOM      2  O   UNL     1      -7.533   5.619  -0.808  1.00  0.00    -0.376 OA
BRANCH   2   3
ATOM      3  C   UNL     1      -8.116   4.333  -0.976  1.00  0.00     0.201 C 
BRANCH   3   4
ATOM      4  C   UNL     1      -7.790   3.199   0.013  1.00  0.00     0.260 C 
BRANCH   4   5
ATOM      5  O   UNL     1      -6.394   3.048   0.568  1.00  0.00    -0.475 OA
BRANCH   5   6
ATOM      6  C   UNL     1      -5.262   2.327   0.355  1.00  0.00     0.231 C 
ATOM      7  N   UNL     1      -2.878   0.803   0.154  1.00  0.00    -0.226 N 
ATOM      8  C   UNL     1      -3.405   1.218   1.336  1.00  0.00     0.358 C 
ATOM      9  C   UNL     1      -3.799   0.620  -0.826  1.00  0.00     0.272 C 
ATOM     10  O   UNL     1      -3.079   0.622   2.370  1.00  0.00    -0.245 OA
ATOM     11  N   UNL     1      -4.435   2.159   1.343  1.00  0.00    -0.156 NA
ATOM     12  C   UNL     1      -5.183   1.650  -0.930  1.00  0.00     0.103 C 
ATOM     13  O   UNL     1      -3.509  -0.212  -1.693  1.00  0.00    -0.268 OA
ATOM     14  C   UNL     1      -6.434   1.821  -1.634  1.00  0.00     0.031 C 
BRANCH   7  15
ATOM     15  C   UNL     1      -1.506   0.262   0.067  1.00  0.00     0.054 A 
ATOM     16  C   UNL     1       2.798  -0.676   0.107  1.00  0.00     0.044 C 
ATOM     17  C   UNL     1       1.317  -0.419   0.047  1.00  0.00    -0.051 A 
ATOM     18  C   UNL     1       0.326  -1.378   0.321  1.00  0.00     0.005 A 
ATOM     19  C   UNL     1       0.883   0.843  -0.311  1.00  0.00     0.005 A 
ATOM     20  C   UNL     1      -1.073  -1.047   0.324  1.00  0.00     0.027 A 
ATOM     21  C   UNL     1      -0.482   1.153  -0.281  1.00  0.00     0.027 A 
ENDBRANCH   7  15
BRANCH  14  22
ATOM     22  C   UNL     1      -7.886   1.059  -2.394  1.00  0.00     0.018 A 
ATOM     23  C   UNL     1      -8.536   1.942  -3.277  1.00  0.00     0.012 A 
ATOM     24  C   UNL     1      -8.634  -0.366  -2.257  1.00  0.00     0.127 A 
ATOM     25  C   UNL     1      -9.833   1.679  -3.759  1.00  0.00     0.001 A 
ATOM     26  C   UNL     1      -9.941  -0.537  -2.740  1.00  0.00     0.047 A 
ATOM     27  C   UNL     1     -10.543   0.510  -3.433  1.00  0.00     0.004 A 
BRANCH  24  28
ATOM     28  O   UNL     1      -8.007  -1.984  -2.098  1.00  0.00    -0.488 OA
BRANCH  28  29
ATOM     29  C   UNL     1      -6.489  -2.808  -1.740  1.00  0.00     0.265 C 
BRANCH  29  30
ATOM     30  C   UNL     1      -5.801  -3.938  -0.908  1.00  0.00    -0.010 A 
ATOM     31  C   UNL     1      -4.373  -3.927  -0.965  1.00  0.00     0.007 A 
ATOM     32  C   UNL     1      -6.365  -4.959  -0.175  1.00  0.00     0.017 A 
ATOM     33  C   UNL     1      -3.583  -4.893  -0.342  1.00  0.00     0.001 A 
ATOM     34  C   UNL     1      -5.594  -5.978   0.399  1.00  0.00    -0.002 A 
ATOM     35  C   UNL     1      -4.201  -5.938   0.331  1.00  0.00     0.010 A 
BRANCH  34  36
ATOM     36  C   UNL     1      -6.260  -7.166   0.997  1.00  0.00     0.071 C 
ATOM     37  O   UNL     1      -5.704  -8.126   1.466  1.00  0.00    -0.545 OA
ATOM     38  O   UNL     1      -7.602  -7.053   0.909  1.00  0.00    -0.545 OA
ENDBRANCH  34  36
ENDBRANCH  29  30
ENDBRANCH  28  29
ENDBRANCH  24  28
ENDBRANCH  14  22
ENDBRANCH   5   6
ENDBRANCH   4   5
ENDBRANCH   3   4
ENDBRANCH   2   3
ENDBRANCH   1   2
BRANCH   1  39
ATOM     39  C   UNL     1      -5.944   5.635   1.023  1.00  0.00     0.188 C 
BRANCH  39  40
ATOM     40  O   UNL     1      -6.940   4.940   1.749  1.00  0.00    -0.376 OA
BRANCH  40  41
ATOM     41  C   UNL     1      -8.145   5.560   2.126  1.00  0.00     0.202 C 
BRANCH  41  42
ATOM     42  C   UNL     1      -8.117   5.370   3.632  1.00  0.00     0.261 C 
BRANCH  42  43
ATOM     43  O   UNL     1      -8.277   3.926   3.880  1.00  0.00    -0.460 OA
BRANCH  43  44
ATOM     44  C   UNL     1      -7.136   3.161   3.994  1.00  0.00     0.338 C 
ATOM     45  O   UNL     1      -6.105   3.560   4.516  1.00  0.00    -0.246 OA
BRANCH  44  46
ATOM     46  C   UNL     1      -7.274   1.812   3.275  1.00  0.00     0.060 A 
ATOM     47  C   UNL     1      -6.204   0.917   3.139  1.00  0.00     0.016 A 
ATOM     48  C   UNL     1      -8.376   1.500   2.499  1.00  0.00     0.016 A 
ATOM     49  C   UNL     1      -6.092   0.014   2.004  1.00  0.00     0.010 A 
ATOM     50  C   UNL     1      -8.216   0.659   1.348  1.00  0.00     0.010 A 
ATOM     51  C   UNL     1      -6.964   0.102   0.917  1.00  0.00    -0.014 A 
BRANCH  51  52
ATOM     52  C   UNL     1      -6.893  -0.661  -0.560  1.00  0.00     0.031 A 
ATOM     53  C   UNL     1      -8.131  -1.847   0.050  1.00  0.00     0.074 A 
ATOM     54  C   UNL     1      -6.256  -0.523  -2.140  1.00  0.00     0.049 A 
ATOM     55  N   UNL     1      -9.300  -2.174  -0.468  1.00  0.00    -0.248 NA
ATOM     56  C   UNL     1      -7.930  -2.625   1.284  1.00  0.00     0.031 C 
ATOM     57  C   UNL     1      -6.846  -1.069  -3.697  1.00  0.00     0.029 A 
ATOM     58  N   UNL     1      -5.335   0.243  -2.942  1.00  0.00    -0.354 N 
ATOM     59  C   UNL     1      -9.550  -3.486  -0.150  1.00  0.00     0.074 A 
ATOM     60  C   UNL     1      -8.899  -3.549   1.166  1.00  0.00     0.031 C 
ATOM     61  C   UNL     1      -6.283  -0.568  -4.790  1.00  0.00     0.029 A 
ATOM     62  C   UNL     1      -5.173   0.126  -4.309  1.00  0.00     0.049 A 
ATOM     63  H   UNL     1      -4.774   0.906  -2.477  1.00  0.00     0.167 HD
ATOM     64  C   UNL     1      -9.566  -4.557  -1.058  1.00  0.00     0.034 A 
ATOM     65  C   UNL     1      -3.910   0.009  -4.772  1.00  0.00     0.034 A 
ATOM     66  C   UNL     1      -8.938  -4.466  -2.467  1.00  0.00     0.049 A 
ATOM     67  C   UNL     1      -3.768  -1.579  -4.810  1.00  0.00     0.074 A 
ATOM     68  C   UNL     1      -9.329  -3.931  -3.693  1.00  0.00     0.029 A 
ATOM     69  N   UNL     1      -7.681  -5.059  -2.826  1.00  0.00    -0.354 N 
ATOM     70  N   UNL     1      -4.637  -2.408  -4.223  1.00  0.00    -0.248 NA
ATOM     71  C   UNL     1      -2.964  -2.353  -5.751  1.00  0.00     0.031 C 
ATOM     72  C   UNL     1      -8.213  -3.948  -4.625  1.00  0.00     0.029 A 
ATOM     73  C   UNL     1      -7.082  -4.487  -4.012  1.00  0.00     0.049 A 
ATOM     74  H   UNL     1      -7.264  -5.788  -2.312  1.00  0.00     0.167 HD
ATOM     75  C   UNL     1      -4.690  -3.673  -4.771  1.00  0.00     0.074 A 
ATOM     76  C   UNL     1      -3.543  -3.581  -5.698  1.00  0.00     0.031 C 
ATOM     77  C   UNL     1      -5.612  -4.709  -4.481  1.00  0.00     0.034 A 
BRANCH  64  78
ATOM     78  C   UNL     1     -10.755  -5.488  -0.766  1.00  0.00     0.023 A 
ATOM     79  C   UNL     1     -11.568  -5.883  -1.847  1.00  0.00     0.012 A 
ATOM     80  C   UNL     1     -11.209  -5.864   0.525  1.00  0.00     0.148 A 
ATOM     81  C   UNL     1     -12.799  -6.524  -1.657  1.00  0.00     0.002 A 
ATOM     82  C   UNL     1     -12.471  -6.428   0.721  1.00  0.00     0.091 A 
ATOM     83  F   UNL     1     -10.399  -5.741   1.579  1.00  0.00    -0.205 F 
ATOM     84  C   UNL     1     -13.272  -6.759  -0.372  1.00  0.00     0.022 A 
BRANCH  82  85
ATOM     85  S   UNL     1     -13.186  -6.623   2.366  1.00  0.00     0.127 S 
ATOM     86  O   UNL     1     -14.541  -6.098   2.182  1.00  0.00    -0.237 OA
ATOM     87  O   UNL     1     -13.117  -8.067   2.570  1.00  0.00    -0.237 OA
ATOM     88  O   UNL     1     -12.359  -5.819   3.259  1.00  0.00    -0.744 OA
ENDBRANCH  82  85
ENDBRANCH  64  78
BRANCH  65  89
ATOM     89  C   UNL     1      -3.276   1.441  -4.536  1.00  0.00     0.023 A 
ATOM     90  C   UNL     1      -4.049   2.431  -5.239  1.00  0.00     0.012 A 
ATOM     91  C   UNL     1      -2.506   2.013  -3.461  1.00  0.00     0.148 A 
ATOM     92  C   UNL     1      -4.198   3.773  -4.841  1.00  0.00     0.002 A 
ATOM     93  C   UNL     1      -2.676   3.395  -3.048  1.00  0.00     0.091 A 
ATOM     94  F   UNL     1      -1.618   1.235  -2.833  1.00  0.00    -0.205 F 
ATOM     95  C   UNL     1      -3.541   4.243  -3.732  1.00  0.00     0.022 A 
BRANCH  93  96
ATOM     96  S   UNL     1      -2.033   4.180  -1.513  1.00  0.00     0.127 S 
ATOM     97  O   UNL     1      -0.590   4.179  -1.705  1.00  0.00    -0.237 OA
ATOM     98  O   UNL     1      -2.641   5.511  -1.476  1.00  0.00    -0.237 OA
ATOM     99  O   UNL     1      -2.579   3.317  -0.484  1.00  0.00    -0.744 OA
ENDBRANCH  93  96
ENDBRANCH  65  89
BRANCH  77 100
ATOM    100  C   UNL     1      -5.135  -6.161  -4.595  1.00  0.00     0.023 A 
ATOM    101  C   UNL     1      -3.763  -6.492  -4.656  1.00  0.00     0.012 A 
ATOM    102  C   UNL     1      -6.025  -7.247  -4.427  1.00  0.00     0.148 A 
ATOM    103  C   UNL     1      -3.304  -7.812  -4.637  1.00  0.00     0.002 A 
ATOM    104  C   UNL     1      -5.551  -8.545  -4.252  1.00  0.00     0.091 A 
ATOM    105  F   UNL     1      -7.350  -7.049  -4.439  1.00  0.00    -0.205 F 
ATOM    106  C   UNL     1      -4.198  -8.841  -4.401  1.00  0.00     0.022 A 
BRANCH 104 107
ATOM    107  S   UNL     1      -6.648  -9.822  -3.623  1.00  0.00     0.127 S 
ATOM    108  O   UNL     1      -7.203 -10.377  -4.854  1.00  0.00    -0.237 OA
ATOM    109  O   UNL     1      -5.726 -10.709  -2.912  1.00  0.00    -0.237 OA
ATOM    110  O   UNL     1      -7.571  -9.101  -2.753  1.00  0.00    -0.744 OA
ENDBRANCH 104 107
ENDBRANCH  77 100
ENDBRANCH  51  52
ENDBRANCH  44  46
ENDBRANCH  43  44
ENDBRANCH  42  43
ENDBRANCH  41  42
ENDBRANCH  40  41
ENDBRANCH  39  40
ENDBRANCH   1  39
TORSDOF 25
