REMARK SMILES N#CCC1(C[N@@H+]2CCO[C@H](CC(=O)OCCOCCOCCOC(=O)c3ccc(-c4c5nc(c(-c6cccc(S(=O)(=O)[O-])c6F)c6ccc([nH]6)c(-c6cccc(S(=O)(=O)[O-])c6F)c6nc(c(-c7cccc(S(=O)(=O)[O-])c7F)c7ccc4[nH]7)C=C6)C=C5)cc3)C2)CC1
REMARK SMILES IDX 18 1 17 2 16 3 15 4 14 5 12 6 13 7 11 8 10 9 6 10 7 11 89 12
REMARK SMILES IDX 8 14 9 15 5 16 4 17 90 18 91 19 3 20 2 21 1 22 19 23 20 24
REMARK SMILES IDX 21 25 22 26 23 27 24 28 25 29 26 30 27 31 88 32 28 33 87 34
REMARK SMILES IDX 29 35 30 36 31 37 81 38 32 39 86 40 80 41 82 42 33 43 85 44
REMARK SMILES IDX 79 45 78 46 34 48 66 49 46 50 65 51 47 52 50 53 64 54 83 55
REMARK SMILES IDX 48 56 49 57 63 59 84 60 51 61 35 62 36 63 44 64 37 65 39 66
REMARK SMILES IDX 45 67 38 68 40 69 41 70 42 71 43 72 67 73 68 74 76 75 69 76
REMARK SMILES IDX 71 77 77 78 70 79 72 80 73 81 74 82 75 83 52 84 53 85 61 86
REMARK SMILES IDX 54 87 56 88 62 89 55 90 57 91 58 92 59 93 60 94
REMARK H PARENT 6 13 82 47 50 58
REMARK Flexibility Score: inf
ROOT
ATOM      1  C   UNL     1       4.743   1.900   5.189  1.00  0.00     0.188 C 
ENDROOT
BRANCH   1   2
ATOM      2  O   UNL     1       4.772   0.494   4.957  1.00  0.00    -0.376 OA
BRANCH   2   3
ATOM      3  C   UNL     1       5.840  -0.225   5.568  1.00  0.00     0.202 C 
BRANCH   3   4
ATOM      4  C   UNL     1       7.295   0.188   5.242  1.00  0.00     0.261 C 
BRANCH   4   5
ATOM      5  O   UNL     1       7.518   0.784   3.945  1.00  0.00    -0.463 OA
BRANCH   5   6
ATOM      6  C   UNL     1       8.085   0.053   2.959  1.00  0.00     0.308 C 
ATOM      7  O   UNL     1       8.429  -1.115   3.104  1.00  0.00    -0.252 OA
BRANCH   6   8
ATOM      8  C   UNL     1       8.319   0.810   1.646  1.00  0.00     0.160 C 
BRANCH   8   9
ATOM      9  C   UNL     1       7.754   2.213   1.387  1.00  0.00     0.184 C 
ATOM     10  N   UNL     1       5.220   2.156   1.629  1.00  0.00    -0.330 N 
ATOM     11  C   UNL     1       5.143   2.636   0.251  1.00  0.00     0.291 C 
ATOM     12  C   UNL     1       6.498   2.674   2.131  1.00  0.00     0.295 C 
ATOM     13  H   UNL     1       4.405   2.518   2.125  1.00  0.00     0.348 HD
ATOM     14  C   UNL     1       6.325   2.123  -0.594  1.00  0.00     0.222 C 
ATOM     15  O   UNL     1       7.609   2.477  -0.036  1.00  0.00    -0.366 OA
BRANCH  10  16
ATOM     16  C   UNL     1       4.864   0.772   1.997  1.00  0.00     0.270 C 
BRANCH  16  17
ATOM     17  C   UNL     1       4.617  -0.354   1.048  1.00  0.00     0.032 C 
ATOM     18  C   UNL     1       4.725  -1.814   1.492  1.00  0.00     0.015 C 
ATOM     19  C   UNL     1       5.811  -1.240   0.659  1.00  0.00     0.015 C 
BRANCH  17  20
ATOM     20  C   UNL     1       3.693  -0.032  -0.035  1.00  0.00     0.133 C 
BRANCH  20  21
ATOM     21  C   UNL     1       2.173  -0.032  -0.035  1.00  0.00     0.063 C 
ATOM     22  N   UNL     1       0.912  -0.032  -0.035  1.00  0.00    -0.198 NA
ENDBRANCH  20  21
ENDBRANCH  17  20
ENDBRANCH  16  17
ENDBRANCH  10  16
ENDBRANCH   8   9
ENDBRANCH   6   8
ENDBRANCH   5   6
ENDBRANCH   4   5
ENDBRANCH   3   4
ENDBRANCH   2   3
ENDBRANCH   1   2
BRANCH   1  23
ATOM     23  C   UNL     1       3.506   2.528   4.521  1.00  0.00     0.188 C 
BRANCH  23  24
ATOM     24  O   UNL     1       2.477   2.776   5.474  1.00  0.00    -0.376 OA
BRANCH  24  25
ATOM     25  C   UNL     1       1.847   1.575   5.942  1.00  0.00     0.202 C 
BRANCH  25  26
ATOM     26  C   UNL     1       0.724   1.062   5.023  1.00  0.00     0.261 C 
BRANCH  26  27
ATOM     27  O   UNL     1       1.049  -0.011   4.093  1.00  0.00    -0.460 OA
BRANCH  27  28
ATOM     28  C   UNL     1      -0.058  -0.326   3.328  1.00  0.00     0.338 C 
ATOM     29  O   UNL     1      -1.108   0.308   3.394  1.00  0.00    -0.246 OA
BRANCH  28  30
ATOM     30  C   UNL     1       0.058  -1.469   2.354  1.00  0.00     0.060 A 
ATOM     31  C   UNL     1       1.241  -2.121   2.059  1.00  0.00     0.016 A 
ATOM     32  C   UNL     1      -1.044  -1.740   1.516  1.00  0.00     0.016 A 
ATOM     33  C   UNL     1       1.355  -2.802   0.812  1.00  0.00     0.010 A 
ATOM     34  C   UNL     1      -0.920  -2.479   0.307  1.00  0.00     0.010 A 
ATOM     35  C   UNL     1       0.325  -2.926  -0.154  1.00  0.00    -0.014 A 
BRANCH  35  36
ATOM     36  C   UNL     1       0.542  -3.356  -1.623  1.00  0.00     0.031 A 
ATOM     37  C   UNL     1      -0.318  -2.787  -2.780  1.00  0.00     0.074 A 
ATOM     38  C   UNL     1       1.539  -4.173  -2.057  1.00  0.00     0.049 A 
ATOM     39  N   UNL     1      -0.614  -3.318  -3.950  1.00  0.00    -0.248 NA
ATOM     40  C   UNL     1      -0.857  -1.424  -2.627  1.00  0.00     0.031 C 
ATOM     41  C   UNL     1       2.671  -4.686  -1.288  1.00  0.00     0.029 A 
ATOM     42  N   UNL     1       1.728  -4.763  -3.305  1.00  0.00    -0.354 N 
ATOM     43  C   UNL     1      -1.453  -2.412  -4.610  1.00  0.00     0.074 A 
ATOM     44  C   UNL     1      -1.557  -1.256  -3.746  1.00  0.00     0.031 C 
ATOM     45  C   UNL     1       3.421  -5.487  -2.050  1.00  0.00     0.029 A 
ATOM     46  C   UNL     1       2.697  -5.746  -3.279  1.00  0.00     0.049 A 
ATOM     47  H   UNL     1       1.228  -4.508  -4.114  1.00  0.00     0.167 HD
ATOM     48  C   UNL     1      -2.093  -2.533  -5.807  1.00  0.00     0.034 A 
ATOM     49  C   UNL     1       2.900  -6.861  -4.013  1.00  0.00     0.034 A 
ATOM     50  C   UNL     1      -1.918  -3.641  -6.719  1.00  0.00     0.049 A 
ATOM     51  C   UNL     1       2.026  -7.160  -5.188  1.00  0.00     0.074 A 
ATOM     52  C   UNL     1      -2.559  -3.884  -7.926  1.00  0.00     0.029 A 
ATOM     53  N   UNL     1      -1.029  -4.684  -6.535  1.00  0.00    -0.354 N 
ATOM     54  N   UNL     1       1.094  -6.418  -5.725  1.00  0.00    -0.248 NA
ATOM     55  C   UNL     1       2.233  -8.453  -5.858  1.00  0.00     0.031 C 
ATOM     56  C   UNL     1      -2.097  -5.101  -8.441  1.00  0.00     0.029 A 
ATOM     57  C   UNL     1      -1.129  -5.588  -7.582  1.00  0.00     0.049 A 
ATOM     58  H   UNL     1      -0.415  -4.772  -5.772  1.00  0.00     0.167 HD
ATOM     59  C   UNL     1       0.623  -7.138  -6.815  1.00  0.00     0.074 A 
ATOM     60  C   UNL     1       1.382  -8.368  -6.871  1.00  0.00     0.031 C 
ATOM     61  C   UNL     1      -0.360  -6.800  -7.683  1.00  0.00     0.034 A 
BRANCH  48  62
ATOM     62  C   UNL     1      -3.122  -1.492  -6.212  1.00  0.00     0.023 A 
ATOM     63  C   UNL     1      -2.738  -0.250  -6.752  1.00  0.00     0.012 A 
ATOM     64  C   UNL     1      -4.496  -1.830  -6.187  1.00  0.00     0.148 A 
ATOM     65  C   UNL     1      -3.702   0.644  -7.236  1.00  0.00     0.002 A 
ATOM     66  C   UNL     1      -5.445  -0.954  -6.706  1.00  0.00     0.091 A 
ATOM     67  F   UNL     1      -4.848  -3.019  -5.679  1.00  0.00    -0.205 F 
ATOM     68  C   UNL     1      -5.051   0.289  -7.223  1.00  0.00     0.022 A 
BRANCH  66  69
ATOM     69  S   UNL     1      -7.194  -1.362  -6.814  1.00  0.00     0.127 S 
ATOM     70  O   UNL     1      -7.768  -0.481  -5.802  1.00  0.00    -0.237 OA
ATOM     71  O   UNL     1      -7.515  -1.001  -8.193  1.00  0.00    -0.237 OA
ATOM     72  O   UNL     1      -7.291  -2.792  -6.524  1.00  0.00    -0.744 OA
ENDBRANCH  66  69
ENDBRANCH  48  62
BRANCH  49  73
ATOM     73  C   UNL     1       3.885  -7.876  -3.522  1.00  0.00     0.023 A 
ATOM     74  C   UNL     1       5.048  -8.159  -4.257  1.00  0.00     0.012 A 
ATOM     75  C   UNL     1       3.684  -8.518  -2.278  1.00  0.00     0.148 A 
ATOM     76  C   UNL     1       5.994  -9.058  -3.759  1.00  0.00     0.002 A 
ATOM     77  C   UNL     1       4.669  -9.339  -1.750  1.00  0.00     0.091 A 
ATOM     78  F   UNL     1       2.546  -8.273  -1.611  1.00  0.00    -0.205 F 
ATOM     79  C   UNL     1       5.818  -9.627  -2.498  1.00  0.00     0.022 A 
BRANCH  77  80
ATOM     80  S   UNL     1       4.602  -9.950  -0.062  1.00  0.00     0.127 S 
ATOM     81  O   UNL     1       4.328 -11.364  -0.262  1.00  0.00    -0.237 OA
ATOM     82  O   UNL     1       5.945  -9.638   0.426  1.00  0.00    -0.237 OA
ATOM     83  O   UNL     1       3.543  -9.180   0.591  1.00  0.00    -0.744 OA
ENDBRANCH  77  80
ENDBRANCH  49  73
BRANCH  61  84
ATOM     84  C   UNL     1      -0.634  -7.744  -8.822  1.00  0.00     0.023 A 
ATOM     85  C   UNL     1      -1.270  -8.978  -8.581  1.00  0.00     0.012 A 
ATOM     86  C   UNL     1      -0.272  -7.398 -10.139  1.00  0.00     0.148 A 
ATOM     87  C   UNL     1      -1.503  -9.871  -9.627  1.00  0.00     0.002 A 
ATOM     88  C   UNL     1      -0.552  -8.271 -11.183  1.00  0.00     0.091 A 
ATOM     89  F   UNL     1       0.353  -6.230 -10.344  1.00  0.00    -0.205 F 
ATOM     90  C   UNL     1      -1.153  -9.515 -10.927  1.00  0.00     0.022 A 
BRANCH  88  91
ATOM     91  S   UNL     1      -0.210  -7.865 -12.899  1.00  0.00     0.127 S 
ATOM     92  O   UNL     1       0.878  -8.791 -13.213  1.00  0.00    -0.237 OA
ATOM     93  O   UNL     1      -1.483  -8.177 -13.549  1.00  0.00    -0.237 OA
ATOM     94  O   UNL     1       0.150  -6.454 -12.916  1.00  0.00    -0.744 OA
ENDBRANCH  88  91
ENDBRANCH  61  84
ENDBRANCH  35  36
ENDBRANCH  28  30
ENDBRANCH  27  28
ENDBRANCH  26  27
ENDBRANCH  25  26
ENDBRANCH  24  25
ENDBRANCH  23  24
ENDBRANCH   1  23
TORSDOF 25
