REMARK SMILES C[C@@H](C(=O)OCCOCCOCCOC(=O)c1ccc(-c2c3nc(c(-c4cccc(S(=O)(=O)[O-])c4F)c4ccc([nH]4)c(-c4cccc(S(=O)(=O)[O-])c4F)c4nc(c(-c5cccc(S(=O)(=O)[O-])c5F)c5ccc2[nH]5)C=C4)C=C3)cc1)[N@@H+]1CCc2n[nH]c(C(c3ccccc3)c3ccccc3)c2C1
REMARK SMILES IDX 9 1 8 2 7 3 6 4 5 5 3 6 4 7 2 8 1 9 80 10 81 11 101 12 82 14
REMARK SMILES IDX 100 15 83 16 86 17 84 18 85 19 87 21 88 22 89 23 93 24 90 25
REMARK SMILES IDX 92 26 91 27 94 28 95 29 99 30 96 31 98 32 97 33 10 34 11 35
REMARK SMILES IDX 12 36 13 37 14 38 15 39 16 40 17 41 18 42 79 43 19 44 78 45
REMARK SMILES IDX 20 46 21 47 22 48 72 49 23 50 77 51 71 52 73 53 24 54 76 55
REMARK SMILES IDX 70 56 69 57 25 59 57 60 37 61 56 62 38 63 41 64 55 65 74 66
REMARK SMILES IDX 39 67 40 68 54 70 75 71 42 72 26 73 27 74 35 75 28 76 30 77
REMARK SMILES IDX 36 78 29 79 31 80 32 81 33 82 34 83 58 84 59 85 67 86 60 87
REMARK SMILES IDX 62 88 68 89 61 90 63 91 64 92 65 93 66 94 43 95 44 96 52 97
REMARK SMILES IDX 45 98 47 99 53 100 46 101 48 102 49 103 50 104 51 105
REMARK H PARENT 80 13 85 20 73 58 41 69
REMARK Flexibility Score: inf
ROOT
ATOM      1  C   UNL     1       1.180   5.159   1.021  1.00  0.00     0.188 C 
ENDROOT
BRANCH   1   2
ATOM      2  O   UNL     1       2.285   5.148   1.935  1.00  0.00    -0.376 OA
BRANCH   2   3
ATOM      3  C   UNL     1       2.968   3.888   2.091  1.00  0.00     0.202 C 
BRANCH   3   4
ATOM      4  C   UNL     1       2.599   3.010   3.357  1.00  0.00     0.261 C 
BRANCH   4   5
ATOM      5  O   UNL     1       2.066   1.694   2.944  1.00  0.00    -0.459 OA
BRANCH   5   6
ATOM      6  C   UNL     1       1.362   0.857   3.783  1.00  0.00     0.364 C 
ATOM      7  O   UNL     1       1.573   0.809   4.990  1.00  0.00    -0.245 OA
BRANCH   6   8
ATOM      8  C   UNL     1       0.101   0.105   3.057  1.00  0.00     0.292 C 
ATOM      9  C   UNL     1       0.407  -1.011   2.049  1.00  0.00     0.088 C 
BRANCH   8  10
ATOM     10  N   UNL     1      -0.879   1.124   2.561  1.00  0.00    -0.319 N 
ATOM     11  C   UNL     1      -1.983   0.688   1.647  1.00  0.00     0.269 C 
ATOM     12  C   UNL     1      -0.166   2.226   1.938  1.00  0.00     0.303 C 
ATOM     13  H   UNL     1      -1.372   1.381   3.417  1.00  0.00     0.349 HD
ATOM     14  C   UNL     1      -1.926   1.219   0.160  1.00  0.00     0.120 C 
ATOM     15  C   UNL     1       0.499   1.724   0.673  1.00  0.00     0.052 A 
ATOM     16  C   UNL     1      -0.502   1.367  -0.263  1.00  0.00     0.077 A 
ATOM     17  C   UNL     1       1.695   1.229   0.074  1.00  0.00     0.056 A 
ATOM     18  N   UNL     1      -0.004   1.147  -1.464  1.00  0.00    -0.180 NA
ATOM     19  N   UNL     1       1.301   1.361  -1.262  1.00  0.00    -0.281 N 
ATOM     20  H   UNL     1       1.926   1.590  -1.987  1.00  0.00     0.190 HD
BRANCH  17  21
ATOM     21  C   UNL     1       3.233   0.766   0.301  1.00  0.00     0.098 C 
BRANCH  21  22
ATOM     22  C   UNL     1       3.788   0.044   1.591  1.00  0.00    -0.035 A 
ATOM     23  C   UNL     1       4.770   0.690   2.377  1.00  0.00     0.005 A 
ATOM     24  C   UNL     1       3.478  -1.268   2.009  1.00  0.00     0.005 A 
ATOM     25  C   UNL     1       5.297   0.115   3.552  1.00  0.00     0.000 A 
ATOM     26  C   UNL     1       3.998  -1.851   3.179  1.00  0.00     0.000 A 
ATOM     27  C   UNL     1       4.896  -1.149   3.964  1.00  0.00     0.000 A 
ENDBRANCH  21  22
BRANCH  21  28
ATOM     28  C   UNL     1       3.753   0.052  -0.989  1.00  0.00    -0.035 A 
ATOM     29  C   UNL     1       3.644  -1.333  -1.202  1.00  0.00     0.005 A 
ATOM     30  C   UNL     1       4.182   0.842  -2.073  1.00  0.00     0.005 A 
ATOM     31  C   UNL     1       3.914  -1.906  -2.445  1.00  0.00     0.000 A 
ATOM     32  C   UNL     1       4.385   0.276  -3.335  1.00  0.00     0.000 A 
ATOM     33  C   UNL     1       4.250  -1.097  -3.520  1.00  0.00     0.000 A 
ENDBRANCH  21  28
ENDBRANCH  17  21
ENDBRANCH   8  10
ENDBRANCH   6   8
ENDBRANCH   5   6
ENDBRANCH   4   5
ENDBRANCH   3   4
ENDBRANCH   2   3
ENDBRANCH   1   2
BRANCH   1  34
ATOM     34  C   UNL     1       1.409   5.483  -0.471  1.00  0.00     0.188 C 
BRANCH  34  35
ATOM     35  O   UNL     1       2.455   4.749  -1.124  1.00  0.00    -0.376 OA
BRANCH  35  36
ATOM     36  C   UNL     1       2.852   5.391  -2.352  1.00  0.00     0.202 C 
BRANCH  36  37
ATOM     37  C   UNL     1       2.115   4.933  -3.620  1.00  0.00     0.261 C 
BRANCH  37  38
ATOM     38  O   UNL     1       0.691   4.896  -3.447  1.00  0.00    -0.460 OA
BRANCH  38  39
ATOM     39  C   UNL     1       0.086   3.768  -3.889  1.00  0.00     0.338 C 
ATOM     40  O   UNL     1       0.649   2.837  -4.479  1.00  0.00    -0.246 OA
BRANCH  39  41
ATOM     41  C   UNL     1      -1.345   3.748  -3.514  1.00  0.00     0.060 A 
ATOM     42  C   UNL     1      -1.966   2.506  -3.337  1.00  0.00     0.016 A 
ATOM     43  C   UNL     1      -2.090   4.920  -3.337  1.00  0.00     0.016 A 
ATOM     44  C   UNL     1      -3.296   2.424  -2.928  1.00  0.00     0.010 A 
ATOM     45  C   UNL     1      -3.439   4.840  -2.970  1.00  0.00     0.010 A 
ATOM     46  C   UNL     1      -4.048   3.592  -2.762  1.00  0.00    -0.014 A 
BRANCH  46  47
ATOM     47  C   UNL     1      -5.513   3.493  -2.578  1.00  0.00     0.031 A 
ATOM     48  C   UNL     1      -6.363   3.306  -3.803  1.00  0.00     0.074 A 
ATOM     49  C   UNL     1      -6.085   3.585  -1.364  1.00  0.00     0.049 A 
ATOM     50  N   UNL     1      -7.661   3.200  -3.902  1.00  0.00    -0.248 NA
ATOM     51  C   UNL     1      -5.649   3.230  -5.090  1.00  0.00     0.031 C 
ATOM     52  C   UNL     1      -5.374   3.760  -0.099  1.00  0.00     0.029 A 
ATOM     53  N   UNL     1      -7.411   3.567  -1.004  1.00  0.00    -0.354 N 
ATOM     54  C   UNL     1      -7.921   3.055  -5.258  1.00  0.00     0.074 A 
ATOM     55  C   UNL     1      -6.649   3.089  -5.945  1.00  0.00     0.031 C 
ATOM     56  C   UNL     1      -6.274   3.866   0.896  1.00  0.00     0.029 A 
ATOM     57  C   UNL     1      -7.623   3.785   0.337  1.00  0.00     0.049 A 
ATOM     58  H   UNL     1      -8.141   3.413  -1.647  1.00  0.00     0.167 HD
ATOM     59  C   UNL     1      -9.111   2.899  -5.880  1.00  0.00     0.034 A 
ATOM     60  C   UNL     1      -8.776   3.923   1.024  1.00  0.00     0.034 A 
ATOM     61  C   UNL     1     -10.379   2.884  -5.210  1.00  0.00     0.049 A 
ATOM     62  C   UNL     1     -10.092   3.803   0.294  1.00  0.00     0.074 A 
ATOM     63  C   UNL     1     -11.637   2.713  -5.757  1.00  0.00     0.029 A 
ATOM     64  N   UNL     1     -10.552   3.073  -3.849  1.00  0.00    -0.354 N 
ATOM     65  N   UNL     1     -10.318   3.519  -0.966  1.00  0.00    -0.248 NA
ATOM     66  C   UNL     1     -11.316   3.998   1.089  1.00  0.00     0.031 C 
ATOM     67  C   UNL     1     -12.576   2.819  -4.726  1.00  0.00     0.029 A 
ATOM     68  C   UNL     1     -11.899   3.038  -3.537  1.00  0.00     0.049 A 
ATOM     69  H   UNL     1      -9.825   3.212  -3.200  1.00  0.00     0.167 HD
ATOM     70  C   UNL     1     -11.702   3.461  -1.105  1.00  0.00     0.074 A 
ATOM     71  C   UNL     1     -12.264   3.723   0.203  1.00  0.00     0.031 C 
ATOM     72  C   UNL     1     -12.443   3.229  -2.217  1.00  0.00     0.034 A 
BRANCH  59  73
ATOM     73  C   UNL     1      -9.082   2.718  -7.370  1.00  0.00     0.023 A 
ATOM     74  C   UNL     1      -8.689   1.475  -7.906  1.00  0.00     0.012 A 
ATOM     75  C   UNL     1      -9.459   3.762  -8.234  1.00  0.00     0.148 A 
ATOM     76  C   UNL     1      -8.647   1.282  -9.286  1.00  0.00     0.002 A 
ATOM     77  C   UNL     1      -9.448   3.551  -9.606  1.00  0.00     0.091 A 
ATOM     78  F   UNL     1      -9.794   4.945  -7.699  1.00  0.00    -0.205 F 
ATOM     79  C   UNL     1      -9.035   2.316 -10.134  1.00  0.00     0.022 A 
BRANCH  77  80
ATOM     80  S   UNL     1      -9.984   4.803 -10.776  1.00  0.00     0.127 S 
ATOM     81  O   UNL     1      -8.711   5.228 -11.357  1.00  0.00    -0.237 OA
ATOM     82  O   UNL     1     -10.840   4.035 -11.680  1.00  0.00    -0.237 OA
ATOM     83  O   UNL     1     -10.682   5.811  -9.991  1.00  0.00    -0.744 OA
ENDBRANCH  77  80
ENDBRANCH  59  73
BRANCH  60  84
ATOM     84  C   UNL     1      -8.758   4.164   2.496  1.00  0.00     0.023 A 
ATOM     85  C   UNL     1      -9.233   3.162   3.365  1.00  0.00     0.012 A 
ATOM     86  C   UNL     1      -8.308   5.384   3.037  1.00  0.00     0.148 A 
ATOM     87  C   UNL     1      -9.295   3.384   4.741  1.00  0.00     0.002 A 
ATOM     88  C   UNL     1      -8.327   5.580   4.413  1.00  0.00     0.091 A 
ATOM     89  F   UNL     1      -7.882   6.335   2.193  1.00  0.00    -0.205 F 
ATOM     90  C   UNL     1      -8.836   4.589   5.266  1.00  0.00     0.022 A 
BRANCH  88  91
ATOM     91  S   UNL     1      -7.660   7.061   5.181  1.00  0.00     0.127 S 
ATOM     92  O   UNL     1      -8.875   7.763   5.584  1.00  0.00    -0.237 OA
ATOM     93  O   UNL     1      -6.875   6.504   6.284  1.00  0.00    -0.237 OA
ATOM     94  O   UNL     1      -6.863   7.709   4.149  1.00  0.00    -0.744 OA
ENDBRANCH  88  91
ENDBRANCH  60  84
BRANCH  72  95
ATOM     95  C   UNL     1     -13.943   3.204  -2.080  1.00  0.00     0.023 A 
ATOM     96  C   UNL     1     -14.649   4.410  -1.909  1.00  0.00     0.012 A 
ATOM     97  C   UNL     1     -14.658   1.998  -2.229  1.00  0.00     0.148 A 
ATOM     98  C   UNL     1     -16.043   4.415  -1.868  1.00  0.00     0.002 A 
ATOM     99  C   UNL     1     -16.048   2.017  -2.233  1.00  0.00     0.091 A 
ATOM    100  F   UNL     1     -13.967   0.858  -2.371  1.00  0.00    -0.205 F 
ATOM    101  C   UNL     1     -16.742   3.223  -2.044  1.00  0.00     0.022 A 
BRANCH  99 102
ATOM    102  S   UNL     1     -17.024   0.543  -2.556  1.00  0.00     0.127 S 
ATOM    103  O   UNL     1     -17.501   0.202  -1.218  1.00  0.00    -0.237 OA
ATOM    104  O   UNL     1     -18.059   1.044  -3.462  1.00  0.00    -0.237 OA
ATOM    105  O   UNL     1     -16.109  -0.415  -3.162  1.00  0.00    -0.744 OA
ENDBRANCH  99 102
ENDBRANCH  72  95
ENDBRANCH  46  47
ENDBRANCH  39  41
ENDBRANCH  38  39
ENDBRANCH  37  38
ENDBRANCH  36  37
ENDBRANCH  35  36
ENDBRANCH  34  35
ENDBRANCH   1  34
TORSDOF 24
