REMARK SMILES Cc1ccc(C(=O)OCCOCCOCCOC(=O)c2ccc(-c3c4nc(c(-c5cccc(S(=O)(=O)[O-])c5F)c5ccc([nH]5)c(-c5cccc(S(=O)(=O)[O-])c5F)c5nc(c(-c6cccc(S(=O)(=O)[O-])c6F)c6ccc3[nH]6)C=C5)C=C4)cc2)cc1N1C(=O)/C(=C/c2ccc([N+](=O)[O-])cc2)SC1=S
REMARK SMILES IDX 12 1 11 2 10 3 9 4 8 5 6 6 7 7 5 8 1 9 2 10 3 11 84 12 4 13
REMARK SMILES IDX 83 14 85 15 86 16 100 17 87 18 88 19 99 20 101 21 89 22
REMARK SMILES IDX 90 23 91 24 98 25 92 26 97 27 93 28 94 29 95 30 96 31 13 32
REMARK SMILES IDX 14 33 15 34 16 35 17 36 18 37 19 38 20 39 21 40 82 41 22 42
REMARK SMILES IDX 81 43 23 44 24 45 25 46 75 47 26 48 80 49 74 50 76 51 27 52
REMARK SMILES IDX 79 53 73 54 72 55 28 57 60 58 40 59 59 60 41 61 44 62 58 63
REMARK SMILES IDX 77 64 42 65 43 66 57 68 78 69 45 70 29 71 30 72 38 73 31 74
REMARK SMILES IDX 33 75 39 76 32 77 34 78 35 79 36 80 37 81 61 82 62 83 70 84
REMARK SMILES IDX 63 85 65 86 71 87 64 88 66 89 67 90 68 91 69 92 46 93 47 94
REMARK SMILES IDX 55 95 48 96 50 97 56 98 49 99 51 100 52 101 53 102 54 103
REMARK H PARENT 76 56 44 67
REMARK Flexibility Score: inf
ROOT
ATOM      1  C   UNL     1      -5.554   1.477  -2.756  1.00  0.00     0.188 C 
ENDROOT
BRANCH   1   2
ATOM      2  O   UNL     1      -6.408   2.412  -2.106  1.00  0.00    -0.376 OA
BRANCH   2   3
ATOM      3  C   UNL     1      -5.891   2.863  -0.845  1.00  0.00     0.202 C 
BRANCH   3   4
ATOM      4  C   UNL     1      -4.792   4.023  -0.887  1.00  0.00     0.261 C 
BRANCH   4   5
ATOM      5  O   UNL     1      -3.319   3.888  -1.231  1.00  0.00    -0.460 OA
BRANCH   5   6
ATOM      6  C   UNL     1      -2.752   2.746  -0.779  1.00  0.00     0.338 C 
ATOM      7  O   UNL     1      -3.554   1.896  -0.488  1.00  0.00    -0.246 OA
BRANCH   6   8
ATOM      8  C   UNL     1      -1.229   2.370  -0.554  1.00  0.00     0.062 A 
ATOM      9  C   UNL     1       2.627   0.216  -0.455  1.00  0.00     0.046 C 
ATOM     10  C   UNL     1       1.342   0.991  -0.494  1.00  0.00    -0.027 A 
ATOM     11  C   UNL     1       0.326   0.504   0.253  1.00  0.00     0.006 A 
ATOM     12  C   UNL     1       1.104   2.227  -1.143  1.00  0.00     0.054 A 
ATOM     13  C   UNL     1      -0.866   1.210   0.223  1.00  0.00     0.016 A 
ATOM     14  C   UNL     1      -0.173   2.896  -1.229  1.00  0.00     0.042 A 
BRANCH  12  15
ATOM     15  N   UNL     1       2.211   3.050  -1.336  1.00  0.00    -0.261 N 
ATOM     16  C   UNL     1       2.848   3.435  -0.161  1.00  0.00     0.270 C 
ATOM     17  C   UNL     1       2.438   3.793  -2.472  1.00  0.00     0.152 C 
ATOM     18  O   UNL     1       2.924   2.869   0.921  1.00  0.00    -0.268 OA
ATOM     19  C   UNL     1       3.374   4.776  -0.381  1.00  0.00     0.081 C 
ATOM     20  S   UNL     1       3.534   5.106  -2.061  1.00  0.00    -0.054 SA
ATOM     21  S   UNL     1       1.838   3.548  -4.013  1.00  0.00    -0.051 S 
ATOM     22  C   UNL     1       3.477   5.588   0.673  1.00  0.00     0.029 C 
BRANCH  22  23
ATOM     23  C   UNL     1       3.974   6.931   0.508  1.00  0.00    -0.024 A 
ATOM     24  C   UNL     1       3.104   8.016   0.383  1.00  0.00     0.015 A 
ATOM     25  C   UNL     1       5.353   7.072   0.345  1.00  0.00     0.015 A 
ATOM     26  C   UNL     1       3.629   9.269   0.083  1.00  0.00     0.086 A 
ATOM     27  C   UNL     1       5.881   8.313   0.039  1.00  0.00     0.086 A 
ATOM     28  C   UNL     1       5.016   9.408  -0.088  1.00  0.00     0.269 A 
BRANCH  28  29
ATOM     29  N   UNL     1       5.585  10.716  -0.412  1.00  0.00     0.062 N 
ATOM     30  O   UNL     1       4.808  11.670  -0.553  1.00  0.00    -0.258 OA
ATOM     31  O   UNL     1       6.817  10.793  -0.532  1.00  0.00    -0.258 OA
ENDBRANCH  28  29
ENDBRANCH  22  23
ENDBRANCH  12  15
ENDBRANCH   6   8
ENDBRANCH   5   6
ENDBRANCH   4   5
ENDBRANCH   3   4
ENDBRANCH   2   3
ENDBRANCH   1   2
BRANCH   1  32
ATOM     32  C   UNL     1      -4.979   2.138  -4.008  1.00  0.00     0.188 C 
BRANCH  32  33
ATOM     33  O   UNL     1      -5.771   2.067  -5.202  1.00  0.00    -0.376 OA
BRANCH  33  34
ATOM     34  C   UNL     1      -6.553   0.890  -5.382  1.00  0.00     0.202 C 
BRANCH  34  35
ATOM     35  C   UNL     1      -5.805  -0.454  -5.575  1.00  0.00     0.261 C 
BRANCH  35  36
ATOM     36  O   UNL     1      -4.521  -0.489  -4.936  1.00  0.00    -0.460 OA
BRANCH  36  37
ATOM     37  C   UNL     1      -3.932  -1.712  -4.756  1.00  0.00     0.338 C 
ATOM     38  O   UNL     1      -4.227  -2.735  -5.347  1.00  0.00    -0.246 OA
BRANCH  37  39
ATOM     39  C   UNL     1      -3.118  -1.593  -3.511  1.00  0.00     0.060 A 
ATOM     40  C   UNL     1      -3.190  -2.507  -2.474  1.00  0.00     0.016 A 
ATOM     41  C   UNL     1      -2.533  -0.405  -3.208  1.00  0.00     0.016 A 
ATOM     42  C   UNL     1      -3.022  -2.095  -1.108  1.00  0.00     0.010 A 
ATOM     43  C   UNL     1      -2.502  -0.026  -1.855  1.00  0.00     0.010 A 
ATOM     44  C   UNL     1      -2.926  -0.756  -0.717  1.00  0.00    -0.014 A 
BRANCH  44  45
ATOM     45  C   UNL     1      -3.628  -0.226   0.718  1.00  0.00     0.031 A 
ATOM     46  C   UNL     1      -3.347   0.925   1.944  1.00  0.00     0.074 A 
ATOM     47  C   UNL     1      -4.852  -0.768   0.888  1.00  0.00     0.049 A 
ATOM     48  N   UNL     1      -3.562   0.769   3.240  1.00  0.00    -0.248 NA
ATOM     49  C   UNL     1      -2.738   2.302   1.848  1.00  0.00     0.031 C 
ATOM     50  C   UNL     1      -5.899  -0.360   1.804  1.00  0.00     0.029 A 
ATOM     51  N   UNL     1      -5.337  -1.948   0.340  1.00  0.00    -0.354 N 
ATOM     52  C   UNL     1      -3.304   2.043   3.823  1.00  0.00     0.074 A 
ATOM     53  C   UNL     1      -2.274   2.620   3.052  1.00  0.00     0.031 C 
ATOM     54  C   UNL     1      -6.754  -1.385   1.950  1.00  0.00     0.029 A 
ATOM     55  C   UNL     1      -6.184  -2.536   1.272  1.00  0.00     0.049 A 
ATOM     56  H   UNL     1      -5.118  -2.306  -0.551  1.00  0.00     0.167 HD
ATOM     57  C   UNL     1      -4.227   2.761   4.546  1.00  0.00     0.034 A 
ATOM     58  C   UNL     1      -5.785  -3.708   1.857  1.00  0.00     0.034 A 
ATOM     59  C   UNL     1      -5.209   1.845   5.062  1.00  0.00     0.049 A 
ATOM     60  C   UNL     1      -5.534  -3.577   3.357  1.00  0.00     0.074 A 
ATOM     61  C   UNL     1      -6.543   1.593   4.841  1.00  0.00     0.029 A 
ATOM     62  N   UNL     1      -4.713   0.783   5.782  1.00  0.00    -0.354 N 
ATOM     63  N   UNL     1      -5.835  -2.529   4.084  1.00  0.00    -0.248 NA
ATOM     64  C   UNL     1      -4.910  -4.624   4.165  1.00  0.00     0.031 C 
ATOM     65  C   UNL     1      -6.762   0.229   5.222  1.00  0.00     0.029 A 
ATOM     66  C   UNL     1      -5.579  -0.289   5.730  1.00  0.00     0.049 A 
ATOM     67  H   UNL     1      -3.856   0.788   6.267  1.00  0.00     0.167 HD
ATOM     68  C   UNL     1      -5.243  -2.641   5.322  1.00  0.00     0.074 A 
ATOM     69  C   UNL     1      -4.804  -4.023   5.363  1.00  0.00     0.031 C 
ATOM     70  C   UNL     1      -5.051  -1.579   6.171  1.00  0.00     0.034 A 
BRANCH  57  71
ATOM     71  C   UNL     1      -4.348   4.308   4.701  1.00  0.00     0.023 A 
ATOM     72  C   UNL     1      -5.199   4.764   5.735  1.00  0.00     0.012 A 
ATOM     73  C   UNL     1      -3.807   5.347   3.876  1.00  0.00     0.148 A 
ATOM     74  C   UNL     1      -5.505   6.123   5.936  1.00  0.00     0.002 A 
ATOM     75  C   UNL     1      -4.048   6.713   4.130  1.00  0.00     0.091 A 
ATOM     76  F   UNL     1      -3.135   5.048   2.760  1.00  0.00    -0.205 F 
ATOM     77  C   UNL     1      -4.918   7.101   5.147  1.00  0.00     0.022 A 
BRANCH  75  78
ATOM     78  S   UNL     1      -3.276   8.056   3.186  1.00  0.00     0.127 S 
ATOM     79  O   UNL     1      -4.423   8.660   2.510  1.00  0.00    -0.237 OA
ATOM     80  O   UNL     1      -2.686   8.885   4.237  1.00  0.00    -0.237 OA
ATOM     81  O   UNL     1      -2.302   7.426   2.301  1.00  0.00    -0.744 OA
ENDBRANCH  75  78
ENDBRANCH  57  71
BRANCH  58  82
ATOM     82  C   UNL     1      -5.156  -4.670   0.869  1.00  0.00     0.023 A 
ATOM     83  C   UNL     1      -5.966  -4.997  -0.255  1.00  0.00     0.012 A 
ATOM     84  C   UNL     1      -3.784  -4.992   0.791  1.00  0.00     0.148 A 
ATOM     85  C   UNL     1      -5.431  -5.510  -1.440  1.00  0.00     0.002 A 
ATOM     86  C   UNL     1      -3.249  -5.516  -0.404  1.00  0.00     0.091 A 
ATOM     87  F   UNL     1      -2.989  -4.692   1.826  1.00  0.00    -0.205 F 
ATOM     88  C   UNL     1      -4.070  -5.762  -1.517  1.00  0.00     0.022 A 
BRANCH  86  89
ATOM     89  S   UNL     1      -1.461  -5.647  -0.686  1.00  0.00     0.127 S 
ATOM     90  O   UNL     1      -1.212  -7.046  -0.352  1.00  0.00    -0.237 OA
ATOM     91  O   UNL     1      -1.332  -5.329  -2.110  1.00  0.00    -0.237 OA
ATOM     92  O   UNL     1      -0.868  -4.655   0.199  1.00  0.00    -0.744 OA
ENDBRANCH  86  89
ENDBRANCH  58  82
BRANCH  70  93
ATOM     93  C   UNL     1      -4.163  -1.592   7.425  1.00  0.00     0.023 A 
ATOM     94  C   UNL     1      -3.074  -2.470   7.574  1.00  0.00     0.012 A 
ATOM     95  C   UNL     1      -4.254  -0.541   8.382  1.00  0.00     0.148 A 
ATOM     96  C   UNL     1      -2.158  -2.346   8.630  1.00  0.00     0.002 A 
ATOM     97  C   UNL     1      -3.254  -0.333   9.331  1.00  0.00     0.091 A 
ATOM     98  F   UNL     1      -5.300   0.301   8.351  1.00  0.00    -0.205 F 
ATOM     99  C   UNL     1      -2.226  -1.258   9.489  1.00  0.00     0.022 A 
BRANCH  97 100
ATOM    100  S   UNL     1      -3.148   1.255  10.178  1.00  0.00     0.127 S 
ATOM    101  O   UNL     1      -4.147   1.121  11.233  1.00  0.00    -0.237 OA
ATOM    102  O   UNL     1      -1.763   1.283  10.654  1.00  0.00    -0.237 OA
ATOM    103  O   UNL     1      -3.433   2.224   9.126  1.00  0.00    -0.744 OA
ENDBRANCH  97 100
ENDBRANCH  70  93
ENDBRANCH  44  45
ENDBRANCH  37  39
ENDBRANCH  36  37
ENDBRANCH  35  36
ENDBRANCH  34  35
ENDBRANCH  33  34
ENDBRANCH  32  33
ENDBRANCH   1  32
TORSDOF 23
