REMARK SMILES Cc1ccc(S(=O)(=O)n2cc(C(=O)C(=O)N[C@H](Cc3c[nH]c4ccccc34)C(=O)NCC(=O)OCCOCCOCCOC(=O)c3ccc(-c4c5nc(c(-c6cccc(S(=O)(=O)[O-])c6F)c6ccc([nH]6)c(-c6cccc(S(=O)(=O)[O-])c6F)c6nc(c(-c7cccc(S(=O)(=O)[O-])c7F)c7ccc4[nH]7)C=C6)C=C5)cc3)c3ccccc32)cc1
REMARK SMILES IDX 36 1 35 2 34 3 32 4 33 5 31 6 30 7 28 8 29 9 17 11 16 12
REMARK SMILES IDX 14 13 15 14 12 16 13 17 11 18 9 19 10 20 114 21 109 22
REMARK SMILES IDX 113 23 110 24 112 25 111 26 6 27 7 28 8 29 5 30 1 31 2 32
REMARK SMILES IDX 3 33 116 34 4 35 115 36 18 37 19 38 20 39 27 40 21 41 22 42
REMARK SMILES IDX 26 43 23 45 25 46 24 47 37 48 38 49 39 50 40 51 41 52 42 53
REMARK SMILES IDX 43 54 44 55 45 56 46 57 47 58 108 59 48 60 107 61 49 62
REMARK SMILES IDX 50 63 51 64 101 65 52 66 106 67 100 68 102 69 53 70 105 71
REMARK SMILES IDX 99 72 98 73 54 75 86 76 66 77 85 78 67 79 70 80 84 81 103 82
REMARK SMILES IDX 68 83 69 84 83 86 104 87 71 88 55 89 56 90 64 91 57 92 59 93
REMARK SMILES IDX 65 94 58 95 60 96 61 97 62 98 63 99 87 100 88 101 96 102
REMARK SMILES IDX 89 103 91 104 97 105 90 106 92 107 93 108 94 109 95 110
REMARK SMILES IDX 72 111 73 112 81 113 74 114 76 115 82 116 75 117 77 118
REMARK SMILES IDX 78 119 79 120 80 121
REMARK H PARENT 30 10 16 15 21 44 102 74 70 85
REMARK Flexibility Score: inf
ROOT
ATOM      1  C   UNL     1      -9.811   6.913  -4.080  1.00  0.00     0.202 C 
ENDROOT
BRANCH   1   2
ATOM      2  C   UNL     1      -9.356   5.439  -3.745  1.00  0.00     0.261 C 
BRANCH   2   3
ATOM      3  O   UNL     1     -10.331   4.641  -2.943  1.00  0.00    -0.462 OA
BRANCH   3   4
ATOM      4  C   UNL     1     -10.599   3.285  -2.958  1.00  0.00     0.325 C 
ATOM      5  O   UNL     1     -10.180   2.558  -3.847  1.00  0.00    -0.250 OA
BRANCH   4   6
ATOM      6  C   UNL     1     -11.785   2.730  -1.731  1.00  0.00     0.238 C 
BRANCH   6   7
ATOM      7  N   UNL     1     -12.410   1.434  -1.540  1.00  0.00    -0.343 N 
ATOM      8  C   UNL     1     -12.011   0.545  -0.540  1.00  0.00     0.243 C 
ATOM      9  O   UNL     1     -12.625  -0.462  -0.313  1.00  0.00    -0.273 OA
ATOM     10  H   UNL     1     -13.145   1.171  -2.140  1.00  0.00     0.164 HD
BRANCH   8  11
ATOM     11  C   UNL     1     -10.762   1.026   0.278  1.00  0.00     0.176 C 
BRANCH  11  12
ATOM     12  N   UNL     1     -11.602   2.150   1.351  1.00  0.00    -0.337 N 
ATOM     13  C   UNL     1     -12.226   3.603   1.340  1.00  0.00     0.293 C 
ATOM     14  O   UNL     1     -13.451   3.603   1.471  1.00  0.00    -0.265 OA
ATOM     15  H   UNL     1     -11.719   1.742   2.239  1.00  0.00     0.164 HD
BRANCH  13  16
ATOM     16  C   UNL     1     -11.369   5.043   1.809  1.00  0.00     0.252 C 
ATOM     17  O   UNL     1     -10.995   4.774   2.968  1.00  0.00    -0.283 OA
BRANCH  16  18
ATOM     18  C   UNL     1     -11.064   6.702   1.248  1.00  0.00     0.054 A 
ATOM     19  N   UNL     1     -11.368   8.968   1.894  1.00  0.00    -0.240 N 
ATOM     20  C   UNL     1     -11.888   7.659   1.744  1.00  0.00     0.117 A 
ATOM     21  C   UNL     1     -10.315   9.081   1.017  1.00  0.00     0.065 A 
ATOM     22  C   UNL     1     -10.170   7.819   0.444  1.00  0.00     0.012 A 
ATOM     23  C   UNL     1      -9.554  10.235   0.629  1.00  0.00     0.028 A 
ATOM     24  C   UNL     1      -9.376   8.024  -0.764  1.00  0.00     0.011 A 
ATOM     25  C   UNL     1      -8.684  10.238  -0.437  1.00  0.00     0.002 A 
ATOM     26  C   UNL     1      -8.621   9.116  -1.182  1.00  0.00     0.001 A 
BRANCH  19  27
ATOM     27  S   UNL     1     -11.862  10.595   2.501  1.00  0.00     0.268 S 
ATOM     28  O   UNL     1     -12.333  11.207   1.254  1.00  0.00    -0.201 OA
ATOM     29  O   UNL     1     -10.613  11.089   3.082  1.00  0.00    -0.201 OA
BRANCH  27  30
ATOM     30  C   UNL     1     -12.974  11.365   3.682  1.00  0.00     0.088 A 
ATOM     31  C   UNL     1     -15.152  14.176   6.199  1.00  0.00     0.044 C 
ATOM     32  C   UNL     1     -14.411  13.186   5.354  1.00  0.00    -0.051 A 
ATOM     33  C   UNL     1     -13.672  13.660   4.281  1.00  0.00     0.005 A 
ATOM     34  C   UNL     1     -14.387  11.814   5.623  1.00  0.00     0.005 A 
ATOM     35  C   UNL     1     -12.987  12.766   3.467  1.00  0.00     0.022 A 
ATOM     36  C   UNL     1     -13.637  10.920   4.820  1.00  0.00     0.022 A 
ENDBRANCH  27  30
ENDBRANCH  19  27
ENDBRANCH  16  18
ENDBRANCH  13  16
ENDBRANCH  11  12
BRANCH  11  37
ATOM     37  C   UNL     1      -9.716   1.330  -0.912  1.00  0.00     0.072 C 
BRANCH  37  38
ATOM     38  C   UNL     1      -8.354   1.136  -1.538  1.00  0.00    -0.020 A 
ATOM     39  C   UNL     1      -7.654   2.222  -2.095  1.00  0.00     0.087 A 
ATOM     40  C   UNL     1      -8.037   0.030  -2.388  1.00  0.00     0.003 A 
ATOM     41  N   UNL     1      -7.197   1.861  -3.340  1.00  0.00    -0.361 N 
ATOM     42  C   UNL     1      -7.439   0.529  -3.551  1.00  0.00     0.046 A 
ATOM     43  C   UNL     1      -8.446  -1.308  -2.364  1.00  0.00     0.010 A 
ATOM     44  H   UNL     1      -6.761   2.467  -3.982  1.00  0.00     0.166 HD
ATOM     45  C   UNL     1      -7.236  -0.248  -4.695  1.00  0.00     0.026 A 
ATOM     46  C   UNL     1      -8.182  -2.119  -3.466  1.00  0.00     0.001 A 
ATOM     47  C   UNL     1      -7.598  -1.594  -4.617  1.00  0.00     0.002 A 
ENDBRANCH  37  38
ENDBRANCH  11  37
ENDBRANCH   8  11
ENDBRANCH   6   7
ENDBRANCH   4   6
ENDBRANCH   3   4
ENDBRANCH   2   3
ENDBRANCH   1   2
BRANCH   1  48
ATOM     48  O   UNL     1     -10.772   7.131  -5.103  1.00  0.00    -0.376 OA
BRANCH  48  49
ATOM     49  C   UNL     1     -11.768   6.141  -5.083  1.00  0.00     0.188 C 
BRANCH  49  50
ATOM     50  C   UNL     1     -11.384   4.989  -6.024  1.00  0.00     0.188 C 
BRANCH  50  51
ATOM     51  O   UNL     1     -10.857   5.422  -7.261  1.00  0.00    -0.376 OA
BRANCH  51  52
ATOM     52  C   UNL     1     -11.564   6.526  -7.808  1.00  0.00     0.202 C 
BRANCH  52  53
ATOM     53  C   UNL     1     -13.146   6.572  -7.693  1.00  0.00     0.261 C 
BRANCH  53  54
ATOM     54  O   UNL     1     -13.812   5.311  -7.279  1.00  0.00    -0.460 OA
BRANCH  54  55
ATOM     55  C   UNL     1     -14.954   5.222  -6.494  1.00  0.00     0.338 C 
ATOM     56  O   UNL     1     -16.088   5.311  -6.932  1.00  0.00    -0.246 OA
BRANCH  55  57
ATOM     57  C   UNL     1     -14.675   4.805  -5.076  1.00  0.00     0.060 A 
ATOM     58  C   UNL     1     -15.272   5.229  -3.909  1.00  0.00     0.016 A 
ATOM     59  C   UNL     1     -13.835   3.785  -4.812  1.00  0.00     0.016 A 
ATOM     60  C   UNL     1     -14.536   5.214  -2.667  1.00  0.00     0.010 A 
ATOM     61  C   UNL     1     -13.099   3.861  -3.613  1.00  0.00     0.010 A 
ATOM     62  C   UNL     1     -13.191   4.860  -2.576  1.00  0.00    -0.014 A 
BRANCH  62  63
ATOM     63  C   UNL     1     -12.060   5.574  -1.359  1.00  0.00     0.031 A 
ATOM     64  C   UNL     1     -10.337   5.139  -0.660  1.00  0.00     0.074 A 
ATOM     65  C   UNL     1     -12.674   6.803  -1.156  1.00  0.00     0.049 A 
ATOM     66  N   UNL     1      -9.182   5.794  -0.483  1.00  0.00    -0.248 NA
ATOM     67  C   UNL     1      -9.863   4.000   0.144  1.00  0.00     0.031 C 
ATOM     68  C   UNL     1     -12.304   8.201  -1.403  1.00  0.00     0.029 A 
ATOM     69  N   UNL     1     -13.888   6.986  -0.453  1.00  0.00    -0.354 N 
ATOM     70  C   UNL     1      -8.223   5.358   0.500  1.00  0.00     0.074 A 
ATOM     71  C   UNL     1      -8.653   4.043   0.674  1.00  0.00     0.031 C 
ATOM     72  C   UNL     1     -13.107   9.044  -0.705  1.00  0.00     0.029 A 
ATOM     73  C   UNL     1     -14.017   8.266   0.127  1.00  0.00     0.049 A 
ATOM     74  H   UNL     1     -14.578   6.287  -0.376  1.00  0.00     0.167 HD
ATOM     75  C   UNL     1      -7.673   5.822   1.696  1.00  0.00     0.034 A 
ATOM     76  C   UNL     1     -14.999   8.717   0.982  1.00  0.00     0.034 A 
ATOM     77  C   UNL     1      -8.391   6.803   2.646  1.00  0.00     0.049 A 
ATOM     78  C   UNL     1     -14.621   8.388   2.557  1.00  0.00     0.074 A 
ATOM     79  C   UNL     1      -8.158   8.099   3.092  1.00  0.00     0.029 A 
ATOM     80  N   UNL     1      -9.493   6.470   3.503  1.00  0.00    -0.354 N 
ATOM     81  N   UNL     1     -13.450   8.676   3.118  1.00  0.00    -0.248 NA
ATOM     82  C   UNL     1     -15.388   7.708   3.598  1.00  0.00     0.031 C 
ATOM     83  C   UNL     1      -9.256   8.549   3.965  1.00  0.00     0.029 A 
ATOM     84  C   UNL     1     -10.286   7.599   4.010  1.00  0.00     0.049 A 
ATOM     85  H   UNL     1      -9.707   5.537   3.737  1.00  0.00     0.167 HD
ATOM     86  C   UNL     1     -13.080   7.809   4.194  1.00  0.00     0.074 A 
ATOM     87  C   UNL     1     -14.460   7.386   4.543  1.00  0.00     0.031 C 
ATOM     88  C   UNL     1     -11.762   7.453   4.699  1.00  0.00     0.034 A 
BRANCH  75  89
ATOM     89  C   UNL     1      -6.214   5.206   1.989  1.00  0.00     0.023 A 
ATOM     90  C   UNL     1      -5.383   5.892   2.894  1.00  0.00     0.012 A 
ATOM     91  C   UNL     1      -5.595   4.045   1.377  1.00  0.00     0.148 A 
ATOM     92  C   UNL     1      -4.052   5.497   3.160  1.00  0.00     0.002 A 
ATOM     93  C   UNL     1      -4.285   3.622   1.690  1.00  0.00     0.091 A 
ATOM     94  F   UNL     1      -6.246   3.350   0.436  1.00  0.00    -0.205 F 
ATOM     95  C   UNL     1      -3.505   4.364   2.570  1.00  0.00     0.022 A 
BRANCH  93  96
ATOM     96  S   UNL     1      -3.525   2.107   1.027  1.00  0.00     0.127 S 
ATOM     97  O   UNL     1      -2.624   2.634   0.002  1.00  0.00    -0.237 OA
ATOM     98  O   UNL     1      -2.841   1.548   2.195  1.00  0.00    -0.237 OA
ATOM     99  O   UNL     1      -4.627   1.290   0.538  1.00  0.00    -0.744 OA
ENDBRANCH  93  96
ENDBRANCH  75  89
BRANCH  76 100
ATOM    100  C   UNL     1     -16.296   8.377   0.241  1.00  0.00     0.023 A 
ATOM    101  C   UNL     1     -16.459   8.944  -1.072  1.00  0.00     0.012 A 
ATOM    102  C   UNL     1     -16.933   7.164   0.489  1.00  0.00     0.148 A 
ATOM    103  C   UNL     1     -17.034   8.210  -2.125  1.00  0.00     0.002 A 
ATOM    104  C   UNL     1     -17.438   6.416  -0.572  1.00  0.00     0.091 A 
ATOM    105  F   UNL     1     -16.899   6.639   1.713  1.00  0.00    -0.205 F 
ATOM    106  C   UNL     1     -17.498   6.925  -1.876  1.00  0.00     0.022 A 
BRANCH 104 107
ATOM    107  S   UNL     1     -17.575   4.642  -0.287  1.00  0.00     0.127 S 
ATOM    108  O   UNL     1     -17.775   4.107  -1.633  1.00  0.00    -0.237 OA
ATOM    109  O   UNL     1     -16.266   4.338   0.276  1.00  0.00    -0.237 OA
ATOM    110  O   UNL     1     -18.722   4.560   0.604  1.00  0.00    -0.744 OA
ENDBRANCH 104 107
ENDBRANCH  76 100
BRANCH  88 111
ATOM    111  C   UNL     1     -11.662   7.038   6.168  1.00  0.00     0.023 A 
ATOM    112  C   UNL     1     -12.573   7.549   7.116  1.00  0.00     0.012 A 
ATOM    113  C   UNL     1     -10.504   6.398   6.676  1.00  0.00     0.148 A 
ATOM    114  C   UNL     1     -12.355   7.425   8.489  1.00  0.00     0.002 A 
ATOM    115  C   UNL     1     -10.236   6.377   8.037  1.00  0.00     0.091 A 
ATOM    116  F   UNL     1      -9.652   5.793   5.843  1.00  0.00    -0.205 F 
ATOM    117  C   UNL     1     -11.169   6.873   8.949  1.00  0.00     0.022 A 
BRANCH 115 118
ATOM    118  S   UNL     1      -8.652   5.835   8.693  1.00  0.00     0.127 S 
ATOM    119  O   UNL     1      -8.285   6.960   9.557  1.00  0.00    -0.237 OA
ATOM    120  O   UNL     1      -9.032   4.618   9.405  1.00  0.00    -0.237 OA
ATOM    121  O   UNL     1      -7.774   5.651   7.546  1.00  0.00    -0.744 OA
ENDBRANCH 115 118
ENDBRANCH  88 111
ENDBRANCH  62  63
ENDBRANCH  55  57
ENDBRANCH  54  55
ENDBRANCH  53  54
ENDBRANCH  52  53
ENDBRANCH  51  52
ENDBRANCH  50  51
ENDBRANCH  49  50
ENDBRANCH  48  49
ENDBRANCH   1  48
TORSDOF 29
