REMARK SMILES NS(=O)(=O)CCNC(=O)N1[C@@H]2CC[C@H]1C[C@H](CC(=O)OCCOCCOCCOC(=O)c1ccc(-c3c4nc(c(-c5cccc(S(=O)(=O)[O-])c5F)c5ccc([nH]5)c(-c5cccc(S(=O)(=O)[O-])c5F)c5nc(c(-c6cccc(S(=O)(=O)[O-])c6F)c6ccc3[nH]6)C=C5)C=C4)cc1)C2
REMARK SMILES IDX 23 1 22 2 21 3 20 4 18 5 19 6 17 7 16 8 10 9 11 10 14 11
REMARK SMILES IDX 12 12 95 13 13 14 15 15 8 16 7 17 9 19 6 20 5 21 2 22 3 23
REMARK SMILES IDX 4 24 1 25 24 28 25 29 26 30 27 31 28 32 29 33 30 34 31 35
REMARK SMILES IDX 32 36 33 37 94 38 34 39 93 40 35 41 36 42 37 43 87 44 38 45
REMARK SMILES IDX 92 46 86 47 88 48 39 49 91 50 85 51 84 52 40 54 72 55 52 56
REMARK SMILES IDX 71 57 53 58 56 59 70 60 89 61 54 62 55 63 69 65 90 66 57 67
REMARK SMILES IDX 41 68 42 69 50 70 43 71 45 72 51 73 44 74 46 75 47 76 48 77
REMARK SMILES IDX 49 78 73 79 74 80 82 81 75 82 77 83 83 84 76 85 78 86 79 87
REMARK SMILES IDX 80 88 81 89 58 90 59 91 67 92 60 93 62 94 68 95 61 96 63 97
REMARK SMILES IDX 64 98 65 99 66 100
REMARK H PARENT 7 18 1 26 1 27 88 53 56 64
REMARK Flexibility Score: inf
ROOT
ATOM      1  O   UNL     1       0.894  -8.058   6.820  1.00  0.00    -0.376 OA
ENDROOT
BRANCH   1   2
ATOM      2  C   UNL     1      -0.191  -7.166   6.580  1.00  0.00     0.202 C 
BRANCH   2   3
ATOM      3  C   UNL     1       0.182  -5.763   6.083  1.00  0.00     0.261 C 
BRANCH   3   4
ATOM      4  O   UNL     1       1.012  -5.775   4.903  1.00  0.00    -0.463 OA
BRANCH   4   5
ATOM      5  C   UNL     1       2.182  -5.095   4.982  1.00  0.00     0.306 C 
ATOM      6  O   UNL     1       2.504  -4.378   5.924  1.00  0.00    -0.252 OA
BRANCH   5   7
ATOM      7  C   UNL     1       3.131  -5.330   3.816  1.00  0.00     0.126 C 
BRANCH   7   8
ATOM      8  C   UNL     1       2.673  -5.974   2.487  1.00  0.00     0.004 C 
ATOM      9  N   UNL     1       1.972  -4.929  -0.103  1.00  0.00    -0.319 N 
ATOM     10  C   UNL     1       3.188  -5.725  -0.061  1.00  0.00     0.087 C 
ATOM     11  C   UNL     1       0.966  -5.718   0.571  1.00  0.00     0.087 C 
ATOM     12  C   UNL     1       2.702  -7.137  -0.380  1.00  0.00     0.027 C 
ATOM     13  C   UNL     1       3.728  -5.628   1.380  1.00  0.00     0.029 C 
ATOM     14  C   UNL     1       1.237  -7.142   0.062  1.00  0.00     0.027 C 
ATOM     15  C   UNL     1       1.236  -5.586   2.075  1.00  0.00     0.029 C 
BRANCH   9  16
ATOM     16  C   UNL     1       1.907  -3.720  -0.705  1.00  0.00     0.317 C 
ATOM     17  N   UNL     1       0.890  -2.862  -0.463  1.00  0.00    -0.337 N 
ATOM     18  H   UNL     1       0.701  -2.253  -1.213  1.00  0.00     0.165 HD
ATOM     19  O   UNL     1       2.775  -3.329  -1.488  1.00  0.00    -0.249 OA
BRANCH  17  20
ATOM     20  C   UNL     1       0.018  -2.656   0.689  1.00  0.00     0.135 C 
BRANCH  20  21
ATOM     21  C   UNL     1       0.703  -1.867   1.795  1.00  0.00     0.175 C 
BRANCH  21  22
ATOM     22  S   UNL     1       0.451  -0.109   1.609  1.00  0.00     0.210 S 
ATOM     23  O   UNL     1       1.336   0.604   2.503  1.00  0.00    -0.213 OA
ATOM     24  O   UNL     1      -0.962   0.177   1.553  1.00  0.00    -0.213 OA
BRANCH  22  25
ATOM     25  N   UNL     1       1.039   0.196   0.070  1.00  0.00    -0.229 NA
ATOM     26  H   UNL     1       0.941   1.189  -0.141  1.00  0.00     0.137 HD
ATOM     27  H   UNL     1       0.510  -0.350  -0.610  1.00  0.00     0.137 HD
ENDBRANCH  22  25
ENDBRANCH  21  22
ENDBRANCH  20  21
ENDBRANCH  17  20
ENDBRANCH   9  16
ENDBRANCH   7   8
ENDBRANCH   5   7
ENDBRANCH   4   5
ENDBRANCH   3   4
ENDBRANCH   2   3
ENDBRANCH   1   2
BRANCH   1  28
ATOM     28  C   UNL     1       1.711  -8.388   5.703  1.00  0.00     0.188 C 
BRANCH  28  29
ATOM     29  C   UNL     1       0.995  -9.039   4.519  1.00  0.00     0.188 C 
BRANCH  29  30
ATOM     30  O   UNL     1      -0.218  -8.434   4.093  1.00  0.00    -0.376 OA
BRANCH  30  31
ATOM     31  C   UNL     1      -0.953  -9.123   3.077  1.00  0.00     0.202 C 
BRANCH  31  32
ATOM     32  C   UNL     1      -1.166 -10.646   3.228  1.00  0.00     0.261 C 
BRANCH  32  33
ATOM     33  O   UNL     1       0.019 -11.463   3.355  1.00  0.00    -0.460 OA
BRANCH  33  34
ATOM     34  C   UNL     1       1.023 -11.295   2.462  1.00  0.00     0.338 C 
ATOM     35  O   UNL     1       0.948 -10.688   1.407  1.00  0.00    -0.246 OA
BRANCH  34  36
ATOM     36  C   UNL     1       2.309 -11.713   3.101  1.00  0.00     0.060 A 
ATOM     37  C   UNL     1       3.457 -10.950   2.834  1.00  0.00     0.016 A 
ATOM     38  C   UNL     1       2.388 -12.772   4.012  1.00  0.00     0.016 A 
ATOM     39  C   UNL     1       4.682 -11.269   3.433  1.00  0.00     0.010 A 
ATOM     40  C   UNL     1       3.619 -13.099   4.600  1.00  0.00     0.010 A 
ATOM     41  C   UNL     1       4.784 -12.373   4.287  1.00  0.00    -0.014 A 
BRANCH  41  42
ATOM     42  C   UNL     1       6.124 -12.885   4.689  1.00  0.00     0.031 A 
ATOM     43  C   UNL     1       6.690 -14.067   3.939  1.00  0.00     0.074 A 
ATOM     44  C   UNL     1       6.844 -12.327   5.681  1.00  0.00     0.049 A 
ATOM     45  N   UNL     1       7.818 -14.704   4.119  1.00  0.00    -0.248 NA
ATOM     46  C   UNL     1       5.870 -14.601   2.838  1.00  0.00     0.031 C 
ATOM     47  C   UNL     1       6.440 -11.172   6.480  1.00  0.00     0.029 A 
ATOM     48  N   UNL     1       8.069 -12.680   6.201  1.00  0.00    -0.354 N 
ATOM     49  C   UNL     1       7.825 -15.735   3.187  1.00  0.00     0.074 A 
ATOM     50  C   UNL     1       6.590 -15.639   2.439  1.00  0.00     0.031 C 
ATOM     51  C   UNL     1       7.388 -10.927   7.405  1.00  0.00     0.029 A 
ATOM     52  C   UNL     1       8.452 -11.923   7.286  1.00  0.00     0.049 A 
ATOM     53  H   UNL     1       8.621 -13.407   5.832  1.00  0.00     0.167 HD
ATOM     54  C   UNL     1       8.772 -16.676   2.963  1.00  0.00     0.034 A 
ATOM     55  C   UNL     1       9.522 -12.036   8.102  1.00  0.00     0.034 A 
ATOM     56  C   UNL     1      10.015 -16.766   3.680  1.00  0.00     0.049 A 
ATOM     57  C   UNL     1      10.544 -13.121   7.851  1.00  0.00     0.074 A 
ATOM     58  C   UNL     1      11.060 -17.650   3.473  1.00  0.00     0.029 A 
ATOM     59  N   UNL     1      10.372 -15.968   4.752  1.00  0.00    -0.354 N 
ATOM     60  N   UNL     1      10.595 -14.004   6.883  1.00  0.00    -0.248 NA
ATOM     61  C   UNL     1      11.674 -13.205   8.791  1.00  0.00     0.031 C 
ATOM     62  C   UNL     1      12.030 -17.417   4.452  1.00  0.00     0.029 A 
ATOM     63  C   UNL     1      11.611 -16.355   5.235  1.00  0.00     0.049 A 
ATOM     64  H   UNL     1       9.827 -15.235   5.118  1.00  0.00     0.167 HD
ATOM     65  C   UNL     1      11.780 -14.712   7.072  1.00  0.00     0.074 A 
ATOM     66  C   UNL     1      12.427 -14.143   8.234  1.00  0.00     0.031 C 
ATOM     67  C   UNL     1      12.282 -15.747   6.354  1.00  0.00     0.034 A 
BRANCH  54  68
ATOM     68  C   UNL     1       8.512 -17.699   1.889  1.00  0.00     0.023 A 
ATOM     69  C   UNL     1       8.588 -17.333   0.531  1.00  0.00     0.012 A 
ATOM     70  C   UNL     1       8.277 -19.045   2.234  1.00  0.00     0.148 A 
ATOM     71  C   UNL     1       8.413 -18.289  -0.470  1.00  0.00     0.002 A 
ATOM     72  C   UNL     1       8.152 -19.999   1.232  1.00  0.00     0.091 A 
ATOM     73  F   UNL     1       8.188 -19.365   3.532  1.00  0.00    -0.205 F 
ATOM     74  C   UNL     1       8.209 -19.621  -0.119  1.00  0.00     0.022 A 
BRANCH  72  75
ATOM     75  S   UNL     1       7.971 -21.751   1.581  1.00  0.00     0.127 S 
ATOM     76  O   UNL     1       6.613 -22.007   1.102  1.00  0.00    -0.237 OA
ATOM     77  O   UNL     1       9.029 -22.337   0.758  1.00  0.00    -0.237 OA
ATOM     78  O   UNL     1       8.161 -21.900   3.017  1.00  0.00    -0.744 OA
ENDBRANCH  72  75
ENDBRANCH  54  68
BRANCH  55  79
ATOM     79  C   UNL     1       9.713 -11.094   9.246  1.00  0.00     0.023 A 
ATOM     80  C   UNL     1      10.814 -10.214   9.250  1.00  0.00     0.012 A 
ATOM     81  C   UNL     1       8.841 -11.102  10.353  1.00  0.00     0.148 A 
ATOM     82  C   UNL     1      11.069  -9.394  10.351  1.00  0.00     0.002 A 
ATOM     83  C   UNL     1       9.068 -10.241  11.421  1.00  0.00     0.091 A 
ATOM     84  F   UNL     1       7.814 -11.962  10.346  1.00  0.00    -0.205 F 
ATOM     85  C   UNL     1      10.193  -9.402  11.432  1.00  0.00     0.022 A 
BRANCH  83  86
ATOM     86  S   UNL     1       7.931 -10.101  12.804  1.00  0.00     0.127 S 
ATOM     87  O   UNL     1       8.704 -10.700  13.889  1.00  0.00    -0.237 OA
ATOM     88  O   UNL     1       7.753  -8.652  12.901  1.00  0.00    -0.237 OA
ATOM     89  O   UNL     1       6.735 -10.828  12.403  1.00  0.00    -0.744 OA
ENDBRANCH  83  86
ENDBRANCH  55  79
BRANCH  67  90
ATOM     90  C   UNL     1      13.627 -16.304   6.751  1.00  0.00     0.023 A 
ATOM     91  C   UNL     1      13.767 -17.044   7.941  1.00  0.00     0.012 A 
ATOM     92  C   UNL     1      14.741 -16.155   5.898  1.00  0.00     0.148 A 
ATOM     93  C   UNL     1      15.000 -17.593   8.296  1.00  0.00     0.002 A 
ATOM     94  C   UNL     1      15.952 -16.751   6.231  1.00  0.00     0.091 A 
ATOM     95  F   UNL     1      14.595 -15.437   4.775  1.00  0.00    -0.205 F 
ATOM     96  C   UNL     1      16.088 -17.456   7.437  1.00  0.00     0.022 A 
BRANCH  94  97
ATOM     97  S   UNL     1      17.378 -16.715   5.138  1.00  0.00     0.127 S 
ATOM     98  O   UNL     1      18.285 -15.824   5.861  1.00  0.00    -0.237 OA
ATOM     99  O   UNL     1      17.789 -18.119   5.120  1.00  0.00    -0.237 OA
ATOM    100  O   UNL     1      16.894 -16.210   3.860  1.00  0.00    -0.744 OA
ENDBRANCH  94  97
ENDBRANCH  67  90
ENDBRANCH  41  42
ENDBRANCH  34  36
ENDBRANCH  33  34
ENDBRANCH  32  33
ENDBRANCH  31  32
ENDBRANCH  30  31
ENDBRANCH  29  30
ENDBRANCH  28  29
ENDBRANCH   1  28
TORSDOF 26
