REMARK SMILES CC(=O)c1c(C)nn(CC(=O)N2CCC[C@H](c3cccc(C(=O)OCCOCCOCCOC(=O)c4ccc(-c5c6nc(c(-c7cccc(S(=O)(=O)[O-])c7F)c7ccc([nH]7)c(-c7cccc(S(=O)(=O)[O-])c7F)c7nc(c(-c8cccc(S(=O)(=O)[O-])c8F)c8ccc5[nH]8)C=C7)C=C6)cc4)c3)C2)c1C
REMARK SMILES IDX 28 1 27 2 26 3 25 4 24 5 22 6 23 7 21 8 17 9 18 10 99 11
REMARK SMILES IDX 19 12 20 13 16 14 12 15 13 16 100 17 14 18 15 19 10 20 11 21
REMARK SMILES IDX 9 22 8 23 4 24 5 25 101 26 6 27 7 28 102 29 2 30 1 31 3 32
REMARK SMILES IDX 29 33 30 34 31 35 32 36 33 37 34 38 35 39 36 40 37 41 98 42
REMARK SMILES IDX 38 43 97 44 39 45 40 46 41 47 91 48 42 49 96 50 90 51 92 52
REMARK SMILES IDX 43 53 95 54 89 55 88 56 44 58 76 59 56 60 75 61 57 62 60 63
REMARK SMILES IDX 74 64 93 65 58 66 59 67 73 69 94 70 61 71 45 72 46 73 54 74
REMARK SMILES IDX 47 75 49 76 55 77 48 78 50 79 51 80 52 81 53 82 77 83 78 84
REMARK SMILES IDX 86 85 79 86 81 87 87 88 80 89 82 90 83 91 84 92 85 93 62 94
REMARK SMILES IDX 63 95 71 96 64 97 66 98 72 99 65 100 67 101 68 102 69 103
REMARK SMILES IDX 70 104
REMARK H PARENT 92 57 60 68
REMARK Flexibility Score: inf
ROOT
ATOM      1  C   UNL     1      -2.837   4.286  -9.283  1.00  0.00     0.188 C 
ENDROOT
BRANCH   1   2
ATOM      2  O   UNL     1      -3.410   4.228 -10.569  1.00  0.00    -0.376 OA
BRANCH   2   3
ATOM      3  C   UNL     1      -2.648   3.890 -11.713  1.00  0.00     0.202 C 
BRANCH   3   4
ATOM      4  C   UNL     1      -1.108   3.918 -11.814  1.00  0.00     0.261 C 
BRANCH   4   5
ATOM      5  O   UNL     1      -0.371   3.788 -10.600  1.00  0.00    -0.460 OA
BRANCH   5   6
ATOM      6  C   UNL     1       0.266   4.905 -10.171  1.00  0.00     0.338 C 
ATOM      7  O   UNL     1       0.363   5.968 -10.750  1.00  0.00    -0.246 OA
BRANCH   6   8
ATOM      8  C   UNL     1       0.643   4.705  -8.755  1.00  0.00     0.060 A 
ATOM      9  C   UNL     1       1.619   3.373  -6.964  1.00  0.00    -0.042 A 
ATOM     10  C   UNL     1       1.106   4.322  -6.068  1.00  0.00     0.004 A 
ATOM     11  C   UNL     1       1.307   3.548  -8.323  1.00  0.00     0.019 A 
ATOM     12  C   UNL     1       0.423   5.462  -6.489  1.00  0.00     0.001 A 
ATOM     13  C   UNL     1       0.225   5.676  -7.841  1.00  0.00     0.016 A 
BRANCH   9  14
ATOM     14  C   UNL     1       2.501   2.207  -6.500  1.00  0.00     0.039 C 
ATOM     15  N   UNL     1       3.971   3.413  -4.843  1.00  0.00    -0.340 N 
ATOM     16  C   UNL     1       5.104   3.405  -5.780  1.00  0.00     0.119 C 
ATOM     17  C   UNL     1       3.027   2.296  -5.034  1.00  0.00     0.127 C 
ATOM     18  C   UNL     1       4.679   3.246  -7.237  1.00  0.00     0.022 C 
ATOM     19  C   UNL     1       3.743   2.048  -7.405  1.00  0.00     0.012 C 
BRANCH  15  20
ATOM     20  C   UNL     1       3.825   4.516  -4.010  1.00  0.00     0.244 C 
ATOM     21  O   UNL     1       4.455   5.555  -4.276  1.00  0.00    -0.273 OA
BRANCH  20  22
ATOM     22  C   UNL     1       3.126   4.510  -2.654  1.00  0.00     0.244 C 
BRANCH  22  23
ATOM     23  N   UNL     1       2.040   3.590  -2.376  1.00  0.00    -0.259 N 
ATOM     24  C   UNL     1       0.812   1.851  -1.812  1.00  0.00     0.061 A 
ATOM     25  C   UNL     1       0.056   2.853  -2.484  1.00  0.00     0.070 A 
ATOM     26  C   UNL     1       2.093   2.387  -1.705  1.00  0.00     0.047 A 
ATOM     27  C   UNL     1      -1.362   2.824  -2.933  1.00  0.00     0.069 C 
ATOM     28  N   UNL     1       0.790   3.947  -2.710  1.00  0.00    -0.177 NA
ATOM     29  C   UNL     1       3.365   1.862  -1.149  1.00  0.00     0.067 C 
BRANCH  24  30
ATOM     30  C   UNL     1       0.332   0.538  -1.402  1.00  0.00     0.163 C 
ATOM     31  C   UNL     1       0.683   0.025  -0.031  1.00  0.00     0.093 C 
ATOM     32  O   UNL     1      -0.348  -0.148  -2.163  1.00  0.00    -0.294 OA
ENDBRANCH  24  30
ENDBRANCH  22  23
ENDBRANCH  20  22
ENDBRANCH  15  20
ENDBRANCH   9  14
ENDBRANCH   6   8
ENDBRANCH   5   6
ENDBRANCH   4   5
ENDBRANCH   3   4
ENDBRANCH   2   3
ENDBRANCH   1   2
BRANCH   1  33
ATOM     33  C   UNL     1      -2.360   2.992  -8.591  1.00  0.00     0.188 C 
BRANCH  33  34
ATOM     34  O   UNL     1      -1.982   1.870  -9.359  1.00  0.00    -0.376 OA
BRANCH  34  35
ATOM     35  C   UNL     1      -2.911   1.037 -10.034  1.00  0.00     0.202 C 
BRANCH  35  36
ATOM     36  C   UNL     1      -4.429   1.056  -9.871  1.00  0.00     0.261 C 
BRANCH  36  37
ATOM     37  O   UNL     1      -4.972   2.200  -9.260  1.00  0.00    -0.460 OA
BRANCH  37  38
ATOM     38  C   UNL     1      -5.152   2.051  -7.932  1.00  0.00     0.338 C 
ATOM     39  O   UNL     1      -4.686   1.180  -7.219  1.00  0.00    -0.246 OA
BRANCH  38  40
ATOM     40  C   UNL     1      -6.116   3.052  -7.478  1.00  0.00     0.060 A 
ATOM     41  C   UNL     1      -6.329   3.079  -6.102  1.00  0.00     0.016 A 
ATOM     42  C   UNL     1      -7.052   3.526  -8.408  1.00  0.00     0.016 A 
ATOM     43  C   UNL     1      -7.616   3.276  -5.676  1.00  0.00     0.010 A 
ATOM     44  C   UNL     1      -8.341   3.700  -7.981  1.00  0.00     0.010 A 
ATOM     45  C   UNL     1      -8.617   3.467  -6.638  1.00  0.00    -0.014 A 
BRANCH  45  46
ATOM     46  C   UNL     1      -9.972   3.591  -6.161  1.00  0.00     0.031 A 
ATOM     47  C   UNL     1     -10.151   4.889  -5.479  1.00  0.00     0.074 A 
ATOM     48  C   UNL     1     -10.912   2.653  -6.382  1.00  0.00     0.049 A 
ATOM     49  N   UNL     1     -10.254   5.090  -4.208  1.00  0.00    -0.248 NA
ATOM     50  C   UNL     1      -9.900   6.111  -6.262  1.00  0.00     0.031 C 
ATOM     51  C   UNL     1     -10.840   1.493  -7.274  1.00  0.00     0.029 A 
ATOM     52  N   UNL     1     -12.200   2.618  -5.948  1.00  0.00    -0.354 N 
ATOM     53  C   UNL     1     -10.379   6.469  -4.081  1.00  0.00     0.074 A 
ATOM     54  C   UNL     1      -9.871   7.032  -5.299  1.00  0.00     0.031 C 
ATOM     55  C   UNL     1     -12.095   1.044  -7.517  1.00  0.00     0.029 A 
ATOM     56  C   UNL     1     -13.034   1.802  -6.708  1.00  0.00     0.049 A 
ATOM     57  H   UNL     1     -12.514   3.125  -5.165  1.00  0.00     0.167 HD
ATOM     58  C   UNL     1     -11.223   6.989  -3.151  1.00  0.00     0.034 A 
ATOM     59  C   UNL     1     -14.393   1.839  -6.726  1.00  0.00     0.034 A 
ATOM     60  C   UNL     1     -11.513   6.012  -2.126  1.00  0.00     0.049 A 
ATOM     61  C   UNL     1     -14.826   2.563  -5.507  1.00  0.00     0.074 A 
ATOM     62  C   UNL     1     -10.756   5.267  -1.244  1.00  0.00     0.029 A 
ATOM     63  N   UNL     1     -12.733   5.388  -2.208  1.00  0.00    -0.354 N 
ATOM     64  N   UNL     1     -14.682   2.092  -4.301  1.00  0.00    -0.248 NA
ATOM     65  C   UNL     1     -15.002   4.003  -5.605  1.00  0.00     0.031 C 
ATOM     66  C   UNL     1     -11.401   3.997  -1.184  1.00  0.00     0.029 A 
ATOM     67  C   UNL     1     -12.559   4.056  -1.961  1.00  0.00     0.049 A 
ATOM     68  H   UNL     1     -13.591   5.827  -2.410  1.00  0.00     0.167 HD
ATOM     69  C   UNL     1     -14.263   3.189  -3.560  1.00  0.00     0.074 A 
ATOM     70  C   UNL     1     -14.580   4.354  -4.387  1.00  0.00     0.031 C 
ATOM     71  C   UNL     1     -13.424   3.030  -2.496  1.00  0.00     0.034 A 
BRANCH  58  72
ATOM     72  C   UNL     1     -12.152   8.161  -3.416  1.00  0.00     0.023 A 
ATOM     73  C   UNL     1     -12.976   8.560  -2.341  1.00  0.00     0.012 A 
ATOM     74  C   UNL     1     -12.479   8.684  -4.692  1.00  0.00     0.148 A 
ATOM     75  C   UNL     1     -14.114   9.348  -2.538  1.00  0.00     0.002 A 
ATOM     76  C   UNL     1     -13.570   9.524  -4.873  1.00  0.00     0.091 A 
ATOM     77  F   UNL     1     -11.819   8.296  -5.781  1.00  0.00    -0.205 F 
ATOM     78  C   UNL     1     -14.414   9.828  -3.806  1.00  0.00     0.022 A 
BRANCH  76  79
ATOM     79  S   UNL     1     -13.983  10.204  -6.488  1.00  0.00     0.127 S 
ATOM     80  O   UNL     1     -15.234   9.512  -6.784  1.00  0.00    -0.237 OA
ATOM     81  O   UNL     1     -14.116  11.628  -6.180  1.00  0.00    -0.237 OA
ATOM     82  O   UNL     1     -12.859   9.883  -7.360  1.00  0.00    -0.744 OA
ENDBRANCH  76  79
ENDBRANCH  58  72
BRANCH  59  83
ATOM     83  C   UNL     1     -15.357   1.586  -7.829  1.00  0.00     0.023 A 
ATOM     84  C   UNL     1     -16.725   1.413  -7.521  1.00  0.00     0.012 A 
ATOM     85  C   UNL     1     -15.009   1.829  -9.174  1.00  0.00     0.148 A 
ATOM     86  C   UNL     1     -17.713   1.529  -8.508  1.00  0.00     0.002 A 
ATOM     87  C   UNL     1     -15.994   1.940 -10.153  1.00  0.00     0.091 A 
ATOM     88  F   UNL     1     -13.725   2.049  -9.480  1.00  0.00    -0.205 F 
ATOM     89  C   UNL     1     -17.348   1.806  -9.821  1.00  0.00     0.022 A 
BRANCH  87  90
ATOM     90  S   UNL     1     -15.603   2.337 -11.863  1.00  0.00     0.127 S 
ATOM     91  O   UNL     1     -16.379   1.333 -12.592  1.00  0.00    -0.237 OA
ATOM     92  O   UNL     1     -16.106   3.703 -11.979  1.00  0.00    -0.237 OA
ATOM     93  O   UNL     1     -14.159   2.182 -11.986  1.00  0.00    -0.744 OA
ENDBRANCH  87  90
ENDBRANCH  59  83
BRANCH  71  94
ATOM     94  C   UNL     1     -13.229   1.641  -1.950  1.00  0.00     0.023 A 
ATOM     95  C   UNL     1     -12.638   0.591  -2.684  1.00  0.00     0.012 A 
ATOM     96  C   UNL     1     -13.518   1.445  -0.591  1.00  0.00     0.148 A 
ATOM     97  C   UNL     1     -12.362  -0.636  -2.071  1.00  0.00     0.002 A 
ATOM     98  C   UNL     1     -13.195   0.246   0.026  1.00  0.00     0.091 A 
ATOM     99  F   UNL     1     -14.087   2.454   0.087  1.00  0.00    -0.205 F 
ATOM    100  C   UNL     1     -12.626  -0.803  -0.712  1.00  0.00     0.022 A 
BRANCH  98 101
ATOM    101  S   UNL     1     -13.400   0.035   1.794  1.00  0.00     0.127 S 
ATOM    102  O   UNL     1     -14.611  -0.779   1.865  1.00  0.00    -0.237 OA
ATOM    103  O   UNL     1     -12.170  -0.661   2.174  1.00  0.00    -0.237 OA
ATOM    104  O   UNL     1     -13.513   1.380   2.346  1.00  0.00    -0.744 OA
ENDBRANCH  98 101
ENDBRANCH  71  94
ENDBRANCH  45  46
ENDBRANCH  38  40
ENDBRANCH  37  38
ENDBRANCH  36  37
ENDBRANCH  35  36
ENDBRANCH  34  35
ENDBRANCH  33  34
ENDBRANCH   1  33
TORSDOF 25
