REMARK SMILES COc1cc(OC)cc(-c2cc3nc(C)c(CCC(=O)OCCOCCOCCOC(=O)c4ccc(-c5c6nc(c(-c7cccc(S(=O)(=O)[O-])c7F)c7ccc([nH]7)c(-c7cccc(S(=O)(=O)[O-])c7F)c7nc(c(-c8cccc(S(=O)(=O)[O-])c8F)c8ccc5[nH]8)C=C7)C=C6)cc4)c(C)n3n2)c1
REMARK SMILES IDX 25 1 24 2 23 3 22 4 21 5 19 6 20 7 18 8 17 9 16 10 10 11
REMARK SMILES IDX 11 12 99 13 12 14 98 15 13 16 96 17 14 18 97 19 15 20 9 21
REMARK SMILES IDX 3 22 4 23 100 24 5 25 8 26 2 27 1 28 6 29 7 30 26 31 27 32
REMARK SMILES IDX 28 33 29 34 30 35 31 36 32 37 33 38 34 39 95 40 35 41 94 42
REMARK SMILES IDX 36 43 37 44 38 45 88 46 39 47 93 48 87 49 89 50 40 51 92 52
REMARK SMILES IDX 86 53 85 54 41 56 73 57 53 58 72 59 54 60 57 61 71 62 90 63
REMARK SMILES IDX 55 64 56 65 70 67 91 68 58 69 42 70 43 71 51 72 44 73 46 74
REMARK SMILES IDX 52 75 45 76 47 77 48 78 49 79 50 80 74 81 75 82 83 83 76 84
REMARK SMILES IDX 78 85 84 86 77 87 79 88 80 89 81 90 82 91 59 92 60 93 68 94
REMARK SMILES IDX 61 95 63 96 69 97 62 98 64 99 65 100 66 101 67 102
REMARK H PARENT 89 55 57 66
REMARK Flexibility Score: inf
ROOT
ATOM      1  C   UNL     1       9.746  -4.553  -1.749  1.00  0.00     0.188 C 
ENDROOT
BRANCH   1   2
ATOM      2  O   UNL     1       9.166  -4.647  -0.456  1.00  0.00    -0.376 OA
BRANCH   2   3
ATOM      3  C   UNL     1       8.064  -3.787  -0.201  1.00  0.00     0.202 C 
BRANCH   3   4
ATOM      4  C   UNL     1       8.461  -2.309   0.014  1.00  0.00     0.261 C 
BRANCH   4   5
ATOM      5  O   UNL     1       8.695  -1.580  -1.223  1.00  0.00    -0.463 OA
BRANCH   5   6
ATOM      6  C   UNL     1       9.956  -1.280  -1.607  1.00  0.00     0.306 C 
ATOM      7  O   UNL     1      10.938  -1.416  -0.888  1.00  0.00    -0.252 OA
BRANCH   6   8
ATOM      8  C   UNL     1      10.041  -0.712  -3.028  1.00  0.00     0.127 C 
BRANCH   8   9
ATOM      9  C   UNL     1       9.430  -1.475  -4.233  1.00  0.00     0.051 C 
BRANCH   9  10
ATOM     10  C   UNL     1       8.027  -1.085  -4.687  1.00  0.00    -0.005 A 
ATOM     11  C   UNL     1       3.533  -0.916  -4.542  1.00  0.00     0.095 A 
ATOM     12  C   UNL     1       4.050  -0.316  -5.721  1.00  0.00     0.080 A 
ATOM     13  N   UNL     1       4.527  -1.298  -3.750  1.00  0.00    -0.166 NA
ATOM     14  C   UNL     1       5.432  -0.379  -5.607  1.00  0.00     0.156 A 
ATOM     15  N   UNL     1       5.652  -1.070  -4.440  1.00  0.00    -0.219 N 
ATOM     16  N   UNL     1       6.487  -0.007  -6.392  1.00  0.00    -0.234 NA
ATOM     17  C   UNL     1       6.910  -1.473  -4.040  1.00  0.00     0.046 A 
ATOM     18  C   UNL     1       7.691  -0.350  -5.993  1.00  0.00     0.045 A 
ATOM     19  C   UNL     1       6.827  -2.411  -2.904  1.00  0.00     0.067 C 
ATOM     20  C   UNL     1       8.805   0.001  -6.962  1.00  0.00     0.067 C 
BRANCH  11  21
ATOM     21  C   UNL     1       2.192  -1.209  -4.056  1.00  0.00     0.009 A 
ATOM     22  C   UNL     1       0.700  -1.384  -2.137  1.00  0.00     0.123 A 
ATOM     23  C   UNL     1      -0.198  -2.094  -2.930  1.00  0.00     0.092 A 
ATOM     24  C   UNL     1       1.899  -0.960  -2.698  1.00  0.00     0.057 A 
ATOM     25  C   UNL     1       0.088  -2.371  -4.273  1.00  0.00     0.123 A 
ATOM     26  C   UNL     1       1.280  -1.915  -4.842  1.00  0.00     0.057 A 
BRANCH  22  27
ATOM     27  O   UNL     1       0.334  -1.218  -0.829  1.00  0.00    -0.497 OA
ATOM     28  C   UNL     1       0.956  -0.137  -0.142  1.00  0.00     0.278 C 
ENDBRANCH  22  27
BRANCH  25  29
ATOM     29  O   UNL     1      -0.874  -3.097  -4.923  1.00  0.00    -0.497 OA
ATOM     30  C   UNL     1      -0.455  -3.773  -6.102  1.00  0.00     0.278 C 
ENDBRANCH  25  29
ENDBRANCH  11  21
ENDBRANCH   9  10
ENDBRANCH   8   9
ENDBRANCH   6   8
ENDBRANCH   5   6
ENDBRANCH   4   5
ENDBRANCH   3   4
ENDBRANCH   2   3
ENDBRANCH   1   2
BRANCH   1  31
ATOM     31  C   UNL     1       9.114  -5.478  -2.776  1.00  0.00     0.188 C 
BRANCH  31  32
ATOM     32  O   UNL     1       7.938  -5.009  -3.445  1.00  0.00    -0.376 OA
BRANCH  32  33
ATOM     33  C   UNL     1       6.732  -5.749  -3.192  1.00  0.00     0.202 C 
BRANCH  33  34
ATOM     34  C   UNL     1       6.524  -7.056  -3.959  1.00  0.00     0.261 C 
BRANCH  34  35
ATOM     35  O   UNL     1       7.718  -7.794  -4.008  1.00  0.00    -0.460 OA
BRANCH  35  36
ATOM     36  C   UNL     1       8.615  -7.356  -4.918  1.00  0.00     0.338 C 
ATOM     37  O   UNL     1       8.417  -6.638  -5.891  1.00  0.00    -0.246 OA
BRANCH  36  38
ATOM     38  C   UNL     1       9.907  -7.933  -4.518  1.00  0.00     0.060 A 
ATOM     39  C   UNL     1      10.794  -8.150  -5.563  1.00  0.00     0.016 A 
ATOM     40  C   UNL     1       9.944  -8.656  -3.314  1.00  0.00     0.016 A 
ATOM     41  C   UNL     1      11.348  -9.397  -5.611  1.00  0.00     0.010 A 
ATOM     42  C   UNL     1      10.431  -9.914  -3.389  1.00  0.00     0.010 A 
ATOM     43  C   UNL     1      11.000 -10.290  -4.596  1.00  0.00    -0.014 A 
BRANCH  43  44
ATOM     44  C   UNL     1      11.254 -11.684  -4.787  1.00  0.00     0.031 A 
ATOM     45  C   UNL     1      12.582 -12.023  -4.273  1.00  0.00     0.074 A 
ATOM     46  C   UNL     1      10.304 -12.510  -5.247  1.00  0.00     0.049 A 
ATOM     47  N   UNL     1      13.687 -11.968  -4.942  1.00  0.00    -0.248 NA
ATOM     48  C   UNL     1      12.752 -12.029  -2.810  1.00  0.00     0.031 C 
ATOM     49  C   UNL     1       8.872 -12.254  -5.440  1.00  0.00     0.029 A 
ATOM     50  N   UNL     1      10.424 -13.827  -5.519  1.00  0.00    -0.354 N 
ATOM     51  C   UNL     1      14.652 -12.247  -3.986  1.00  0.00     0.074 A 
ATOM     52  C   UNL     1      14.070 -11.842  -2.742  1.00  0.00     0.031 C 
ATOM     53  C   UNL     1       8.232 -13.441  -5.567  1.00  0.00     0.029 A 
ATOM     54  C   UNL     1       9.220 -14.507  -5.584  1.00  0.00     0.049 A 
ATOM     55  H   UNL     1      11.294 -14.266  -5.658  1.00  0.00     0.167 HD
ATOM     56  C   UNL     1      15.593 -13.202  -4.227  1.00  0.00     0.034 A 
ATOM     57  C   UNL     1       9.088 -15.854  -5.547  1.00  0.00     0.034 A 
ATOM     58  C   UNL     1      15.589 -13.552  -5.636  1.00  0.00     0.049 A 
ATOM     59  C   UNL     1      10.417 -16.433  -5.873  1.00  0.00     0.074 A 
ATOM     60  C   UNL     1      15.820 -12.885  -6.821  1.00  0.00     0.029 A 
ATOM     61  N   UNL     1      14.877 -14.688  -5.952  1.00  0.00    -0.354 N 
ATOM     62  N   UNL     1      10.984 -16.316  -7.043  1.00  0.00    -0.248 NA
ATOM     63  C   UNL     1      11.325 -16.756  -4.779  1.00  0.00     0.031 C 
ATOM     64  C   UNL     1      14.958 -13.494  -7.780  1.00  0.00     0.029 A 
ATOM     65  C   UNL     1      14.265 -14.541  -7.166  1.00  0.00     0.049 A 
ATOM     66  H   UNL     1      14.816 -15.491  -5.385  1.00  0.00     0.167 HD
ATOM     67  C   UNL     1      12.326 -16.088  -6.760  1.00  0.00     0.074 A 
ATOM     68  C   UNL     1      12.499 -16.528  -5.379  1.00  0.00     0.031 C 
ATOM     69  C   UNL     1      13.077 -15.275  -7.563  1.00  0.00     0.034 A 
BRANCH  56  70
ATOM     70  C   UNL     1      16.128 -14.183  -3.187  1.00  0.00     0.023 A 
ATOM     71  C   UNL     1      17.037 -15.148  -3.673  1.00  0.00     0.012 A 
ATOM     72  C   UNL     1      15.617 -14.408  -1.884  1.00  0.00     0.148 A 
ATOM     73  C   UNL     1      17.308 -16.328  -2.973  1.00  0.00     0.002 A 
ATOM     74  C   UNL     1      15.894 -15.574  -1.184  1.00  0.00     0.091 A 
ATOM     75  F   UNL     1      14.814 -13.530  -1.294  1.00  0.00    -0.205 F 
ATOM     76  C   UNL     1      16.716 -16.553  -1.738  1.00  0.00     0.022 A 
BRANCH  74  77
ATOM     77  S   UNL     1      15.144 -15.916   0.420  1.00  0.00     0.127 S 
ATOM     78  O   UNL     1      14.287 -17.054   0.099  1.00  0.00    -0.237 OA
ATOM     79  O   UNL     1      16.319 -16.228   1.232  1.00  0.00    -0.237 OA
ATOM     80  O   UNL     1      14.445 -14.698   0.813  1.00  0.00    -0.744 OA
ENDBRANCH  74  77
ENDBRANCH  56  70
BRANCH  57  81
ATOM     81  C   UNL     1       7.988 -16.671  -4.992  1.00  0.00     0.023 A 
ATOM     82  C   UNL     1       7.813 -17.996  -5.432  1.00  0.00     0.012 A 
ATOM     83  C   UNL     1       7.276 -16.245  -3.848  1.00  0.00     0.148 A 
ATOM     84  C   UNL     1       6.976 -18.879  -4.739  1.00  0.00     0.002 A 
ATOM     85  C   UNL     1       6.440 -17.123  -3.167  1.00  0.00     0.091 A 
ATOM     86  F   UNL     1       7.489 -15.008  -3.380  1.00  0.00    -0.205 F 
ATOM     87  C   UNL     1       6.297 -18.446  -3.603  1.00  0.00     0.022 A 
BRANCH  85  88
ATOM     88  S   UNL     1       5.551 -16.648  -1.677  1.00  0.00     0.127 S 
ATOM     89  O   UNL     1       4.177 -17.015  -2.019  1.00  0.00    -0.237 OA
ATOM     90  O   UNL     1       6.178 -17.498  -0.668  1.00  0.00    -0.237 OA
ATOM     91  O   UNL     1       5.771 -15.217  -1.518  1.00  0.00    -0.744 OA
ENDBRANCH  85  88
ENDBRANCH  57  81
BRANCH  69  92
ATOM     92  C   UNL     1      12.510 -14.936  -8.920  1.00  0.00     0.023 A 
ATOM     93  C   UNL     1      11.365 -14.129  -9.087  1.00  0.00     0.012 A 
ATOM     94  C   UNL     1      13.245 -15.317 -10.054  1.00  0.00     0.148 A 
ATOM     95  C   UNL     1      10.954 -13.727 -10.361  1.00  0.00     0.002 A 
ATOM     96  C   UNL     1      12.862 -14.875 -11.313  1.00  0.00     0.091 A 
ATOM     97  F   UNL     1      14.332 -16.084  -9.875  1.00  0.00    -0.205 F 
ATOM     98  C   UNL     1      11.711 -14.088 -11.473  1.00  0.00     0.022 A 
BRANCH  96  99
ATOM     99  S   UNL     1      13.870 -15.195 -12.761  1.00  0.00     0.127 S 
ATOM    100  O   UNL     1      13.107 -16.239 -13.441  1.00  0.00    -0.237 OA
ATOM    101  O   UNL     1      13.869 -13.896 -13.438  1.00  0.00    -0.237 OA
ATOM    102  O   UNL     1      15.178 -15.598 -12.257  1.00  0.00    -0.744 OA
ENDBRANCH  96  99
ENDBRANCH  69  92
ENDBRANCH  43  44
ENDBRANCH  36  38
ENDBRANCH  35  36
ENDBRANCH  34  35
ENDBRANCH  33  34
ENDBRANCH  32  33
ENDBRANCH  31  32
ENDBRANCH   1  31
TORSDOF 25
