REMARK SMILES O=C(OCCOCCOCCOC(=O)[C@H]1CCCN(C(=O)c2c[nH]c3ccccc23)C1)c1ccc(-c2c3nc(c(-c4cccc(S(=O)(=O)[O-])c4F)c4ccc([nH]4)c(-c4cccc(S(=O)(=O)[O-])c4F)c4nc(c(-c5cccc(S(=O)(=O)[O-])c5F)c5ccc2[nH]5)C=C4)C=C3)cc1
REMARK SMILES IDX 7 1 6 2 5 3 4 4 3 5 2 6 1 7 32 8 33 9 94 10 34 11 93 12
REMARK SMILES IDX 35 13 36 14 37 15 87 16 38 17 92 18 86 19 88 20 39 21 91 22
REMARK SMILES IDX 85 23 84 24 40 26 72 27 52 28 71 29 53 30 56 31 70 32 89 33
REMARK SMILES IDX 54 34 55 35 69 37 90 38 57 39 41 40 42 41 50 42 43 43 45 44
REMARK SMILES IDX 51 45 44 46 46 47 47 48 48 49 49 50 73 51 74 52 82 53 75 54
REMARK SMILES IDX 77 55 83 56 76 57 78 58 79 59 80 60 81 61 58 62 59 63 67 64
REMARK SMILES IDX 60 65 62 66 68 67 61 68 63 69 64 70 65 71 66 72 8 73 9 74
REMARK SMILES IDX 10 75 11 76 12 77 13 78 14 79 15 80 16 81 31 82 17 83 19 84
REMARK SMILES IDX 18 85 20 86 21 87 22 88 23 89 30 90 24 91 25 92 29 93 26 95
REMARK SMILES IDX 28 96 27 97
REMARK H PARENT 88 25 56 36 24 94
REMARK Flexibility Score: inf
ROOT
ATOM      1  C   UNL     1       0.416  -3.450  -0.349  1.00  0.00     0.188 C 
ENDROOT
BRANCH   1   2
ATOM      2  O   UNL     1       0.931  -4.773  -0.396  1.00  0.00    -0.376 OA
BRANCH   2   3
ATOM      3  C   UNL     1       0.154  -5.843  -0.933  1.00  0.00     0.202 C 
BRANCH   3   4
ATOM      4  C   UNL     1      -1.378  -5.748  -1.068  1.00  0.00     0.261 C 
BRANCH   4   5
ATOM      5  O   UNL     1      -2.101  -4.627  -0.500  1.00  0.00    -0.460 OA
BRANCH   5   6
ATOM      6  C   UNL     1      -2.251  -4.132   0.749  1.00  0.00     0.338 C 
ATOM      7  O   UNL     1      -2.738  -3.016   0.905  1.00  0.00    -0.246 OA
BRANCH   6   8
ATOM      8  C   UNL     1      -1.869  -4.917   1.939  1.00  0.00     0.060 A 
ATOM      9  C   UNL     1      -0.803  -5.799   1.946  1.00  0.00     0.016 A 
ATOM     10  C   UNL     1      -2.539  -4.702   3.140  1.00  0.00     0.016 A 
ATOM     11  C   UNL     1      -0.588  -6.699   2.952  1.00  0.00     0.010 A 
ATOM     12  C   UNL     1      -2.186  -5.450   4.260  1.00  0.00     0.010 A 
ATOM     13  C   UNL     1      -1.248  -6.488   4.140  1.00  0.00    -0.014 A 
BRANCH  13  14
ATOM     14  C   UNL     1      -0.926  -7.349   5.268  1.00  0.00     0.031 A 
ATOM     15  C   UNL     1      -1.880  -8.360   5.701  1.00  0.00     0.074 A 
ATOM     16  C   UNL     1       0.284  -7.348   5.835  1.00  0.00     0.049 A 
ATOM     17  N   UNL     1      -1.685  -9.248   6.623  1.00  0.00    -0.248 NA
ATOM     18  C   UNL     1      -3.137  -8.458   4.955  1.00  0.00     0.031 C 
ATOM     19  C   UNL     1       1.423  -6.729   5.223  1.00  0.00     0.029 A 
ATOM     20  N   UNL     1       0.769  -7.871   7.003  1.00  0.00    -0.354 N 
ATOM     21  C   UNL     1      -2.809 -10.021   6.594  1.00  0.00     0.074 A 
ATOM     22  C   UNL     1      -3.692  -9.486   5.573  1.00  0.00     0.031 C 
ATOM     23  C   UNL     1       2.440  -6.821   6.068  1.00  0.00     0.029 A 
ATOM     24  C   UNL     1       2.082  -7.542   7.232  1.00  0.00     0.049 A 
ATOM     25  H   UNL     1       0.232  -8.425   7.615  1.00  0.00     0.167 HD
ATOM     26  C   UNL     1      -3.050 -11.093   7.362  1.00  0.00     0.034 A 
ATOM     27  C   UNL     1       2.953  -7.786   8.221  1.00  0.00     0.034 A 
ATOM     28  C   UNL     1      -2.182 -11.597   8.383  1.00  0.00     0.049 A 
ATOM     29  C   UNL     1       2.312  -8.549   9.350  1.00  0.00     0.074 A 
ATOM     30  C   UNL     1      -2.417 -12.662   9.229  1.00  0.00     0.029 A 
ATOM     31  N   UNL     1      -0.963 -11.050   8.754  1.00  0.00    -0.354 N 
ATOM     32  N   UNL     1       1.343  -9.424   9.229  1.00  0.00    -0.248 NA
ATOM     33  C   UNL     1       2.893  -8.485  10.690  1.00  0.00     0.031 C 
ATOM     34  C   UNL     1      -1.391 -12.702  10.173  1.00  0.00     0.029 A 
ATOM     35  C   UNL     1      -0.479 -11.703   9.878  1.00  0.00     0.049 A 
ATOM     36  H   UNL     1      -0.510 -10.309   8.290  1.00  0.00     0.167 HD
ATOM     37  C   UNL     1       1.419 -10.211  10.360  1.00  0.00     0.074 A 
ATOM     38  C   UNL     1       2.475  -9.648  11.177  1.00  0.00     0.031 C 
ATOM     39  C   UNL     1       0.710 -11.336  10.612  1.00  0.00     0.034 A 
BRANCH  26  40
ATOM     40  C   UNL     1      -4.401 -11.668   7.197  1.00  0.00     0.023 A 
ATOM     41  C   UNL     1      -4.736 -12.423   6.060  1.00  0.00     0.012 A 
ATOM     42  C   UNL     1      -5.352 -11.383   8.185  1.00  0.00     0.148 A 
ATOM     43  C   UNL     1      -6.036 -12.886   5.907  1.00  0.00     0.002 A 
ATOM     44  C   UNL     1      -6.619 -11.906   8.061  1.00  0.00     0.091 A 
ATOM     45  F   UNL     1      -4.997 -10.586   9.203  1.00  0.00    -0.205 F 
ATOM     46  C   UNL     1      -6.970 -12.646   6.917  1.00  0.00     0.022 A 
BRANCH  44  47
ATOM     47  S   UNL     1      -7.842 -11.710   9.348  1.00  0.00     0.127 S 
ATOM     48  O   UNL     1      -8.908 -11.007   8.636  1.00  0.00    -0.237 OA
ATOM     49  O   UNL     1      -8.138 -13.101   9.684  1.00  0.00    -0.237 OA
ATOM     50  O   UNL     1      -7.203 -10.942  10.408  1.00  0.00    -0.744 OA
ENDBRANCH  44  47
ENDBRANCH  26  40
BRANCH  27  51
ATOM     51  C   UNL     1       4.541  -7.361   8.229  1.00  0.00     0.023 A 
ATOM     52  C   UNL     1       6.370  -8.164   7.850  1.00  0.00     0.012 A 
ATOM     53  C   UNL     1       4.505  -5.886   9.270  1.00  0.00     0.148 A 
ATOM     54  C   UNL     1       7.828  -7.455   8.648  1.00  0.00     0.002 A 
ATOM     55  C   UNL     1       5.998  -5.278   9.950  1.00  0.00     0.091 A 
ATOM     56  F   UNL     1       3.341  -5.241   9.444  1.00  0.00    -0.205 F 
ATOM     57  C   UNL     1       7.593  -6.050   9.685  1.00  0.00     0.022 A 
BRANCH  55  58
ATOM     58  S   UNL     1       6.094  -3.454  10.136  1.00  0.00     0.127 S 
ATOM     59  O   UNL     1       6.215  -3.287  11.576  1.00  0.00    -0.237 OA
ATOM     60  O   UNL     1       7.307  -3.170   9.362  1.00  0.00    -0.237 OA
ATOM     61  O   UNL     1       4.874  -2.956   9.514  1.00  0.00    -0.744 OA
ENDBRANCH  55  58
ENDBRANCH  27  51
BRANCH  39  62
ATOM     62  C   UNL     1       1.184 -12.252  11.709  1.00  0.00     0.023 A 
ATOM     63  C   UNL     1       1.309 -11.804  13.036  1.00  0.00     0.012 A 
ATOM     64  C   UNL     1       1.466 -13.605  11.416  1.00  0.00     0.148 A 
ATOM     65  C   UNL     1       1.788 -12.652  14.032  1.00  0.00     0.002 A 
ATOM     66  C   UNL     1       1.840 -14.472  12.433  1.00  0.00     0.091 A 
ATOM     67  F   UNL     1       1.359 -14.026  10.146  1.00  0.00    -0.205 F 
ATOM     68  C   UNL     1       2.035 -13.989  13.735  1.00  0.00     0.022 A 
BRANCH  66  69
ATOM     69  S   UNL     1       2.021 -16.241  12.184  1.00  0.00     0.127 S 
ATOM     70  O   UNL     1       3.436 -16.444  12.494  1.00  0.00    -0.237 OA
ATOM     71  O   UNL     1       1.095 -16.780  13.180  1.00  0.00    -0.237 OA
ATOM     72  O   UNL     1       1.649 -16.502  10.801  1.00  0.00    -0.744 OA
ENDBRANCH  66  69
ENDBRANCH  39  62
ENDBRANCH  13  14
ENDBRANCH   6   8
ENDBRANCH   5   6
ENDBRANCH   4   5
ENDBRANCH   3   4
ENDBRANCH   2   3
ENDBRANCH   1   2
BRANCH   1  73
ATOM     73  C   UNL     1       1.376  -2.319  -0.717  1.00  0.00     0.188 C 
BRANCH  73  74
ATOM     74  O   UNL     1       2.205  -2.502  -1.857  1.00  0.00    -0.376 OA
BRANCH  74  75
ATOM     75  C   UNL     1       2.868  -3.755  -1.988  1.00  0.00     0.202 C 
BRANCH  75  76
ATOM     76  C   UNL     1       3.817  -4.196  -0.867  1.00  0.00     0.261 C 
BRANCH  76  77
ATOM     77  O   UNL     1       3.307  -4.023   0.457  1.00  0.00    -0.463 OA
BRANCH  77  78
ATOM     78  C   UNL     1       3.740  -2.954   1.172  1.00  0.00     0.310 C 
ATOM     79  O   UNL     1       4.356  -2.002   0.710  1.00  0.00    -0.252 OA
BRANCH  78  80
ATOM     80  C   UNL     1       3.427  -3.108   2.632  1.00  0.00     0.119 C 
ATOM     81  C   UNL     1       2.256  -2.444   3.358  1.00  0.00     0.019 C 
ATOM     82  C   UNL     1       3.297  -4.574   2.966  1.00  0.00     0.135 C 
ATOM     83  C   UNL     1       2.546  -2.558   4.880  1.00  0.00     0.022 C 
ATOM     84  N   UNL     1       3.865  -4.689   4.270  1.00  0.00    -0.338 N 
ATOM     85  C   UNL     1       3.138  -3.923   5.336  1.00  0.00     0.120 C 
BRANCH  84  86
ATOM     86  C   UNL     1       5.071  -5.414   4.295  1.00  0.00     0.256 C 
ATOM     87  O   UNL     1       5.622  -5.826   3.274  1.00  0.00    -0.269 OA
BRANCH  86  88
ATOM     88  C   UNL     1       5.666  -5.667   5.569  1.00  0.00     0.065 A 
ATOM     89  C   UNL     1       6.428  -4.728   6.214  1.00  0.00     0.097 A 
ATOM     90  C   UNL     1       5.594  -6.840   6.374  1.00  0.00     0.012 A 
ATOM     91  N   UNL     1       6.757  -5.091   7.488  1.00  0.00    -0.360 N 
ATOM     92  C   UNL     1       6.138  -6.302   7.955  1.00  0.00     0.046 A 
ATOM     93  C   UNL     1       4.893  -8.462   6.258  1.00  0.00     0.011 A 
ATOM     94  H   UNL     1       7.373  -4.563   8.046  1.00  0.00     0.166 HD
ATOM     95  C   UNL     1       5.895  -7.524   9.533  1.00  0.00     0.027 A 
ATOM     96  C   UNL     1       4.707  -9.583   7.612  1.00  0.00     0.001 A 
ATOM     97  C   UNL     1       5.209  -9.176   9.230  1.00  0.00     0.002 A 
ENDBRANCH  86  88
ENDBRANCH  84  86
ENDBRANCH  78  80
ENDBRANCH  77  78
ENDBRANCH  76  77
ENDBRANCH  75  76
ENDBRANCH  74  75
ENDBRANCH  73  74
ENDBRANCH   1  73
TORSDOF 22
