REMARK SMILES O=C(N[C@@H](Cc1c[nH]c2ccccc12)C(=O)N[C@@H](CO)C(=O)OCCOCCOCCOC(=O)c1ccc(-c2c3nc(c(-c4cccc(S(=O)(=O)[O-])c4F)c4ccc([nH]4)c(-c4cccc(S(=O)(=O)[O-])c4F)c4nc(c(-c5cccc(S(=O)(=O)[O-])c5F)c5ccc2[nH]5)C=C4)C=C3)cc1)c1ccc(F)cc1
REMARK SMILES IDX 27 1 26 2 25 3 24 4 23 5 21 6 22 7 18 8 17 9 15 10 16 11
REMARK SMILES IDX 4 13 3 14 1 15 2 16 98 18 99 19 104 20 100 21 103 22 101 23
REMARK SMILES IDX 102 24 5 25 6 26 7 27 14 28 8 29 9 30 13 31 10 33 12 34
REMARK SMILES IDX 11 35 19 36 20 37 28 39 29 40 30 41 31 42 32 43 33 44 34 45
REMARK SMILES IDX 35 46 36 47 97 48 37 49 96 50 38 51 39 52 40 53 90 54 41 55
REMARK SMILES IDX 95 56 89 57 91 58 42 59 94 60 88 61 87 62 43 64 75 65 55 66
REMARK SMILES IDX 74 67 56 68 59 69 73 70 92 71 57 72 58 73 72 75 93 76 60 77
REMARK SMILES IDX 44 78 45 79 53 80 46 81 48 82 54 83 47 84 49 85 50 86 51 87
REMARK SMILES IDX 52 88 76 89 77 90 85 91 78 92 80 93 86 94 79 95 81 96 82 97
REMARK SMILES IDX 83 98 84 99 61 100 62 101 70 102 63 103 65 104 71 105 64 106
REMARK SMILES IDX 66 107 67 108 68 109 69 110
REMARK H PARENT 17 12 3 17 8 32 20 38 91 63 59 74
REMARK Flexibility Score: inf
ROOT
ATOM      1  C   UNL     1       7.150  -3.499   4.695  1.00  0.00     0.188 C 
ENDROOT
BRANCH   1   2
ATOM      2  O   UNL     1       7.188  -4.778   5.323  1.00  0.00    -0.376 OA
BRANCH   2   3
ATOM      3  C   UNL     1       5.932  -5.319   5.709  1.00  0.00     0.202 C 
BRANCH   3   4
ATOM      4  C   UNL     1       5.246  -6.114   4.593  1.00  0.00     0.261 C 
BRANCH   4   5
ATOM      5  O   UNL     1       4.690  -5.289   3.541  1.00  0.00    -0.462 OA
BRANCH   5   6
ATOM      6  C   UNL     1       3.331  -5.159   3.468  1.00  0.00     0.331 C 
ATOM      7  O   UNL     1       2.563  -5.615   4.308  1.00  0.00    -0.250 OA
BRANCH   6   8
ATOM      8  C   UNL     1       2.864  -4.347   2.213  1.00  0.00     0.218 C 
BRANCH   8   9
ATOM      9  N   UNL     1       3.963  -3.799   1.387  1.00  0.00    -0.339 N 
ATOM     10  C   UNL     1       4.360  -2.553   1.011  1.00  0.00     0.243 C 
ATOM     11  O   UNL     1       5.478  -2.517   0.473  1.00  0.00    -0.273 OA
ATOM     12  H   UNL     1       4.546  -4.503   1.024  1.00  0.00     0.164 HD
BRANCH  10  13
ATOM     13  C   UNL     1       3.595  -1.205   1.198  1.00  0.00     0.176 C 
BRANCH  13  14
ATOM     14  N   UNL     1       2.241  -1.181   0.644  1.00  0.00    -0.340 N 
ATOM     15  O   UNL     1       0.523  -0.310  -0.532  1.00  0.00    -0.269 OA
ATOM     16  C   UNL     1       1.725  -0.291  -0.278  1.00  0.00     0.251 C 
ATOM     17  H   UNL     1       1.627  -1.880   0.967  1.00  0.00     0.164 HD
BRANCH  16  18
ATOM     18  C   UNL     1       2.588   0.710  -0.965  1.00  0.00     0.040 A 
ATOM     19  C   UNL     1       3.657   0.313  -1.782  1.00  0.00     0.017 A 
ATOM     20  C   UNL     1       2.268   2.072  -0.853  1.00  0.00     0.017 A 
ATOM     21  C   UNL     1       4.426   1.276  -2.444  1.00  0.00     0.040 A 
ATOM     22  C   UNL     1       3.038   3.031  -1.522  1.00  0.00     0.040 A 
ATOM     23  C   UNL     1       4.110   2.624  -2.309  1.00  0.00     0.123 A 
ATOM     24  F   UNL     1       4.840   3.539  -2.960  1.00  0.00    -0.207 F 
ENDBRANCH  16  18
ENDBRANCH  13  14
BRANCH  13  25
ATOM     25  C   UNL     1       3.753  -0.394   2.506  1.00  0.00     0.072 C 
BRANCH  25  26
ATOM     26  C   UNL     1       3.393  -1.027   3.809  1.00  0.00    -0.020 A 
ATOM     27  C   UNL     1       3.868  -2.240   4.235  1.00  0.00     0.087 A 
ATOM     28  C   UNL     1       2.744  -0.459   4.963  1.00  0.00     0.003 A 
ATOM     29  N   UNL     1       3.329  -2.550   5.443  1.00  0.00    -0.361 N 
ATOM     30  C   UNL     1       2.736  -1.436   5.964  1.00  0.00     0.046 A 
ATOM     31  C   UNL     1       2.222   0.807   5.293  1.00  0.00     0.010 A 
ATOM     32  H   UNL     1       3.362  -3.434   5.874  1.00  0.00     0.166 HD
ATOM     33  C   UNL     1       2.244  -1.233   7.255  1.00  0.00     0.026 A 
ATOM     34  C   UNL     1       1.756   1.042   6.598  1.00  0.00     0.001 A 
ATOM     35  C   UNL     1       1.774   0.039   7.564  1.00  0.00     0.002 A 
ENDBRANCH  25  26
ENDBRANCH  13  25
ENDBRANCH  10  13
ENDBRANCH   8   9
BRANCH   8  36
ATOM     36  C   UNL     1       1.992  -5.298   1.385  1.00  0.00     0.193 C 
BRANCH  36  37
ATOM     37  O   UNL     1       2.754  -6.394   0.872  1.00  0.00    -0.394 OA
ATOM     38  H   UNL     1       3.455  -6.058   0.292  1.00  0.00     0.210 HD
ENDBRANCH  36  37
ENDBRANCH   8  36
ENDBRANCH   6   8
ENDBRANCH   5   6
ENDBRANCH   4   5
ENDBRANCH   3   4
ENDBRANCH   2   3
ENDBRANCH   1   2
BRANCH   1  39
ATOM     39  C   UNL     1       7.333  -3.584   3.172  1.00  0.00     0.188 C 
BRANCH  39  40
ATOM     40  O   UNL     1       8.322  -4.488   2.677  1.00  0.00    -0.376 OA
BRANCH  40  41
ATOM     41  C   UNL     1       9.531  -4.586   3.418  1.00  0.00     0.202 C 
BRANCH  41  42
ATOM     42  C   UNL     1      10.435  -3.350   3.398  1.00  0.00     0.261 C 
BRANCH  42  43
ATOM     43  O   UNL     1       9.769  -2.149   3.832  1.00  0.00    -0.460 OA
BRANCH  43  44
ATOM     44  C   UNL     1       9.892  -1.089   2.997  1.00  0.00     0.338 C 
ATOM     45  O   UNL     1      10.537  -1.034   1.966  1.00  0.00    -0.246 OA
BRANCH  44  46
ATOM     46  C   UNL     1       9.074   0.045   3.469  1.00  0.00     0.060 A 
ATOM     47  C   UNL     1       7.827   0.276   2.879  1.00  0.00     0.016 A 
ATOM     48  C   UNL     1       9.633   0.992   4.330  1.00  0.00     0.016 A 
ATOM     49  C   UNL     1       7.155   1.478   3.118  1.00  0.00     0.010 A 
ATOM     50  C   UNL     1       8.955   2.195   4.568  1.00  0.00     0.010 A 
ATOM     51  C   UNL     1       7.729   2.462   3.933  1.00  0.00    -0.014 A 
BRANCH  51  52
ATOM     52  C   UNL     1       7.132   3.823   3.976  1.00  0.00     0.031 A 
ATOM     53  C   UNL     1       7.757   4.923   3.161  1.00  0.00     0.074 A 
ATOM     54  C   UNL     1       6.034   4.087   4.708  1.00  0.00     0.049 A 
ATOM     55  N   UNL     1       7.463   6.196   3.126  1.00  0.00    -0.248 NA
ATOM     56  C   UNL     1       8.861   4.534   2.269  1.00  0.00     0.031 C 
ATOM     57  C   UNL     1       5.308   3.110   5.514  1.00  0.00     0.029 A 
ATOM     58  N   UNL     1       5.351   5.264   4.905  1.00  0.00    -0.354 N 
ATOM     59  C   UNL     1       8.385   6.773   2.262  1.00  0.00     0.074 A 
ATOM     60  C   UNL     1       9.229   5.705   1.770  1.00  0.00     0.031 C 
ATOM     61  C   UNL     1       4.290   3.732   6.131  1.00  0.00     0.029 A 
ATOM     62  C   UNL     1       4.302   5.152   5.788  1.00  0.00     0.049 A 
ATOM     63  H   UNL     1       5.590   6.107   4.456  1.00  0.00     0.167 HD
ATOM     64  C   UNL     1       8.522   8.074   1.913  1.00  0.00     0.034 A 
ATOM     65  C   UNL     1       3.464   6.087   6.284  1.00  0.00     0.034 A 
ATOM     66  C   UNL     1       7.664   9.135   2.365  1.00  0.00     0.049 A 
ATOM     67  C   UNL     1       3.633   7.527   5.871  1.00  0.00     0.074 A 
ATOM     68  C   UNL     1       7.730  10.483   2.056  1.00  0.00     0.029 A 
ATOM     69  N   UNL     1       6.586   8.973   3.220  1.00  0.00    -0.354 N 
ATOM     70  N   UNL     1       4.476   8.048   5.013  1.00  0.00    -0.248 NA
ATOM     71  C   UNL     1       2.732   8.511   6.494  1.00  0.00     0.031 C 
ATOM     72  C   UNL     1       6.698  11.138   2.736  1.00  0.00     0.029 A 
ATOM     73  C   UNL     1       5.979  10.195   3.452  1.00  0.00     0.049 A 
ATOM     74  H   UNL     1       6.295   8.115   3.605  1.00  0.00     0.167 HD
ATOM     75  C   UNL     1       4.200   9.411   4.984  1.00  0.00     0.074 A 
ATOM     76  C   UNL     1       3.085   9.632   5.880  1.00  0.00     0.031 C 
ATOM     77  C   UNL     1       4.833  10.397   4.301  1.00  0.00     0.034 A 
BRANCH  64  78
ATOM     78  C   UNL     1       9.658   8.427   0.994  1.00  0.00     0.023 A 
ATOM     79  C   UNL     1       9.564   8.144  -0.383  1.00  0.00     0.012 A 
ATOM     80  C   UNL     1      10.801   9.082   1.493  1.00  0.00     0.148 A 
ATOM     81  C   UNL     1      10.603   8.487  -1.246  1.00  0.00     0.002 A 
ATOM     82  C   UNL     1      11.815   9.455   0.620  1.00  0.00     0.091 A 
ATOM     83  F   UNL     1      10.880   9.316   2.811  1.00  0.00    -0.205 F 
ATOM     84  C   UNL     1      11.722   9.150  -0.748  1.00  0.00     0.022 A 
BRANCH  82  85
ATOM     85  S   UNL     1      13.261  10.374   1.159  1.00  0.00     0.127 S 
ATOM     86  O   UNL     1      14.304   9.351   1.088  1.00  0.00    -0.237 OA
ATOM     87  O   UNL     1      13.361  11.419   0.140  1.00  0.00    -0.237 OA
ATOM     88  O   UNL     1      12.951  10.860   2.496  1.00  0.00    -0.744 OA
ENDBRANCH  82  85
ENDBRANCH  64  78
BRANCH  65  89
ATOM     89  C   UNL     1       2.365   5.692   7.214  1.00  0.00     0.023 A 
ATOM     90  C   UNL     1       1.024   5.830   6.801  1.00  0.00     0.012 A 
ATOM     91  C   UNL     1       2.633   5.170   8.493  1.00  0.00     0.148 A 
ATOM     92  C   UNL     1      -0.025   5.481   7.653  1.00  0.00     0.002 A 
ATOM     93  C   UNL     1       1.586   4.755   9.308  1.00  0.00     0.091 A 
ATOM     94  F   UNL     1       3.911   5.077   8.888  1.00  0.00    -0.205 F 
ATOM     95  C   UNL     1       0.256   4.930   8.900  1.00  0.00     0.022 A 
BRANCH  93  96
ATOM     96  S   UNL     1       1.866   3.879  10.851  1.00  0.00     0.127 S 
ATOM     97  O   UNL     1       1.534   4.899  11.841  1.00  0.00    -0.237 OA
ATOM     98  O   UNL     1       0.907   2.778  10.750  1.00  0.00    -0.237 OA
ATOM     99  O   UNL     1       3.260   3.458  10.810  1.00  0.00    -0.744 OA
ENDBRANCH  93  96
ENDBRANCH  65  89
BRANCH  77 100
ATOM    100  C   UNL     1       4.334  11.808   4.474  1.00  0.00     0.023 A 
ATOM    101  C   UNL     1       4.607  12.500   5.670  1.00  0.00     0.012 A 
ATOM    102  C   UNL     1       3.671  12.475   3.425  1.00  0.00     0.148 A 
ATOM    103  C   UNL     1       4.206  13.826   5.830  1.00  0.00     0.002 A 
ATOM    104  C   UNL     1       3.312  13.810   3.576  1.00  0.00     0.091 A 
ATOM    105  F   UNL     1       3.402  11.794   2.302  1.00  0.00    -0.205 F 
ATOM    106  C   UNL     1       3.570  14.484   4.780  1.00  0.00     0.022 A 
BRANCH 104 107
ATOM    107  S   UNL     1       2.570  14.762   2.244  1.00  0.00     0.127 S 
ATOM    108  O   UNL     1       1.178  14.849   2.680  1.00  0.00    -0.237 OA
ATOM    109  O   UNL     1       3.310  16.022   2.310  1.00  0.00    -0.237 OA
ATOM    110  O   UNL     1       2.800  13.992   1.029  1.00  0.00    -0.744 OA
ENDBRANCH 104 107
ENDBRANCH  77 100
ENDBRANCH  51  52
ENDBRANCH  44  46
ENDBRANCH  43  44
ENDBRANCH  42  43
ENDBRANCH  41  42
ENDBRANCH  40  41
ENDBRANCH  39  40
ENDBRANCH   1  39
TORSDOF 28
