REMARK SMILES Cc1ccc2nc(NC(=O)[C@H]3CC=CC[C@@H]3C(=O)OCCOCCOCCOC(=O)c3ccc(-c4c5nc(c(-c6cccc(S(=O)(=O)[O-])c6F)c6ccc([nH]6)c(-c6cccc(S(=O)(=O)[O-])c6F)c6nc(c(-c7cccc(S(=O)(=O)[O-])c7F)c7ccc4[nH]7)C=C6)C=C5)cc3)sc2c1
REMARK SMILES IDX 24 1 23 2 22 3 21 4 20 5 19 6 17 7 18 8 16 9 11 10 12 11
REMARK SMILES IDX 13 12 15 13 14 14 9 15 8 16 10 18 7 19 1 20 2 21 3 22 96 23
REMARK SMILES IDX 4 24 95 25 5 26 94 27 6 28 25 29 26 30 27 31 28 32 29 33
REMARK SMILES IDX 30 34 31 35 32 36 93 37 33 38 92 39 34 40 35 41 36 42 86 43
REMARK SMILES IDX 37 44 91 45 85 46 87 47 38 48 90 49 84 50 83 51 39 53 71 54
REMARK SMILES IDX 51 55 70 56 52 57 55 58 69 59 88 60 53 61 54 62 68 64 89 65
REMARK SMILES IDX 56 66 40 67 41 68 49 69 42 70 44 71 50 72 43 73 45 74 46 75
REMARK SMILES IDX 47 76 48 77 72 78 73 79 81 80 74 81 76 82 82 83 75 84 77 85
REMARK SMILES IDX 78 86 79 87 80 88 57 89 58 90 66 91 59 92 61 93 67 94 60 95
REMARK SMILES IDX 62 96 63 97 64 98 65 99
REMARK H PARENT 8 17 87 52 55 63
REMARK Flexibility Score: inf
ROOT
ATOM      1  C   UNL     1      -0.277  -2.753   1.980  1.00  0.00     0.188 C 
ENDROOT
BRANCH   1   2
ATOM      2  C   UNL     1      -0.183  -3.310   0.576  1.00  0.00     0.188 C 
BRANCH   2   3
ATOM      3  O   UNL     1       1.045  -3.974   0.318  1.00  0.00    -0.376 OA
BRANCH   3   4
ATOM      4  C   UNL     1       1.787  -3.440  -0.772  1.00  0.00     0.202 C 
BRANCH   4   5
ATOM      5  C   UNL     1       1.126  -3.478  -2.175  1.00  0.00     0.261 C 
BRANCH   5   6
ATOM      6  O   UNL     1      -0.079  -2.676  -2.313  1.00  0.00    -0.463 OA
BRANCH   6   7
ATOM      7  C   UNL     1      -1.269  -3.343  -2.368  1.00  0.00     0.310 C 
ATOM      8  O   UNL     1      -1.341  -4.563  -2.411  1.00  0.00    -0.252 OA
BRANCH   7   9
ATOM      9  C   UNL     1      -2.484  -2.393  -2.302  1.00  0.00     0.116 C 
ATOM     10  C   UNL     1      -3.245  -2.555  -0.957  1.00  0.00     0.097 C 
ATOM     11  C   UNL     1      -3.937  -3.947  -0.889  1.00  0.00     0.041 C 
ATOM     12  C   UNL     1      -4.378  -4.518  -2.211  1.00  0.00    -0.030 C 
ATOM     13  C   UNL     1      -3.418  -2.626  -3.492  1.00  0.00     0.043 C 
ATOM     14  C   UNL     1      -4.167  -3.914  -3.389  1.00  0.00    -0.030 C 
BRANCH  10  15
ATOM     15  C   UNL     1      -4.226  -1.404  -0.608  1.00  0.00     0.230 C 
ATOM     16  N   UNL     1      -3.808  -0.157  -0.212  1.00  0.00    -0.302 N 
ATOM     17  H   UNL     1      -4.507   0.472   0.081  1.00  0.00     0.172 HD
ATOM     18  O   UNL     1      -5.450  -1.585  -0.617  1.00  0.00    -0.274 OA
BRANCH  16  19
ATOM     19  C   UNL     1      -2.523   0.299  -0.185  1.00  0.00     0.190 A 
ATOM     20  C   UNL     1       3.126   2.846   0.128  1.00  0.00     0.044 C 
ATOM     21  C   UNL     1       1.876   2.044  -0.079  1.00  0.00    -0.050 A 
ATOM     22  C   UNL     1       2.028   0.786  -0.645  1.00  0.00     0.006 A 
ATOM     23  C   UNL     1       0.585   2.542   0.229  1.00  0.00     0.024 A 
ATOM     24  C   UNL     1       0.914   0.007  -0.878  1.00  0.00     0.030 A 
ATOM     25  C   UNL     1      -0.532   1.694   0.044  1.00  0.00     0.057 A 
ATOM     26  C   UNL     1      -0.361   0.422  -0.489  1.00  0.00     0.084 A 
ATOM     27  S   UNL     1      -2.234   1.898   0.351  1.00  0.00    -0.097 S 
ATOM     28  N   UNL     1      -1.482  -0.356  -0.591  1.00  0.00    -0.220 NA
ENDBRANCH  16  19
ENDBRANCH  10  15
ENDBRANCH   7   9
ENDBRANCH   6   7
ENDBRANCH   5   6
ENDBRANCH   4   5
ENDBRANCH   3   4
ENDBRANCH   2   3
ENDBRANCH   1   2
BRANCH   1  29
ATOM     29  O   UNL     1       0.013  -1.354   2.070  1.00  0.00    -0.376 OA
BRANCH  29  30
ATOM     30  C   UNL     1       1.214  -1.039   2.765  1.00  0.00     0.202 C 
BRANCH  30  31
ATOM     31  C   UNL     1       1.116  -1.112   4.301  1.00  0.00     0.261 C 
BRANCH  31  32
ATOM     32  O   UNL     1       0.588  -2.368   4.756  1.00  0.00    -0.460 OA
BRANCH  32  33
ATOM     33  C   UNL     1      -0.755  -2.379   4.995  1.00  0.00     0.338 C 
ATOM     34  O   UNL     1      -1.479  -1.416   5.114  1.00  0.00    -0.246 OA
BRANCH  33  35
ATOM     35  C   UNL     1      -1.255  -3.775   4.838  1.00  0.00     0.060 A 
ATOM     36  C   UNL     1      -2.510  -3.953   4.231  1.00  0.00     0.016 A 
ATOM     37  C   UNL     1      -0.475  -4.887   5.168  1.00  0.00     0.016 A 
ATOM     38  C   UNL     1      -2.995  -5.235   3.972  1.00  0.00     0.010 A 
ATOM     39  C   UNL     1      -0.972  -6.171   4.934  1.00  0.00     0.010 A 
ATOM     40  C   UNL     1      -2.248  -6.349   4.370  1.00  0.00    -0.014 A 
BRANCH  40  41
ATOM     41  C   UNL     1      -2.908  -7.671   4.474  1.00  0.00     0.031 A 
ATOM     42  C   UNL     1      -3.479  -8.045   5.815  1.00  0.00     0.074 A 
ATOM     43  C   UNL     1      -2.989  -8.522   3.436  1.00  0.00     0.049 A 
ATOM     44  N   UNL     1      -4.031  -9.162   6.205  1.00  0.00    -0.248 NA
ATOM     45  C   UNL     1      -3.405  -7.012   6.865  1.00  0.00     0.031 C 
ATOM     46  C   UNL     1      -2.491  -8.268   2.086  1.00  0.00     0.029 A 
ATOM     47  N   UNL     1      -3.499  -9.796   3.375  1.00  0.00    -0.354 N 
ATOM     48  C   UNL     1      -4.338  -8.979   7.547  1.00  0.00     0.074 A 
ATOM     49  C   UNL     1      -3.900  -7.652   7.912  1.00  0.00     0.031 C 
ATOM     50  C   UNL     1      -2.685  -9.370   1.338  1.00  0.00     0.029 A 
ATOM     51  C   UNL     1      -3.295 -10.412   2.163  1.00  0.00     0.049 A 
ATOM     52  H   UNL     1      -3.967 -10.226   4.127  1.00  0.00     0.167 HD
ATOM     53  C   UNL     1      -4.944  -9.835   8.402  1.00  0.00     0.034 A 
ATOM     54  C   UNL     1      -3.543 -11.682   1.782  1.00  0.00     0.034 A 
ATOM     55  C   UNL     1      -5.381 -11.152   8.037  1.00  0.00     0.049 A 
ATOM     56  C   UNL     1      -4.186 -12.633   2.764  1.00  0.00     0.074 A 
ATOM     57  C   UNL     1      -6.033 -12.088   8.818  1.00  0.00     0.029 A 
ATOM     58  N   UNL     1      -5.197 -11.726   6.789  1.00  0.00    -0.354 N 
ATOM     59  N   UNL     1      -4.565 -12.417   4.001  1.00  0.00    -0.248 NA
ATOM     60  C   UNL     1      -4.464 -13.997   2.286  1.00  0.00     0.031 C 
ATOM     61  C   UNL     1      -6.210 -13.244   8.051  1.00  0.00     0.029 A 
ATOM     62  C   UNL     1      -5.710 -13.010   6.780  1.00  0.00     0.049 A 
ATOM     63  H   UNL     1      -4.764 -11.284   6.022  1.00  0.00     0.167 HD
ATOM     64  C   UNL     1      -5.160 -13.599   4.434  1.00  0.00     0.074 A 
ATOM     65  C   UNL     1      -5.105 -14.523   3.321  1.00  0.00     0.031 C 
ATOM     66  C   UNL     1      -5.694 -13.898   5.645  1.00  0.00     0.034 A 
BRANCH  53  67
ATOM     67  C   UNL     1      -5.168  -9.361   9.813  1.00  0.00     0.023 A 
ATOM     68  C   UNL     1      -6.127  -8.361  10.074  1.00  0.00     0.012 A 
ATOM     69  C   UNL     1      -4.447  -9.924  10.883  1.00  0.00     0.148 A 
ATOM     70  C   UNL     1      -6.339  -7.902  11.373  1.00  0.00     0.002 A 
ATOM     71  C   UNL     1      -4.699  -9.498  12.181  1.00  0.00     0.091 A 
ATOM     72  F   UNL     1      -3.520 -10.853  10.611  1.00  0.00    -0.205 F 
ATOM     73  C   UNL     1      -5.634  -8.478  12.427  1.00  0.00     0.022 A 
BRANCH  71  74
ATOM     74  S   UNL     1      -3.901 -10.230  13.613  1.00  0.00     0.127 S 
ATOM     75  O   UNL     1      -3.052  -9.131  14.072  1.00  0.00    -0.237 OA
ATOM     76  O   UNL     1      -5.042 -10.523  14.482  1.00  0.00    -0.237 OA
ATOM     77  O   UNL     1      -3.191 -11.403  13.124  1.00  0.00    -0.744 OA
ENDBRANCH  71  74
ENDBRANCH  53  67
BRANCH  54  78
ATOM     78  C   UNL     1      -3.200 -12.133   0.402  1.00  0.00     0.023 A 
ATOM     79  C   UNL     1      -4.229 -12.453  -0.505  1.00  0.00     0.012 A 
ATOM     80  C   UNL     1      -1.859 -12.250  -0.015  1.00  0.00     0.148 A 
ATOM     81  C   UNL     1      -3.929 -12.911  -1.790  1.00  0.00     0.002 A 
ATOM     82  C   UNL     1      -1.568 -12.655  -1.312  1.00  0.00     0.091 A 
ATOM     83  F   UNL     1      -0.893 -11.961   0.869  1.00  0.00    -0.205 F 
ATOM     84  C   UNL     1      -2.601 -13.002  -2.196  1.00  0.00     0.022 A 
BRANCH  82  85
ATOM     85  S   UNL     1       0.108 -12.700  -1.960  1.00  0.00     0.127 S 
ATOM     86  O   UNL     1       0.319 -14.134  -2.143  1.00  0.00    -0.237 OA
ATOM     87  O   UNL     1      -0.027 -11.936  -3.200  1.00  0.00    -0.237 OA
ATOM     88  O   UNL     1       0.941 -12.066  -0.948  1.00  0.00    -0.744 OA
ENDBRANCH  82  85
ENDBRANCH  54  78
BRANCH  66  89
ATOM     89  C   UNL     1      -6.313 -15.261   5.828  1.00  0.00     0.023 A 
ATOM     90  C   UNL     1      -5.494 -16.404   5.908  1.00  0.00     0.012 A 
ATOM     91  C   UNL     1      -7.705 -15.392   6.009  1.00  0.00     0.148 A 
ATOM     92  C   UNL     1      -6.055 -17.662   6.130  1.00  0.00     0.002 A 
ATOM     93  C   UNL     1      -8.250 -16.640   6.284  1.00  0.00     0.091 A 
ATOM     94  F   UNL     1      -8.468 -14.294   5.918  1.00  0.00    -0.205 F 
ATOM     95  C   UNL     1      -7.429 -17.778   6.330  1.00  0.00     0.022 A 
BRANCH  93  96
ATOM     96  S   UNL     1      -9.992 -16.872   6.657  1.00  0.00     0.127 S 
ATOM     97  O   UNL     1     -10.462 -17.574   5.464  1.00  0.00    -0.237 OA
ATOM     98  O   UNL     1      -9.943 -17.692   7.867  1.00  0.00    -0.237 OA
ATOM     99  O   UNL     1     -10.543 -15.538   6.853  1.00  0.00    -0.744 OA
ENDBRANCH  93  96
ENDBRANCH  66  89
ENDBRANCH  40  41
ENDBRANCH  33  35
ENDBRANCH  32  33
ENDBRANCH  31  32
ENDBRANCH  30  31
ENDBRANCH  29  30
ENDBRANCH   1  29
TORSDOF 22
