REMARK SMILES CC(C)C[C@H](NC(=O)[C@@H](NC(=O)[C@H](C)NC(=O)CNC(=O)OCc1ccccc1)C(C)C)C(=O)OCCOCCOCCOC(=O)c1ccc(-c2c3nc(c(-c4cccc(S(=O)(=O)[O-])c4F)c4ccc([nH]4)c(-c4cccc(S(=O)(=O)[O-])c4F)c4nc(c(-c5cccc(S(=O)(=O)[O-])c5F)c5ccc2[nH]5)C=C4)C=C3)cc1
REMARK SMILES IDX 36 1 35 2 33 3 34 4 5 5 4 6 2 7 1 8 3 9 6 10 7 11 8 13 9 14
REMARK SMILES IDX 10 15 11 16 12 18 13 19 14 20 15 21 16 22 17 24 18 25 19 26
REMARK SMILES IDX 20 27 21 29 22 30 23 31 24 32 25 33 29 34 26 35 28 36 27 37
REMARK SMILES IDX 30 38 31 39 32 40 37 41 38 42 39 43 40 44 41 45 42 46 43 47
REMARK SMILES IDX 44 48 45 49 46 50 47 51 48 52 109 53 49 54 108 55 50 56
REMARK SMILES IDX 51 57 52 58 102 59 53 60 107 61 101 62 103 63 54 64 106 65
REMARK SMILES IDX 100 66 99 67 55 69 87 70 67 71 86 72 68 73 71 74 85 75
REMARK SMILES IDX 104 76 69 77 70 78 84 80 105 81 72 82 56 83 57 84 65 85
REMARK SMILES IDX 58 86 60 87 66 88 59 89 61 90 62 91 63 92 64 93 88 94 89 95
REMARK SMILES IDX 97 96 90 97 92 98 98 99 91 100 93 101 94 102 95 103 96 104
REMARK SMILES IDX 73 105 74 106 82 107 75 108 77 109 83 110 76 111 78 112
REMARK SMILES IDX 79 113 80 114 81 115
REMARK H PARENT 6 12 10 17 15 23 19 28 103 68 71 79
REMARK Flexibility Score: inf
ROOT
ATOM      1  C   UNL     1       0.753  -3.214  -2.360  1.00  0.00     0.261 C 
ENDROOT
BRANCH   1   2
ATOM      2  O   UNL     1       0.142  -1.929  -2.113  1.00  0.00    -0.462 OA
BRANCH   2   3
ATOM      3  C   UNL     1       1.011  -0.952  -1.771  1.00  0.00     0.328 C 
ATOM      4  O   UNL     1       2.225  -1.123  -1.735  1.00  0.00    -0.250 OA
BRANCH   3   5
ATOM      5  C   UNL     1       0.340   0.370  -1.330  1.00  0.00     0.192 C 
BRANCH   5   6
ATOM      6  C   UNL     1       0.374   0.459   0.198  1.00  0.00     0.040 C 
BRANCH   6   7
ATOM      7  C   UNL     1       1.523  -0.204   0.976  1.00  0.00    -0.015 C 
ATOM      8  C   UNL     1       2.912   0.328   0.592  1.00  0.00     0.007 C 
ATOM      9  C   UNL     1       1.293   0.030   2.471  1.00  0.00     0.007 C 
ENDBRANCH   6   7
ENDBRANCH   5   6
BRANCH   5  10
ATOM     10  N   UNL     1      -1.026   0.614  -1.857  1.00  0.00    -0.341 N 
ATOM     11  C   UNL     1      -1.807   1.708  -2.091  1.00  0.00     0.243 C 
ATOM     12  H   UNL     1      -1.483  -0.224  -2.099  1.00  0.00     0.164 HD
ATOM     13  O   UNL     1      -2.754   1.504  -2.866  1.00  0.00    -0.273 OA
BRANCH  11  14
ATOM     14  C   UNL     1      -1.631   3.172  -1.526  1.00  0.00     0.174 C 
BRANCH  14  15
ATOM     15  N   UNL     1      -1.069   3.271  -0.165  1.00  0.00    -0.342 N 
ATOM     16  C   UNL     1       0.054   3.696   0.469  1.00  0.00     0.242 C 
ATOM     17  H   UNL     1      -1.711   2.915   0.491  1.00  0.00     0.164 HD
ATOM     18  O   UNL     1      -0.028   3.665   1.707  1.00  0.00    -0.273 OA
BRANCH  16  19
ATOM     19  C   UNL     1       1.332   4.257  -0.211  1.00  0.00     0.168 C 
ATOM     20  C   UNL     1       1.786   3.639  -1.520  1.00  0.00     0.041 C 
BRANCH  19  21
ATOM     21  N   UNL     1       2.477   4.155   0.706  1.00  0.00    -0.343 N 
ATOM     22  C   UNL     1       3.112   5.039   1.513  1.00  0.00     0.240 C 
ATOM     23  H   UNL     1       2.865   3.252   0.741  1.00  0.00     0.164 HD
ATOM     24  O   UNL     1       4.093   4.610   2.131  1.00  0.00    -0.273 OA
BRANCH  22  25
ATOM     25  C   UNL     1       2.571   6.433   1.830  1.00  0.00     0.219 C 
BRANCH  25  26
ATOM     26  N   UNL     1       1.933   7.164   0.760  1.00  0.00    -0.312 N 
ATOM     27  C   UNL     1       0.606   7.479   0.684  1.00  0.00     0.407 C 
ATOM     28  H   UNL     1       2.507   7.462   0.018  1.00  0.00     0.167 HD
ATOM     29  O   UNL     1       0.132   7.967  -0.317  1.00  0.00    -0.225 OA
BRANCH  27  30
ATOM     30  O   UNL     1      -0.072   7.137   1.809  1.00  0.00    -0.445 OA
BRANCH  30  31
ATOM     31  C   UNL     1      -1.502   7.224   1.752  1.00  0.00     0.270 C 
BRANCH  31  32
ATOM     32  C   UNL     1      -2.073   8.621   1.699  1.00  0.00    -0.011 A 
ATOM     33  C   UNL     1      -1.288   9.762   1.909  1.00  0.00     0.007 A 
ATOM     34  C   UNL     1      -3.436   8.785   1.407  1.00  0.00     0.007 A 
ATOM     35  C   UNL     1      -1.836  11.037   1.768  1.00  0.00     0.000 A 
ATOM     36  C   UNL     1      -3.988  10.060   1.286  1.00  0.00     0.000 A 
ATOM     37  C   UNL     1      -3.184  11.185   1.454  1.00  0.00     0.000 A 
ENDBRANCH  31  32
ENDBRANCH  30  31
ENDBRANCH  27  30
ENDBRANCH  25  26
ENDBRANCH  22  25
ENDBRANCH  19  21
ENDBRANCH  16  19
ENDBRANCH  14  15
BRANCH  14  38
ATOM     38  C   UNL     1      -1.252   4.285  -2.553  1.00  0.00     0.015 C 
ATOM     39  C   UNL     1      -2.204   4.387  -3.753  1.00  0.00     0.010 C 
ATOM     40  C   UNL     1      -1.196   5.687  -1.929  1.00  0.00     0.010 C 
ENDBRANCH  14  38
ENDBRANCH  11  14
ENDBRANCH   5  10
ENDBRANCH   3   5
ENDBRANCH   2   3
ENDBRANCH   1   2
BRANCH   1  41
ATOM     41  C   UNL     1       1.701  -3.315  -3.571  1.00  0.00     0.202 C 
BRANCH  41  42
ATOM     42  O   UNL     1       1.171  -2.806  -4.787  1.00  0.00    -0.376 OA
BRANCH  42  43
ATOM     43  C   UNL     1       1.267  -1.396  -4.933  1.00  0.00     0.188 C 
BRANCH  43  44
ATOM     44  C   UNL     1      -0.079  -0.658  -4.840  1.00  0.00     0.188 C 
BRANCH  44  45
ATOM     45  O   UNL     1      -1.281  -1.375  -4.609  1.00  0.00    -0.376 OA
BRANCH  45  46
ATOM     46  C   UNL     1      -1.519  -2.558  -5.365  1.00  0.00     0.202 C 
BRANCH  46  47
ATOM     47  C   UNL     1      -1.319  -2.585  -6.897  1.00  0.00     0.261 C 
BRANCH  47  48
ATOM     48  O   UNL     1      -0.270  -1.756  -7.421  1.00  0.00    -0.460 OA
BRANCH  48  49
ATOM     49  C   UNL     1      -0.675  -0.618  -8.041  1.00  0.00     0.338 C 
ATOM     50  O   UNL     1      -1.823  -0.277  -8.269  1.00  0.00    -0.246 OA
BRANCH  49  51
ATOM     51  C   UNL     1       0.484   0.292  -8.204  1.00  0.00     0.060 A 
ATOM     52  C   UNL     1       0.423   1.549  -7.581  1.00  0.00     0.016 A 
ATOM     53  C   UNL     1       1.603  -0.065  -8.957  1.00  0.00     0.016 A 
ATOM     54  C   UNL     1       1.469   2.460  -7.721  1.00  0.00     0.010 A 
ATOM     55  C   UNL     1       2.633   0.868  -9.134  1.00  0.00     0.010 A 
ATOM     56  C   UNL     1       2.555   2.143  -8.543  1.00  0.00    -0.014 A 
BRANCH  56  57
ATOM     57  C   UNL     1       3.474   3.224  -8.976  1.00  0.00     0.031 A 
ATOM     58  C   UNL     1       3.171   3.930 -10.270  1.00  0.00     0.074 A 
ATOM     59  C   UNL     1       4.548   3.580  -8.249  1.00  0.00     0.049 A 
ATOM     60  N   UNL     1       3.848   4.861 -10.887  1.00  0.00    -0.248 NA
ATOM     61  C   UNL     1       1.934   3.526 -10.961  1.00  0.00     0.031 C 
ATOM     62  C   UNL     1       4.939   2.995  -6.969  1.00  0.00     0.029 A 
ATOM     63  N   UNL     1       5.526   4.510  -8.509  1.00  0.00    -0.354 N 
ATOM     64  C   UNL     1       3.141   5.130 -12.053  1.00  0.00     0.074 A 
ATOM     65  C   UNL     1       1.983   4.264 -12.059  1.00  0.00     0.031 C 
ATOM     66  C   UNL     1       6.099   3.551  -6.574  1.00  0.00     0.029 A 
ATOM     67  C   UNL     1       6.543   4.511  -7.584  1.00  0.00     0.049 A 
ATOM     68  H   UNL     1       5.501   5.117  -9.284  1.00  0.00     0.167 HD
ATOM     69  C   UNL     1       3.424   6.023 -13.030  1.00  0.00     0.034 A 
ATOM     70  C   UNL     1       7.711   5.187  -7.572  1.00  0.00     0.034 A 
ATOM     71  C   UNL     1       4.565   6.894 -13.021  1.00  0.00     0.049 A 
ATOM     72  C   UNL     1       8.021   6.151  -8.691  1.00  0.00     0.074 A 
ATOM     73  C   UNL     1       4.915   7.861 -13.947  1.00  0.00     0.029 A 
ATOM     74  N   UNL     1       5.551   6.895 -12.048  1.00  0.00    -0.354 N 
ATOM     75  N   UNL     1       7.290   6.476  -9.730  1.00  0.00    -0.248 NA
ATOM     76  C   UNL     1       9.306   6.866  -8.618  1.00  0.00     0.031 C 
ATOM     77  C   UNL     1       6.129   8.428 -13.546  1.00  0.00     0.029 A 
ATOM     78  C   UNL     1       6.518   7.836 -12.355  1.00  0.00     0.049 A 
ATOM     79  H   UNL     1       5.562   6.311 -11.255  1.00  0.00     0.167 HD
ATOM     80  C   UNL     1       8.007   7.455 -10.413  1.00  0.00     0.074 A 
ATOM     81  C   UNL     1       9.221   7.684  -9.659  1.00  0.00     0.031 C 
ATOM     82  C   UNL     1       7.694   8.097 -11.566  1.00  0.00     0.034 A 
BRANCH  69  83
ATOM     83  C   UNL     1       2.470   6.107 -14.191  1.00  0.00     0.023 A 
ATOM     84  C   UNL     1       1.207   6.708 -14.016  1.00  0.00     0.012 A 
ATOM     85  C   UNL     1       2.841   5.631 -15.463  1.00  0.00     0.148 A 
ATOM     86  C   UNL     1       0.315   6.808 -15.083  1.00  0.00     0.002 A 
ATOM     87  C   UNL     1       1.965   5.774 -16.532  1.00  0.00     0.091 A 
ATOM     88  F   UNL     1       4.035   5.038 -15.600  1.00  0.00    -0.205 F 
ATOM     89  C   UNL     1       0.699   6.351 -16.342  1.00  0.00     0.022 A 
BRANCH  87  90
ATOM     90  S   UNL     1       2.396   5.287 -18.206  1.00  0.00     0.127 S 
ATOM     91  O   UNL     1       1.546   4.113 -18.399  1.00  0.00    -0.237 OA
ATOM     92  O   UNL     1       1.998   6.463 -18.980  1.00  0.00    -0.237 OA
ATOM     93  O   UNL     1       3.829   5.026 -18.192  1.00  0.00    -0.744 OA
ENDBRANCH  87  90
ENDBRANCH  69  83
BRANCH  70  94
ATOM     94  C   UNL     1       8.677   4.991  -6.453  1.00  0.00     0.023 A 
ATOM     95  C   UNL     1       8.912   6.041  -5.544  1.00  0.00     0.012 A 
ATOM     96  C   UNL     1       9.360   3.771  -6.284  1.00  0.00     0.148 A 
ATOM     97  C   UNL     1       9.832   5.890  -4.505  1.00  0.00     0.002 A 
ATOM     98  C   UNL     1      10.233   3.608  -5.215  1.00  0.00     0.091 A 
ATOM     99  F   UNL     1       9.138   2.792  -7.171  1.00  0.00    -0.205 F 
ATOM    100  C   UNL     1      10.484   4.672  -4.334  1.00  0.00     0.022 A 
BRANCH  98 101
ATOM    101  S   UNL     1      11.023   2.038  -4.847  1.00  0.00     0.127 S 
ATOM    102  O   UNL     1      12.420   2.324  -5.161  1.00  0.00    -0.237 OA
ATOM    103  O   UNL     1      10.731   1.882  -3.421  1.00  0.00    -0.237 OA
ATOM    104  O   UNL     1      10.369   1.058  -5.704  1.00  0.00    -0.744 OA
ENDBRANCH  98 101
ENDBRANCH  70  94
BRANCH  82 105
ATOM    105  C   UNL     1       8.651   9.145 -12.074  1.00  0.00     0.023 A 
ATOM    106  C   UNL     1       9.881   8.758 -12.642  1.00  0.00     0.012 A 
ATOM    107  C   UNL     1       8.291  10.508 -12.070  1.00  0.00     0.148 A 
ATOM    108  C   UNL     1      10.750   9.714 -13.169  1.00  0.00     0.002 A 
ATOM    109  C   UNL     1       9.139  11.449 -12.641  1.00  0.00     0.091 A 
ATOM    110  F   UNL     1       7.123  10.858 -11.511  1.00  0.00    -0.205 F 
ATOM    111  C   UNL     1      10.375  11.055 -13.180  1.00  0.00     0.022 A 
BRANCH 109 112
ATOM    112  S   UNL     1       8.694  13.183 -12.788  1.00  0.00     0.127 S 
ATOM    113  O   UNL     1       9.557  13.799 -11.781  1.00  0.00    -0.237 OA
ATOM    114  O   UNL     1       9.062  13.483 -14.172  1.00  0.00    -0.237 OA
ATOM    115  O   UNL     1       7.265  13.255 -12.515  1.00  0.00    -0.744 OA
ENDBRANCH 109 112
ENDBRANCH  82 105
ENDBRANCH  56  57
ENDBRANCH  49  51
ENDBRANCH  48  49
ENDBRANCH  47  48
ENDBRANCH  46  47
ENDBRANCH  45  46
ENDBRANCH  44  45
ENDBRANCH  43  44
ENDBRANCH  42  43
ENDBRANCH  41  42
ENDBRANCH   1  41
TORSDOF 33
