REMARK SMILES Cc1ccc(-c2ncc(C(=O)OCCOCCOCCOC(=O)c3ccc(-c4c5nc(c(-c6cccc(S(=O)(=O)[O-])c6F)c6ccc([nH]6)c(-c6cccc(S(=O)(=O)[O-])c6F)c6nc(c(-c7cccc(S(=O)(=O)[O-])c7F)c7ccc4[nH]7)C=C6)C=C5)cc3)c(Nc3ccccc3)n2)cc1
REMARK SMILES IDX 17 1 16 2 15 3 14 4 13 5 12 6 10 7 11 8 9 9 6 10 7 11 95 12
REMARK SMILES IDX 8 13 87 14 5 15 1 16 2 17 3 18 97 19 4 20 96 21 88 22 89 24
REMARK SMILES IDX 90 25 94 26 91 27 93 28 92 29 18 30 19 31 20 32 21 33 22 34
REMARK SMILES IDX 23 35 24 36 25 37 86 38 26 39 85 40 27 41 28 42 29 43 79 44
REMARK SMILES IDX 30 45 84 46 78 47 80 48 31 49 83 50 77 51 76 52 32 54 64 55
REMARK SMILES IDX 44 56 63 57 45 58 48 59 62 60 81 61 46 62 47 63 61 65 82 66
REMARK SMILES IDX 49 67 33 68 34 69 42 70 35 71 37 72 43 73 36 74 38 75 39 76
REMARK SMILES IDX 40 77 41 78 65 79 66 80 74 81 67 82 69 83 75 84 68 85 70 86
REMARK SMILES IDX 71 87 72 88 73 89 50 90 51 91 59 92 52 93 54 94 60 95 53 96
REMARK SMILES IDX 55 97 56 98 57 99 58 100
REMARK H PARENT 88 23 80 53 48 64
REMARK Flexibility Score: inf
ROOT
ATOM      1  C   UNL     1     -10.965   3.111   1.815  1.00  0.00     0.188 C 
ENDROOT
BRANCH   1   2
ATOM      2  C   UNL     1     -10.940   1.785   1.027  1.00  0.00     0.188 C 
BRANCH   2   3
ATOM      3  O   UNL     1     -10.807   0.473   1.619  1.00  0.00    -0.376 OA
BRANCH   3   4
ATOM      4  C   UNL     1     -10.033   0.106   2.776  1.00  0.00     0.202 C 
BRANCH   4   5
ATOM      5  C   UNL     1      -8.486  -0.709   2.878  1.00  0.00     0.261 C 
BRANCH   5   6
ATOM      6  O   UNL     1      -6.862  -0.286   2.292  1.00  0.00    -0.460 OA
BRANCH   6   7
ATOM      7  C   UNL     1      -6.031  -0.382   1.070  1.00  0.00     0.343 C 
ATOM      8  O   UNL     1      -6.304  -0.912  -0.008  1.00  0.00    -0.246 OA
BRANCH   7   9
ATOM      9  C   UNL     1      -4.654   0.064   0.934  1.00  0.00     0.121 A 
ATOM     10  C   UNL     1      -1.991   0.161   0.730  1.00  0.00     0.161 A 
ATOM     11  N   UNL     1      -2.493  -0.203   1.922  1.00  0.00    -0.236 NA
ATOM     12  N   UNL     1      -2.685   0.503  -0.352  1.00  0.00    -0.210 NA
ATOM     13  C   UNL     1      -3.835  -0.238   1.993  1.00  0.00     0.133 A 
ATOM     14  C   UNL     1      -4.017   0.383  -0.308  1.00  0.00     0.149 A 
BRANCH  10  15
ATOM     15  C   UNL     1      -0.561   0.120   0.527  1.00  0.00     0.019 A 
ATOM     16  C   UNL     1       3.684   0.042  -0.094  1.00  0.00     0.044 C 
ATOM     17  C   UNL     1       2.200   0.072   0.084  1.00  0.00    -0.051 A 
ATOM     18  C   UNL     1       1.495  -1.125   0.254  1.00  0.00     0.004 A 
ATOM     19  C   UNL     1       1.510   1.289   0.073  1.00  0.00     0.004 A 
ATOM     20  C   UNL     1       0.121  -1.101   0.477  1.00  0.00     0.012 A 
ATOM     21  C   UNL     1       0.136   1.309   0.282  1.00  0.00     0.012 A 
ENDBRANCH  10  15
BRANCH  14  22
ATOM     22  N   UNL     1      -4.614   0.490  -1.583  1.00  0.00    -0.339 N 
ATOM     23  H   UNL     1      -5.574   0.276  -1.633  1.00  0.00     0.168 HD
BRANCH  22  24
ATOM     24  C   UNL     1      -3.987   0.872  -2.806  1.00  0.00     0.040 A 
ATOM     25  C   UNL     1      -3.989   2.213  -3.204  1.00  0.00     0.026 A 
ATOM     26  C   UNL     1      -3.489  -0.060  -3.732  1.00  0.00     0.026 A 
ATOM     27  C   UNL     1      -3.529   2.623  -4.467  1.00  0.00     0.002 A 
ATOM     28  C   UNL     1      -2.982   0.349  -4.987  1.00  0.00     0.002 A 
ATOM     29  C   UNL     1      -3.014   1.691  -5.359  1.00  0.00     0.000 A 
ENDBRANCH  22  24
ENDBRANCH  14  22
ENDBRANCH   7   9
ENDBRANCH   6   7
ENDBRANCH   5   6
ENDBRANCH   4   5
ENDBRANCH   3   4
ENDBRANCH   2   3
ENDBRANCH   1   2
BRANCH   1  30
ATOM     30  O   UNL     1     -10.160   3.087   2.980  1.00  0.00    -0.376 OA
BRANCH  30  31
ATOM     31  C   UNL     1     -10.118   4.297   3.727  1.00  0.00     0.202 C 
BRANCH  31  32
ATOM     32  C   UNL     1      -9.300   5.451   3.098  1.00  0.00     0.261 C 
BRANCH  32  33
ATOM     33  O   UNL     1      -7.896   5.142   2.942  1.00  0.00    -0.460 OA
BRANCH  33  34
ATOM     34  C   UNL     1      -7.402   5.159   1.652  1.00  0.00     0.338 C 
ATOM     35  O   UNL     1      -7.105   6.191   1.073  1.00  0.00    -0.246 OA
BRANCH  34  36
ATOM     36  C   UNL     1      -7.308   3.764   1.119  1.00  0.00     0.060 A 
ATOM     37  C   UNL     1      -7.305   3.304  -0.203  1.00  0.00     0.016 A 
ATOM     38  C   UNL     1      -7.447   2.805   2.046  1.00  0.00     0.016 A 
ATOM     39  C   UNL     1      -7.649   1.919  -0.579  1.00  0.00     0.010 A 
ATOM     40  C   UNL     1      -7.993   1.604   1.621  1.00  0.00     0.010 A 
ATOM     41  C   UNL     1      -8.097   0.972   0.346  1.00  0.00    -0.014 A 
BRANCH  41  42
ATOM     42  C   UNL     1      -8.692  -0.619   0.057  1.00  0.00     0.031 A 
ATOM     43  C   UNL     1      -8.142  -2.251   0.534  1.00  0.00     0.074 A 
ATOM     44  C   UNL     1      -9.739  -0.716  -0.795  1.00  0.00     0.049 A 
ATOM     45  N   UNL     1      -8.463  -3.386  -0.072  1.00  0.00    -0.248 NA
ATOM     46  C   UNL     1      -7.176  -2.673   1.630  1.00  0.00     0.031 C 
ATOM     47  C   UNL     1     -10.605  -1.876  -0.959  1.00  0.00     0.029 A 
ATOM     48  N   UNL     1     -10.157   0.162  -1.797  1.00  0.00    -0.354 N 
ATOM     49  C   UNL     1      -7.942  -4.490   0.653  1.00  0.00     0.074 A 
ATOM     50  C   UNL     1      -7.081  -3.980   1.626  1.00  0.00     0.031 C 
ATOM     51  C   UNL     1     -11.213  -1.787  -2.144  1.00  0.00     0.029 A 
ATOM     52  C   UNL     1     -10.687  -0.621  -2.824  1.00  0.00     0.049 A 
ATOM     53  H   UNL     1     -10.090   1.144  -1.783  1.00  0.00     0.167 HD
ATOM     54  C   UNL     1      -8.341  -5.786   0.535  1.00  0.00     0.034 A 
ATOM     55  C   UNL     1     -10.308  -0.565  -4.126  1.00  0.00     0.034 A 
ATOM     56  C   UNL     1      -9.161  -5.914  -0.640  1.00  0.00     0.049 A 
ATOM     57  C   UNL     1      -9.890  -1.908  -4.700  1.00  0.00     0.074 A 
ATOM     58  C   UNL     1     -10.518  -5.819  -0.869  1.00  0.00     0.029 A 
ATOM     59  N   UNL     1      -8.531  -5.787  -1.861  1.00  0.00    -0.354 N 
ATOM     60  N   UNL     1      -9.920  -3.036  -4.039  1.00  0.00    -0.248 NA
ATOM     61  C   UNL     1      -9.358  -2.095  -6.048  1.00  0.00     0.031 C 
ATOM     62  C   UNL     1     -10.692  -5.516  -2.248  1.00  0.00     0.029 A 
ATOM     63  C   UNL     1      -9.445  -5.479  -2.852  1.00  0.00     0.049 A 
ATOM     64  H   UNL     1      -7.564  -5.900  -2.007  1.00  0.00     0.167 HD
ATOM     65  C   UNL     1      -9.290  -4.026  -4.754  1.00  0.00     0.074 A 
ATOM     66  C   UNL     1      -9.043  -3.404  -6.043  1.00  0.00     0.031 C 
ATOM     67  C   UNL     1      -8.954  -5.237  -4.203  1.00  0.00     0.034 A 
BRANCH  54  68
ATOM     68  C   UNL     1      -8.256  -6.804   1.699  1.00  0.00     0.023 A 
ATOM     69  C   UNL     1      -9.309  -7.736   1.793  1.00  0.00     0.012 A 
ATOM     70  C   UNL     1      -7.341  -6.830   2.791  1.00  0.00     0.148 A 
ATOM     71  C   UNL     1      -9.537  -8.511   2.943  1.00  0.00     0.002 A 
ATOM     72  C   UNL     1      -7.633  -7.507   3.986  1.00  0.00     0.091 A 
ATOM     73  F   UNL     1      -6.112  -6.315   2.656  1.00  0.00    -0.205 F 
ATOM     74  C   UNL     1      -8.739  -8.349   4.066  1.00  0.00     0.022 A 
BRANCH  72  75
ATOM     75  S   UNL     1      -6.724  -7.174   5.516  1.00  0.00     0.127 S 
ATOM     76  O   UNL     1      -7.782  -7.200   6.532  1.00  0.00    -0.237 OA
ATOM     77  O   UNL     1      -5.789  -8.292   5.593  1.00  0.00    -0.237 OA
ATOM     78  O   UNL     1      -6.133  -5.853   5.327  1.00  0.00    -0.744 OA
ENDBRANCH  72  75
ENDBRANCH  54  68
BRANCH  55  79
ATOM     79  C   UNL     1     -10.073   0.810  -4.653  1.00  0.00     0.023 A 
ATOM     80  C   UNL     1     -11.237   1.505  -5.057  1.00  0.00     0.012 A 
ATOM     81  C   UNL     1      -8.912   1.563  -4.384  1.00  0.00     0.148 A 
ATOM     82  C   UNL     1     -11.273   2.901  -5.128  1.00  0.00     0.002 A 
ATOM     83  C   UNL     1      -8.968   2.963  -4.431  1.00  0.00     0.091 A 
ATOM     84  F   UNL     1      -7.826   0.911  -3.946  1.00  0.00    -0.205 F 
ATOM     85  C   UNL     1     -10.145   3.629  -4.792  1.00  0.00     0.022 A 
BRANCH  83  86
ATOM     86  S   UNL     1      -7.675   4.039  -3.813  1.00  0.00     0.127 S 
ATOM     87  O   UNL     1      -7.257   4.767  -5.006  1.00  0.00    -0.237 OA
ATOM     88  O   UNL     1      -8.401   4.836  -2.824  1.00  0.00    -0.237 OA
ATOM     89  O   UNL     1      -6.692   3.136  -3.252  1.00  0.00    -0.744 OA
ENDBRANCH  83  86
ENDBRANCH  55  79
BRANCH  67  90
ATOM     90  C   UNL     1      -8.046  -6.297  -4.824  1.00  0.00     0.023 A 
ATOM     91  C   UNL     1      -7.088  -5.993  -5.807  1.00  0.00     0.012 A 
ATOM     92  C   UNL     1      -7.989  -7.611  -4.277  1.00  0.00     0.148 A 
ATOM     93  C   UNL     1      -6.153  -6.940  -6.249  1.00  0.00     0.002 A 
ATOM     94  C   UNL     1      -6.974  -8.501  -4.623  1.00  0.00     0.091 A 
ATOM     95  F   UNL     1      -8.921  -8.016  -3.400  1.00  0.00    -0.205 F 
ATOM     96  C   UNL     1      -6.073  -8.183  -5.636  1.00  0.00     0.022 A 
BRANCH  94  97
ATOM     97  S   UNL     1      -6.692  -9.970  -3.619  1.00  0.00     0.127 S 
ATOM     98  O   UNL     1      -7.715 -10.890  -4.108  1.00  0.00    -0.237 OA
ATOM     99  O   UNL     1      -5.321 -10.347  -3.969  1.00  0.00    -0.237 OA
ATOM    100  O   UNL     1      -6.845  -9.486  -2.252  1.00  0.00    -0.744 OA
ENDBRANCH  94  97
ENDBRANCH  67  90
ENDBRANCH  41  42
ENDBRANCH  34  36
ENDBRANCH  33  34
ENDBRANCH  32  33
ENDBRANCH  31  32
ENDBRANCH  30  31
ENDBRANCH   1  30
TORSDOF 23
