REMARK SMILES CC1(C)Cc2c(c(N3CCOCC3)nc3sc(C(=O)OCCOCCOCCOC(=O)c4ccc(-c5c6nc(c(-c7cccc(S(=O)(=O)[O-])c7F)c7ccc([nH]7)c(-c7cccc(S(=O)(=O)[O-])c7F)c7nc(c(-c8cccc(S(=O)(=O)[O-])c8F)c8ccc5[nH]8)C=C7)C=C6)cc4)c(N)c23)CS1
REMARK SMILES IDX 25 1 24 2 23 3 22 4 21 5 20 6 18 7 19 8 17 9 1 10 2 11 3 12
REMARK SMILES IDX 4 13 99 14 5 15 98 16 6 17 97 18 7 19 15 20 95 21 14 22
REMARK SMILES IDX 16 23 8 24 9 25 13 26 10 27 12 28 11 29 96 30 26 33 27 34
REMARK SMILES IDX 28 35 29 36 30 37 31 38 32 39 33 40 94 41 34 42 93 43 35 44
REMARK SMILES IDX 36 45 37 46 87 47 38 48 92 49 86 50 88 51 39 52 91 53 85 54
REMARK SMILES IDX 84 55 40 57 72 58 52 59 71 60 53 61 56 62 70 63 89 64 54 65
REMARK SMILES IDX 55 66 69 68 90 69 57 70 41 71 42 72 50 73 43 74 45 75 51 76
REMARK SMILES IDX 44 77 46 78 47 79 48 80 49 81 73 82 74 83 82 84 75 85 77 86
REMARK SMILES IDX 83 87 76 88 78 89 79 90 80 91 81 92 58 93 59 94 67 95 60 96
REMARK SMILES IDX 62 97 68 98 61 99 63 100 64 101 65 102 66 103
REMARK H PARENT 96 31 96 32 88 56 56 67
REMARK Flexibility Score: inf
ROOT
ATOM      1  C   UNL     1      -2.997  -2.927  -7.247  1.00  0.00     0.188 C 
ENDROOT
BRANCH   1   2
ATOM      2  C   UNL     1      -3.194  -3.971  -6.123  1.00  0.00     0.188 C 
BRANCH   2   3
ATOM      3  O   UNL     1      -4.280  -4.887  -6.090  1.00  0.00    -0.376 OA
BRANCH   3   4
ATOM      4  C   UNL     1      -5.489  -4.598  -6.766  1.00  0.00     0.202 C 
BRANCH   4   5
ATOM      5  C   UNL     1      -6.327  -3.419  -6.250  1.00  0.00     0.261 C 
BRANCH   5   6
ATOM      6  O   UNL     1      -5.589  -2.205  -6.024  1.00  0.00    -0.459 OA
BRANCH   6   7
ATOM      7  C   UNL     1      -5.350  -1.893  -4.715  1.00  0.00     0.350 C 
ATOM      8  O   UNL     1      -5.823  -2.505  -3.764  1.00  0.00    -0.245 OA
BRANCH   7   9
ATOM      9  C   UNL     1      -4.342  -0.854  -4.591  1.00  0.00     0.138 A 
ATOM     10  C   UNL     1       0.885  -0.332  -0.040  1.00  0.00     0.023 C 
ATOM     11  C   UNL     1       0.595   0.499  -1.300  1.00  0.00     0.015 C 
ATOM     12  C   UNL     1       1.794   0.377  -2.253  1.00  0.00     0.023 C 
ATOM     13  C   UNL     1      -0.714   0.013  -1.948  1.00  0.00     0.054 C 
ATOM     14  S   UNL     1       0.341   2.221  -0.758  1.00  0.00    -0.150 SA
ATOM     15  C   UNL     1      -1.366   0.858  -3.026  1.00  0.00    -0.027 A 
ATOM     16  C   UNL     1       0.004   2.939  -2.377  1.00  0.00     0.109 C 
ATOM     17  C   UNL     1      -0.968   2.199  -3.274  1.00  0.00     0.009 A 
ATOM     18  C   UNL     1      -2.487   0.368  -3.768  1.00  0.00     0.039 A 
ATOM     19  C   UNL     1      -1.541   2.910  -4.353  1.00  0.00     0.134 A 
ATOM     20  C   UNL     1      -2.991   1.198  -4.763  1.00  0.00     0.128 A 
ATOM     21  C   UNL     1      -3.294  -0.831  -3.688  1.00  0.00     0.067 A 
ATOM     22  N   UNL     1      -2.541   2.419  -5.102  1.00  0.00    -0.220 NA
ATOM     23  S   UNL     1      -4.340   0.538  -5.576  1.00  0.00    -0.106 S 
BRANCH  19  24
ATOM     24  N   UNL     1      -1.148   4.214  -4.607  1.00  0.00    -0.352 N 
ATOM     25  C   UNL     1       0.190   4.505  -5.141  1.00  0.00     0.146 C 
ATOM     26  C   UNL     1      -2.159   5.164  -5.082  1.00  0.00     0.146 C 
ATOM     27  C   UNL     1       0.571   5.925  -4.686  1.00  0.00     0.181 C 
ATOM     28  C   UNL     1      -1.712   6.575  -4.657  1.00  0.00     0.181 C 
ATOM     29  O   UNL     1      -0.392   6.897  -5.140  1.00  0.00    -0.378 OA
ENDBRANCH  19  24
BRANCH  21  30
ATOM     30  N   UNL     1      -3.092  -1.849  -2.819  1.00  0.00    -0.397 N 
ATOM     31  H   UNL     1      -3.690  -2.631  -2.831  1.00  0.00     0.156 HD
ATOM     32  H   UNL     1      -2.349  -1.807  -2.175  1.00  0.00     0.156 HD
ENDBRANCH  21  30
ENDBRANCH   7   9
ENDBRANCH   6   7
ENDBRANCH   5   6
ENDBRANCH   4   5
ENDBRANCH   3   4
ENDBRANCH   2   3
ENDBRANCH   1   2
BRANCH   1  33
ATOM     33  O   UNL     1      -3.884  -3.017  -8.353  1.00  0.00    -0.376 OA
BRANCH  33  34
ATOM     34  C   UNL     1      -3.266  -3.250  -9.615  1.00  0.00     0.202 C 
BRANCH  34  35
ATOM     35  C   UNL     1      -2.922  -4.721  -9.848  1.00  0.00     0.261 C 
BRANCH  35  36
ATOM     36  O   UNL     1      -2.105  -5.287  -8.826  1.00  0.00    -0.460 OA
BRANCH  36  37
ATOM     37  C   UNL     1      -0.857  -4.785  -8.723  1.00  0.00     0.338 C 
ATOM     38  O   UNL     1      -0.396  -3.836  -9.331  1.00  0.00    -0.246 OA
BRANCH  37  39
ATOM     39  C   UNL     1      -0.108  -5.574  -7.734  1.00  0.00     0.060 A 
ATOM     40  C   UNL     1       1.083  -5.031  -7.239  1.00  0.00     0.016 A 
ATOM     41  C   UNL     1      -0.470  -6.905  -7.486  1.00  0.00     0.016 A 
ATOM     42  C   UNL     1       2.016  -5.881  -6.678  1.00  0.00     0.010 A 
ATOM     43  C   UNL     1       0.464  -7.755  -6.933  1.00  0.00     0.010 A 
ATOM     44  C   UNL     1       1.733  -7.250  -6.640  1.00  0.00    -0.014 A 
BRANCH  44  45
ATOM     45  C   UNL     1       2.862  -8.165  -6.609  1.00  0.00     0.031 A 
ATOM     46  C   UNL     1       3.337  -8.683  -5.312  1.00  0.00     0.074 A 
ATOM     47  C   UNL     1       3.344  -8.647  -7.774  1.00  0.00     0.049 A 
ATOM     48  N   UNL     1       4.544  -8.650  -4.848  1.00  0.00    -0.248 NA
ATOM     49  C   UNL     1       2.352  -9.299  -4.417  1.00  0.00     0.031 C 
ATOM     50  C   UNL     1       2.756  -8.480  -9.110  1.00  0.00     0.029 A 
ATOM     51  N   UNL     1       4.364  -9.525  -7.985  1.00  0.00    -0.354 N 
ATOM     52  C   UNL     1       4.510  -9.378  -3.664  1.00  0.00     0.074 A 
ATOM     53  C   UNL     1       3.123  -9.672  -3.396  1.00  0.00     0.031 C 
ATOM     54  C   UNL     1       3.266  -9.419  -9.933  1.00  0.00     0.029 A 
ATOM     55  C   UNL     1       4.291 -10.157  -9.218  1.00  0.00     0.049 A 
ATOM     56  H   UNL     1       5.080  -9.694  -7.330  1.00  0.00     0.167 HD
ATOM     57  C   UNL     1       5.628  -9.833  -3.040  1.00  0.00     0.034 A 
ATOM     58  C   UNL     1       4.961 -11.268  -9.599  1.00  0.00     0.034 A 
ATOM     59  C   UNL     1       6.837  -9.249  -3.540  1.00  0.00     0.049 A 
ATOM     60  C   UNL     1       6.123 -11.431  -8.698  1.00  0.00     0.074 A 
ATOM     61  C   UNL     1       7.373  -7.978  -3.560  1.00  0.00     0.029 A 
ATOM     62  N   UNL     1       7.576  -9.989  -4.428  1.00  0.00    -0.354 N 
ATOM     63  N   UNL     1       7.160 -10.640  -8.688  1.00  0.00    -0.248 NA
ATOM     64  C   UNL     1       6.000 -12.309  -7.546  1.00  0.00     0.031 C 
ATOM     65  C   UNL     1       8.148  -7.910  -4.753  1.00  0.00     0.029 A 
ATOM     66  C   UNL     1       8.029  -9.140  -5.407  1.00  0.00     0.049 A 
ATOM     67  H   UNL     1       7.751 -10.957  -4.373  1.00  0.00     0.167 HD
ATOM     68  C   UNL     1       7.568 -10.612  -7.361  1.00  0.00     0.074 A 
ATOM     69  C   UNL     1       6.934 -11.776  -6.753  1.00  0.00     0.031 C 
ATOM     70  C   UNL     1       8.130  -9.490  -6.813  1.00  0.00     0.034 A 
BRANCH  57  71
ATOM     71  C   UNL     1       5.620 -10.977  -2.075  1.00  0.00     0.023 A 
ATOM     72  C   UNL     1       6.610 -11.042  -1.077  1.00  0.00     0.012 A 
ATOM     73  C   UNL     1       4.749 -12.079  -2.204  1.00  0.00     0.148 A 
ATOM     74  C   UNL     1       6.696 -12.140  -0.214  1.00  0.00     0.002 A 
ATOM     75  C   UNL     1       4.779 -13.123  -1.288  1.00  0.00     0.091 A 
ATOM     76  F   UNL     1       3.943 -12.164  -3.272  1.00  0.00    -0.205 F 
ATOM     77  C   UNL     1       5.761 -13.168  -0.298  1.00  0.00     0.022 A 
BRANCH  75  78
ATOM     78  S   UNL     1       3.487 -14.368  -1.309  1.00  0.00     0.127 S 
ATOM     79  O   UNL     1       4.034 -15.360  -2.228  1.00  0.00    -0.237 OA
ATOM     80  O   UNL     1       3.429 -14.789   0.092  1.00  0.00    -0.237 OA
ATOM     81  O   UNL     1       2.303 -13.642  -1.755  1.00  0.00    -0.744 OA
ENDBRANCH  75  78
ENDBRANCH  57  71
BRANCH  58  82
ATOM     82  C   UNL     1       4.565 -12.287 -10.594  1.00  0.00     0.023 A 
ATOM     83  C   UNL     1       5.550 -13.078 -11.213  1.00  0.00     0.012 A 
ATOM     84  C   UNL     1       3.209 -12.638 -10.790  1.00  0.00     0.148 A 
ATOM     85  C   UNL     1       5.198 -14.185 -11.994  1.00  0.00     0.002 A 
ATOM     86  C   UNL     1       2.863 -13.723 -11.589  1.00  0.00     0.091 A 
ATOM     87  F   UNL     1       2.259 -11.969 -10.122  1.00  0.00    -0.205 F 
ATOM     88  C   UNL     1       3.857 -14.506 -12.186  1.00  0.00     0.022 A 
BRANCH  86  89
ATOM     89  S   UNL     1       1.144 -14.162 -11.880  1.00  0.00     0.127 S 
ATOM     90  O   UNL     1       1.167 -14.612 -13.273  1.00  0.00    -0.237 OA
ATOM     91  O   UNL     1       0.930 -15.221 -10.899  1.00  0.00    -0.237 OA
ATOM     92  O   UNL     1       0.393 -12.930 -11.670  1.00  0.00    -0.744 OA
ENDBRANCH  86  89
ENDBRANCH  58  82
BRANCH  70  93
ATOM     93  C   UNL     1       8.552  -8.377  -7.755  1.00  0.00     0.023 A 
ATOM     94  C   UNL     1       7.616  -7.747  -8.604  1.00  0.00     0.012 A 
ATOM     95  C   UNL     1       9.845  -7.828  -7.668  1.00  0.00     0.148 A 
ATOM     96  C   UNL     1       7.962  -6.635  -9.374  1.00  0.00     0.002 A 
ATOM     97  C   UNL     1      10.172  -6.684  -8.396  1.00  0.00     0.091 A 
ATOM     98  F   UNL     1      10.736  -8.413  -6.852  1.00  0.00    -0.205 F 
ATOM     99  C   UNL     1       9.237  -6.095  -9.260  1.00  0.00     0.022 A 
BRANCH  97 100
ATOM    100  S   UNL     1      11.747  -5.848  -8.171  1.00  0.00     0.127 S 
ATOM    101  O   UNL     1      12.551  -6.402  -9.257  1.00  0.00    -0.237 OA
ATOM    102  O   UNL     1      11.391  -4.436  -8.334  1.00  0.00    -0.237 OA
ATOM    103  O   UNL     1      12.176  -6.192  -6.820  1.00  0.00    -0.744 OA
ENDBRANCH  97 100
ENDBRANCH  70  93
ENDBRANCH  44  45
ENDBRANCH  37  39
ENDBRANCH  36  37
ENDBRANCH  35  36
ENDBRANCH  34  35
ENDBRANCH  33  34
ENDBRANCH   1  33
TORSDOF 22
