REMARK SMILES N#CC1=C(N)N2C(=O)[C@@H](CC(=O)OCCOCCOCCOC(=O)c3ccc(-c4c5nc(c(-c6cccc(S(=O)(=O)[O-])c6F)c6ccc([nH]6)c(-c6cccc(S(=O)(=O)[O-])c6F)c6nc(c(-c7cccc(S(=O)(=O)[O-])c7F)c7ccc4[nH]7)C=C6)C=C5)cc3)SC2=C(C#N)[C@H]1c1ccc(Cl)cc1
REMARK SMILES IDX 18 1 17 2 16 3 15 4 14 5 13 6 11 7 12 8 10 9 9 10 3 11 4 12
REMARK SMILES IDX 93 13 6 14 90 15 7 16 89 17 8 18 88 19 2 20 1 21 5 22 94 25
REMARK SMILES IDX 95 26 100 27 96 28 99 29 97 30 98 31 91 32 92 33 19 34 20 35
REMARK SMILES IDX 21 36 22 37 23 38 24 39 25 40 26 41 87 42 27 43 86 44 28 45
REMARK SMILES IDX 29 46 30 47 80 48 31 49 85 50 79 51 81 52 32 53 84 54 78 55
REMARK SMILES IDX 77 56 33 58 65 59 45 60 64 61 46 62 49 63 63 64 82 65 47 66
REMARK SMILES IDX 48 67 62 69 83 70 50 71 34 72 35 73 43 74 36 75 38 76 44 77
REMARK SMILES IDX 37 78 39 79 40 80 41 81 42 82 66 83 67 84 75 85 68 86 70 87
REMARK SMILES IDX 76 88 69 89 71 90 72 91 73 92 74 93 51 94 52 95 60 96 53 97
REMARK SMILES IDX 55 98 61 99 54 100 56 101 57 102 58 103 59 104
REMARK H PARENT 5 23 5 24 81 57 49 68
REMARK Flexibility Score: inf
ROOT
ATOM      1  C   UNL     1       6.081  -3.394  -1.854  1.00  0.00     0.188 C 
ENDROOT
BRANCH   1   2
ATOM      2  C   UNL     1       6.465  -3.191  -3.333  1.00  0.00     0.188 C 
BRANCH   2   3
ATOM      3  O   UNL     1       6.595  -4.350  -4.126  1.00  0.00    -0.376 OA
BRANCH   3   4
ATOM      4  C   UNL     1       7.256  -5.456  -3.527  1.00  0.00     0.202 C 
BRANCH   4   5
ATOM      5  C   UNL     1       8.597  -5.172  -2.797  1.00  0.00     0.261 C 
BRANCH   5   6
ATOM      6  O   UNL     1       8.528  -4.343  -1.579  1.00  0.00    -0.463 OA
BRANCH   6   7
ATOM      7  C   UNL     1       9.326  -3.246  -1.512  1.00  0.00     0.307 C 
ATOM      8  O   UNL     1      10.238  -3.060  -2.318  1.00  0.00    -0.252 OA
BRANCH   7   9
ATOM      9  C   UNL     1       8.930  -2.077  -0.555  1.00  0.00     0.147 C 
BRANCH   9  10
ATOM     10  C   UNL     1       8.155  -2.024   0.798  1.00  0.00     0.154 C 
ATOM     11  C   UNL     1       3.766  -0.098   0.009  1.00  0.00     0.083 C 
ATOM     12  C   UNL     1       4.423  -1.091   0.715  1.00  0.00     0.126 C 
ATOM     13  C   UNL     1       4.482   1.019  -1.040  1.00  0.00     0.107 C 
ATOM     14  N   UNL     1       5.828  -1.177   0.705  1.00  0.00    -0.258 N 
ATOM     15  C   UNL     1       5.900   1.160   0.258  1.00  0.00     0.073 C 
ATOM     16  C   UNL     1       6.630  -2.313   0.973  1.00  0.00     0.247 C 
ATOM     17  C   UNL     1       6.475   0.022   0.705  1.00  0.00     0.099 C 
ATOM     18  O   UNL     1       6.207  -3.420   1.297  1.00  0.00    -0.273 OA
ATOM     19  S   UNL     1       8.114  -0.181   1.288  1.00  0.00    -0.093 SA
BRANCH  11  20
ATOM     20  C   UNL     1       2.246  -0.098   0.009  1.00  0.00     0.100 C 
ATOM     21  N   UNL     1       0.985  -0.098   0.009  1.00  0.00    -0.193 NA
ENDBRANCH  11  20
BRANCH  12  22
ATOM     22  N   UNL     1       3.738  -2.057   1.407  1.00  0.00    -0.384 N 
ATOM     23  H   UNL     1       2.754  -2.034   1.440  1.00  0.00     0.158 HD
ATOM     24  H   UNL     1       4.230  -2.773   1.870  1.00  0.00     0.158 HD
ENDBRANCH  12  22
BRANCH  13  25
ATOM     25  C   UNL     1       4.549   1.001  -3.233  1.00  0.00    -0.034 A 
ATOM     26  C   UNL     1       5.751   0.617  -4.192  1.00  0.00     0.006 A 
ATOM     27  C   UNL     1       3.483   1.283  -4.334  1.00  0.00     0.006 A 
ATOM     28  C   UNL     1       5.816   0.507  -5.612  1.00  0.00     0.021 A 
ATOM     29  C   UNL     1       3.560   1.161  -5.757  1.00  0.00     0.021 A 
ATOM     30  C   UNL     1       4.713   0.764  -6.382  1.00  0.00     0.041 A 
ATOM     31  Cl  UNL     1       4.767   0.576  -8.081  1.00  0.00    -0.084 Cl
ENDBRANCH  13  25
BRANCH  15  32
ATOM     32  C   UNL     1       6.651   2.446   0.563  1.00  0.00     0.098 C 
ATOM     33  N   UNL     1       7.274   3.513   0.816  1.00  0.00    -0.193 NA
ENDBRANCH  15  32
ENDBRANCH   9  10
ENDBRANCH   7   9
ENDBRANCH   6   7
ENDBRANCH   5   6
ENDBRANCH   4   5
ENDBRANCH   3   4
ENDBRANCH   2   3
ENDBRANCH   1   2
BRANCH   1  34
ATOM     34  O   UNL     1       5.712  -4.684  -1.417  1.00  0.00    -0.376 OA
BRANCH  34  35
ATOM     35  C   UNL     1       4.327  -4.797  -1.114  1.00  0.00     0.202 C 
BRANCH  35  36
ATOM     36  C   UNL     1       3.451  -4.495  -2.341  1.00  0.00     0.261 C 
BRANCH  36  37
ATOM     37  O   UNL     1       3.758  -3.182  -2.906  1.00  0.00    -0.460 OA
BRANCH  37  38
ATOM     38  C   UNL     1       3.314  -2.159  -2.157  1.00  0.00     0.338 C 
ATOM     39  O   UNL     1       2.403  -2.323  -1.354  1.00  0.00    -0.246 OA
BRANCH  38  40
ATOM     40  C   UNL     1       4.011  -0.791  -2.261  1.00  0.00     0.060 A 
ATOM     41  C   UNL     1       5.732  -0.192  -2.038  1.00  0.00     0.016 A 
ATOM     42  C   UNL     1       2.715   0.425  -2.270  1.00  0.00     0.016 A 
ATOM     43  C   UNL     1       6.094   1.660  -2.061  1.00  0.00     0.010 A 
ATOM     44  C   UNL     1       3.030   2.178  -2.177  1.00  0.00     0.010 A 
ATOM     45  C   UNL     1       4.702   2.845  -2.174  1.00  0.00    -0.014 A 
BRANCH  45  46
ATOM     46  C   UNL     1       4.679   4.285  -2.667  1.00  0.00     0.031 A 
ATOM     47  C   UNL     1       3.534   5.236  -2.258  1.00  0.00     0.074 A 
ATOM     48  C   UNL     1       5.381   4.598  -3.781  1.00  0.00     0.049 A 
ATOM     49  N   UNL     1       3.115   6.338  -2.838  1.00  0.00    -0.248 NA
ATOM     50  C   UNL     1       2.708   4.866  -1.087  1.00  0.00     0.031 C 
ATOM     51  C   UNL     1       6.412   3.776  -4.399  1.00  0.00     0.029 A 
ATOM     52  N   UNL     1       5.263   5.651  -4.664  1.00  0.00    -0.354 N 
ATOM     53  C   UNL     1       1.989   6.764  -2.127  1.00  0.00     0.074 A 
ATOM     54  C   UNL     1       1.704   5.731  -1.160  1.00  0.00     0.031 C 
ATOM     55  C   UNL     1       6.746   4.263  -5.599  1.00  0.00     0.029 A 
ATOM     56  C   UNL     1       6.012   5.492  -5.815  1.00  0.00     0.049 A 
ATOM     57  H   UNL     1       4.699   6.439  -4.491  1.00  0.00     0.167 HD
ATOM     58  C   UNL     1       1.306   7.939  -2.199  1.00  0.00     0.034 A 
ATOM     59  C   UNL     1       6.149   6.251  -6.918  1.00  0.00     0.034 A 
ATOM     60  C   UNL     1       1.661   9.001  -3.104  1.00  0.00     0.049 A 
ATOM     61  C   UNL     1       5.484   7.590  -6.928  1.00  0.00     0.074 A 
ATOM     62  C   UNL     1       1.190  10.302  -3.145  1.00  0.00     0.029 A 
ATOM     63  N   UNL     1       2.589   8.881  -4.125  1.00  0.00    -0.354 N 
ATOM     64  N   UNL     1       4.592   8.065  -6.096  1.00  0.00    -0.248 NA
ATOM     65  C   UNL     1       5.927   8.541  -7.955  1.00  0.00     0.031 C 
ATOM     66  C   UNL     1       1.824  10.964  -4.202  1.00  0.00     0.029 A 
ATOM     67  C   UNL     1       2.712  10.084  -4.797  1.00  0.00     0.049 A 
ATOM     68  H   UNL     1       3.087   8.060  -4.342  1.00  0.00     0.167 HD
ATOM     69  C   UNL     1       4.423   9.395  -6.450  1.00  0.00     0.074 A 
ATOM     70  C   UNL     1       5.304   9.646  -7.572  1.00  0.00     0.031 C 
ATOM     71  C   UNL     1       3.616  10.326  -5.889  1.00  0.00     0.034 A 
BRANCH  58  72
ATOM     72  C   UNL     1       0.216   8.215  -1.174  1.00  0.00     0.023 A 
ATOM     73  C   UNL     1       0.574   8.320   0.189  1.00  0.00     0.012 A 
ATOM     74  C   UNL     1      -1.122   8.476  -1.543  1.00  0.00     0.148 A 
ATOM     75  C   UNL     1      -0.377   8.615   1.166  1.00  0.00     0.002 A 
ATOM     76  C   UNL     1      -2.057   8.819  -0.566  1.00  0.00     0.091 A 
ATOM     77  F   UNL     1      -1.456   8.396  -2.838  1.00  0.00    -0.205 F 
ATOM     78  C   UNL     1      -1.690   8.870   0.789  1.00  0.00     0.022 A 
BRANCH  76  79
ATOM     79  S   UNL     1      -3.763   9.253  -0.938  1.00  0.00     0.127 S 
ATOM     80  O   UNL     1      -4.497   8.208  -0.224  1.00  0.00    -0.237 OA
ATOM     81  O   UNL     1      -3.875  10.586  -0.346  1.00  0.00    -0.237 OA
ATOM     82  O   UNL     1      -3.886   9.210  -2.388  1.00  0.00    -0.744 OA
ENDBRANCH  76  79
ENDBRANCH  58  72
BRANCH  59  83
ATOM     83  C   UNL     1       7.109   5.852  -7.990  1.00  0.00     0.023 A 
ATOM     84  C   UNL     1       8.363   6.495  -8.059  1.00  0.00     0.012 A 
ATOM     85  C   UNL     1       6.814   4.826  -8.910  1.00  0.00     0.148 A 
ATOM     86  C   UNL     1       9.278   6.173  -9.060  1.00  0.00     0.002 A 
ATOM     87  C   UNL     1       7.749   4.483  -9.883  1.00  0.00     0.091 A 
ATOM     88  F   UNL     1       5.633   4.203  -8.807  1.00  0.00    -0.205 F 
ATOM     89  C   UNL     1       8.972   5.167  -9.971  1.00  0.00     0.022 A 
BRANCH  87  90
ATOM     90  S   UNL     1       7.500   3.142 -11.053  1.00  0.00     0.127 S 
ATOM     91  O   UNL     1       7.381   3.868 -12.316  1.00  0.00    -0.237 OA
ATOM     92  O   UNL     1       8.738   2.376 -10.899  1.00  0.00    -0.237 OA
ATOM     93  O   UNL     1       6.300   2.450 -10.611  1.00  0.00    -0.744 OA
ENDBRANCH  87  90
ENDBRANCH  59  83
BRANCH  71  94
ATOM     94  C   UNL     1       3.691  11.718  -6.444  1.00  0.00     0.023 A 
ATOM     95  C   UNL     1       3.176  11.999  -7.724  1.00  0.00     0.012 A 
ATOM     96  C   UNL     1       4.239  12.757  -5.668  1.00  0.00     0.148 A 
ATOM     97  C   UNL     1       3.244  13.290  -8.242  1.00  0.00     0.002 A 
ATOM     98  C   UNL     1       4.247  14.051  -6.166  1.00  0.00     0.091 A 
ATOM     99  F   UNL     1       4.745  12.458  -4.463  1.00  0.00    -0.205 F 
ATOM    100  C   UNL     1       3.767  14.317  -7.459  1.00  0.00     0.022 A 
BRANCH  98 101
ATOM    101  S   UNL     1       4.800  15.452  -5.191  1.00  0.00     0.127 S 
ATOM    102  O   UNL     1       6.018  15.845  -5.898  1.00  0.00    -0.237 OA
ATOM    103  O   UNL     1       3.681  16.384  -5.335  1.00  0.00    -0.237 OA
ATOM    104  O   UNL     1       5.002  14.950  -3.838  1.00  0.00    -0.744 OA
ENDBRANCH  98 101
ENDBRANCH  71  94
ENDBRANCH  45  46
ENDBRANCH  38  40
ENDBRANCH  37  38
ENDBRANCH  36  37
ENDBRANCH  35  36
ENDBRANCH  34  35
ENDBRANCH   1  34
TORSDOF 25
