REMARK SMILES CN1C(=O)C[C@@H](C(=O)OCCOCCOCCOC(=O)c2ccc(-c3c4nc(c(-c5cccc(S(=O)(=O)[O-])c5F)c5ccc([nH]5)c(-c5cccc(S(=O)(=O)[O-])c5F)c5nc(c(-c6cccc(S(=O)(=O)[O-])c6F)c6ccc3[nH]6)C=C5)C=C4)cc2)C12CC[NH+](CCSc1ccccc1)CC2
REMARK SMILES IDX 13 1 12 2 11 3 10 4 9 5 7 6 8 7 6 8 1 9 2 10 3 11 84 12 4 13
REMARK SMILES IDX 5 14 85 15 98 16 86 17 97 18 87 19 88 21 89 22 90 23 91 24
REMARK SMILES IDX 92 25 96 26 93 27 95 28 94 29 14 30 15 31 16 32 17 33 18 34
REMARK SMILES IDX 19 35 20 36 21 37 22 38 83 39 23 40 82 41 24 42 25 43 26 44
REMARK SMILES IDX 76 45 27 46 81 47 75 48 77 49 28 50 80 51 74 52 73 53 29 55
REMARK SMILES IDX 61 56 41 57 60 58 42 59 45 60 59 61 78 62 43 63 44 64 58 66
REMARK SMILES IDX 79 67 46 68 30 69 31 70 39 71 32 72 34 73 40 74 33 75 35 76
REMARK SMILES IDX 36 77 37 78 38 79 62 80 63 81 71 82 64 83 66 84 72 85 65 86
REMARK SMILES IDX 67 87 68 88 69 89 70 90 47 91 48 92 56 93 49 94 51 95 57 96
REMARK SMILES IDX 50 97 52 98 53 99 54 100 55 101
REMARK H PARENT 87 20 77 54 45 65
REMARK Flexibility Score: inf
ROOT
ATOM      1  C   UNL     1      -3.384  -2.657   4.977  1.00  0.00     0.188 C 
ENDROOT
BRANCH   1   2
ATOM      2  O   UNL     1      -4.734  -2.223   5.027  1.00  0.00    -0.376 OA
BRANCH   2   3
ATOM      3  C   UNL     1      -5.269  -1.446   3.963  1.00  0.00     0.202 C 
BRANCH   3   4
ATOM      4  C   UNL     1      -4.535  -0.165   3.557  1.00  0.00     0.261 C 
BRANCH   4   5
ATOM      5  O   UNL     1      -3.256  -0.356   2.896  1.00  0.00    -0.463 OA
BRANCH   5   6
ATOM      6  C   UNL     1      -2.221   0.136   3.599  1.00  0.00     0.311 C 
ATOM      7  O   UNL     1      -2.341   0.620   4.728  1.00  0.00    -0.252 OA
BRANCH   6   8
ATOM      8  C   UNL     1      -0.841   0.110   2.996  1.00  0.00     0.134 C 
ATOM      9  C   UNL     1       0.506   0.603  -0.523  1.00  0.00     0.147 C 
ATOM     10  N   UNL     1      -0.117   0.638   0.794  1.00  0.00    -0.339 N 
ATOM     11  C   UNL     1      -0.213   1.859   1.453  1.00  0.00     0.223 C 
ATOM     12  C   UNL     1      -0.198  -0.521   1.713  1.00  0.00     0.067 C 
ATOM     13  O   UNL     1      -0.056   2.957   0.965  1.00  0.00    -0.275 OA
ATOM     14  C   UNL     1      -0.424   1.596   2.914  1.00  0.00     0.118 C 
ATOM     15  C   UNL     1      -0.798  -1.770   1.000  1.00  0.00     0.091 C 
ATOM     16  C   UNL     1       1.229  -0.865   2.183  1.00  0.00     0.091 C 
ATOM     17  C   UNL     1      -0.052  -3.145   1.115  1.00  0.00     0.264 C 
ATOM     18  C   UNL     1       1.244  -2.210   2.878  1.00  0.00     0.264 C 
ATOM     19  N   UNL     1       1.193  -3.199   1.856  1.00  0.00    -0.334 N 
ATOM     20  H   UNL     1       1.110  -4.120   2.286  1.00  0.00     0.348 HD
BRANCH  19  21
ATOM     21  C   UNL     1       2.464  -3.588   1.230  1.00  0.00     0.273 C 
BRANCH  21  22
ATOM     22  C   UNL     1       3.714  -2.634   1.156  1.00  0.00     0.136 C 
BRANCH  22  23
ATOM     23  S   UNL     1       4.910  -2.425   2.580  1.00  0.00    -0.120 SA
BRANCH  23  24
ATOM     24  C   UNL     1       4.199  -1.262   3.747  1.00  0.00     0.007 A 
ATOM     25  C   UNL     1       4.078   0.115   3.520  1.00  0.00     0.015 A 
ATOM     26  C   UNL     1       3.747  -1.771   4.978  1.00  0.00     0.015 A 
ATOM     27  C   UNL     1       3.411   0.933   4.453  1.00  0.00     0.001 A 
ATOM     28  C   UNL     1       3.038  -0.970   5.880  1.00  0.00     0.001 A 
ATOM     29  C   UNL     1       2.856   0.382   5.610  1.00  0.00     0.000 A 
ENDBRANCH  23  24
ENDBRANCH  22  23
ENDBRANCH  21  22
ENDBRANCH  19  21
ENDBRANCH   6   8
ENDBRANCH   5   6
ENDBRANCH   4   5
ENDBRANCH   3   4
ENDBRANCH   2   3
ENDBRANCH   1   2
BRANCH   1  30
ATOM     30  C   UNL     1      -2.836  -3.239   3.668  1.00  0.00     0.188 C 
BRANCH  30  31
ATOM     31  O   UNL     1      -3.819  -3.381   2.658  1.00  0.00    -0.376 OA
BRANCH  31  32
ATOM     32  C   UNL     1      -3.599  -4.369   1.663  1.00  0.00     0.202 C 
BRANCH  32  33
ATOM     33  C   UNL     1      -3.932  -5.779   2.161  1.00  0.00     0.261 C 
BRANCH  33  34
ATOM     34  O   UNL     1      -3.053  -6.248   3.203  1.00  0.00    -0.460 OA
BRANCH  34  35
ATOM     35  C   UNL     1      -1.772  -6.479   2.828  1.00  0.00     0.338 C 
ATOM     36  O   UNL     1      -1.331  -6.435   1.691  1.00  0.00    -0.246 OA
BRANCH  35  37
ATOM     37  C   UNL     1      -0.930  -6.576   4.040  1.00  0.00     0.060 A 
ATOM     38  C   UNL     1       0.030  -5.582   4.259  1.00  0.00     0.016 A 
ATOM     39  C   UNL     1      -1.046  -7.639   4.930  1.00  0.00     0.016 A 
ATOM     40  C   UNL     1       0.915  -5.666   5.333  1.00  0.00     0.010 A 
ATOM     41  C   UNL     1      -0.159  -7.723   6.013  1.00  0.00     0.010 A 
ATOM     42  C   UNL     1       0.852  -6.757   6.203  1.00  0.00    -0.014 A 
BRANCH  42  43
ATOM     43  C   UNL     1       1.929  -6.978   7.207  1.00  0.00     0.031 A 
ATOM     44  C   UNL     1       2.869  -8.142   7.013  1.00  0.00     0.074 A 
ATOM     45  C   UNL     1       2.102  -6.156   8.260  1.00  0.00     0.049 A 
ATOM     46  N   UNL     1       3.756  -8.640   7.833  1.00  0.00    -0.248 NA
ATOM     47  C   UNL     1       2.790  -8.840   5.718  1.00  0.00     0.031 C 
ATOM     48  C   UNL     1       1.314  -4.956   8.542  1.00  0.00     0.029 A 
ATOM     49  N   UNL     1       2.990  -6.225   9.309  1.00  0.00    -0.354 N 
ATOM     50  C   UNL     1       4.303  -9.739   7.179  1.00  0.00     0.074 A 
ATOM     51  C   UNL     1       3.644  -9.837   5.895  1.00  0.00     0.031 C 
ATOM     52  C   UNL     1       1.736  -4.417   9.700  1.00  0.00     0.029 A 
ATOM     53  C   UNL     1       2.782  -5.262  10.270  1.00  0.00     0.049 A 
ATOM     54  H   UNL     1       3.705  -6.899   9.366  1.00  0.00     0.167 HD
ATOM     55  C   UNL     1       5.276 -10.582   7.599  1.00  0.00     0.034 A 
ATOM     56  C   UNL     1       3.337  -5.109  11.491  1.00  0.00     0.034 A 
ATOM     57  C   UNL     1       5.967 -10.458   8.854  1.00  0.00     0.049 A 
ATOM     58  C   UNL     1       4.382  -6.093  11.957  1.00  0.00     0.074 A 
ATOM     59  C   UNL     1       6.960 -11.270   9.373  1.00  0.00     0.029 A 
ATOM     60  N   UNL     1       5.752  -9.449   9.779  1.00  0.00    -0.354 N 
ATOM     61  N   UNL     1       4.901  -7.115  11.320  1.00  0.00    -0.248 NA
ATOM     62  C   UNL     1       4.932  -5.889  13.306  1.00  0.00     0.031 C 
ATOM     63  C   UNL     1       7.339 -10.758  10.618  1.00  0.00     0.029 A 
ATOM     64  C   UNL     1       6.599  -9.612  10.861  1.00  0.00     0.049 A 
ATOM     65  H   UNL     1       5.093  -8.724   9.681  1.00  0.00     0.167 HD
ATOM     66  C   UNL     1       5.863  -7.648  12.174  1.00  0.00     0.074 A 
ATOM     67  C   UNL     1       5.874  -6.820  13.361  1.00  0.00     0.031 C 
ATOM     68  C   UNL     1       6.651  -8.738  12.003  1.00  0.00     0.034 A 
BRANCH  55  69
ATOM     69  C   UNL     1       5.673 -11.706   6.680  1.00  0.00     0.023 A 
ATOM     70  C   UNL     1       6.436 -11.428   5.528  1.00  0.00     0.012 A 
ATOM     71  C   UNL     1       5.348 -13.042   6.990  1.00  0.00     0.148 A 
ATOM     72  C   UNL     1       6.847 -12.459   4.684  1.00  0.00     0.002 A 
ATOM     73  C   UNL     1       5.800 -14.068   6.168  1.00  0.00     0.091 A 
ATOM     74  F   UNL     1       4.607 -13.282   8.080  1.00  0.00    -0.205 F 
ATOM     75  C   UNL     1       6.539 -13.777   5.010  1.00  0.00     0.022 A 
BRANCH  73  76
ATOM     76  S   UNL     1       5.522 -15.803   6.537  1.00  0.00     0.127 S 
ATOM     77  O   UNL     1       4.631 -16.198   5.446  1.00  0.00    -0.237 OA
ATOM     78  O   UNL     1       6.874 -16.355   6.450  1.00  0.00    -0.237 OA
ATOM     79  O   UNL     1       4.930 -15.844   7.867  1.00  0.00    -0.744 OA
ENDBRANCH  73  76
ENDBRANCH  55  69
BRANCH  56  80
ATOM     80  C   UNL     1       2.914  -3.990  12.385  1.00  0.00     0.023 A 
ATOM     81  C   UNL     1       3.840  -2.989  12.737  1.00  0.00     0.012 A 
ATOM     82  C   UNL     1       1.613  -3.935  12.921  1.00  0.00     0.148 A 
ATOM     83  C   UNL     1       3.494  -1.983  13.642  1.00  0.00     0.002 A 
ATOM     84  C   UNL     1       1.255  -2.894  13.771  1.00  0.00     0.091 A 
ATOM     85  F   UNL     1       0.749  -4.909  12.600  1.00  0.00    -0.205 F 
ATOM     86  C   UNL     1       2.200  -1.930  14.151  1.00  0.00     0.022 A 
BRANCH  84  87
ATOM     87  S   UNL     1      -0.428  -2.681  14.360  1.00  0.00     0.127 S 
ATOM     88  O   UNL     1      -0.321  -3.135  15.744  1.00  0.00    -0.237 OA
ATOM     89  O   UNL     1      -0.627  -1.240  14.197  1.00  0.00    -0.237 OA
ATOM     90  O   UNL     1      -1.252  -3.499  13.480  1.00  0.00    -0.744 OA
ENDBRANCH  84  87
ENDBRANCH  56  80
BRANCH  68  91
ATOM     91  C   UNL     1       7.639  -9.067  13.093  1.00  0.00     0.023 A 
ATOM     92  C   UNL     1       7.186  -9.583  14.324  1.00  0.00     0.012 A 
ATOM     93  C   UNL     1       9.024  -8.920  12.874  1.00  0.00     0.148 A 
ATOM     94  C   UNL     1       8.092  -9.908  15.333  1.00  0.00     0.002 A 
ATOM     95  C   UNL     1       9.923  -9.293  13.866  1.00  0.00     0.091 A 
ATOM     96  F   UNL     1       9.436  -8.412  11.704  1.00  0.00    -0.205 F 
ATOM     97  C   UNL     1       9.459  -9.774  15.101  1.00  0.00     0.022 A 
BRANCH  95  98
ATOM     98  S   UNL     1      11.702  -9.246  13.621  1.00  0.00     0.127 S 
ATOM     99  O   UNL     1      12.086  -8.101  14.445  1.00  0.00    -0.237 OA
ATOM    100  O   UNL     1      12.123 -10.545  14.148  1.00  0.00    -0.237 OA
ATOM    101  O   UNL     1      11.905  -9.082  12.188  1.00  0.00    -0.744 OA
ENDBRANCH  95  98
ENDBRANCH  68  91
ENDBRANCH  42  43
ENDBRANCH  35  37
ENDBRANCH  34  35
ENDBRANCH  33  34
ENDBRANCH  32  33
ENDBRANCH  31  32
ENDBRANCH  30  31
ENDBRANCH   1  30
TORSDOF 24
