REMARK SMILES O=C(CCN1C(=O)/C(=C2/C(=O)N(Cc3ccccc3)c3ccccc32)SC1=S)OCCOCCOCCOC(=O)c1ccc(-c2c3nc(c(-c4cccc(S(=O)(=O)[O-])c4F)c4ccc([nH]4)c(-c4cccc(S(=O)(=O)[O-])c4F)c4nc(c(-c5cccc(S(=O)(=O)[O-])c5F)c5ccc2[nH]5)C=C4)C=C3)cc1
REMARK SMILES IDX 33 1 32 2 31 3 30 4 29 5 2 6 1 7 3 8 4 9 5 10 6 11 27 12
REMARK SMILES IDX 7 13 8 14 26 15 28 16 9 17 10 18 25 19 11 20 12 21 20 22
REMARK SMILES IDX 24 23 21 24 23 25 22 26 13 27 14 28 15 29 19 30 16 31 18 32
REMARK SMILES IDX 17 33 34 34 35 35 36 36 37 37 38 38 39 39 40 40 41 41 42 42
REMARK SMILES IDX 103 43 43 44 102 45 44 46 45 47 46 48 96 49 47 50 101 51
REMARK SMILES IDX 95 52 97 53 48 54 100 55 94 56 93 57 49 59 81 60 61 61 80 62
REMARK SMILES IDX 62 63 65 64 79 65 98 66 63 67 64 68 78 70 99 71 66 72 50 73
REMARK SMILES IDX 51 74 59 75 52 76 54 77 60 78 53 79 55 80 56 81 57 82 58 83
REMARK SMILES IDX 82 84 83 85 91 86 84 87 86 88 92 89 85 90 87 91 88 92 89 93
REMARK SMILES IDX 90 94 67 95 68 96 76 97 69 98 71 99 77 100 70 101 72 102
REMARK SMILES IDX 73 103 74 104 75 105
REMARK H PARENT 97 58 65 69
REMARK Flexibility Score: inf
ROOT
ATOM      1  C   UNL     1       2.920  -1.995   0.932  1.00  0.00     0.188 C 
ENDROOT
BRANCH   1   2
ATOM      2  O   UNL     1       4.083  -1.166   0.894  1.00  0.00    -0.376 OA
BRANCH   2   3
ATOM      3  C   UNL     1       4.114  -0.065   1.781  1.00  0.00     0.202 C 
BRANCH   3   4
ATOM      4  C   UNL     1       3.204   1.102   1.406  1.00  0.00     0.261 C 
BRANCH   4   5
ATOM      5  O   UNL     1       2.124   0.755   0.533  1.00  0.00    -0.463 OA
BRANCH   5   6
ATOM      6  C   UNL     1       2.198   1.205  -0.749  1.00  0.00     0.307 C 
ATOM      7  O   UNL     1       1.506   2.135  -1.144  1.00  0.00    -0.252 OA
BRANCH   6   8
ATOM      8  C   UNL     1       2.983   0.308  -1.685  1.00  0.00     0.144 C 
BRANCH   8   9
ATOM      9  C   UNL     1       4.056   1.014  -2.496  1.00  0.00     0.139 C 
BRANCH   9  10
ATOM     10  N   UNL     1       5.275   1.350  -1.750  1.00  0.00    -0.292 N 
ATOM     11  C   UNL     1       5.309   2.559  -1.101  1.00  0.00     0.267 C 
ATOM     12  C   UNL     1       6.402   0.575  -1.612  1.00  0.00     0.148 C 
ATOM     13  O   UNL     1       4.309   3.171  -0.769  1.00  0.00    -0.268 OA
ATOM     14  C   UNL     1       6.686   2.943  -0.725  1.00  0.00     0.093 C 
ATOM     15  S   UNL     1       7.634   1.496  -0.746  1.00  0.00    -0.053 SA
ATOM     16  S   UNL     1       6.655  -0.981  -2.148  1.00  0.00    -0.052 S 
ATOM     17  C   UNL     1       7.086   4.207  -0.501  1.00  0.00     0.069 C 
ATOM     18  C   UNL     1       8.521   4.572  -0.182  1.00  0.00     0.260 C 
ATOM     19  C   UNL     1       6.339   5.489  -0.570  1.00  0.00     0.012 A 
ATOM     20  O   UNL     1       9.471   3.822  -0.039  1.00  0.00    -0.269 OA
ATOM     21  N   UNL     1       8.541   5.961  -0.106  1.00  0.00    -0.303 N 
ATOM     22  C   UNL     1       7.254   6.499  -0.259  1.00  0.00     0.052 A 
ATOM     23  C   UNL     1       5.050   5.863  -0.930  1.00  0.00     0.011 A 
ATOM     24  C   UNL     1       6.885   7.837  -0.185  1.00  0.00     0.027 A 
ATOM     25  C   UNL     1       4.670   7.208  -0.898  1.00  0.00     0.001 A 
ATOM     26  C   UNL     1       5.579   8.191  -0.513  1.00  0.00     0.002 A 
BRANCH  21  27
ATOM     27  C   UNL     1       9.765   6.734  -0.133  1.00  0.00     0.161 C 
BRANCH  27  28
ATOM     28  C   UNL     1      10.191   7.076  -1.552  1.00  0.00    -0.028 A 
ATOM     29  C   UNL     1       9.554   8.093  -2.281  1.00  0.00     0.005 A 
ATOM     30  C   UNL     1      11.204   6.344  -2.188  1.00  0.00     0.005 A 
ATOM     31  C   UNL     1       9.897   8.358  -3.608  1.00  0.00     0.000 A 
ATOM     32  C   UNL     1      11.565   6.626  -3.509  1.00  0.00     0.000 A 
ATOM     33  C   UNL     1      10.907   7.627  -4.221  1.00  0.00     0.000 A 
ENDBRANCH  27  28
ENDBRANCH  21  27
ENDBRANCH   9  10
ENDBRANCH   8   9
ENDBRANCH   6   8
ENDBRANCH   5   6
ENDBRANCH   4   5
ENDBRANCH   3   4
ENDBRANCH   2   3
ENDBRANCH   1   2
BRANCH   1  34
ATOM     34  C   UNL     1       2.417  -2.439   2.307  1.00  0.00     0.188 C 
BRANCH  34  35
ATOM     35  O   UNL     1       3.387  -2.768   3.296  1.00  0.00    -0.376 OA
BRANCH  35  36
ATOM     36  C   UNL     1       4.569  -3.453   2.892  1.00  0.00     0.202 C 
BRANCH  36  37
ATOM     37  C   UNL     1       4.380  -4.912   2.480  1.00  0.00     0.261 C 
BRANCH  37  38
ATOM     38  O   UNL     1       4.057  -5.032   1.084  1.00  0.00    -0.460 OA
BRANCH  38  39
ATOM     39  C   UNL     1       2.800  -5.437   0.781  1.00  0.00     0.338 C 
ATOM     40  O   UNL     1       1.901  -5.688   1.563  1.00  0.00    -0.246 OA
BRANCH  39  41
ATOM     41  C   UNL     1       2.627  -5.387  -0.687  1.00  0.00     0.060 A 
ATOM     42  C   UNL     1       3.587  -5.942  -1.536  1.00  0.00     0.016 A 
ATOM     43  C   UNL     1       1.469  -4.798  -1.212  1.00  0.00     0.016 A 
ATOM     44  C   UNL     1       3.368  -5.941  -2.914  1.00  0.00     0.010 A 
ATOM     45  C   UNL     1       1.254  -4.793  -2.592  1.00  0.00     0.010 A 
ATOM     46  C   UNL     1       2.191  -5.388  -3.449  1.00  0.00    -0.014 A 
BRANCH  46  47
ATOM     47  C   UNL     1       1.875  -5.600  -4.881  1.00  0.00     0.031 A 
ATOM     48  C   UNL     1       2.073  -4.526  -5.904  1.00  0.00     0.074 A 
ATOM     49  C   UNL     1       1.407  -6.809  -5.247  1.00  0.00     0.049 A 
ATOM     50  N   UNL     1       1.940  -4.604  -7.203  1.00  0.00    -0.248 NA
ATOM     51  C   UNL     1       2.469  -3.197  -5.416  1.00  0.00     0.031 C 
ATOM     52  C   UNL     1       1.134  -7.914  -4.325  1.00  0.00     0.029 A 
ATOM     53  N   UNL     1       1.085  -7.313  -6.480  1.00  0.00    -0.354 N 
ATOM     54  C   UNL     1       2.241  -3.342  -7.694  1.00  0.00     0.074 A 
ATOM     55  C   UNL     1       2.539  -2.506  -6.549  1.00  0.00     0.031 C 
ATOM     56  C   UNL     1       0.707  -8.974  -5.028  1.00  0.00     0.029 A 
ATOM     57  C   UNL     1       0.665  -8.621  -6.443  1.00  0.00     0.049 A 
ATOM     58  H   UNL     1       1.150  -6.790  -7.311  1.00  0.00     0.167 HD
ATOM     59  C   UNL     1       2.290  -2.932  -8.983  1.00  0.00     0.034 A 
ATOM     60  C   UNL     1       0.299  -9.452  -7.438  1.00  0.00     0.034 A 
ATOM     61  C   UNL     1       1.997  -3.771 -10.117  1.00  0.00     0.049 A 
ATOM     62  C   UNL     1       0.359  -8.970  -8.857  1.00  0.00     0.074 A 
ATOM     63  C   UNL     1       2.058  -3.447 -11.461  1.00  0.00     0.029 A 
ATOM     64  N   UNL     1       1.582  -5.091 -10.043  1.00  0.00    -0.354 N 
ATOM     65  N   UNL     1       0.758  -7.807  -9.310  1.00  0.00    -0.248 NA
ATOM     66  C   UNL     1      -0.051  -9.918  -9.902  1.00  0.00     0.031 C 
ATOM     67  C   UNL     1       1.669  -4.569 -12.200  1.00  0.00     0.029 A 
ATOM     68  C   UNL     1       1.378  -5.595 -11.316  1.00  0.00     0.049 A 
ATOM     69  H   UNL     1       1.451  -5.596  -9.208  1.00  0.00     0.167 HD
ATOM     70  C   UNL     1       0.662  -7.886 -10.694  1.00  0.00     0.074 A 
ATOM     71  C   UNL     1       0.184  -9.218 -11.005  1.00  0.00     0.031 C 
ATOM     72  C   UNL     1       0.934  -6.932 -11.617  1.00  0.00     0.034 A 
BRANCH  59  73
ATOM     73  C   UNL     1       2.744  -1.525  -9.259  1.00  0.00     0.023 A 
ATOM     74  C   UNL     1       4.123  -1.236  -9.213  1.00  0.00     0.012 A 
ATOM     75  C   UNL     1       1.838  -0.528  -9.668  1.00  0.00     0.148 A 
ATOM     76  C   UNL     1       4.595   0.028  -9.563  1.00  0.00     0.002 A 
ATOM     77  C   UNL     1       2.319   0.723 -10.040  1.00  0.00     0.091 A 
ATOM     78  F   UNL     1       0.531  -0.824  -9.694  1.00  0.00    -0.205 F 
ATOM     79  C   UNL     1       3.695   1.003  -9.985  1.00  0.00     0.022 A 
BRANCH  77  80
ATOM     80  S   UNL     1       1.254   2.039 -10.643  1.00  0.00     0.127 S 
ATOM     81  O   UNL     1       1.398   3.039  -9.585  1.00  0.00    -0.237 OA
ATOM     82  O   UNL     1       1.894   2.394 -11.909  1.00  0.00    -0.237 OA
ATOM     83  O   UNL     1      -0.075   1.458 -10.768  1.00  0.00    -0.744 OA
ENDBRANCH  77  80
ENDBRANCH  59  73
BRANCH  60  84
ATOM     84  C   UNL     1      -0.073 -10.852  -7.106  1.00  0.00     0.023 A 
ATOM     85  C   UNL     1       0.855 -11.883  -7.342  1.00  0.00     0.012 A 
ATOM     86  C   UNL     1      -1.293 -11.148  -6.469  1.00  0.00     0.148 A 
ATOM     87  C   UNL     1       0.572 -13.191  -6.950  1.00  0.00     0.002 A 
ATOM     88  C   UNL     1      -1.552 -12.446  -6.048  1.00  0.00     0.091 A 
ATOM     89  F   UNL     1      -2.154 -10.143  -6.254  1.00  0.00    -0.205 F 
ATOM     90  C   UNL     1      -0.625 -13.471  -6.295  1.00  0.00     0.022 A 
BRANCH  88  91
ATOM     91  S   UNL     1      -3.017 -12.887  -5.106  1.00  0.00     0.127 S 
ATOM     92  O   UNL     1      -3.668 -13.844  -5.998  1.00  0.00    -0.237 OA
ATOM     93  O   UNL     1      -2.429 -13.469  -3.900  1.00  0.00    -0.237 OA
ATOM     94  O   UNL     1      -3.741 -11.642  -4.891  1.00  0.00    -0.744 OA
ENDBRANCH  88  91
ENDBRANCH  60  84
BRANCH  72  95
ATOM     95  C   UNL     1       0.721  -7.279 -13.065  1.00  0.00     0.023 A 
ATOM     96  C   UNL     1      -0.587  -7.286 -13.587  1.00  0.00     0.012 A 
ATOM     97  C   UNL     1       1.815  -7.491 -13.927  1.00  0.00     0.148 A 
ATOM     98  C   UNL     1      -0.805  -7.510 -14.945  1.00  0.00     0.002 A 
ATOM     99  C   UNL     1       1.592  -7.680 -15.286  1.00  0.00     0.091 A 
ATOM    100  F   UNL     1       3.049  -7.490 -13.403  1.00  0.00    -0.205 F 
ATOM    101  C   UNL     1       0.283  -7.695 -15.795  1.00  0.00     0.022 A 
BRANCH  99 102
ATOM    102  S   UNL     1       2.930  -7.857 -16.472  1.00  0.00     0.127 S 
ATOM    103  O   UNL     1       2.767  -9.247 -16.898  1.00  0.00    -0.237 OA
ATOM    104  O   UNL     1       2.577  -6.863 -17.485  1.00  0.00    -0.237 OA
ATOM    105  O   UNL     1       4.158  -7.572 -15.742  1.00  0.00    -0.744 OA
ENDBRANCH  99 102
ENDBRANCH  72  95
ENDBRANCH  46  47
ENDBRANCH  39  41
ENDBRANCH  38  39
ENDBRANCH  37  38
ENDBRANCH  36  37
ENDBRANCH  35  36
ENDBRANCH  34  35
ENDBRANCH   1  34
TORSDOF 24
