REMARK SMILES C[C@@]1(C(=O)c2ccccc2N)[C@H](C(=O)OCCOCCOCCOC(=O)c2ccc(-c3c4nc(c(-c5cccc(S(=O)(=O)[O-])c5F)c5ccc([nH]5)c(-c5cccc(S(=O)(=O)[O-])c5F)c5nc(c(-c6cccc(S(=O)(=O)[O-])c6F)c6ccc3[nH]6)C=C5)C=C4)cc2)[C@@H]1C(=O)N1CCOCC1
REMARK SMILES IDX 19 1 18 2 17 3 16 4 15 5 13 6 14 7 12 8 1 9 2 10 90 11 3 12
REMARK SMILES IDX 4 13 5 14 6 15 10 16 7 17 9 18 8 19 11 20 91 23 92 24 93 25
REMARK SMILES IDX 94 26 98 27 95 28 97 29 96 30 20 31 21 32 22 33 23 34 24 35
REMARK SMILES IDX 25 36 26 37 27 38 28 39 89 40 29 41 88 42 30 43 31 44 32 45
REMARK SMILES IDX 82 46 33 47 87 48 81 49 83 50 34 51 86 52 80 53 79 54 35 56
REMARK SMILES IDX 67 57 47 58 66 59 48 60 51 61 65 62 84 63 49 64 50 65 64 67
REMARK SMILES IDX 85 68 52 69 36 70 37 71 45 72 38 73 40 74 46 75 39 76 41 77
REMARK SMILES IDX 42 78 43 79 44 80 68 81 69 82 77 83 70 84 72 85 78 86 71 87
REMARK SMILES IDX 73 88 74 89 75 90 76 91 53 92 54 93 62 94 55 95 57 96 63 97
REMARK SMILES IDX 56 98 58 99 59 100 60 101 61 102
REMARK H PARENT 11 21 11 22 83 55 51 66
REMARK Flexibility Score: inf
ROOT
ATOM      1  C   UNL     1       1.110   3.644  -3.390  1.00  0.00     0.188 C 
ENDROOT
BRANCH   1   2
ATOM      2  O   UNL     1       0.869   4.176  -4.686  1.00  0.00    -0.376 OA
BRANCH   2   3
ATOM      3  C   UNL     1      -0.015   3.487  -5.568  1.00  0.00     0.202 C 
BRANCH   3   4
ATOM      4  C   UNL     1       0.066   1.955  -5.699  1.00  0.00     0.261 C 
BRANCH   4   5
ATOM      5  O   UNL     1      -0.054   1.252  -4.446  1.00  0.00    -0.463 OA
BRANCH   5   6
ATOM      6  C   UNL     1       0.861   0.264  -4.254  1.00  0.00     0.310 C 
ATOM      7  O   UNL     1       1.611  -0.153  -5.115  1.00  0.00    -0.252 OA
BRANCH   6   8
ATOM      8  C   UNL     1       1.138   0.005  -2.815  1.00  0.00     0.127 C 
ATOM      9  C   UNL     1       0.800   0.227  -0.290  1.00  0.00     0.022 C 
ATOM     10  C   UNL     1       0.229  -0.274  -1.643  1.00  0.00     0.057 C 
ATOM     11  C   UNL     1       1.104  -1.389  -2.207  1.00  0.00     0.108 C 
BRANCH  10  12
ATOM     12  C   UNL     1      -1.275  -0.402  -1.572  1.00  0.00     0.172 C 
ATOM     13  O   UNL     1      -1.741  -0.833  -0.511  1.00  0.00    -0.293 OA
BRANCH  12  14
ATOM     14  C   UNL     1      -2.312   0.085  -2.497  1.00  0.00     0.041 A 
ATOM     15  C   UNL     1      -3.151   1.098  -1.983  1.00  0.00     0.014 A 
ATOM     16  C   UNL     1      -2.741  -0.660  -3.607  1.00  0.00     0.042 A 
ATOM     17  C   UNL     1      -4.371   1.407  -2.590  1.00  0.00     0.001 A 
ATOM     18  C   UNL     1      -3.953  -0.304  -4.225  1.00  0.00     0.026 A 
ATOM     19  C   UNL     1      -4.772   0.703  -3.715  1.00  0.00     0.002 A 
BRANCH  16  20
ATOM     20  N   UNL     1      -2.034  -1.713  -4.158  1.00  0.00    -0.398 N 
ATOM     21  H   UNL     1      -1.180  -1.997  -3.758  1.00  0.00     0.156 HD
ATOM     22  H   UNL     1      -2.385  -2.180  -4.951  1.00  0.00     0.156 HD
ENDBRANCH  16  20
ENDBRANCH  12  14
ENDBRANCH  10  12
BRANCH  11  23
ATOM     23  C   UNL     1       0.842  -2.539  -3.096  1.00  0.00     0.227 C 
ATOM     24  O   UNL     1       1.513  -2.648  -4.114  1.00  0.00    -0.275 OA
ATOM     25  N   UNL     1      -0.025  -3.546  -2.710  1.00  0.00    -0.338 N 
ATOM     26  C   UNL     1      -0.860  -3.602  -1.511  1.00  0.00     0.148 C 
ATOM     27  C   UNL     1       0.029  -4.814  -3.442  1.00  0.00     0.148 C 
ATOM     28  C   UNL     1      -0.554  -4.823  -0.644  1.00  0.00     0.181 C 
ATOM     29  C   UNL     1       0.453  -5.921  -2.475  1.00  0.00     0.181 C 
ATOM     30  O   UNL     1      -0.506  -6.035  -1.411  1.00  0.00    -0.378 OA
ENDBRANCH  11  23
ENDBRANCH   6   8
ENDBRANCH   5   6
ENDBRANCH   4   5
ENDBRANCH   3   4
ENDBRANCH   2   3
ENDBRANCH   1   2
BRANCH   1  31
ATOM     31  C   UNL     1      -0.099   3.274  -2.516  1.00  0.00     0.188 C 
BRANCH  31  32
ATOM     32  O   UNL     1      -1.344   3.361  -3.158  1.00  0.00    -0.376 OA
BRANCH  32  33
ATOM     33  C   UNL     1      -2.204   4.458  -2.934  1.00  0.00     0.202 C 
BRANCH  33  34
ATOM     34  C   UNL     1      -1.740   5.867  -2.528  1.00  0.00     0.261 C 
BRANCH  34  35
ATOM     35  O   UNL     1      -0.459   6.012  -1.916  1.00  0.00    -0.460 OA
BRANCH  35  36
ATOM     36  C   UNL     1      -0.391   5.802  -0.581  1.00  0.00     0.338 C 
ATOM     37  O   UNL     1      -1.299   5.446   0.155  1.00  0.00    -0.246 OA
BRANCH  36  38
ATOM     38  C   UNL     1       1.036   5.845  -0.208  1.00  0.00     0.060 A 
ATOM     39  C   UNL     1       1.647   4.691   0.305  1.00  0.00     0.016 A 
ATOM     40  C   UNL     1       1.770   7.017  -0.393  1.00  0.00     0.016 A 
ATOM     41  C   UNL     1       2.996   4.715   0.658  1.00  0.00     0.010 A 
ATOM     42  C   UNL     1       3.113   7.046  -0.017  1.00  0.00     0.010 A 
ATOM     43  C   UNL     1       3.721   5.906   0.539  1.00  0.00    -0.014 A 
BRANCH  43  44
ATOM     44  C   UNL     1       5.056   6.029   1.167  1.00  0.00     0.031 A 
ATOM     45  C   UNL     1       5.151   6.704   2.506  1.00  0.00     0.074 A 
ATOM     46  C   UNL     1       6.162   5.577   0.552  1.00  0.00     0.049 A 
ATOM     47  N   UNL     1       6.207   6.992   3.218  1.00  0.00    -0.248 NA
ATOM     48  C   UNL     1       3.878   7.117   3.120  1.00  0.00     0.031 C 
ATOM     49  C   UNL     1       6.193   4.895  -0.740  1.00  0.00     0.029 A 
ATOM     50  N   UNL     1       7.479   5.656   0.927  1.00  0.00    -0.354 N 
ATOM     51  C   UNL     1       5.733   7.652   4.345  1.00  0.00     0.074 A 
ATOM     52  C   UNL     1       4.294   7.734   4.215  1.00  0.00     0.031 C 
ATOM     53  C   UNL     1       7.473   4.638  -1.063  1.00  0.00     0.029 A 
ATOM     54  C   UNL     1       8.348   5.167  -0.018  1.00  0.00     0.049 A 
ATOM     55  H   UNL     1       7.773   6.027   1.791  1.00  0.00     0.167 HD
ATOM     56  C   UNL     1       6.429   8.137   5.400  1.00  0.00     0.034 A 
ATOM     57  C   UNL     1       9.695   5.172  -0.045  1.00  0.00     0.034 A 
ATOM     58  C   UNL     1       7.859   8.053   5.523  1.00  0.00     0.049 A 
ATOM     59  C   UNL     1      10.454   5.761   1.117  1.00  0.00     0.074 A 
ATOM     60  C   UNL     1       8.659   8.475   6.569  1.00  0.00     0.029 A 
ATOM     61  N   UNL     1       8.706   7.529   4.558  1.00  0.00    -0.354 N 
ATOM     62  N   UNL     1       9.991   6.288   2.226  1.00  0.00    -0.248 NA
ATOM     63  C   UNL     1      11.921   5.727   1.037  1.00  0.00     0.031 C 
ATOM     64  C   UNL     1       9.993   8.246   6.217  1.00  0.00     0.029 A 
ATOM     65  C   UNL     1      10.022   7.634   4.973  1.00  0.00     0.049 A 
ATOM     66  H   UNL     1       8.413   7.140   3.702  1.00  0.00     0.167 HD
ATOM     67  C   UNL     1      11.107   6.609   2.992  1.00  0.00     0.074 A 
ATOM     68  C   UNL     1      12.268   6.205   2.225  1.00  0.00     0.031 C 
ATOM     69  C   UNL     1      11.166   7.189   4.218  1.00  0.00     0.034 A 
BRANCH  56  70
ATOM     70  C   UNL     1       5.642   8.803   6.499  1.00  0.00     0.023 A 
ATOM     71  C   UNL     1       4.794   8.033   7.324  1.00  0.00     0.012 A 
ATOM     72  C   UNL     1       5.747  10.189   6.723  1.00  0.00     0.148 A 
ATOM     73  C   UNL     1       4.027   8.640   8.318  1.00  0.00     0.002 A 
ATOM     74  C   UNL     1       5.020  10.778   7.749  1.00  0.00     0.091 A 
ATOM     75  F   UNL     1       6.538  10.909   5.914  1.00  0.00    -0.205 F 
ATOM     76  C   UNL     1       4.147  10.009   8.536  1.00  0.00     0.022 A 
BRANCH  74  77
ATOM     77  S   UNL     1       5.168  12.520   8.162  1.00  0.00     0.127 S 
ATOM     78  O   UNL     1       3.887  13.044   7.691  1.00  0.00    -0.237 OA
ATOM     79  O   UNL     1       5.312  12.479   9.617  1.00  0.00    -0.237 OA
ATOM     80  O   UNL     1       6.342  13.002   7.449  1.00  0.00    -0.744 OA
ENDBRANCH  74  77
ENDBRANCH  56  70
BRANCH  57  81
ATOM     81  C   UNL     1      10.417   4.562  -1.197  1.00  0.00     0.023 A 
ATOM     82  C   UNL     1      11.132   3.363  -1.006  1.00  0.00     0.012 A 
ATOM     83  C   UNL     1      10.380   5.144  -2.478  1.00  0.00     0.148 A 
ATOM     84  C   UNL     1      11.816   2.767  -2.066  1.00  0.00     0.002 A 
ATOM     85  C   UNL     1      11.020   4.519  -3.541  1.00  0.00     0.091 A 
ATOM     86  F   UNL     1       9.703   6.291  -2.634  1.00  0.00    -0.205 F 
ATOM     87  C   UNL     1      11.752   3.338  -3.334  1.00  0.00     0.022 A 
BRANCH  85  88
ATOM     88  S   UNL     1      10.903   5.115  -5.231  1.00  0.00     0.127 S 
ATOM     89  O   UNL     1      12.291   5.465  -5.522  1.00  0.00    -0.237 OA
ATOM     90  O   UNL     1      10.406   3.929  -5.930  1.00  0.00    -0.237 OA
ATOM     91  O   UNL     1       9.970   6.232  -5.194  1.00  0.00    -0.744 OA
ENDBRANCH  85  88
ENDBRANCH  57  81
BRANCH  69  92
ATOM     92  C   UNL     1      12.528   7.381   4.839  1.00  0.00     0.023 A 
ATOM     93  C   UNL     1      13.414   8.348   4.324  1.00  0.00     0.012 A 
ATOM     94  C   UNL     1      12.897   6.648   5.985  1.00  0.00     0.148 A 
ATOM     95  C   UNL     1      14.659   8.556   4.917  1.00  0.00     0.002 A 
ATOM     96  C   UNL     1      14.116   6.899   6.603  1.00  0.00     0.091 A 
ATOM     97  F   UNL     1      12.048   5.721   6.452  1.00  0.00    -0.205 F 
ATOM     98  C   UNL     1      15.005   7.841   6.062  1.00  0.00     0.022 A 
BRANCH  96  99
ATOM     99  S   UNL     1      14.603   6.101   8.137  1.00  0.00     0.127 S 
ATOM    100  O   UNL     1      15.680   5.220   7.687  1.00  0.00    -0.237 OA
ATOM    101  O   UNL     1      15.043   7.236   8.950  1.00  0.00    -0.237 OA
ATOM    102  O   UNL     1      13.413   5.425   8.636  1.00  0.00    -0.744 OA
ENDBRANCH  96  99
ENDBRANCH  69  92
ENDBRANCH  43  44
ENDBRANCH  36  38
ENDBRANCH  35  36
ENDBRANCH  34  35
ENDBRANCH  33  34
ENDBRANCH  32  33
ENDBRANCH  31  32
ENDBRANCH   1  31
TORSDOF 24
