REMARK SMILES Cc1ccn(CC(=O)N2CCC3(CC2)NC(=O)C[C@@H]3C(=O)OCCOCCOCCOC(=O)c2ccc(-c3c4nc(c(-c5cccc(S(=O)(=O)[O-])c5F)c5ccc([nH]5)c(-c5cccc(S(=O)(=O)[O-])c5F)c5nc(c(-c6cccc(S(=O)(=O)[O-])c6F)c6ccc3[nH]6)C=C5)C=C4)cc2)n1
REMARK SMILES IDX 27 1 26 2 25 3 24 4 23 5 22 6 20 7 21 8 19 9 7 10 8 11 9 12
REMARK SMILES IDX 10 13 14 14 11 15 13 16 12 17 15 18 16 19 18 21 17 22 6 23
REMARK SMILES IDX 5 24 1 25 2 26 3 27 97 28 4 29 28 30 29 31 30 32 31 33 32 34
REMARK SMILES IDX 33 35 34 36 35 37 96 38 36 39 95 40 37 41 38 42 39 43 89 44
REMARK SMILES IDX 40 45 94 46 88 47 90 48 41 49 93 50 87 51 86 52 42 54 74 55
REMARK SMILES IDX 54 56 73 57 55 58 58 59 72 60 91 61 56 62 57 63 71 65 92 66
REMARK SMILES IDX 59 67 43 68 44 69 52 70 45 71 47 72 53 73 46 74 48 75 49 76
REMARK SMILES IDX 50 77 51 78 75 79 76 80 84 81 77 82 79 83 85 84 78 85 80 86
REMARK SMILES IDX 81 87 82 88 83 89 60 90 61 91 69 92 62 93 64 94 70 95 63 96
REMARK SMILES IDX 65 97 66 98 67 99 68 100
REMARK H PARENT 15 20 90 53 58 64
REMARK Flexibility Score: inf
ROOT
ATOM      1  C   UNL     1      -7.538  -2.419   1.637  1.00  0.00     0.188 C 
ENDROOT
BRANCH   1   2
ATOM      2  C   UNL     1      -6.618  -2.982   2.742  1.00  0.00     0.188 C 
BRANCH   2   3
ATOM      3  O   UNL     1      -7.272  -3.419   3.919  1.00  0.00    -0.376 OA
BRANCH   3   4
ATOM      4  C   UNL     1      -7.109  -2.573   5.052  1.00  0.00     0.202 C 
BRANCH   4   5
ATOM      5  C   UNL     1      -7.906  -1.258   4.974  1.00  0.00     0.261 C 
BRANCH   5   6
ATOM      6  O   UNL     1      -7.575  -0.401   3.861  1.00  0.00    -0.463 OA
BRANCH   6   7
ATOM      7  C   UNL     1      -6.303   0.058   3.838  1.00  0.00     0.311 C 
ATOM      8  O   UNL     1      -5.490  -0.231   4.702  1.00  0.00    -0.252 OA
BRANCH   7   9
ATOM      9  C   UNL     1      -5.955   0.780   2.556  1.00  0.00     0.134 C 
ATOM     10  C   UNL     1      -1.512   0.368   5.111  1.00  0.00     0.244 C 
ATOM     11  O   UNL     1      -1.785   0.087   6.283  1.00  0.00    -0.273 OA
ATOM     12  N   UNL     1      -2.466   0.951   4.267  1.00  0.00    -0.341 N 
ATOM     13  C   UNL     1      -3.534   1.690   4.933  1.00  0.00     0.122 C 
ATOM     14  C   UNL     1      -2.812   0.291   3.013  1.00  0.00     0.122 C 
ATOM     15  C   UNL     1      -4.502   2.448   4.010  1.00  0.00     0.051 C 
ATOM     16  C   UNL     1      -3.487   1.245   2.051  1.00  0.00     0.051 C 
ATOM     17  C   UNL     1      -4.792   1.811   2.634  1.00  0.00     0.057 C 
ATOM     18  N   UNL     1      -5.257   2.854   1.728  1.00  0.00    -0.350 N 
ATOM     19  C   UNL     1      -6.562   2.745   1.330  1.00  0.00     0.221 C 
ATOM     20  H   UNL     1      -4.673   3.586   1.423  1.00  0.00     0.164 HD
ATOM     21  C   UNL     1      -7.158   1.533   1.968  1.00  0.00     0.117 C 
ATOM     22  O   UNL     1      -7.134   3.535   0.601  1.00  0.00    -0.275 OA
BRANCH  10  23
ATOM     23  C   UNL     1      -0.061   0.381   4.678  1.00  0.00     0.244 C 
BRANCH  23  24
ATOM     24  N   UNL     1       0.261  -0.321   3.457  1.00  0.00    -0.263 N 
ATOM     25  C   UNL     1       1.198  -0.145   0.049  1.00  0.00     0.069 C 
ATOM     26  C   UNL     1       0.842  -0.544   1.430  1.00  0.00     0.059 A 
ATOM     27  C   UNL     1       0.728  -1.849   1.963  1.00  0.00     0.045 A 
ATOM     28  N   UNL     1       0.585   0.388   2.355  1.00  0.00    -0.178 NA
ATOM     29  C   UNL     1       0.365  -1.670   3.277  1.00  0.00     0.109 A 
ENDBRANCH  23  24
ENDBRANCH  10  23
ENDBRANCH   7   9
ENDBRANCH   6   7
ENDBRANCH   5   6
ENDBRANCH   4   5
ENDBRANCH   3   4
ENDBRANCH   2   3
ENDBRANCH   1   2
BRANCH   1  30
ATOM     30  O   UNL     1      -8.947  -2.292   1.788  1.00  0.00    -0.376 OA
BRANCH  30  31
ATOM     31  C   UNL     1      -9.722  -3.235   2.518  1.00  0.00     0.202 C 
BRANCH  31  32
ATOM     32  C   UNL     1      -9.798  -4.682   2.046  1.00  0.00     0.261 C 
BRANCH  32  33
ATOM     33  O   UNL     1      -8.514  -5.248   1.875  1.00  0.00    -0.460 OA
BRANCH  33  34
ATOM     34  C   UNL     1      -8.049  -5.166   0.614  1.00  0.00     0.338 C 
ATOM     35  O   UNL     1      -8.610  -4.676  -0.352  1.00  0.00    -0.246 OA
BRANCH  34  36
ATOM     36  C   UNL     1      -6.715  -5.775   0.561  1.00  0.00     0.060 A 
ATOM     37  C   UNL     1      -6.105  -5.780  -0.694  1.00  0.00     0.016 A 
ATOM     38  C   UNL     1      -6.245  -6.553   1.632  1.00  0.00     0.016 A 
ATOM     39  C   UNL     1      -5.267  -6.823  -0.983  1.00  0.00     0.010 A 
ATOM     40  C   UNL     1      -5.401  -7.594   1.346  1.00  0.00     0.010 A 
ATOM     41  C   UNL     1      -5.069  -7.787   0.008  1.00  0.00    -0.014 A 
BRANCH  41  42
ATOM     42  C   UNL     1      -4.771  -9.119  -0.465  1.00  0.00     0.031 A 
ATOM     43  C   UNL     1      -3.361  -9.381  -0.767  1.00  0.00     0.074 A 
ATOM     44  C   UNL     1      -5.753 -10.035  -0.571  1.00  0.00     0.049 A 
ATOM     45  N   UNL     1      -2.846  -9.666  -1.915  1.00  0.00    -0.248 NA
ATOM     46  C   UNL     1      -2.394  -9.186   0.317  1.00  0.00     0.031 C 
ATOM     47  C   UNL     1      -7.112  -9.955  -0.018  1.00  0.00     0.029 A 
ATOM     48  N   UNL     1      -5.681 -11.310  -1.041  1.00  0.00    -0.354 N 
ATOM     49  C   UNL     1      -1.508  -9.917  -1.649  1.00  0.00     0.074 A 
ATOM     50  C   UNL     1      -1.249  -9.429  -0.318  1.00  0.00     0.031 C 
ATOM     51  C   UNL     1      -7.610 -11.206   0.085  1.00  0.00     0.029 A 
ATOM     52  C   UNL     1      -6.656 -12.134  -0.496  1.00  0.00     0.049 A 
ATOM     53  H   UNL     1      -5.011 -11.615  -1.694  1.00  0.00     0.167 HD
ATOM     54  C   UNL     1      -0.772 -10.742  -2.436  1.00  0.00     0.034 A 
ATOM     55  C   UNL     1      -6.595 -13.483  -0.399  1.00  0.00     0.034 A 
ATOM     56  C   UNL     1      -1.383 -10.981  -3.716  1.00  0.00     0.049 A 
ATOM     57  C   UNL     1      -5.586 -13.963  -1.376  1.00  0.00     0.074 A 
ATOM     58  C   UNL     1      -1.838 -10.178  -4.743  1.00  0.00     0.029 A 
ATOM     59  N   UNL     1      -1.914 -12.227  -3.948  1.00  0.00    -0.354 N 
ATOM     60  N   UNL     1      -5.734 -13.904  -2.672  1.00  0.00    -0.248 NA
ATOM     61  C   UNL     1      -4.217 -14.139  -0.915  1.00  0.00     0.031 C 
ATOM     62  C   UNL     1      -2.974 -10.856  -5.270  1.00  0.00     0.029 A 
ATOM     63  C   UNL     1      -3.132 -12.038  -4.544  1.00  0.00     0.049 A 
ATOM     64  H   UNL     1      -1.498 -13.091  -3.728  1.00  0.00     0.167 HD
ATOM     65  C   UNL     1      -4.467 -13.602  -3.159  1.00  0.00     0.074 A 
ATOM     66  C   UNL     1      -3.560 -13.881  -2.049  1.00  0.00     0.031 C 
ATOM     67  C   UNL     1      -4.292 -12.873  -4.304  1.00  0.00     0.034 A 
BRANCH  54  68
ATOM     68  C   UNL     1       0.343 -11.602  -1.912  1.00  0.00     0.023 A 
ATOM     69  C   UNL     1       1.220 -12.180  -2.851  1.00  0.00     0.012 A 
ATOM     70  C   UNL     1       0.420 -12.067  -0.580  1.00  0.00     0.148 A 
ATOM     71  C   UNL     1       2.113 -13.190  -2.484  1.00  0.00     0.002 A 
ATOM     72  C   UNL     1       1.378 -12.997  -0.202  1.00  0.00     0.091 A 
ATOM     73  F   UNL     1      -0.517 -11.725   0.312  1.00  0.00    -0.205 F 
ATOM     74  C   UNL     1       2.208 -13.586  -1.155  1.00  0.00     0.022 A 
BRANCH  72  75
ATOM     75  S   UNL     1       1.570 -13.437   1.527  1.00  0.00     0.127 S 
ATOM     76  O   UNL     1       0.671 -14.579   1.646  1.00  0.00    -0.237 OA
ATOM     77  O   UNL     1       2.995 -13.757   1.611  1.00  0.00    -0.237 OA
ATOM     78  O   UNL     1       1.193 -12.227   2.252  1.00  0.00    -0.744 OA
ENDBRANCH  72  75
ENDBRANCH  54  68
BRANCH  55  79
ATOM     79  C   UNL     1      -7.157 -14.331   0.678  1.00  0.00     0.023 A 
ATOM     80  C   UNL     1      -7.373 -15.701   0.448  1.00  0.00     0.012 A 
ATOM     81  C   UNL     1      -7.306 -13.852   2.003  1.00  0.00     0.148 A 
ATOM     82  C   UNL     1      -7.732 -16.560   1.495  1.00  0.00     0.002 A 
ATOM     83  C   UNL     1      -7.705 -14.700   3.031  1.00  0.00     0.091 A 
ATOM     84  F   UNL     1      -6.967 -12.587   2.286  1.00  0.00    -0.205 F 
ATOM     85  C   UNL     1      -7.909 -16.060   2.784  1.00  0.00     0.022 A 
BRANCH  83  86
ATOM     86  S   UNL     1      -7.997 -14.072   4.691  1.00  0.00     0.127 S 
ATOM     87  O   UNL     1      -9.111 -14.903   5.151  1.00  0.00    -0.237 OA
ATOM     88  O   UNL     1      -6.723 -14.335   5.351  1.00  0.00    -0.237 OA
ATOM     89  O   UNL     1      -8.349 -12.668   4.508  1.00  0.00    -0.744 OA
ENDBRANCH  83  86
ENDBRANCH  55  79
BRANCH  67  90
ATOM     90  C   UNL     1      -5.477 -12.621  -5.207  1.00  0.00     0.023 A 
ATOM     91  C   UNL     1      -6.625 -11.947  -4.743  1.00  0.00     0.012 A 
ATOM     92  C   UNL     1      -5.347 -12.860  -6.589  1.00  0.00     0.148 A 
ATOM     93  C   UNL     1      -7.629 -11.543  -5.626  1.00  0.00     0.002 A 
ATOM     94  C   UNL     1      -6.325 -12.411  -7.471  1.00  0.00     0.091 A 
ATOM     95  F   UNL     1      -4.248 -13.494  -7.027  1.00  0.00    -0.205 F 
ATOM     96  C   UNL     1      -7.472 -11.761  -6.992  1.00  0.00     0.022 A 
BRANCH  94  97
ATOM     97  S   UNL     1      -6.103 -12.529  -9.251  1.00  0.00     0.127 S 
ATOM     98  O   UNL     1      -6.847 -13.744  -9.575  1.00  0.00    -0.237 OA
ATOM     99  O   UNL     1      -6.716 -11.290  -9.735  1.00  0.00    -0.237 OA
ATOM    100  O   UNL     1      -4.661 -12.592  -9.460  1.00  0.00    -0.744 OA
ENDBRANCH  94  97
ENDBRANCH  67  90
ENDBRANCH  41  42
ENDBRANCH  34  36
ENDBRANCH  33  34
ENDBRANCH  32  33
ENDBRANCH  31  32
ENDBRANCH  30  31
ENDBRANCH   1  30
TORSDOF 22
