REMARK SMILES CCn1ncc(-c2cc(C(F)(F)F)nc(-n3ccc(C(=O)OCCOCCOCCOC(=O)c4ccc(-c5c6nc(c(-c7cccc(S(=O)(=O)[O-])c7F)c7ccc([nH]7)c(-c7cccc(S(=O)(=O)[O-])c7F)c7nc(c(-c8cccc(S(=O)(=O)[O-])c8F)c8ccc5[nH]8)C=C7)C=C6)cc4)n3)n2)c1C
REMARK SMILES IDX 26 1 25 2 24 3 23 4 22 5 20 6 21 7 19 8 16 9 17 10 97 11
REMARK SMILES IDX 18 12 15 13 7 14 8 15 98 16 9 17 14 18 6 19 3 20 4 21 99 22
REMARK SMILES IDX 5 23 100 24 2 25 1 26 10 27 11 28 12 29 13 30 27 31 28 32
REMARK SMILES IDX 29 33 30 34 31 35 32 36 33 37 34 38 35 39 96 40 36 41 95 42
REMARK SMILES IDX 37 43 38 44 39 45 89 46 40 47 94 48 88 49 90 50 41 51 93 52
REMARK SMILES IDX 87 53 86 54 42 56 74 57 54 58 73 59 55 60 58 61 72 62 91 63
REMARK SMILES IDX 56 64 57 65 71 67 92 68 59 69 43 70 44 71 52 72 45 73 47 74
REMARK SMILES IDX 53 75 46 76 48 77 49 78 50 79 51 80 75 81 76 82 84 83 77 84
REMARK SMILES IDX 79 85 85 86 78 87 80 88 81 89 82 90 83 91 60 92 61 93 69 94
REMARK SMILES IDX 62 95 64 96 70 97 63 98 65 99 66 100 67 101 68 102
REMARK H PARENT 90 55 58 66
REMARK Flexibility Score: inf
ROOT
ATOM      1  C   UNL     1      -5.724  -9.750  -4.161  1.00  0.00     0.188 C 
ENDROOT
BRANCH   1   2
ATOM      2  O   UNL     1      -6.885  -9.534  -4.945  1.00  0.00    -0.376 OA
BRANCH   2   3
ATOM      3  C   UNL     1      -6.936  -8.469  -5.881  1.00  0.00     0.202 C 
BRANCH   3   4
ATOM      4  C   UNL     1      -6.482  -7.037  -5.517  1.00  0.00     0.261 C 
BRANCH   4   5
ATOM      5  O   UNL     1      -5.300  -6.919  -4.712  1.00  0.00    -0.458 OA
BRANCH   5   6
ATOM      6  C   UNL     1      -5.465  -6.580  -3.400  1.00  0.00     0.358 C 
ATOM      7  O   UNL     1      -6.537  -6.258  -2.890  1.00  0.00    -0.244 OA
BRANCH   6   8
ATOM      8  C   UNL     1      -4.257  -6.854  -2.606  1.00  0.00     0.170 A 
ATOM      9  N   UNL     1      -2.184  -6.962  -2.045  1.00  0.00    -0.205 N 
ATOM     10  C   UNL     1      -2.822  -7.906  -1.272  1.00  0.00     0.119 A 
ATOM     11  N   UNL     1      -3.058  -6.305  -2.865  1.00  0.00    -0.158 NA
ATOM     12  C   UNL     1      -4.164  -7.787  -1.537  1.00  0.00     0.058 A 
BRANCH   9  13
ATOM     13  C   UNL     1      -0.792  -6.623  -1.984  1.00  0.00     0.251 A 
ATOM     14  C   UNL     1       0.807  -4.992  -2.111  1.00  0.00     0.080 A 
ATOM     15  C   UNL     1       1.795  -5.856  -1.703  1.00  0.00     0.062 A 
ATOM     16  N   UNL     1      -0.462  -5.366  -2.316  1.00  0.00    -0.211 NA
ATOM     17  C   UNL     1       1.396  -7.152  -1.419  1.00  0.00     0.150 A 
ATOM     18  N   UNL     1       0.088  -7.530  -1.499  1.00  0.00    -0.207 NA
BRANCH  14  19
ATOM     19  C   UNL     1       1.044  -3.571  -2.200  1.00  0.00     0.041 A 
ATOM     20  N   UNL     1       0.895  -1.418  -1.810  1.00  0.00    -0.269 N 
ATOM     21  N   UNL     1       1.883  -1.521  -2.725  1.00  0.00    -0.181 NA
ATOM     22  C   UNL     1       0.368  -2.630  -1.437  1.00  0.00     0.045 A 
ATOM     23  C   UNL     1       1.950  -2.830  -2.978  1.00  0.00     0.145 A 
ATOM     24  C   UNL     1      -0.697  -2.809  -0.411  1.00  0.00     0.067 C 
BRANCH  20  25
ATOM     25  C   UNL     1       0.518  -0.100  -1.332  1.00  0.00     0.141 C 
ATOM     26  C   UNL     1       1.102   0.208   0.037  1.00  0.00     0.029 C 
ENDBRANCH  20  25
ENDBRANCH  14  19
BRANCH  17  27
ATOM     27  C   UNL     1       2.445  -8.175  -1.000  1.00  0.00     0.433 C 
ATOM     28  F   UNL     1       2.166  -8.774   0.190  1.00  0.00    -0.165 F 
ATOM     29  F   UNL     1       2.602  -9.176  -1.910  1.00  0.00    -0.165 F 
ATOM     30  F   UNL     1       3.689  -7.628  -0.847  1.00  0.00    -0.165 F 
ENDBRANCH  17  27
ENDBRANCH   9  13
ENDBRANCH   6   8
ENDBRANCH   5   6
ENDBRANCH   4   5
ENDBRANCH   3   4
ENDBRANCH   2   3
ENDBRANCH   1   2
BRANCH   1  31
ATOM     31  C   UNL     1      -4.306  -9.671  -4.778  1.00  0.00     0.188 C 
BRANCH  31  32
ATOM     32  O   UNL     1      -4.235  -9.064  -6.049  1.00  0.00    -0.376 OA
BRANCH  32  33
ATOM     33  C   UNL     1      -4.099  -9.820  -7.242  1.00  0.00     0.202 C 
BRANCH  33  34
ATOM     34  C   UNL     1      -4.727 -11.195  -7.462  1.00  0.00     0.261 C 
BRANCH  34  35
ATOM     35  O   UNL     1      -5.291 -11.786  -6.316  1.00  0.00    -0.460 OA
BRANCH  35  36
ATOM     36  C   UNL     1      -4.430 -12.550  -5.619  1.00  0.00     0.338 C 
ATOM     37  O   UNL     1      -3.216 -12.605  -5.758  1.00  0.00    -0.246 OA
BRANCH  36  38
ATOM     38  C   UNL     1      -5.196 -13.388  -4.697  1.00  0.00     0.060 A 
ATOM     39  C   UNL     1      -4.421 -14.196  -3.866  1.00  0.00     0.016 A 
ATOM     40  C   UNL     1      -6.513 -13.701  -5.061  1.00  0.00     0.016 A 
ATOM     41  C   UNL     1      -4.829 -15.493  -3.716  1.00  0.00     0.010 A 
ATOM     42  C   UNL     1      -6.906 -15.002  -4.933  1.00  0.00     0.010 A 
ATOM     43  C   UNL     1      -5.999 -15.893  -4.370  1.00  0.00    -0.014 A 
BRANCH  43  44
ATOM     44  C   UNL     1      -6.290 -17.302  -4.390  1.00  0.00     0.031 A 
ATOM     45  C   UNL     1      -6.792 -17.759  -3.083  1.00  0.00     0.074 A 
ATOM     46  C   UNL     1      -6.163 -18.037  -5.508  1.00  0.00     0.049 A 
ATOM     47  N   UNL     1      -6.172 -18.489  -2.219  1.00  0.00    -0.248 NA
ATOM     48  C   UNL     1      -8.017 -17.121  -2.576  1.00  0.00     0.031 C 
ATOM     49  C   UNL     1      -5.939 -17.571  -6.881  1.00  0.00     0.029 A 
ATOM     50  N   UNL     1      -6.367 -19.369  -5.666  1.00  0.00    -0.354 N 
ATOM     51  C   UNL     1      -7.071 -18.618  -1.168  1.00  0.00     0.074 A 
ATOM     52  C   UNL     1      -8.032 -17.561  -1.319  1.00  0.00     0.031 C 
ATOM     53  C   UNL     1      -6.294 -18.555  -7.739  1.00  0.00     0.029 A 
ATOM     54  C   UNL     1      -6.649 -19.739  -6.976  1.00  0.00     0.049 A 
ATOM     55  H   UNL     1      -6.319 -20.012  -4.923  1.00  0.00     0.167 HD
ATOM     56  C   UNL     1      -7.152 -19.779  -0.469  1.00  0.00     0.034 A 
ATOM     57  C   UNL     1      -7.247 -20.895  -7.360  1.00  0.00     0.034 A 
ATOM     58  C   UNL     1      -5.972 -20.586  -0.650  1.00  0.00     0.049 A 
ATOM     59  C   UNL     1      -7.123 -21.852  -6.232  1.00  0.00     0.074 A 
ATOM     60  C   UNL     1      -4.620 -20.395  -0.440  1.00  0.00     0.029 A 
ATOM     61  N   UNL     1      -6.077 -21.655  -1.508  1.00  0.00    -0.354 N 
ATOM     62  N   UNL     1      -5.985 -22.345  -5.830  1.00  0.00    -0.248 NA
ATOM     63  C   UNL     1      -8.203 -21.899  -5.258  1.00  0.00     0.031 C 
ATOM     64  C   UNL     1      -3.980 -21.055  -1.528  1.00  0.00     0.029 A 
ATOM     65  C   UNL     1      -4.965 -21.665  -2.307  1.00  0.00     0.049 A 
ATOM     66  H   UNL     1      -6.820 -22.300  -1.542  1.00  0.00     0.167 HD
ATOM     67  C   UNL     1      -6.072 -22.328  -4.443  1.00  0.00     0.074 A 
ATOM     68  C   UNL     1      -7.494 -22.148  -4.153  1.00  0.00     0.031 C 
ATOM     69  C   UNL     1      -4.959 -22.153  -3.670  1.00  0.00     0.034 A 
BRANCH  56  70
ATOM     70  C   UNL     1      -8.455 -20.369   0.018  1.00  0.00     0.023 A 
ATOM     71  C   UNL     1      -8.368 -21.510   0.842  1.00  0.00     0.012 A 
ATOM     72  C   UNL     1      -9.734 -20.051  -0.501  1.00  0.00     0.148 A 
ATOM     73  C   UNL     1      -9.479 -22.324   1.084  1.00  0.00     0.002 A 
ATOM     74  C   UNL     1     -10.851 -20.813  -0.188  1.00  0.00     0.091 A 
ATOM     75  F   UNL     1      -9.877 -19.095  -1.421  1.00  0.00    -0.205 F 
ATOM     76  C   UNL     1     -10.723 -21.972   0.575  1.00  0.00     0.022 A 
BRANCH  74  77
ATOM     77  S   UNL     1     -12.486 -20.366  -0.787  1.00  0.00     0.127 S 
ATOM     78  O   UNL     1     -12.700 -21.369  -1.825  1.00  0.00    -0.237 OA
ATOM     79  O   UNL     1     -13.300 -20.533   0.417  1.00  0.00    -0.237 OA
ATOM     80  O   UNL     1     -12.375 -18.985  -1.241  1.00  0.00    -0.744 OA
ENDBRANCH  74  77
ENDBRANCH  56  70
BRANCH  57  81
ATOM     81  C   UNL     1      -8.193 -21.126  -8.478  1.00  0.00     0.023 A 
ATOM     82  C   UNL     1      -8.423 -22.439  -8.936  1.00  0.00     0.012 A 
ATOM     83  C   UNL     1      -9.073 -20.109  -8.912  1.00  0.00     0.148 A 
ATOM     84  C   UNL     1      -9.507 -22.733  -9.774  1.00  0.00     0.002 A 
ATOM     85  C   UNL     1     -10.141 -20.402  -9.754  1.00  0.00     0.091 A 
ATOM     86  F   UNL     1      -8.921 -18.871  -8.424  1.00  0.00    -0.205 F 
ATOM     87  C   UNL     1     -10.369 -21.717 -10.178  1.00  0.00     0.022 A 
BRANCH  85  88
ATOM     88  S   UNL     1     -11.305 -19.144 -10.298  1.00  0.00     0.127 S 
ATOM     89  O   UNL     1     -11.353 -19.381 -11.741  1.00  0.00    -0.237 OA
ATOM     90  O   UNL     1     -12.517 -19.520  -9.575  1.00  0.00    -0.237 OA
ATOM     91  O   UNL     1     -10.715 -17.865  -9.922  1.00  0.00    -0.744 OA
ENDBRANCH  85  88
ENDBRANCH  57  81
BRANCH  69  92
ATOM     92  C   UNL     1      -3.611 -22.230  -4.341  1.00  0.00     0.023 A 
ATOM     93  C   UNL     1      -3.197 -21.303  -5.323  1.00  0.00     0.012 A 
ATOM     94  C   UNL     1      -2.676 -23.150  -3.841  1.00  0.00     0.148 A 
ATOM     95  C   UNL     1      -1.886 -21.311  -5.808  1.00  0.00     0.002 A 
ATOM     96  C   UNL     1      -1.362 -23.124  -4.291  1.00  0.00     0.091 A 
ATOM     97  F   UNL     1      -3.083 -24.020  -2.904  1.00  0.00    -0.205 F 
ATOM     98  C   UNL     1      -0.965 -22.213  -5.282  1.00  0.00     0.022 A 
BRANCH  96  99
ATOM     99  S   UNL     1      -0.103 -24.171  -3.559  1.00  0.00     0.127 S 
ATOM    100  O   UNL     1       0.090 -25.185  -4.593  1.00  0.00    -0.237 OA
ATOM    101  O   UNL     1       1.019 -23.246  -3.392  1.00  0.00    -0.237 OA
ATOM    102  O   UNL     1      -0.664 -24.655  -2.303  1.00  0.00    -0.744 OA
ENDBRANCH  96  99
ENDBRANCH  69  92
ENDBRANCH  43  44
ENDBRANCH  36  38
ENDBRANCH  35  36
ENDBRANCH  34  35
ENDBRANCH  33  34
ENDBRANCH  32  33
ENDBRANCH  31  32
ENDBRANCH   1  31
TORSDOF 24
