REMARK SMILES N#C/C(=C\c1ccc(-c2ccc(C(=O)OCCOCCOCCOC(=O)c3ccc(-c4c5nc(c(-c6cccc(S(=O)(=O)[O-])c6F)c6ccc([nH]6)c(-c6cccc(S(=O)(=O)[O-])c6F)c6nc(c(-c7cccc(S(=O)(=O)[O-])c7F)c7ccc4[nH]7)C=C6)C=C5)cc3)cc2)o1)[C@@H]1N=c2cc(Br)cnc2=N1
REMARK SMILES IDX 19 1 18 2 17 3 16 4 15 5 13 6 14 7 12 8 9 9 10 10 91 11
REMARK SMILES IDX 11 12 90 13 8 14 5 15 6 16 92 17 7 18 4 19 3 20 2 21 1 22
REMARK SMILES IDX 93 23 94 24 102 25 95 26 101 27 96 28 100 29 97 30 99 31
REMARK SMILES IDX 98 32 20 33 21 34 22 35 23 36 24 37 25 38 26 39 27 40 28 41
REMARK SMILES IDX 89 42 29 43 88 44 30 45 31 46 32 47 82 48 33 49 87 50 81 51
REMARK SMILES IDX 83 52 34 53 86 54 80 55 79 56 35 58 67 59 47 60 66 61 48 62
REMARK SMILES IDX 51 63 65 64 84 65 49 66 50 67 64 69 85 70 52 71 36 72 37 73
REMARK SMILES IDX 45 74 38 75 40 76 46 77 39 78 41 79 42 80 43 81 44 82 68 83
REMARK SMILES IDX 69 84 77 85 70 86 72 87 78 88 71 89 73 90 74 91 75 92 76 93
REMARK SMILES IDX 53 94 54 95 62 96 55 97 57 98 63 99 56 100 58 101 59 102
REMARK SMILES IDX 60 103 61 104
REMARK H PARENT 83 57 51 68
REMARK Flexibility Score: inf
ROOT
ATOM      1  C   UNL     1      10.857   6.526  -9.738  1.00  0.00     0.188 C 
ENDROOT
BRANCH   1   2
ATOM      2  O   UNL     1      11.312   7.068 -10.954  1.00  0.00    -0.376 OA
BRANCH   2   3
ATOM      3  C   UNL     1      10.801   6.595 -12.187  1.00  0.00     0.202 C 
BRANCH   3   4
ATOM      4  C   UNL     1       9.515   5.764 -12.374  1.00  0.00     0.261 C 
BRANCH   4   5
ATOM      5  O   UNL     1       8.729   5.464 -11.217  1.00  0.00    -0.460 OA
BRANCH   5   6
ATOM      6  C   UNL     1       8.819   4.194 -10.753  1.00  0.00     0.338 C 
ATOM      7  O   UNL     1       9.486   3.287 -11.232  1.00  0.00    -0.246 OA
BRANCH   6   8
ATOM      8  C   UNL     1       8.089   4.070  -9.470  1.00  0.00     0.060 A 
ATOM      9  C   UNL     1       6.667   3.582  -7.096  1.00  0.00     0.017 A 
ATOM     10  C   UNL     1       7.990   3.148  -7.221  1.00  0.00     0.013 A 
ATOM     11  C   UNL     1       6.102   4.351  -8.132  1.00  0.00     0.013 A 
ATOM     12  C   UNL     1       8.694   3.378  -8.412  1.00  0.00     0.016 A 
ATOM     13  C   UNL     1       6.808   4.602  -9.313  1.00  0.00     0.016 A 
BRANCH   9  14
ATOM     14  C   UNL     1       5.790   3.039  -6.066  1.00  0.00     0.134 A 
ATOM     15  C   UNL     1       5.146   2.505  -3.996  1.00  0.00     0.128 A 
ATOM     16  C   UNL     1       4.201   2.016  -4.898  1.00  0.00     0.051 A 
ATOM     17  O   UNL     1       6.119   3.162  -4.744  1.00  0.00    -0.457 OA
ATOM     18  C   UNL     1       4.618   2.335  -6.200  1.00  0.00     0.051 A 
BRANCH  15  19
ATOM     19  C   UNL     1       5.113   2.433  -2.560  1.00  0.00     0.066 C 
ATOM     20  C   UNL     1       4.781   1.309  -1.863  1.00  0.00     0.080 C 
BRANCH  20  21
ATOM     21  C   UNL     1       4.683   0.037  -2.688  1.00  0.00     0.099 C 
ATOM     22  N   UNL     1       4.601  -1.019  -3.373  1.00  0.00    -0.193 NA
ENDBRANCH  20  21
BRANCH  20  23
ATOM     23  C   UNL     1       4.435   1.318  -0.399  1.00  0.00     0.265 C 
ATOM     24  N   UNL     1       3.717   2.601  -0.082  1.00  0.00    -0.249 NA
ATOM     25  N   UNL     1       5.655   1.199   0.430  1.00  0.00    -0.232 NA
ATOM     26  C   UNL     1       4.522   3.163   0.749  1.00  0.00     0.106 A 
ATOM     27  C   UNL     1       5.669   2.299   1.101  1.00  0.00     0.175 A 
ATOM     28  C   UNL     1       4.474   4.503   1.329  1.00  0.00     0.049 A 
ATOM     29  N   UNL     1       6.623   2.624   2.015  1.00  0.00    -0.234 NA
ATOM     30  C   UNL     1       5.464   4.836   2.169  1.00  0.00     0.038 A 
ATOM     31  C   UNL     1       6.514   3.820   2.505  1.00  0.00     0.129 A 
ATOM     32  Br  UNL     1       5.597   6.519   2.947  1.00  0.00    -0.049 Br
ENDBRANCH  20  23
ENDBRANCH  15  19
ENDBRANCH   9  14
ENDBRANCH   6   8
ENDBRANCH   5   6
ENDBRANCH   4   5
ENDBRANCH   3   4
ENDBRANCH   2   3
ENDBRANCH   1   2
BRANCH   1  33
ATOM     33  C   UNL     1       9.653   7.267  -9.117  1.00  0.00     0.188 C 
BRANCH  33  34
ATOM     34  O   UNL     1       9.014   8.317  -9.826  1.00  0.00    -0.376 OA
BRANCH  34  35
ATOM     35  C   UNL     1       9.796   9.384 -10.342  1.00  0.00     0.202 C 
BRANCH  35  36
ATOM     36  C   UNL     1      10.929  10.047  -9.533  1.00  0.00     0.261 C 
BRANCH  36  37
ATOM     37  O   UNL     1      11.758   9.181  -8.747  1.00  0.00    -0.460 OA
BRANCH  37  38
ATOM     38  C   UNL     1      11.585   9.258  -7.405  1.00  0.00     0.338 C 
ATOM     39  O   UNL     1      10.804   9.979  -6.801  1.00  0.00    -0.246 OA
BRANCH  38  40
ATOM     40  C   UNL     1      12.370   8.194  -6.753  1.00  0.00     0.060 A 
ATOM     41  C   UNL     1      11.692   7.146  -6.113  1.00  0.00     0.016 A 
ATOM     42  C   UNL     1      13.764   8.248  -6.740  1.00  0.00     0.016 A 
ATOM     43  C   UNL     1      12.406   6.149  -5.451  1.00  0.00     0.010 A 
ATOM     44  C   UNL     1      14.477   7.263  -6.052  1.00  0.00     0.010 A 
ATOM     45  C   UNL     1      13.802   6.223  -5.386  1.00  0.00    -0.014 A 
BRANCH  45  46
ATOM     46  C   UNL     1      14.554   5.303  -4.499  1.00  0.00     0.031 A 
ATOM     47  C   UNL     1      14.999   5.802  -3.153  1.00  0.00     0.074 A 
ATOM     48  C   UNL     1      14.864   4.056  -4.896  1.00  0.00     0.049 A 
ATOM     49  N   UNL     1      15.738   5.210  -2.252  1.00  0.00    -0.248 NA
ATOM     50  C   UNL     1      14.557   7.155  -2.775  1.00  0.00     0.031 C 
ATOM     51  C   UNL     1      14.479   3.455  -6.171  1.00  0.00     0.029 A 
ATOM     52  N   UNL     1      15.607   3.084  -4.273  1.00  0.00    -0.354 N 
ATOM     53  C   UNL     1      15.882   6.127  -1.219  1.00  0.00     0.074 A 
ATOM     54  C   UNL     1      15.156   7.318  -1.605  1.00  0.00     0.031 C 
ATOM     55  C   UNL     1      15.026   2.230  -6.255  1.00  0.00     0.029 A 
ATOM     56  C   UNL     1      15.823   1.975  -5.056  1.00  0.00     0.049 A 
ATOM     57  H   UNL     1      15.953   3.173  -3.355  1.00  0.00     0.167 HD
ATOM     58  C   UNL     1      16.554   5.989  -0.052  1.00  0.00     0.034 A 
ATOM     59  C   UNL     1      16.605   0.897  -4.845  1.00  0.00     0.034 A 
ATOM     60  C   UNL     1      17.267   4.801   0.332  1.00  0.00     0.049 A 
ATOM     61  C   UNL     1      17.372   0.782  -3.552  1.00  0.00     0.074 A 
ATOM     62  C   UNL     1      17.932   4.545   1.518  1.00  0.00     0.029 A 
ATOM     63  N   UNL     1      17.429   3.681  -0.467  1.00  0.00    -0.354 N 
ATOM     64  N   UNL     1      17.404   1.606  -2.533  1.00  0.00    -0.248 NA
ATOM     65  C   UNL     1      18.192  -0.426  -3.369  1.00  0.00     0.031 C 
ATOM     66  C   UNL     1      18.532   3.286   1.419  1.00  0.00     0.029 A 
ATOM     67  C   UNL     1      18.202   2.739   0.189  1.00  0.00     0.049 A 
ATOM     68  H   UNL     1      17.049   3.571  -1.369  1.00  0.00     0.167 HD
ATOM     69  C   UNL     1      18.213   1.000  -1.575  1.00  0.00     0.074 A 
ATOM     70  C   UNL     1      18.637  -0.268  -2.130  1.00  0.00     0.031 C 
ATOM     71  C   UNL     1      18.579   1.458  -0.352  1.00  0.00     0.034 A 
BRANCH  58  72
ATOM     72  C   UNL     1      16.548   7.155   0.901  1.00  0.00     0.023 A 
ATOM     73  C   UNL     1      15.369   7.486   1.599  1.00  0.00     0.012 A 
ATOM     74  C   UNL     1      17.725   7.889   1.144  1.00  0.00     0.148 A 
ATOM     75  C   UNL     1      15.352   8.551   2.499  1.00  0.00     0.002 A 
ATOM     76  C   UNL     1      17.713   8.918   2.078  1.00  0.00     0.091 A 
ATOM     77  F   UNL     1      18.830   7.574   0.454  1.00  0.00    -0.205 F 
ATOM     78  C   UNL     1      16.526   9.258   2.747  1.00  0.00     0.022 A 
BRANCH  76  79
ATOM     79  S   UNL     1      19.190   9.836   2.527  1.00  0.00     0.127 S 
ATOM     80  O   UNL     1      18.901  11.153   1.962  1.00  0.00    -0.237 OA
ATOM     81  O   UNL     1      19.153   9.779   3.989  1.00  0.00    -0.237 OA
ATOM     82  O   UNL     1      20.307   9.127   1.919  1.00  0.00    -0.744 OA
ENDBRANCH  76  79
ENDBRANCH  58  72
BRANCH  59  83
ATOM     83  C   UNL     1      16.696  -0.172  -5.880  1.00  0.00     0.023 A 
ATOM     84  C   UNL     1      16.148  -1.443  -5.621  1.00  0.00     0.012 A 
ATOM     85  C   UNL     1      17.318   0.068  -7.122  1.00  0.00     0.148 A 
ATOM     86  C   UNL     1      16.246  -2.465  -6.566  1.00  0.00     0.002 A 
ATOM     87  C   UNL     1      17.362  -0.938  -8.080  1.00  0.00     0.091 A 
ATOM     88  F   UNL     1      17.848   1.279  -7.342  1.00  0.00    -0.205 F 
ATOM     89  C   UNL     1      16.843  -2.211  -7.797  1.00  0.00     0.022 A 
BRANCH  87  90
ATOM     90  S   UNL     1      18.005  -0.667  -9.735  1.00  0.00     0.127 S 
ATOM     91  O   UNL     1      19.207  -1.498  -9.729  1.00  0.00    -0.237 OA
ATOM     92  O   UNL     1      16.912  -1.171 -10.567  1.00  0.00    -0.237 OA
ATOM     93  O   UNL     1      18.232   0.768  -9.841  1.00  0.00    -0.744 OA
ENDBRANCH  87  90
ENDBRANCH  59  83
BRANCH  71  94
ATOM     94  C   UNL     1      19.451   0.572   0.502  1.00  0.00     0.023 A 
ATOM     95  C   UNL     1      20.806   0.380   0.168  1.00  0.00     0.012 A 
ATOM     96  C   UNL     1      18.945  -0.000   1.688  1.00  0.00     0.148 A 
ATOM     97  C   UNL     1      21.635  -0.392   0.982  1.00  0.00     0.002 A 
ATOM     98  C   UNL     1      19.789  -0.724   2.521  1.00  0.00     0.091 A 
ATOM     99  F   UNL     1      17.649   0.182   1.982  1.00  0.00    -0.205 F 
ATOM    100  C   UNL     1      21.131  -0.932   2.163  1.00  0.00     0.022 A 
BRANCH  98 101
ATOM    101  S   UNL     1      19.257  -1.371   4.110  1.00  0.00     0.127 S 
ATOM    102  O   UNL     1      19.265  -2.812   3.863  1.00  0.00    -0.237 OA
ATOM    103  O   UNL     1      20.315  -0.901   5.005  1.00  0.00    -0.237 OA
ATOM    104  O   UNL     1      17.946  -0.790   4.365  1.00  0.00    -0.744 OA
ENDBRANCH  98 101
ENDBRANCH  71  94
ENDBRANCH  45  46
ENDBRANCH  38  40
ENDBRANCH  37  38
ENDBRANCH  36  37
ENDBRANCH  35  36
ENDBRANCH  34  35
ENDBRANCH  33  34
ENDBRANCH   1  33
TORSDOF 24
