REMARK SMILES C[C@@H]1SC[C@H](C(=O)OCCOCCOCCOC(=O)c2ccc(-c3c4nc(c(-c5cccc(S(=O)(=O)[O-])c5F)c5ccc([nH]5)c(-c5cccc(S(=O)(=O)[O-])c5F)c5nc(c(-c6cccc(S(=O)(=O)[O-])c6F)c6ccc3[nH]6)C=C5)C=C4)cc2)N1C(=O)C[NH2+]CC(F)(F)F
REMARK SMILES IDX 12 1 11 2 10 3 9 4 8 5 6 6 7 7 5 8 1 9 2 10 3 11 83 12 4 13
REMARK SMILES IDX 84 14 85 15 86 16 87 17 88 20 89 21 90 22 91 23 92 24 13 25
REMARK SMILES IDX 14 26 15 27 16 28 17 29 18 30 19 31 20 32 21 33 82 34 22 35
REMARK SMILES IDX 81 36 23 37 24 38 25 39 75 40 26 41 80 42 74 43 76 44 27 45
REMARK SMILES IDX 79 46 73 47 72 48 28 50 60 51 40 52 59 53 41 54 44 55 58 56
REMARK SMILES IDX 77 57 42 58 43 59 57 61 78 62 45 63 29 64 30 65 38 66 31 67
REMARK SMILES IDX 33 68 39 69 32 70 34 71 35 72 36 73 37 74 61 75 62 76 70 77
REMARK SMILES IDX 63 78 65 79 71 80 64 81 66 82 67 83 68 84 69 85 46 86 47 87
REMARK SMILES IDX 55 88 48 89 50 90 56 91 49 92 51 93 52 94 53 95 54 96
REMARK H PARENT 87 18 87 19 76 49 44 60
REMARK Flexibility Score: inf
ROOT
ATOM      1  C   UNL     1      -2.449   6.345   1.289  1.00  0.00     0.188 C 
ENDROOT
BRANCH   1   2
ATOM      2  O   UNL     1      -3.210   6.343   2.484  1.00  0.00    -0.376 OA
BRANCH   2   3
ATOM      3  C   UNL     1      -2.887   5.447   3.538  1.00  0.00     0.202 C 
BRANCH   3   4
ATOM      4  C   UNL     1      -2.690   3.947   3.264  1.00  0.00     0.261 C 
BRANCH   4   5
ATOM      5  O   UNL     1      -1.611   3.583   2.377  1.00  0.00    -0.462 OA
BRANCH   5   6
ATOM      6  C   UNL     1      -1.998   3.083   1.170  1.00  0.00     0.329 C 
ATOM      7  O   UNL     1      -3.158   3.076   0.763  1.00  0.00    -0.250 OA
BRANCH   6   8
ATOM      8  C   UNL     1      -0.859   2.445   0.348  1.00  0.00     0.206 C 
ATOM      9  C   UNL     1       1.615  -0.387   0.243  1.00  0.00     0.043 C 
ATOM     10  C   UNL     1       0.611   0.623  -0.293  1.00  0.00     0.141 C 
ATOM     11  S   UNL     1       1.571   2.153  -0.633  1.00  0.00    -0.135 SA
ATOM     12  N   UNL     1      -0.483   1.041   0.588  1.00  0.00    -0.311 N 
ATOM     13  C   UNL     1       0.439   3.235   0.274  1.00  0.00     0.109 C 
BRANCH  12  14
ATOM     14  C   UNL     1      -1.325   0.242   1.335  1.00  0.00     0.279 C 
ATOM     15  O   UNL     1      -2.162   0.712   2.110  1.00  0.00    -0.268 OA
BRANCH  14  16
ATOM     16  C   UNL     1      -1.190  -1.268   1.292  1.00  0.00     0.362 C 
BRANCH  16  17
ATOM     17  N   UNL     1      -1.347  -1.778  -0.081  1.00  0.00    -0.331 N 
ATOM     18  H   UNL     1      -0.651  -1.339  -0.684  1.00  0.00     0.346 HD
ATOM     19  H   UNL     1      -2.285  -1.556  -0.414  1.00  0.00     0.346 HD
BRANCH  17  20
ATOM     20  C   UNL     1      -1.158  -3.251  -0.103  1.00  0.00     0.378 C 
BRANCH  20  21
ATOM     21  C   UNL     1      -2.075  -4.139   0.763  1.00  0.00     0.438 C 
ATOM     22  F   UNL     1      -3.377  -3.876   0.523  1.00  0.00    -0.165 F 
ATOM     23  F   UNL     1      -1.859  -5.447   0.502  1.00  0.00    -0.165 F 
ATOM     24  F   UNL     1      -1.845  -3.950   2.082  1.00  0.00    -0.165 F 
ENDBRANCH  20  21
ENDBRANCH  17  20
ENDBRANCH  16  17
ENDBRANCH  14  16
ENDBRANCH  12  14
ENDBRANCH   6   8
ENDBRANCH   5   6
ENDBRANCH   4   5
ENDBRANCH   3   4
ENDBRANCH   2   3
ENDBRANCH   1   2
BRANCH   1  25
ATOM     25  C   UNL     1      -0.924   6.213   1.383  1.00  0.00     0.188 C 
BRANCH  25  26
ATOM     26  O   UNL     1      -0.362   6.252   2.667  1.00  0.00    -0.376 OA
BRANCH  26  27
ATOM     27  C   UNL     1       0.098   7.477   3.198  1.00  0.00     0.202 C 
BRANCH  27  28
ATOM     28  C   UNL     1      -0.350   8.868   2.708  1.00  0.00     0.261 C 
BRANCH  28  29
ATOM     29  O   UNL     1      -0.956   8.983   1.415  1.00  0.00    -0.460 OA
BRANCH  29  30
ATOM     30  C   UNL     1      -0.135   9.110   0.346  1.00  0.00     0.338 C 
ATOM     31  O   UNL     1       1.086   9.123   0.362  1.00  0.00    -0.246 OA
BRANCH  30  32
ATOM     32  C   UNL     1      -0.963   8.977  -0.878  1.00  0.00     0.060 A 
ATOM     33  C   UNL     1      -0.719   7.909  -1.756  1.00  0.00     0.016 A 
ATOM     34  C   UNL     1      -1.993   9.880  -1.143  1.00  0.00     0.016 A 
ATOM     35  C   UNL     1      -1.490   7.755  -2.911  1.00  0.00     0.010 A 
ATOM     36  C   UNL     1      -2.745   9.740  -2.315  1.00  0.00     0.010 A 
ATOM     37  C   UNL     1      -2.480   8.695  -3.219  1.00  0.00    -0.014 A 
BRANCH  37  38
ATOM     38  C   UNL     1      -3.110   8.711  -4.564  1.00  0.00     0.031 A 
ATOM     39  C   UNL     1      -2.590   9.691  -5.582  1.00  0.00     0.074 A 
ATOM     40  C   UNL     1      -4.144   7.907  -4.875  1.00  0.00     0.049 A 
ATOM     41  N   UNL     1      -3.043   9.970  -6.776  1.00  0.00    -0.248 NA
ATOM     42  C   UNL     1      -1.401  10.468  -5.193  1.00  0.00     0.031 C 
ATOM     43  C   UNL     1      -4.733   6.904  -3.992  1.00  0.00     0.029 A 
ATOM     44  N   UNL     1      -4.906   7.842  -6.017  1.00  0.00    -0.354 N 
ATOM     45  C   UNL     1      -2.226  10.982  -7.263  1.00  0.00     0.074 A 
ATOM     46  C   UNL     1      -1.248  11.269  -6.237  1.00  0.00     0.031 C 
ATOM     47  C   UNL     1      -5.794   6.353  -4.608  1.00  0.00     0.029 A 
ATOM     48  C   UNL     1      -5.979   6.987  -5.912  1.00  0.00     0.049 A 
ATOM     49  H   UNL     1      -4.704   8.357  -6.832  1.00  0.00     0.167 HD
ATOM     50  C   UNL     1      -2.280  11.616  -8.458  1.00  0.00     0.034 A 
ATOM     51  C   UNL     1      -7.013   6.773  -6.753  1.00  0.00     0.034 A 
ATOM     52  C   UNL     1      -3.243  11.324  -9.484  1.00  0.00     0.049 A 
ATOM     53  C   UNL     1      -7.071   7.517  -8.065  1.00  0.00     0.074 A 
ATOM     54  C   UNL     1      -3.341  11.875 -10.750  1.00  0.00     0.029 A 
ATOM     55  N   UNL     1      -4.285  10.420  -9.359  1.00  0.00    -0.354 N 
ATOM     56  N   UNL     1      -6.226   8.389  -8.561  1.00  0.00    -0.248 NA
ATOM     57  C   UNL     1      -8.212   7.225  -8.948  1.00  0.00     0.031 C 
ATOM     58  C   UNL     1      -4.471  11.336 -11.373  1.00  0.00     0.029 A 
ATOM     59  C   UNL     1      -5.045  10.412 -10.516  1.00  0.00     0.049 A 
ATOM     60  H   UNL     1      -4.460   9.865  -8.565  1.00  0.00     0.167 HD
ATOM     61  C   UNL     1      -6.712   8.719  -9.824  1.00  0.00     0.074 A 
ATOM     62  C   UNL     1      -7.915   7.939 -10.025  1.00  0.00     0.031 C 
ATOM     63  C   UNL     1      -6.212   9.595 -10.730  1.00  0.00     0.034 A 
BRANCH  50  64
ATOM     64  C   UNL     1      -1.265  12.696  -8.724  1.00  0.00     0.023 A 
ATOM     65  C   UNL     1       0.083  12.356  -8.952  1.00  0.00     0.012 A 
ATOM     66  C   UNL     1      -1.662  14.046  -8.808  1.00  0.00     0.148 A 
ATOM     67  C   UNL     1       1.027  13.345  -9.226  1.00  0.00     0.002 A 
ATOM     68  C   UNL     1      -0.726  15.019  -9.131  1.00  0.00     0.091 A 
ATOM     69  F   UNL     1      -2.945  14.350  -8.567  1.00  0.00    -0.205 F 
ATOM     70  C   UNL     1       0.621  14.673  -9.327  1.00  0.00     0.022 A 
BRANCH  68  71
ATOM     71  S   UNL     1      -1.164  16.745  -9.366  1.00  0.00     0.127 S 
ATOM     72  O   UNL     1      -0.510  17.374  -8.219  1.00  0.00    -0.237 OA
ATOM     73  O   UNL     1      -0.547  17.043 -10.658  1.00  0.00    -0.237 OA
ATOM     74  O   UNL     1      -2.619  16.797  -9.359  1.00  0.00    -0.744 OA
ENDBRANCH  68  71
ENDBRANCH  50  64
BRANCH  51  75
ATOM     75  C   UNL     1      -8.087   5.804  -6.389  1.00  0.00     0.023 A 
ATOM     76  C   UNL     1      -8.229   4.610  -7.122  1.00  0.00     0.012 A 
ATOM     77  C   UNL     1      -8.974   6.066  -5.327  1.00  0.00     0.148 A 
ATOM     78  C   UNL     1      -9.255   3.711  -6.827  1.00  0.00     0.002 A 
ATOM     79  C   UNL     1      -9.958   5.140  -5.001  1.00  0.00     0.091 A 
ATOM     80  F   UNL     1      -8.836   7.217  -4.654  1.00  0.00    -0.205 F 
ATOM     81  C   UNL     1     -10.112   3.970  -5.761  1.00  0.00     0.022 A 
BRANCH  79  82
ATOM     82  S   UNL     1     -11.034   5.333  -3.576  1.00  0.00     0.127 S 
ATOM     83  O   UNL     1     -12.335   5.538  -4.209  1.00  0.00    -0.237 OA
ATOM     84  O   UNL     1     -10.873   4.044  -2.903  1.00  0.00    -0.237 OA
ATOM     85  O   UNL     1     -10.508   6.471  -2.835  1.00  0.00    -0.744 OA
ENDBRANCH  79  82
ENDBRANCH  51  75
BRANCH  63  86
ATOM     86  C   UNL     1      -6.922   9.730 -12.054  1.00  0.00     0.023 A 
ATOM     87  C   UNL     1      -8.174  10.372 -12.125  1.00  0.00     0.012 A 
ATOM     88  C   UNL     1      -6.303   9.294 -13.243  1.00  0.00     0.148 A 
ATOM     89  C   UNL     1      -8.813  10.548 -13.353  1.00  0.00     0.002 A 
ATOM     90  C   UNL     1      -6.920   9.520 -14.468  1.00  0.00     0.091 A 
ATOM     91  F   UNL     1      -5.117   8.673 -13.155  1.00  0.00    -0.205 F 
ATOM     92  C   UNL     1      -8.181  10.134 -14.524  1.00  0.00     0.022 A 
BRANCH  90  93
ATOM     93  S   UNL     1      -6.139   9.112 -16.034  1.00  0.00     0.127 S 
ATOM     94  O   UNL     1      -6.971   8.005 -16.502  1.00  0.00    -0.237 OA
ATOM     95  O   UNL     1      -6.295  10.355 -16.790  1.00  0.00    -0.237 OA
ATOM     96  O   UNL     1      -4.760   8.764 -15.719  1.00  0.00    -0.744 OA
ENDBRANCH  90  93
ENDBRANCH  63  86
ENDBRANCH  37  38
ENDBRANCH  30  32
ENDBRANCH  29  30
ENDBRANCH  28  29
ENDBRANCH  27  28
ENDBRANCH  26  27
ENDBRANCH  25  26
ENDBRANCH   1  25
TORSDOF 25
