REMARK SMILES O=C(OCCOCCOCCOC(=O)c1ccc(CNC(=O)c2cnns2)o1)c1ccc(-c2c3nc(c(-c4cccc(S(=O)(=O)[O-])c4F)c4ccc([nH]4)c(-c4cccc(S(=O)(=O)[O-])c4F)c4nc(c(-c5cccc(S(=O)(=O)[O-])c5F)c5ccc2[nH]5)C=C4)C=C3)cc1
REMARK SMILES IDX 7 1 6 2 5 3 4 4 3 5 2 6 1 7 29 8 30 9 91 10 31 11 90 12
REMARK SMILES IDX 32 13 33 14 34 15 84 16 35 17 89 18 83 19 85 20 36 21 88 22
REMARK SMILES IDX 82 23 81 24 37 26 69 27 49 28 68 29 50 30 53 31 67 32 86 33
REMARK SMILES IDX 51 34 52 35 66 37 87 38 54 39 38 40 39 41 47 42 40 43 42 44
REMARK SMILES IDX 48 45 41 46 43 47 44 48 45 49 46 50 70 51 71 52 79 53 72 54
REMARK SMILES IDX 74 55 80 56 73 57 75 58 76 59 77 60 78 61 55 62 56 63 64 64
REMARK SMILES IDX 57 65 59 66 65 67 58 68 60 69 61 70 62 71 63 72 8 73 9 74
REMARK SMILES IDX 10 75 11 76 12 77 13 78 14 79 15 80 16 81 28 82 17 83 18 84
REMARK SMILES IDX 19 85 20 86 21 87 22 89 23 90 24 91 27 92 25 93 26 94
REMARK H PARENT 85 25 53 36 20 88
REMARK Flexibility Score: inf
ROOT
ATOM      1  C   UNL     1       2.799  -1.997  -0.477  1.00  0.00     0.188 C 
ENDROOT
BRANCH   1   2
ATOM      2  O   UNL     1       3.780  -2.502   0.435  1.00  0.00    -0.376 OA
BRANCH   2   3
ATOM      3  C   UNL     1       4.894  -1.611   0.600  1.00  0.00     0.202 C 
BRANCH   3   4
ATOM      4  C   UNL     1       4.634  -0.350   1.450  1.00  0.00     0.261 C 
BRANCH   4   5
ATOM      5  O   UNL     1       3.261   0.090   1.435  1.00  0.00    -0.460 OA
BRANCH   5   6
ATOM      6  C   UNL     1       2.644   1.103   0.792  1.00  0.00     0.338 C 
ATOM      7  O   UNL     1       1.497   1.396   1.123  1.00  0.00    -0.246 OA
BRANCH   6   8
ATOM      8  C   UNL     1       3.267   1.859  -0.330  1.00  0.00     0.060 A 
ATOM      9  C   UNL     1       4.299   1.382  -1.139  1.00  0.00     0.016 A 
ATOM     10  C   UNL     1       2.710   3.106  -0.641  1.00  0.00     0.016 A 
ATOM     11  C   UNL     1       4.838   2.156  -2.167  1.00  0.00     0.010 A 
ATOM     12  C   UNL     1       3.206   3.865  -1.702  1.00  0.00     0.010 A 
ATOM     13  C   UNL     1       4.304   3.411  -2.444  1.00  0.00    -0.014 A 
BRANCH  13  14
ATOM     14  C   UNL     1       4.970   4.324  -3.397  1.00  0.00     0.031 A 
ATOM     15  C   UNL     1       5.596   5.570  -2.850  1.00  0.00     0.074 A 
ATOM     16  C   UNL     1       4.995   4.063  -4.716  1.00  0.00     0.049 A 
ATOM     17  N   UNL     1       6.054   6.613  -3.484  1.00  0.00    -0.248 NA
ATOM     18  C   UNL     1       5.718   5.647  -1.383  1.00  0.00     0.031 C 
ATOM     19  C   UNL     1       4.500   2.842  -5.345  1.00  0.00     0.029 A 
ATOM     20  N   UNL     1       5.423   4.831  -5.769  1.00  0.00    -0.354 N 
ATOM     21  C   UNL     1       6.463   7.495  -2.493  1.00  0.00     0.074 A 
ATOM     22  C   UNL     1       6.191   6.871  -1.218  1.00  0.00     0.031 C 
ATOM     23  C   UNL     1       4.582   2.970  -6.679  1.00  0.00     0.029 A 
ATOM     24  C   UNL     1       5.107   4.294  -6.995  1.00  0.00     0.049 A 
ATOM     25  H   UNL     1       5.909   5.681  -5.658  1.00  0.00     0.167 HD
ATOM     26  C   UNL     1       7.032   8.713  -2.635  1.00  0.00     0.034 A 
ATOM     27  C   UNL     1       5.189   4.829  -8.229  1.00  0.00     0.034 A 
ATOM     28  C   UNL     1       7.331   9.300  -3.909  1.00  0.00     0.049 A 
ATOM     29  C   UNL     1       5.787   6.200  -8.374  1.00  0.00     0.074 A 
ATOM     30  C   UNL     1       7.928  10.515  -4.183  1.00  0.00     0.029 A 
ATOM     31  N   UNL     1       7.051   8.700  -5.129  1.00  0.00    -0.354 N 
ATOM     32  N   UNL     1       6.224   7.004  -7.434  1.00  0.00    -0.248 NA
ATOM     33  C   UNL     1       5.944   6.725  -9.737  1.00  0.00     0.031 C 
ATOM     34  C   UNL     1       8.001  10.653  -5.573  1.00  0.00     0.029 A 
ATOM     35  C   UNL     1       7.463   9.517  -6.162  1.00  0.00     0.049 A 
ATOM     36  H   UNL     1       6.622   7.821  -5.240  1.00  0.00     0.167 HD
ATOM     37  C   UNL     1       6.753   8.108  -8.089  1.00  0.00     0.074 A 
ATOM     38  C   UNL     1       6.575   7.872  -9.509  1.00  0.00     0.031 C 
ATOM     39  C   UNL     1       7.331   9.216  -7.566  1.00  0.00     0.034 A 
BRANCH  26  40
ATOM     40  C   UNL     1       7.362   9.457  -1.372  1.00  0.00     0.023 A 
ATOM     41  C   UNL     1       8.441   9.030  -0.571  1.00  0.00     0.012 A 
ATOM     42  C   UNL     1       6.572  10.541  -0.948  1.00  0.00     0.148 A 
ATOM     43  C   UNL     1       8.697   9.639   0.658  1.00  0.00     0.002 A 
ATOM     44  C   UNL     1       6.858  11.169   0.259  1.00  0.00     0.091 A 
ATOM     45  F   UNL     1       5.529  10.910  -1.705  1.00  0.00    -0.205 F 
ATOM     46  C   UNL     1       7.909  10.710   1.069  1.00  0.00     0.022 A 
BRANCH  44  47
ATOM     47  S   UNL     1       5.929  12.593   0.835  1.00  0.00     0.127 S 
ATOM     48  O   UNL     1       5.023  11.983   1.806  1.00  0.00    -0.237 OA
ATOM     49  O   UNL     1       6.976  13.431   1.422  1.00  0.00    -0.237 OA
ATOM     50  O   UNL     1       5.303  13.159  -0.352  1.00  0.00    -0.744 OA
ENDBRANCH  44  47
ENDBRANCH  26  40
BRANCH  27  51
ATOM     51  C   UNL     1       4.701   4.046  -9.399  1.00  0.00     0.023 A 
ATOM     52  C   UNL     1       5.616   3.508 -10.321  1.00  0.00     0.012 A 
ATOM     53  C   UNL     1       3.330   3.756  -9.546  1.00  0.00     0.148 A 
ATOM     54  C   UNL     1       5.174   2.705 -11.375  1.00  0.00     0.002 A 
ATOM     55  C   UNL     1       2.903   2.907 -10.560  1.00  0.00     0.091 A 
ATOM     56  F   UNL     1       2.469   4.287  -8.665  1.00  0.00    -0.205 F 
ATOM     57  C   UNL     1       3.821   2.392 -11.486  1.00  0.00     0.022 A 
BRANCH  55  58
ATOM     58  S   UNL     1       1.208   2.317 -10.646  1.00  0.00     0.127 S 
ATOM     59  O   UNL     1       0.669   3.105 -11.749  1.00  0.00    -0.237 OA
ATOM     60  O   UNL     1       1.396   0.894 -10.930  1.00  0.00    -0.237 OA
ATOM     61  O   UNL     1       0.644   2.583  -9.328  1.00  0.00    -0.744 OA
ENDBRANCH  55  58
ENDBRANCH  27  51
BRANCH  39  62
ATOM     62  C   UNL     1       7.874  10.239  -8.522  1.00  0.00     0.023 A 
ATOM     63  C   UNL     1       7.000  11.149  -9.143  1.00  0.00     0.012 A 
ATOM     64  C   UNL     1       9.266  10.378  -8.687  1.00  0.00     0.148 A 
ATOM     65  C   UNL     1       7.507  12.188  -9.922  1.00  0.00     0.002 A 
ATOM     66  C   UNL     1       9.764  11.440  -9.429  1.00  0.00     0.091 A 
ATOM     67  F   UNL     1      10.072   9.481  -8.101  1.00  0.00    -0.205 F 
ATOM     68  C   UNL     1       8.886  12.343 -10.052  1.00  0.00     0.022 A 
BRANCH  66  69
ATOM     69  S   UNL     1      11.524  11.772  -9.562  1.00  0.00     0.127 S 
ATOM     70  O   UNL     1      11.793  11.392 -10.947  1.00  0.00    -0.237 OA
ATOM     71  O   UNL     1      11.589  13.210  -9.298  1.00  0.00    -0.237 OA
ATOM     72  O   UNL     1      12.166  10.944  -8.550  1.00  0.00    -0.744 OA
ENDBRANCH  66  69
ENDBRANCH  39  62
ENDBRANCH  13  14
ENDBRANCH   6   8
ENDBRANCH   5   6
ENDBRANCH   4   5
ENDBRANCH   3   4
ENDBRANCH   2   3
ENDBRANCH   1   2
BRANCH   1  73
ATOM     73  C   UNL     1       1.981  -3.038  -1.255  1.00  0.00     0.188 C 
BRANCH  73  74
ATOM     74  O   UNL     1       2.563  -4.263  -1.681  1.00  0.00    -0.376 OA
BRANCH  74  75
ATOM     75  C   UNL     1       3.945  -4.304  -1.970  1.00  0.00     0.202 C 
BRANCH  75  76
ATOM     76  C   UNL     1       4.449  -3.555  -3.205  1.00  0.00     0.261 C 
BRANCH  76  77
ATOM     77  O   UNL     1       3.662  -2.428  -3.615  1.00  0.00    -0.457 OA
BRANCH  77  78
ATOM     78  C   UNL     1       3.053  -2.582  -4.828  1.00  0.00     0.374 C 
ATOM     79  O   UNL     1       3.015  -3.650  -5.450  1.00  0.00    -0.242 OA
BRANCH  78  80
ATOM     80  C   UNL     1       2.585  -1.327  -5.360  1.00  0.00     0.211 A 
ATOM     81  C   UNL     1       2.463  -0.940  -6.683  1.00  0.00     0.058 A 
ATOM     82  O   UNL     1       2.140  -0.312  -4.546  1.00  0.00    -0.452 OA
ATOM     83  C   UNL     1       1.902   0.351  -6.690  1.00  0.00     0.048 A 
ATOM     84  C   UNL     1       1.692   0.690  -5.371  1.00  0.00     0.124 A 
BRANCH  84  85
ATOM     85  C   UNL     1       1.074   1.889  -4.747  1.00  0.00     0.191 C 
BRANCH  85  86
ATOM     86  N   UNL     1      -0.350   1.651  -4.628  1.00  0.00    -0.344 N 
ATOM     87  C   UNL     1      -1.244   2.191  -3.742  1.00  0.00     0.265 C 
ATOM     88  H   UNL     1      -0.728   1.011  -5.274  1.00  0.00     0.164 HD
ATOM     89  O   UNL     1      -2.367   1.688  -3.688  1.00  0.00    -0.268 OA
BRANCH  87  90
ATOM     90  C   UNL     1      -0.839   3.293  -2.916  1.00  0.00     0.133 A 
ATOM     91  C   UNL     1      -0.126   4.447  -3.176  1.00  0.00     0.163 A 
ATOM     92  S   UNL     1      -1.337   3.371  -1.278  1.00  0.00    -0.007 S 
ATOM     93  N   UNL     1       0.033   5.300  -2.093  1.00  0.00    -0.146 NA
ATOM     94  N   UNL     1      -0.564   4.831  -1.011  1.00  0.00    -0.090 NA
ENDBRANCH  87  90
ENDBRANCH  85  86
ENDBRANCH  84  85
ENDBRANCH  78  80
ENDBRANCH  77  78
ENDBRANCH  76  77
ENDBRANCH  75  76
ENDBRANCH  74  75
ENDBRANCH  73  74
ENDBRANCH   1  73
TORSDOF 23
