REMARK SMILES O=C(OCCOCCOCCOC(=O)[C@@H]1CN(S(=O)(=O)c2ccc3c(c2)OCCCO3)CC[NH2+]1)c1ccc(-c2c3nc(c(-c4cccc(S(=O)(=O)[O-])c4F)c4ccc([nH]4)c(-c4cccc(S(=O)(=O)[O-])c4F)c4nc(c(-c5cccc(S(=O)(=O)[O-])c5F)c5ccc2[nH]5)C=C4)C=C3)cc1
REMARK SMILES IDX 8 1 7 2 6 3 5 4 4 5 3 6 2 7 1 8 35 9 36 10 97 11 37 12 96 13
REMARK SMILES IDX 38 14 39 15 40 16 90 17 41 18 95 19 89 20 91 21 42 22 94 23
REMARK SMILES IDX 88 24 87 25 43 27 75 28 55 29 74 30 56 31 59 32 73 33 92 34
REMARK SMILES IDX 57 35 58 36 72 38 93 39 60 40 44 41 45 42 53 43 46 44 48 45
REMARK SMILES IDX 54 46 47 47 49 48 50 49 51 50 52 51 76 52 77 53 85 54 78 55
REMARK SMILES IDX 80 56 86 57 79 58 81 59 82 60 83 61 84 62 61 63 62 64 70 65
REMARK SMILES IDX 63 66 65 67 71 68 64 69 66 70 67 71 68 72 69 73 9 74 10 75
REMARK SMILES IDX 11 76 12 77 13 78 14 79 15 80 16 81 34 82 17 83 33 84 32 87
REMARK SMILES IDX 18 88 19 89 20 90 21 91 22 92 26 93 23 94 25 95 24 96 27 97
REMARK SMILES IDX 28 98 29 99 31 101 30 102
REMARK H PARENT 91 26 59 37 34 85 34 86
REMARK Flexibility Score: 80.00
ROOT
ATOM      1  C   UNL     1       1.966   2.812   0.539  1.00  0.00     0.188 C 
ENDROOT
BRANCH   1   2
ATOM      2  C   UNL     1       2.679   1.520   0.151  1.00  0.00     0.188 C 
BRANCH   2   3
ATOM      3  O   UNL     1       3.878   1.289   0.880  1.00  0.00    -0.376 OA
BRANCH   3   4
ATOM      4  C   UNL     1       5.032   0.907   0.134  1.00  0.00     0.202 C 
BRANCH   4   5
ATOM      5  C   UNL     1       4.876   0.069  -1.141  1.00  0.00     0.261 C 
BRANCH   5   6
ATOM      6  O   UNL     1       3.861  -0.956  -1.273  1.00  0.00    -0.460 OA
BRANCH   6   7
ATOM      7  C   UNL     1       3.046  -1.563  -0.389  1.00  0.00     0.338 C 
ATOM      8  O   UNL     1       1.893  -1.828  -0.722  1.00  0.00    -0.246 OA
BRANCH   7   9
ATOM      9  C   UNL     1       3.521  -1.966   0.961  1.00  0.00     0.060 A 
ATOM     10  C   UNL     1       2.573  -2.484   1.863  1.00  0.00     0.016 A 
ATOM     11  C   UNL     1       4.856  -1.933   1.347  1.00  0.00     0.016 A 
ATOM     12  C   UNL     1       2.960  -2.949   3.126  1.00  0.00     0.010 A 
ATOM     13  C   UNL     1       5.228  -2.280   2.649  1.00  0.00     0.010 A 
ATOM     14  C   UNL     1       4.293  -2.841   3.536  1.00  0.00    -0.014 A 
BRANCH  14  15
ATOM     15  C   UNL     1       4.813  -3.600   4.701  1.00  0.00     0.031 A 
ATOM     16  C   UNL     1       4.679  -3.177   6.131  1.00  0.00     0.074 A 
ATOM     17  C   UNL     1       5.421  -4.765   4.428  1.00  0.00     0.049 A 
ATOM     18  N   UNL     1       5.398  -3.494   7.177  1.00  0.00    -0.248 NA
ATOM     19  C   UNL     1       3.567  -2.288   6.442  1.00  0.00     0.031 C 
ATOM     20  C   UNL     1       5.483  -5.406   3.112  1.00  0.00     0.029 A 
ATOM     21  N   UNL     1       6.077  -5.624   5.258  1.00  0.00    -0.354 N 
ATOM     22  C   UNL     1       4.968  -2.655   8.213  1.00  0.00     0.074 A 
ATOM     23  C   UNL     1       3.787  -1.995   7.720  1.00  0.00     0.031 C 
ATOM     24  C   UNL     1       6.113  -6.582   3.234  1.00  0.00     0.029 A 
ATOM     25  C   UNL     1       6.529  -6.748   4.622  1.00  0.00     0.049 A 
ATOM     26  H   UNL     1       6.212  -5.454   6.218  1.00  0.00     0.167 HD
ATOM     27  C   UNL     1       5.649  -2.378   9.361  1.00  0.00     0.034 A 
ATOM     28  C   UNL     1       7.189  -7.803   5.128  1.00  0.00     0.034 A 
ATOM     29  C   UNL     1       6.641  -3.294   9.855  1.00  0.00     0.049 A 
ATOM     30  C   UNL     1       7.542  -7.789   6.583  1.00  0.00     0.074 A 
ATOM     31  C   UNL     1       7.361  -3.259  11.034  1.00  0.00     0.029 A 
ATOM     32  N   UNL     1       6.959  -4.479   9.219  1.00  0.00    -0.354 N 
ATOM     33  N   UNL     1       7.444  -6.795   7.432  1.00  0.00    -0.248 NA
ATOM     34  C   UNL     1       8.058  -9.032   7.166  1.00  0.00     0.031 C 
ATOM     35  C   UNL     1       8.061  -4.463  11.141  1.00  0.00     0.029 A 
ATOM     36  C   UNL     1       7.733  -5.250  10.048  1.00  0.00     0.049 A 
ATOM     37  H   UNL     1       6.673  -4.730   8.311  1.00  0.00     0.167 HD
ATOM     38  C   UNL     1       7.884  -7.290   8.649  1.00  0.00     0.074 A 
ATOM     39  C   UNL     1       8.224  -8.681   8.438  1.00  0.00     0.031 C 
ATOM     40  C   UNL     1       8.015  -6.639   9.827  1.00  0.00     0.034 A 
BRANCH  27  41
ATOM     41  C   UNL     1       5.492  -1.056  10.115  1.00  0.00     0.023 A 
ATOM     42  C   UNL     1       4.284  -0.624  10.675  1.00  0.00     0.012 A 
ATOM     43  C   UNL     1       6.643  -0.229  10.298  1.00  0.00     0.148 A 
ATOM     44  C   UNL     1       4.209   0.601  11.356  1.00  0.00     0.002 A 
ATOM     45  C   UNL     1       6.577   0.956  11.026  1.00  0.00     0.091 A 
ATOM     46  F   UNL     1       7.799  -0.611   9.732  1.00  0.00    -0.205 F 
ATOM     47  C   UNL     1       5.350   1.382  11.542  1.00  0.00     0.022 A 
BRANCH  45  48
ATOM     48  S   UNL     1       8.019   1.977  11.377  1.00  0.00     0.127 S 
ATOM     49  O   UNL     1       7.607   3.283  10.861  1.00  0.00    -0.237 OA
ATOM     50  O   UNL     1       8.099   1.899  12.835  1.00  0.00    -0.237 OA
ATOM     51  O   UNL     1       9.136   1.372  10.663  1.00  0.00    -0.744 OA
ENDBRANCH  45  48
ENDBRANCH  27  41
BRANCH  28  52
ATOM     52  C   UNL     1       7.377  -8.979   4.250  1.00  0.00     0.023 A 
ATOM     53  C   UNL     1       6.447 -10.033   4.339  1.00  0.00     0.012 A 
ATOM     54  C   UNL     1       8.320  -8.966   3.208  1.00  0.00     0.148 A 
ATOM     55  C   UNL     1       6.456 -11.062   3.401  1.00  0.00     0.002 A 
ATOM     56  C   UNL     1       8.294  -9.971   2.251  1.00  0.00     0.091 A 
ATOM     57  F   UNL     1       9.174  -7.935   3.138  1.00  0.00    -0.205 F 
ATOM     58  C   UNL     1       7.369 -11.024   2.349  1.00  0.00     0.022 A 
BRANCH  56  59
ATOM     59  S   UNL     1       9.329  -9.922   0.784  1.00  0.00     0.127 S 
ATOM     60  O   UNL     1      10.298 -10.977   1.070  1.00  0.00    -0.237 OA
ATOM     61  O   UNL     1       8.370 -10.236  -0.277  1.00  0.00    -0.237 OA
ATOM     62  O   UNL     1       9.864  -8.569   0.725  1.00  0.00    -0.744 OA
ENDBRANCH  56  59
ENDBRANCH  28  52
BRANCH  40  63
ATOM     63  C   UNL     1       8.501  -7.379  11.029  1.00  0.00     0.023 A 
ATOM     64  C   UNL     1       9.885  -7.472  11.254  1.00  0.00     0.012 A 
ATOM     65  C   UNL     1       7.588  -7.716  12.047  1.00  0.00     0.148 A 
ATOM     66  C   UNL     1      10.360  -7.870  12.500  1.00  0.00     0.002 A 
ATOM     67  C   UNL     1       8.070  -8.091  13.291  1.00  0.00     0.091 A 
ATOM     68  F   UNL     1       6.277  -7.605  11.790  1.00  0.00    -0.205 F 
ATOM     69  C   UNL     1       9.455  -8.163  13.520  1.00  0.00     0.022 A 
BRANCH  67  70
ATOM     70  S   UNL     1       6.988  -8.415  14.686  1.00  0.00     0.127 S 
ATOM     71  O   UNL     1       7.229  -9.838  14.919  1.00  0.00    -0.237 OA
ATOM     72  O   UNL     1       7.533  -7.527  15.713  1.00  0.00    -0.237 OA
ATOM     73  O   UNL     1       5.641  -8.084  14.243  1.00  0.00    -0.744 OA
ENDBRANCH  67  70
ENDBRANCH  40  63
ENDBRANCH  14  15
ENDBRANCH   7   9
ENDBRANCH   6   7
ENDBRANCH   5   6
ENDBRANCH   4   5
ENDBRANCH   3   4
ENDBRANCH   2   3
ENDBRANCH   1   2
BRANCH   1  74
ATOM     74  O   UNL     1       2.570   4.052   0.175  1.00  0.00    -0.376 OA
BRANCH  74  75
ATOM     75  C   UNL     1       3.932   4.287   0.511  1.00  0.00     0.202 C 
BRANCH  75  76
ATOM     76  C   UNL     1       4.299   4.522   1.978  1.00  0.00     0.261 C 
BRANCH  76  77
ATOM     77  O   UNL     1       3.763   3.546   2.860  1.00  0.00    -0.459 OA
BRANCH  77  78
ATOM     78  C   UNL     1       2.559   3.828   3.436  1.00  0.00     0.366 C 
ATOM     79  O   UNL     1       1.910   4.847   3.240  1.00  0.00    -0.245 OA
BRANCH  78  80
ATOM     80  C   UNL     1       2.184   2.719   4.398  1.00  0.00     0.308 C 
ATOM     81  C   UNL     1       2.978   1.410   4.184  1.00  0.00     0.180 C 
ATOM     82  N   UNL     1       0.736   2.358   4.499  1.00  0.00    -0.332 N 
ATOM     83  N   UNL     1       3.051   0.735   5.497  1.00  0.00    -0.186 NA
ATOM     84  C   UNL     1       0.614   1.575   5.761  1.00  0.00     0.278 C 
ATOM     85  H   UNL     1       0.451   1.793   3.699  1.00  0.00     0.347 HD
ATOM     86  H   UNL     1       0.138   3.184   4.505  1.00  0.00     0.347 HD
ATOM     87  C   UNL     1       1.659   0.448   6.000  1.00  0.00     0.164 C 
BRANCH  83  88
ATOM     88  S   UNL     1       4.209   1.452   6.566  1.00  0.00     0.243 S 
ATOM     89  O   UNL     1       4.284   2.881   6.297  1.00  0.00    -0.207 OA
ATOM     90  O   UNL     1       3.919   0.974   7.886  1.00  0.00    -0.207 OA
BRANCH  88  91
ATOM     91  C   UNL     1       5.755   0.783   5.982  1.00  0.00     0.086 A 
ATOM     92  C   UNL     1       6.424  -0.144   6.768  1.00  0.00     0.026 A 
ATOM     93  C   UNL     1       6.390   1.291   4.852  1.00  0.00     0.072 A 
ATOM     94  C   UNL     1       7.647  -0.691   6.399  1.00  0.00     0.052 A 
ATOM     95  C   UNL     1       7.666   0.828   4.535  1.00  0.00     0.162 A 
ATOM     96  C   UNL     1       8.275  -0.186   5.279  1.00  0.00     0.161 A 
BRANCH  95  97
ATOM     97  O   UNL     1       8.376   1.499   3.571  1.00  0.00    -0.490 OA
BRANCH  97  98
ATOM     98  C   UNL     1       9.373   2.294   4.237  1.00  0.00     0.233 C 
BRANCH  98  99
ATOM     99  C   UNL     1      10.658   1.516   4.524  1.00  0.00     0.083 CG0
ATOM    100  G   UNL     1      10.464   0.366   5.510  1.00  0.00     0.000 G0
ENDBRANCH  98  99
ENDBRANCH  97  98
ENDBRANCH  95  97
BRANCH  96 101
ATOM    101  O   UNL     1       9.545  -0.602   4.993  1.00  0.00    -0.490 OA
BRANCH 101 102
ATOM    102  C   UNL     1      10.464   0.366   5.510  1.00  0.00     0.233 CG0
ATOM    103  G   UNL     1      10.658   1.516   4.524  1.00  0.00     0.000 G0
ENDBRANCH 101 102
ENDBRANCH  96 101
ENDBRANCH  88  91
ENDBRANCH  83  88
ENDBRANCH  78  80
ENDBRANCH  77  78
ENDBRANCH  76  77
ENDBRANCH  75  76
ENDBRANCH  74  75
ENDBRANCH   1  74
TORSDOF 22
