REMARK SMILES CS(=O)(=O)c1ccc(/C=C(/C(=O)OCCOCCOCCOC(=O)c2ccc(-c3c4nc(c(-c5cccc(S(=O)(=O)[O-])c5F)c5ccc([nH]5)c(-c5cccc(S(=O)(=O)[O-])c5F)c5nc(c(-c6cccc(S(=O)(=O)[O-])c6F)c6ccc3[nH]6)C=C5)C=C4)cc2)c2ccccc2)cc1
REMARK SMILES IDX 18 1 17 2 16 3 15 4 14 5 13 6 11 7 12 8 10 9 9 10 8 11 5 12
REMARK SMILES IDX 6 13 95 14 7 15 94 16 2 17 1 18 3 19 4 20 88 21 89 22 93 23
REMARK SMILES IDX 90 24 92 25 91 26 19 27 20 28 21 29 22 30 23 31 24 32 25 33
REMARK SMILES IDX 26 34 87 35 27 36 86 37 28 38 29 39 30 40 80 41 31 42 85 43
REMARK SMILES IDX 79 44 81 45 32 46 84 47 78 48 77 49 33 51 65 52 45 53 64 54
REMARK SMILES IDX 46 55 49 56 63 57 82 58 47 59 48 60 62 62 83 63 50 64 34 65
REMARK SMILES IDX 35 66 43 67 36 68 38 69 44 70 37 71 39 72 40 73 41 74 42 75
REMARK SMILES IDX 66 76 67 77 75 78 68 79 70 80 76 81 69 82 71 83 72 84 73 85
REMARK SMILES IDX 74 86 51 87 52 88 60 89 53 90 55 91 61 92 54 93 56 94 57 95
REMARK SMILES IDX 58 96 59 97
REMARK H PARENT 81 50 49 61
REMARK Flexibility Score: inf
ROOT
ATOM      1  C   UNL     1       0.176   4.940   8.292  1.00  0.00     0.188 C 
ENDROOT
BRANCH   1   2
ATOM      2  C   UNL     1       1.232   4.686   9.388  1.00  0.00     0.188 C 
BRANCH   2   3
ATOM      3  O   UNL     1       1.772   5.872   9.950  1.00  0.00    -0.376 OA
BRANCH   3   4
ATOM      4  C   UNL     1       3.138   6.126   9.651  1.00  0.00     0.202 C 
BRANCH   4   5
ATOM      5  C   UNL     1       3.378   6.634   8.226  1.00  0.00     0.261 C 
BRANCH   5   6
ATOM      6  O   UNL     1       2.872   5.772   7.191  1.00  0.00    -0.460 OA
BRANCH   6   7
ATOM      7  C   UNL     1       3.593   4.661   6.899  1.00  0.00     0.338 C 
ATOM      8  O   UNL     1       4.652   4.357   7.423  1.00  0.00    -0.246 OA
BRANCH   7   9
ATOM      9  C   UNL     1       2.870   3.812   5.889  1.00  0.00     0.067 C 
ATOM     10  C   UNL     1       2.142   4.418   4.918  1.00  0.00     0.024 C 
BRANCH  10  11
ATOM     11  C   UNL     1       1.468   3.803   3.750  1.00  0.00    -0.025 A 
ATOM     12  C   UNL     1       0.546   2.609   1.381  1.00  0.00     0.067 A 
ATOM     13  C   UNL     1       0.374   1.953   2.598  1.00  0.00     0.021 A 
ATOM     14  C   UNL     1       1.073   3.901   1.347  1.00  0.00     0.021 A 
ATOM     15  C   UNL     1       0.812   2.565   3.777  1.00  0.00     0.009 A 
ATOM     16  C   UNL     1       1.527   4.493   2.529  1.00  0.00     0.009 A 
BRANCH  12  17
ATOM     17  S   UNL     1       0.173   1.775  -0.142  1.00  0.00     0.175 S 
ATOM     18  C   UNL     1       0.952   0.186   0.002  1.00  0.00     0.163 C 
ATOM     19  O   UNL     1       0.865   2.487  -1.204  1.00  0.00    -0.224 OA
ATOM     20  O   UNL     1      -1.263   1.589  -0.187  1.00  0.00    -0.224 OA
ENDBRANCH  12  17
ENDBRANCH  10  11
BRANCH   9  21
ATOM     21  C   UNL     1       3.004   2.345   5.982  1.00  0.00    -0.011 A 
ATOM     22  C   UNL     1       2.264   1.642   6.947  1.00  0.00     0.009 A 
ATOM     23  C   UNL     1       3.759   1.626   5.047  1.00  0.00     0.009 A 
ATOM     24  C   UNL     1       2.252   0.247   6.954  1.00  0.00     0.001 A 
ATOM     25  C   UNL     1       3.743   0.229   5.056  1.00  0.00     0.001 A 
ATOM     26  C   UNL     1       2.985  -0.458   6.003  1.00  0.00     0.000 A 
ENDBRANCH   9  21
ENDBRANCH   7   9
ENDBRANCH   6   7
ENDBRANCH   5   6
ENDBRANCH   4   5
ENDBRANCH   3   4
ENDBRANCH   2   3
ENDBRANCH   1   2
BRANCH   1  27
ATOM     27  O   UNL     1      -0.497   6.191   8.202  1.00  0.00    -0.376 OA
BRANCH  27  28
ATOM     28  C   UNL     1      -0.821   6.893   9.391  1.00  0.00     0.202 C 
BRANCH  28  29
ATOM     29  C   UNL     1      -1.795   6.242  10.380  1.00  0.00     0.261 C 
BRANCH  29  30
ATOM     30  O   UNL     1      -1.515   4.869  10.690  1.00  0.00    -0.460 OA
BRANCH  30  31
ATOM     31  C   UNL     1      -2.372   3.970  10.142  1.00  0.00     0.338 C 
ATOM     32  O   UNL     1      -3.352   4.209   9.459  1.00  0.00    -0.246 OA
BRANCH  31  33
ATOM     33  C   UNL     1      -1.856   2.599  10.342  1.00  0.00     0.060 A 
ATOM     34  C   UNL     1      -1.693   1.790   9.209  1.00  0.00     0.016 A 
ATOM     35  C   UNL     1      -1.597   2.090  11.616  1.00  0.00     0.016 A 
ATOM     36  C   UNL     1      -1.296   0.460   9.347  1.00  0.00     0.010 A 
ATOM     37  C   UNL     1      -1.224   0.747  11.755  1.00  0.00     0.010 A 
ATOM     38  C   UNL     1      -1.101  -0.080  10.625  1.00  0.00    -0.014 A 
BRANCH  38  39
ATOM     39  C   UNL     1      -0.942  -1.546  10.778  1.00  0.00     0.031 A 
ATOM     40  C   UNL     1      -2.170  -2.388  10.992  1.00  0.00     0.074 A 
ATOM     41  C   UNL     1       0.271  -2.124  10.724  1.00  0.00     0.049 A 
ATOM     42  N   UNL     1      -2.271  -3.683  11.137  1.00  0.00    -0.248 NA
ATOM     43  C   UNL     1      -3.456  -1.672  11.048  1.00  0.00     0.031 C 
ATOM     44  C   UNL     1       1.536  -1.421  10.525  1.00  0.00     0.029 A 
ATOM     45  N   UNL     1       0.634  -3.442  10.854  1.00  0.00    -0.354 N 
ATOM     46  C   UNL     1      -3.624  -3.938  11.320  1.00  0.00     0.074 A 
ATOM     47  C   UNL     1      -4.306  -2.663  11.274  1.00  0.00     0.031 C 
ATOM     48  C   UNL     1       2.542  -2.312  10.571  1.00  0.00     0.029 A 
ATOM     49  C   UNL     1       1.994  -3.644  10.826  1.00  0.00     0.049 A 
ATOM     50  H   UNL     1      -0.017  -4.173  10.959  1.00  0.00     0.167 HD
ATOM     51  C   UNL     1      -4.247  -5.126  11.499  1.00  0.00     0.034 A 
ATOM     52  C   UNL     1       2.711  -4.772  11.006  1.00  0.00     0.034 A 
ATOM     53  C   UNL     1      -3.575  -6.395  11.550  1.00  0.00     0.049 A 
ATOM     54  C   UNL     1       1.994  -6.078  11.243  1.00  0.00     0.074 A 
ATOM     55  C   UNL     1      -4.126  -7.655  11.694  1.00  0.00     0.029 A 
ATOM     56  N   UNL     1      -2.201  -6.564  11.481  1.00  0.00    -0.354 N 
ATOM     57  N   UNL     1       0.706  -6.321  11.273  1.00  0.00    -0.248 NA
ATOM     58  C   UNL     1       2.832  -7.272  11.439  1.00  0.00     0.031 C 
ATOM     59  C   UNL     1      -3.083  -8.586  11.736  1.00  0.00     0.029 A 
ATOM     60  C   UNL     1      -1.884  -7.907  11.592  1.00  0.00     0.049 A 
ATOM     61  H   UNL     1      -1.547  -5.837  11.369  1.00  0.00     0.167 HD
ATOM     62  C   UNL     1       0.579  -7.695  11.454  1.00  0.00     0.074 A 
ATOM     63  C   UNL     1       1.922  -8.235  11.507  1.00  0.00     0.031 C 
ATOM     64  C   UNL     1      -0.546  -8.441  11.580  1.00  0.00     0.034 A 
BRANCH  51  65
ATOM     65  C   UNL     1      -5.746  -5.109  11.631  1.00  0.00     0.023 A 
ATOM     66  C   UNL     1      -6.541  -4.889  10.488  1.00  0.00     0.012 A 
ATOM     67  C   UNL     1      -6.367  -5.356  12.870  1.00  0.00     0.148 A 
ATOM     68  C   UNL     1      -7.931  -4.888  10.581  1.00  0.00     0.002 A 
ATOM     69  C   UNL     1      -7.754  -5.391  12.948  1.00  0.00     0.091 A 
ATOM     70  F   UNL     1      -5.592  -5.536  13.950  1.00  0.00    -0.205 F 
ATOM     71  C   UNL     1      -8.537  -5.148  11.808  1.00  0.00     0.022 A 
BRANCH  69  72
ATOM     72  S   UNL     1      -8.626  -5.786  14.468  1.00  0.00     0.127 S 
ATOM     73  O   UNL     1      -9.168  -4.481  14.844  1.00  0.00    -0.237 OA
ATOM     74  O   UNL     1      -9.624  -6.753  14.009  1.00  0.00    -0.237 OA
ATOM     75  O   UNL     1      -7.624  -6.333  15.373  1.00  0.00    -0.744 OA
ENDBRANCH  69  72
ENDBRANCH  51  65
BRANCH  52  76
ATOM     76  C   UNL     1       4.200  -4.730  10.941  1.00  0.00     0.023 A 
ATOM     77  C   UNL     1       4.865  -5.355   9.868  1.00  0.00     0.012 A 
ATOM     78  C   UNL     1       4.957  -4.081  11.935  1.00  0.00     0.148 A 
ATOM     79  C   UNL     1       6.259  -5.361   9.803  1.00  0.00     0.002 A 
ATOM     80  C   UNL     1       6.343  -4.046  11.836  1.00  0.00     0.091 A 
ATOM     81  F   UNL     1       4.306  -3.511  12.959  1.00  0.00    -0.205 F 
ATOM     82  C   UNL     1       6.997  -4.699  10.780  1.00  0.00     0.022 A 
BRANCH  80  83
ATOM     83  S   UNL     1       7.366  -3.120  12.987  1.00  0.00     0.127 S 
ATOM     84  O   UNL     1       8.004  -4.192  13.747  1.00  0.00    -0.237 OA
ATOM     85  O   UNL     1       8.255  -2.392  12.083  1.00  0.00    -0.237 OA
ATOM     86  O   UNL     1       6.445  -2.274  13.735  1.00  0.00    -0.744 OA
ENDBRANCH  80  83
ENDBRANCH  52  76
BRANCH  64  87
ATOM     87  C   UNL     1      -0.392  -9.931  11.746  1.00  0.00     0.023 A 
ATOM     88  C   UNL     1       0.066 -10.457  12.970  1.00  0.00     0.012 A 
ATOM     89  C   UNL     1      -0.787 -10.813  10.720  1.00  0.00     0.148 A 
ATOM     90  C   UNL     1       0.155 -11.836  13.161  1.00  0.00     0.002 A 
ATOM     91  C   UNL     1      -0.740 -12.186  10.934  1.00  0.00     0.091 A 
ATOM     92  F   UNL     1      -1.202 -10.295   9.555  1.00  0.00    -0.205 F 
ATOM     93  C   UNL     1      -0.260 -12.700  12.149  1.00  0.00     0.022 A 
BRANCH  91  94
ATOM     94  S   UNL     1      -1.345 -13.368   9.723  1.00  0.00     0.127 S 
ATOM     95  O   UNL     1      -0.097 -13.914   9.191  1.00  0.00    -0.237 OA
ATOM     96  O   UNL     1      -2.114 -14.298  10.550  1.00  0.00    -0.237 OA
ATOM     97  O   UNL     1      -2.145 -12.599   8.779  1.00  0.00    -0.744 OA
ENDBRANCH  91  94
ENDBRANCH  64  87
ENDBRANCH  38  39
ENDBRANCH  31  33
ENDBRANCH  30  31
ENDBRANCH  29  30
ENDBRANCH  28  29
ENDBRANCH  27  28
ENDBRANCH   1  27
TORSDOF 23
