REMARK SMILES CC(C)c1cc(C2CC[NH+](Cc3c[nH]nc3C(=O)OCCOCCOCCOC(=O)c3ccc(-c4c5nc(c(-c6cccc(S(=O)(=O)[O-])c6F)c6ccc([nH]6)c(-c6cccc(S(=O)(=O)[O-])c6F)c6nc(c(-c7cccc(S(=O)(=O)[O-])c7F)c7ccc4[nH]7)C=C6)C=C5)cc3)CC2)n[nH]1
REMARK SMILES IDX 23 1 22 2 21 3 20 4 19 5 17 6 18 7 16 8 12 9 13 10 14 11
REMARK SMILES IDX 15 12 11 14 10 15 7 16 8 17 95 18 9 19 94 20 6 22 4 23 5 24
REMARK SMILES IDX 97 25 96 26 2 28 1 29 3 30 24 31 25 32 26 33 27 34 28 35
REMARK SMILES IDX 29 36 30 37 31 38 32 39 93 40 33 41 92 42 34 43 35 44 36 45
REMARK SMILES IDX 86 46 37 47 91 48 85 49 87 50 38 51 90 52 84 53 83 54 39 56
REMARK SMILES IDX 71 57 51 58 70 59 52 60 55 61 69 62 88 63 53 64 54 65 68 67
REMARK SMILES IDX 89 68 56 69 40 70 41 71 49 72 42 73 44 74 50 75 43 76 45 77
REMARK SMILES IDX 46 78 47 79 48 80 72 81 73 82 81 83 74 84 76 85 82 86 75 87
REMARK SMILES IDX 77 88 78 89 79 90 80 91 57 92 58 93 66 94 59 95 61 96 67 97
REMARK SMILES IDX 60 98 62 99 63 100 64 101 65 102
REMARK H PARENT 14 13 10 21 97 27 87 55 55 66
REMARK Flexibility Score: inf
ROOT
ATOM      1  C   UNL     1       0.277   4.474  -5.201  1.00  0.00     0.188 C 
ENDROOT
BRANCH   1   2
ATOM      2  O   UNL     1       0.142   5.564  -6.107  1.00  0.00    -0.376 OA
BRANCH   2   3
ATOM      3  C   UNL     1      -0.763   5.457  -7.199  1.00  0.00     0.202 C 
BRANCH   3   4
ATOM      4  C   UNL     1      -0.599   4.258  -8.136  1.00  0.00     0.261 C 
BRANCH   4   5
ATOM      5  O   UNL     1      -0.850   3.011  -7.467  1.00  0.00    -0.458 OA
BRANCH   5   6
ATOM      6  C   UNL     1      -0.003   2.000  -7.821  1.00  0.00     0.359 C 
ATOM      7  O   UNL     1       0.710   2.026  -8.820  1.00  0.00    -0.244 OA
BRANCH   6   8
ATOM      8  C   UNL     1       0.041   0.909  -6.833  1.00  0.00     0.178 A 
ATOM      9  C   UNL     1      -1.018   0.079  -6.304  1.00  0.00     0.059 A 
ATOM     10  C   UNL     1      -0.325  -0.874  -5.575  1.00  0.00     0.115 A 
ATOM     11  N   UNL     1       0.985  -0.509  -5.562  1.00  0.00    -0.284 N 
ATOM     12  N   UNL     1       1.236   0.559  -6.314  1.00  0.00    -0.168 NA
ATOM     13  H   UNL     1       1.676  -0.986  -5.049  1.00  0.00     0.189 HD
BRANCH   9  14
ATOM     14  C   UNL     1      -2.489   0.142  -6.639  1.00  0.00     0.303 C 
BRANCH  14  15
ATOM     15  N   UNL     1      -3.436   0.012  -5.509  1.00  0.00    -0.331 N 
ATOM     16  C   UNL     1      -4.253  -0.349  -2.684  1.00  0.00     0.051 C 
ATOM     17  C   UNL     1      -4.482  -1.433  -3.742  1.00  0.00     0.071 C 
ATOM     18  C   UNL     1      -4.335   1.016  -3.374  1.00  0.00     0.071 C 
ATOM     19  C   UNL     1      -3.498  -1.316  -4.905  1.00  0.00     0.263 C 
ATOM     20  C   UNL     1      -3.406   1.145  -4.586  1.00  0.00     0.263 C 
ATOM     21  H   UNL     1      -4.363   0.083  -5.930  1.00  0.00     0.348 HD
BRANCH  16  22
ATOM     22  C   UNL     1      -2.998  -0.565  -1.865  1.00  0.00     0.066 A 
ATOM     23  C   UNL     1      -0.895  -0.732  -1.132  1.00  0.00     0.038 A 
ATOM     24  C   UNL     1      -1.647  -0.330  -2.209  1.00  0.00     0.049 A 
ATOM     25  N   UNL     1      -1.807  -1.139  -0.199  1.00  0.00    -0.282 N 
ATOM     26  N   UNL     1      -3.083  -1.077  -0.628  1.00  0.00    -0.180 NA
ATOM     27  H   UNL     1      -1.556  -1.447   0.702  1.00  0.00     0.190 HD
BRANCH  23  28
ATOM     28  C   UNL     1       0.592  -0.767  -0.958  1.00  0.00     0.031 C 
ATOM     29  C   UNL     1       1.045  -0.105   0.340  1.00  0.00     0.014 C 
ATOM     30  C   UNL     1       1.118  -2.197  -1.067  1.00  0.00     0.014 C 
ENDBRANCH  23  28
ENDBRANCH  16  22
ENDBRANCH  14  15
ENDBRANCH   9  14
ENDBRANCH   6   8
ENDBRANCH   5   6
ENDBRANCH   4   5
ENDBRANCH   3   4
ENDBRANCH   2   3
ENDBRANCH   1   2
BRANCH   1  31
ATOM     31  C   UNL     1      -0.994   3.809  -4.643  1.00  0.00     0.188 C 
BRANCH  31  32
ATOM     32  O   UNL     1      -2.212   4.475  -4.946  1.00  0.00    -0.376 OA
BRANCH  32  33
ATOM     33  C   UNL     1      -2.885   5.064  -3.840  1.00  0.00     0.202 C 
BRANCH  33  34
ATOM     34  C   UNL     1      -2.205   6.328  -3.302  1.00  0.00     0.261 C 
BRANCH  34  35
ATOM     35  O   UNL     1      -0.918   6.098  -2.707  1.00  0.00    -0.460 OA
BRANCH  35  36
ATOM     36  C   UNL     1      -0.887   5.302  -1.615  1.00  0.00     0.338 C 
ATOM     37  O   UNL     1      -1.832   4.777  -1.055  1.00  0.00    -0.246 OA
BRANCH  36  38
ATOM     38  C   UNL     1       0.527   5.021  -1.313  1.00  0.00     0.060 A 
ATOM     39  C   UNL     1       0.959   3.690  -1.266  1.00  0.00     0.016 A 
ATOM     40  C   UNL     1       1.418   6.071  -1.084  1.00  0.00     0.016 A 
ATOM     41  C   UNL     1       2.291   3.407  -0.961  1.00  0.00     0.010 A 
ATOM     42  C   UNL     1       2.744   5.785  -0.765  1.00  0.00     0.010 A 
ATOM     43  C   UNL     1       3.180   4.452  -0.675  1.00  0.00    -0.014 A 
BRANCH  43  44
ATOM     44  C   UNL     1       4.527   4.163  -0.133  1.00  0.00     0.031 A 
ATOM     45  C   UNL     1       4.729   4.211   1.356  1.00  0.00     0.074 A 
ATOM     46  C   UNL     1       5.563   3.910  -0.952  1.00  0.00     0.049 A 
ATOM     47  N   UNL     1       5.823   4.031   2.048  1.00  0.00    -0.248 NA
ATOM     48  C   UNL     1       3.539   4.506   2.172  1.00  0.00     0.031 C 
ATOM     49  C   UNL     1       5.496   3.857  -2.411  1.00  0.00     0.029 A 
ATOM     50  N   UNL     1       6.885   3.681  -0.665  1.00  0.00    -0.354 N 
ATOM     51  C   UNL     1       5.462   4.212   3.377  1.00  0.00     0.074 A 
ATOM     52  C   UNL     1       4.050   4.527   3.395  1.00  0.00     0.031 C 
ATOM     53  C   UNL     1       6.732   3.645  -2.895  1.00  0.00     0.029 A 
ATOM     54  C   UNL     1       7.677   3.562  -1.782  1.00  0.00     0.049 A 
ATOM     55  H   UNL     1       7.233   3.610   0.253  1.00  0.00     0.167 HD
ATOM     56  C   UNL     1       6.231   4.108   4.485  1.00  0.00     0.034 A 
ATOM     57  C   UNL     1       9.013   3.420  -1.891  1.00  0.00     0.034 A 
ATOM     58  C   UNL     1       7.631   3.786   4.470  1.00  0.00     0.049 A 
ATOM     59  C   UNL     1       9.851   3.325  -0.640  1.00  0.00     0.074 A 
ATOM     60  C   UNL     1       8.483   3.605   5.544  1.00  0.00     0.029 A 
ATOM     61  N   UNL     1       8.389   3.614   3.323  1.00  0.00    -0.354 N 
ATOM     62  N   UNL     1       9.469   3.345   0.614  1.00  0.00    -0.248 NA
ATOM     63  C   UNL     1      11.301   3.153  -0.822  1.00  0.00     0.031 C 
ATOM     64  C   UNL     1       9.763   3.337   5.045  1.00  0.00     0.029 A 
ATOM     65  C   UNL     1       9.702   3.337   3.661  1.00  0.00     0.049 A 
ATOM     66  H   UNL     1       8.044   3.678   2.403  1.00  0.00     0.167 HD
ATOM     67  C   UNL     1      10.623   3.155   1.368  1.00  0.00     0.074 A 
ATOM     68  C   UNL     1      11.715   3.002   0.429  1.00  0.00     0.031 C 
ATOM     69  C   UNL     1      10.768   3.125   2.716  1.00  0.00     0.034 A 
BRANCH  56  70
ATOM     70  C   UNL     1       5.557   4.305   5.815  1.00  0.00     0.023 A 
ATOM     71  C   UNL     1       4.726   3.286   6.324  1.00  0.00     0.012 A 
ATOM     72  C   UNL     1       5.777   5.467   6.578  1.00  0.00     0.148 A 
ATOM     73  C   UNL     1       4.103   3.432   7.562  1.00  0.00     0.002 A 
ATOM     74  C   UNL     1       5.181   5.589   7.828  1.00  0.00     0.091 A 
ATOM     75  F   UNL     1       6.546   6.436   6.063  1.00  0.00    -0.205 F 
ATOM     76  C   UNL     1       4.337   4.577   8.317  1.00  0.00     0.022 A 
BRANCH  74  77
ATOM     77  S   UNL     1       5.476   6.998   8.902  1.00  0.00     0.127 S 
ATOM     78  O   UNL     1       4.222   7.737   8.769  1.00  0.00    -0.237 OA
ATOM     79  O   UNL     1       5.672   6.359  10.204  1.00  0.00    -0.237 OA
ATOM     80  O   UNL     1       6.658   7.662   8.371  1.00  0.00    -0.744 OA
ENDBRANCH  74  77
ENDBRANCH  56  70
BRANCH  57  81
ATOM     81  C   UNL     1       9.643   3.306  -3.236  1.00  0.00     0.023 A 
ATOM     82  C   UNL     1      10.175   2.068  -3.646  1.00  0.00     0.012 A 
ATOM     83  C   UNL     1       9.711   4.408  -4.110  1.00  0.00     0.148 A 
ATOM     84  C   UNL     1      10.786   1.936  -4.894  1.00  0.00     0.002 A 
ATOM     85  C   UNL     1      10.279   4.257  -5.370  1.00  0.00     0.091 A 
ATOM     86  F   UNL     1       9.220   5.583  -3.691  1.00  0.00    -0.205 F 
ATOM     87  C   UNL     1      10.829   3.025  -5.759  1.00  0.00     0.022 A 
BRANCH  85  88
ATOM     88  S   UNL     1      10.281   5.577  -6.589  1.00  0.00     0.127 S 
ATOM     89  O   UNL     1      11.683   5.986  -6.583  1.00  0.00    -0.237 OA
ATOM     90  O   UNL     1       9.849   4.875  -7.798  1.00  0.00    -0.237 OA
ATOM     91  O   UNL     1       9.329   6.564  -6.096  1.00  0.00    -0.744 OA
ENDBRANCH  85  88
ENDBRANCH  57  81
BRANCH  69  92
ATOM     92  C   UNL     1      12.149   2.888   3.271  1.00  0.00     0.023 A 
ATOM     93  C   UNL     1      13.104   3.923   3.229  1.00  0.00     0.012 A 
ATOM     94  C   UNL     1      12.470   1.676   3.913  1.00  0.00     0.148 A 
ATOM     95  C   UNL     1      14.366   3.745   3.796  1.00  0.00     0.002 A 
ATOM     96  C   UNL     1      13.715   1.522   4.514  1.00  0.00     0.091 A 
ATOM     97  F   UNL     1      11.555   0.695   3.925  1.00  0.00    -0.205 F 
ATOM     98  C   UNL     1      14.667   2.552   4.448  1.00  0.00     0.022 A 
BRANCH  96  99
ATOM     99  S   UNL     1      14.148   0.054   5.456  1.00  0.00     0.127 S 
ATOM    100  O   UNL     1      15.016  -0.656   4.519  1.00  0.00    -0.237 OA
ATOM    101  O   UNL     1      14.836   0.617   6.618  1.00  0.00    -0.237 OA
ATOM    102  O   UNL     1      12.886  -0.605   5.766  1.00  0.00    -0.744 OA
ENDBRANCH  96  99
ENDBRANCH  69  92
ENDBRANCH  43  44
ENDBRANCH  36  38
ENDBRANCH  35  36
ENDBRANCH  34  35
ENDBRANCH  33  34
ENDBRANCH  32  33
ENDBRANCH  31  32
ENDBRANCH   1  31
TORSDOF 24
