REMARK SMILES CCc1nn(-c2ccncn2)c(Cl)c1C(=O)OCCOCCOCCOC(=O)c1ccc(-c2c3nc(c(-c4cccc(S(=O)(=O)[O-])c4F)c4ccc([nH]4)c(-c4cccc(S(=O)(=O)[O-])c4F)c4nc(c(-c5cccc(S(=O)(=O)[O-])c5F)c5ccc2[nH]5)C=C4)C=C3)cc1
REMARK SMILES IDX 22 1 21 2 20 3 19 4 18 5 17 6 15 7 16 8 14 9 3 10 4 11 5 12
REMARK SMILES IDX 12 13 13 14 2 15 1 16 6 17 7 18 11 19 8 20 10 21 9 22 23 23
REMARK SMILES IDX 24 24 25 25 26 26 27 27 28 28 29 29 30 30 91 31 31 32 90 33
REMARK SMILES IDX 32 34 33 35 34 36 84 37 35 38 89 39 83 40 85 41 36 42 88 43
REMARK SMILES IDX 82 44 81 45 37 47 69 48 49 49 68 50 50 51 53 52 67 53 86 54
REMARK SMILES IDX 51 55 52 56 66 58 87 59 54 60 38 61 39 62 47 63 40 64 42 65
REMARK SMILES IDX 48 66 41 67 43 68 44 69 45 70 46 71 70 72 71 73 79 74 72 75
REMARK SMILES IDX 74 76 80 77 73 78 75 79 76 80 77 81 78 82 55 83 56 84 64 85
REMARK SMILES IDX 57 86 59 87 65 88 58 89 60 90 61 91 62 92 63 93
REMARK H PARENT 85 46 53 57
REMARK Flexibility Score: inf
ROOT
ATOM      1  C   UNL     1       1.591  -4.544  -1.692  1.00  0.00     0.188 C 
ENDROOT
BRANCH   1   2
ATOM      2  C   UNL     1       0.945  -5.896  -1.304  1.00  0.00     0.188 C 
BRANCH   2   3
ATOM      3  O   UNL     1      -0.075  -6.494  -2.090  1.00  0.00    -0.376 OA
BRANCH   3   4
ATOM      4  C   UNL     1      -1.004  -5.682  -2.789  1.00  0.00     0.202 C 
BRANCH   4   5
ATOM      5  C   UNL     1      -1.862  -4.683  -1.990  1.00  0.00     0.261 C 
BRANCH   5   6
ATOM      6  O   UNL     1      -1.140  -3.910  -1.015  1.00  0.00    -0.460 OA
BRANCH   6   7
ATOM      7  C   UNL     1      -1.398  -4.213   0.296  1.00  0.00     0.343 C 
ATOM      8  O   UNL     1      -2.312  -4.898   0.676  1.00  0.00    -0.246 OA
BRANCH   7   9
ATOM      9  C   UNL     1      -0.359  -3.703   1.184  1.00  0.00     0.120 A 
ATOM     10  C   UNL     1       0.388  -2.489   1.174  1.00  0.00     0.079 A 
ATOM     11  N   UNL     1       1.238  -2.416   2.213  1.00  0.00    -0.169 NA
ATOM     12  N   UNL     1       1.133  -3.623   2.837  1.00  0.00    -0.203 N 
ATOM     13  C   UNL     1       0.178  -4.406   2.237  1.00  0.00     0.149 A 
ATOM     14  Cl  UNL     1      -0.185  -5.971   2.826  1.00  0.00    -0.061 Cl
BRANCH  10  15
ATOM     15  C   UNL     1       0.317  -1.386   0.154  1.00  0.00     0.056 C 
ATOM     16  C   UNL     1       1.031  -0.096   0.532  1.00  0.00     0.011 C 
ENDBRANCH  10  15
BRANCH  12  17
ATOM     17  C   UNL     1       1.934  -3.941   3.967  1.00  0.00     0.158 A 
ATOM     18  C   UNL     1       2.767  -5.044   3.905  1.00  0.00     0.069 A 
ATOM     19  N   UNL     1       1.766  -3.196   5.086  1.00  0.00    -0.217 NA
ATOM     20  C   UNL     1       3.411  -5.369   5.076  1.00  0.00     0.117 A 
ATOM     21  C   UNL     1       2.421  -3.631   6.169  1.00  0.00     0.224 A 
ATOM     22  N   UNL     1       3.241  -4.691   6.227  1.00  0.00    -0.245 NA
ENDBRANCH  12  17
ENDBRANCH   7   9
ENDBRANCH   6   7
ENDBRANCH   5   6
ENDBRANCH   4   5
ENDBRANCH   3   4
ENDBRANCH   2   3
ENDBRANCH   1   2
BRANCH   1  23
ATOM     23  O   UNL     1       1.049  -3.895  -2.833  1.00  0.00    -0.376 OA
BRANCH  23  24
ATOM     24  C   UNL     1       1.934  -3.685  -3.931  1.00  0.00     0.202 C 
BRANCH  24  25
ATOM     25  C   UNL     1       2.313  -4.937  -4.722  1.00  0.00     0.261 C 
BRANCH  25  26
ATOM     26  O   UNL     1       2.679  -6.029  -3.896  1.00  0.00    -0.460 OA
BRANCH  26  27
ATOM     27  C   UNL     1       3.840  -5.892  -3.227  1.00  0.00     0.338 C 
ATOM     28  O   UNL     1       4.552  -4.904  -3.184  1.00  0.00    -0.246 OA
BRANCH  27  29
ATOM     29  C   UNL     1       4.128  -7.164  -2.555  1.00  0.00     0.060 A 
ATOM     30  C   UNL     1       5.281  -7.192  -1.769  1.00  0.00     0.016 A 
ATOM     31  C   UNL     1       3.501  -8.327  -3.025  1.00  0.00     0.016 A 
ATOM     32  C   UNL     1       6.006  -8.356  -1.765  1.00  0.00     0.010 A 
ATOM     33  C   UNL     1       4.238  -9.479  -3.047  1.00  0.00     0.010 A 
ATOM     34  C   UNL     1       5.531  -9.419  -2.536  1.00  0.00    -0.014 A 
BRANCH  34  35
ATOM     35  C   UNL     1       6.499 -10.398  -2.963  1.00  0.00     0.031 A 
ATOM     36  C   UNL     1       6.748 -11.483  -2.009  1.00  0.00     0.074 A 
ATOM     37  C   UNL     1       7.052 -10.324  -4.188  1.00  0.00     0.049 A 
ATOM     38  N   UNL     1       7.857 -11.754  -1.410  1.00  0.00    -0.248 NA
ATOM     39  C   UNL     1       5.595 -12.278  -1.572  1.00  0.00     0.031 C 
ATOM     40  C   UNL     1       6.649  -9.461  -5.306  1.00  0.00     0.029 A 
ATOM     41  N   UNL     1       7.990 -11.138  -4.740  1.00  0.00    -0.354 N 
ATOM     42  C   UNL     1       7.590 -12.891  -0.662  1.00  0.00     0.074 A 
ATOM     43  C   UNL     1       6.160 -13.062  -0.657  1.00  0.00     0.031 C 
ATOM     44  C   UNL     1       7.138  -9.983  -6.452  1.00  0.00     0.029 A 
ATOM     45  C   UNL     1       7.965 -11.132  -6.127  1.00  0.00     0.049 A 
ATOM     46  H   UNL     1       8.622 -11.675  -4.211  1.00  0.00     0.167 HD
ATOM     47  C   UNL     1       8.575 -13.744  -0.284  1.00  0.00     0.034 A 
ATOM     48  C   UNL     1       8.480 -12.090  -6.933  1.00  0.00     0.034 A 
ATOM     49  C   UNL     1       9.885 -13.174  -0.432  1.00  0.00     0.049 A 
ATOM     50  C   UNL     1       9.474 -12.857  -6.141  1.00  0.00     0.074 A 
ATOM     51  C   UNL     1      10.530 -12.074   0.096  1.00  0.00     0.029 A 
ATOM     52  N   UNL     1      10.627 -13.569  -1.519  1.00  0.00    -0.354 N 
ATOM     53  N   UNL     1      10.605 -12.361  -5.719  1.00  0.00    -0.248 NA
ATOM     54  C   UNL     1       9.035 -14.063  -5.457  1.00  0.00     0.031 C 
ATOM     55  C   UNL     1      11.376 -11.602  -0.947  1.00  0.00     0.029 A 
ATOM     56  C   UNL     1      11.211 -12.446  -2.048  1.00  0.00     0.049 A 
ATOM     57  H   UNL     1      10.722 -14.489  -1.856  1.00  0.00     0.167 HD
ATOM     58  C   UNL     1      10.786 -12.915  -4.457  1.00  0.00     0.074 A 
ATOM     59  C   UNL     1       9.866 -14.049  -4.410  1.00  0.00     0.031 C 
ATOM     60  C   UNL     1      11.434 -12.232  -3.465  1.00  0.00     0.034 A 
BRANCH  47  61
ATOM     61  C   UNL     1       8.355 -15.208  -0.051  1.00  0.00     0.023 A 
ATOM     62  C   UNL     1       9.335 -15.917   0.669  1.00  0.00     0.012 A 
ATOM     63  C   UNL     1       7.342 -15.961  -0.686  1.00  0.00     0.148 A 
ATOM     64  C   UNL     1       9.307 -17.312   0.751  1.00  0.00     0.002 A 
ATOM     65  C   UNL     1       7.262 -17.336  -0.518  1.00  0.00     0.091 A 
ATOM     66  F   UNL     1       6.520 -15.375  -1.567  1.00  0.00    -0.205 F 
ATOM     67  C   UNL     1       8.257 -18.022   0.178  1.00  0.00     0.022 A 
BRANCH  65  68
ATOM     68  S   UNL     1       5.859 -18.248  -1.166  1.00  0.00     0.127 S 
ATOM     69  O   UNL     1       6.355 -18.673  -2.471  1.00  0.00    -0.237 OA
ATOM     70  O   UNL     1       5.703 -19.320  -0.182  1.00  0.00    -0.237 OA
ATOM     71  O   UNL     1       4.764 -17.283  -1.167  1.00  0.00    -0.744 OA
ENDBRANCH  65  68
ENDBRANCH  47  61
BRANCH  48  72
ATOM     72  C   UNL     1       7.973 -12.536  -8.251  1.00  0.00     0.023 A 
ATOM     73  C   UNL     1       8.820 -13.239  -9.126  1.00  0.00     0.012 A 
ATOM     74  C   UNL     1       6.597 -12.467  -8.575  1.00  0.00     0.148 A 
ATOM     75  C   UNL     1       8.316 -13.853 -10.280  1.00  0.00     0.002 A 
ATOM     76  C   UNL     1       6.106 -13.050  -9.738  1.00  0.00     0.091 A 
ATOM     77  F   UNL     1       5.745 -11.917  -7.699  1.00  0.00    -0.205 F 
ATOM     78  C   UNL     1       6.961 -13.754 -10.590  1.00  0.00     0.022 A 
BRANCH  76  79
ATOM     79  S   UNL     1       4.369 -12.919 -10.184  1.00  0.00     0.127 S 
ATOM     80  O   UNL     1       4.428 -12.792 -11.642  1.00  0.00    -0.237 OA
ATOM     81  O   UNL     1       3.833 -14.188  -9.702  1.00  0.00    -0.237 OA
ATOM     82  O   UNL     1       3.888 -11.720  -9.507  1.00  0.00    -0.744 OA
ENDBRANCH  76  79
ENDBRANCH  48  72
BRANCH  60  83
ATOM     83  C   UNL     1      12.161 -10.955  -3.832  1.00  0.00     0.023 A 
ATOM     84  C   UNL     1      11.474  -9.854  -4.386  1.00  0.00     0.012 A 
ATOM     85  C   UNL     1      13.497 -10.778  -3.429  1.00  0.00     0.148 A 
ATOM     86  C   UNL     1      12.104  -8.621  -4.563  1.00  0.00     0.002 A 
ATOM     87  C   UNL     1      14.107  -9.533  -3.560  1.00  0.00     0.091 A 
ATOM     88  F   UNL     1      14.146 -11.823  -2.892  1.00  0.00    -0.205 F 
ATOM     89  C   UNL     1      13.417  -8.456  -4.137  1.00  0.00     0.022 A 
BRANCH  87  90
ATOM     90  S   UNL     1      15.744  -9.215  -2.890  1.00  0.00     0.127 S 
ATOM     91  O   UNL     1      16.590  -9.334  -4.075  1.00  0.00    -0.237 OA
ATOM     92  O   UNL     1      15.617  -7.854  -2.365  1.00  0.00    -0.237 OA
ATOM     93  O   UNL     1      15.948 -10.227  -1.860  1.00  0.00    -0.744 OA
ENDBRANCH  87  90
ENDBRANCH  60  83
ENDBRANCH  34  35
ENDBRANCH  27  29
ENDBRANCH  26  27
ENDBRANCH  25  26
ENDBRANCH  24  25
ENDBRANCH  23  24
ENDBRANCH   1  23
TORSDOF 22
