REMARK SMILES O=C(OCCOCCOCCOC(=O)[C@H]1[C@H]2CC[C@H](C2)[C@@H]1C(=O)N1CC[NH+](C2CCCCC2)CC1)c1ccc(-c2c3nc(c(-c4cccc(S(=O)(=O)[O-])c4F)c4ccc([nH]4)c(-c4cccc(S(=O)(=O)[O-])c4F)c4nc(c(-c5cccc(S(=O)(=O)[O-])c5F)c5ccc2[nH]5)C=C4)C=C3)cc1
REMARK SMILES IDX 7 1 6 2 5 3 4 4 3 5 2 6 1 7 36 8 37 9 98 10 38 11 97 12
REMARK SMILES IDX 39 13 40 14 41 15 91 16 42 17 96 18 90 19 92 20 43 21 95 22
REMARK SMILES IDX 89 23 88 24 44 26 76 27 56 28 75 29 57 30 60 31 74 32 93 33
REMARK SMILES IDX 58 34 59 35 73 37 94 38 61 39 45 40 46 41 54 42 47 43 49 44
REMARK SMILES IDX 55 45 48 46 50 47 51 48 52 49 53 50 77 51 78 52 86 53 79 54
REMARK SMILES IDX 81 55 87 56 80 57 82 58 83 59 84 60 85 61 62 62 63 63 71 64
REMARK SMILES IDX 64 65 66 66 72 67 65 68 67 69 68 70 69 71 70 72 8 73 9 74
REMARK SMILES IDX 10 75 11 76 12 77 13 78 14 79 15 80 16 81 21 82 17 83 20 84
REMARK SMILES IDX 19 85 18 86 22 87 23 88 24 89 25 90 35 91 26 92 34 93 27 94
REMARK SMILES IDX 28 96 29 97 33 98 30 99 32 100 31 101
REMARK H PARENT 92 25 60 36 27 95
REMARK Flexibility Score: inf
ROOT
ATOM      1  C   UNL     1      -2.047  -1.393  -5.268  1.00  0.00     0.188 C 
ENDROOT
BRANCH   1   2
ATOM      2  O   UNL     1      -1.657  -2.638  -4.696  1.00  0.00    -0.376 OA
BRANCH   2   3
ATOM      3  C   UNL     1      -2.668  -3.397  -4.039  1.00  0.00     0.202 C 
BRANCH   3   4
ATOM      4  C   UNL     1      -3.418  -2.737  -2.873  1.00  0.00     0.261 C 
BRANCH   4   5
ATOM      5  O   UNL     1      -3.220  -1.324  -2.752  1.00  0.00    -0.460 OA
BRANCH   5   6
ATOM      6  C   UNL     1      -2.348  -0.691  -1.928  1.00  0.00     0.338 C 
ATOM      7  O   UNL     1      -2.537   0.498  -1.677  1.00  0.00    -0.246 OA
BRANCH   6   8
ATOM      8  C   UNL     1      -1.222  -1.420  -1.272  1.00  0.00     0.060 A 
ATOM      9  C   UNL     1      -0.518  -2.494  -1.830  1.00  0.00     0.016 A 
ATOM     10  C   UNL     1      -0.774  -0.926  -0.054  1.00  0.00     0.016 A 
ATOM     11  C   UNL     1       0.475  -3.198  -1.144  1.00  0.00     0.010 A 
ATOM     12  C   UNL     1       0.305  -1.541   0.581  1.00  0.00     0.010 A 
ATOM     13  C   UNL     1       0.912  -2.726   0.077  1.00  0.00    -0.014 A 
BRANCH  13  14
ATOM     14  C   UNL     1       1.959  -3.387   0.918  1.00  0.00     0.031 A 
ATOM     15  C   UNL     1       1.591  -3.434   2.373  1.00  0.00     0.074 A 
ATOM     16  C   UNL     1       3.206  -3.692   0.485  1.00  0.00     0.049 A 
ATOM     17  N   UNL     1       2.323  -3.242   3.427  1.00  0.00    -0.248 NA
ATOM     18  C   UNL     1       0.141  -3.562   2.647  1.00  0.00     0.031 C 
ATOM     19  C   UNL     1       3.673  -3.769  -0.907  1.00  0.00     0.029 A 
ATOM     20  N   UNL     1       4.382  -3.793   1.212  1.00  0.00    -0.354 N 
ATOM     21  C   UNL     1       1.417  -3.171   4.479  1.00  0.00     0.074 A 
ATOM     22  C   UNL     1       0.090  -3.176   3.911  1.00  0.00     0.031 C 
ATOM     23  C   UNL     1       5.020  -3.741  -0.937  1.00  0.00     0.029 A 
ATOM     24  C   UNL     1       5.512  -3.590   0.423  1.00  0.00     0.049 A 
ATOM     25  H   UNL     1       4.415  -3.986   2.176  1.00  0.00     0.167 HD
ATOM     26  C   UNL     1       1.675  -3.190   5.806  1.00  0.00     0.034 A 
ATOM     27  C   UNL     1       6.762  -3.202   0.769  1.00  0.00     0.034 A 
ATOM     28  C   UNL     1       3.017  -3.298   6.293  1.00  0.00     0.049 A 
ATOM     29  C   UNL     1       7.042  -3.062   2.250  1.00  0.00     0.074 A 
ATOM     30  C   UNL     1       3.466  -3.540   7.573  1.00  0.00     0.029 A 
ATOM     31  N   UNL     1       4.136  -3.190   5.476  1.00  0.00    -0.354 N 
ATOM     32  N   UNL     1       6.204  -3.131   3.260  1.00  0.00    -0.248 NA
ATOM     33  C   UNL     1       8.443  -2.867   2.649  1.00  0.00     0.031 C 
ATOM     34  C   UNL     1       4.864  -3.574   7.528  1.00  0.00     0.029 A 
ATOM     35  C   UNL     1       5.280  -3.374   6.217  1.00  0.00     0.049 A 
ATOM     36  H   UNL     1       4.114  -3.009   4.508  1.00  0.00     0.167 HD
ATOM     37  C   UNL     1       6.990  -3.142   4.407  1.00  0.00     0.074 A 
ATOM     38  C   UNL     1       8.362  -2.972   3.970  1.00  0.00     0.031 C 
ATOM     39  C   UNL     1       6.625  -3.328   5.699  1.00  0.00     0.034 A 
BRANCH  26  40
ATOM     40  C   UNL     1       0.496  -3.228   6.747  1.00  0.00     0.023 A 
ATOM     41  C   UNL     1      -0.424  -4.300   6.661  1.00  0.00     0.012 A 
ATOM     42  C   UNL     1       0.261  -2.207   7.686  1.00  0.00     0.148 A 
ATOM     43  C   UNL     1      -1.600  -4.303   7.407  1.00  0.00     0.002 A 
ATOM     44  C   UNL     1      -0.885  -2.252   8.477  1.00  0.00     0.091 A 
ATOM     45  F   UNL     1       1.131  -1.191   7.764  1.00  0.00    -0.205 F 
ATOM     46  C   UNL     1      -1.829  -3.280   8.318  1.00  0.00     0.022 A 
BRANCH  44  47
ATOM     47  S   UNL     1      -1.233  -1.040   9.757  1.00  0.00     0.127 S 
ATOM     48  O   UNL     1      -2.341  -0.293   9.165  1.00  0.00    -0.237 OA
ATOM     49  O   UNL     1      -1.607  -1.889  10.888  1.00  0.00    -0.237 OA
ATOM     50  O   UNL     1       0.002  -0.290   9.944  1.00  0.00    -0.744 OA
ENDBRANCH  44  47
ENDBRANCH  26  40
BRANCH  27  51
ATOM     51  C   UNL     1       7.854  -2.911  -0.228  1.00  0.00     0.023 A 
ATOM     52  C   UNL     1       8.875  -3.851  -0.453  1.00  0.00     0.012 A 
ATOM     53  C   UNL     1       7.967  -1.662  -0.873  1.00  0.00     0.148 A 
ATOM     54  C   UNL     1       9.991  -3.531  -1.242  1.00  0.00     0.002 A 
ATOM     55  C   UNL     1       9.077  -1.339  -1.655  1.00  0.00     0.091 A 
ATOM     56  F   UNL     1       6.975  -0.790  -0.731  1.00  0.00    -0.205 F 
ATOM     57  C   UNL     1      10.101  -2.272  -1.829  1.00  0.00     0.022 A 
BRANCH  55  58
ATOM     58  S   UNL     1       9.276   0.289  -2.410  1.00  0.00     0.127 S 
ATOM     59  O   UNL     1      10.719   0.510  -2.311  1.00  0.00    -0.237 OA
ATOM     60  O   UNL     1       8.784   0.054  -3.765  1.00  0.00    -0.237 OA
ATOM     61  O   UNL     1       8.480   1.199  -1.597  1.00  0.00    -0.744 OA
ENDBRANCH  55  58
ENDBRANCH  27  51
BRANCH  39  62
ATOM     62  C   UNL     1       7.706  -3.589   6.705  1.00  0.00     0.023 A 
ATOM     63  C   UNL     1       8.413  -2.529   7.294  1.00  0.00     0.012 A 
ATOM     64  C   UNL     1       7.851  -4.900   7.205  1.00  0.00     0.148 A 
ATOM     65  C   UNL     1       9.247  -2.772   8.384  1.00  0.00     0.002 A 
ATOM     66  C   UNL     1       8.632  -5.122   8.328  1.00  0.00     0.091 A 
ATOM     67  F   UNL     1       7.177  -5.891   6.602  1.00  0.00    -0.205 F 
ATOM     68  C   UNL     1       9.336  -4.060   8.915  1.00  0.00     0.022 A 
BRANCH  66  69
ATOM     69  S   UNL     1       8.671  -6.717   9.154  1.00  0.00     0.127 S 
ATOM     70  O   UNL     1      10.036  -7.168   8.859  1.00  0.00    -0.237 OA
ATOM     71  O   UNL     1       8.449  -6.341  10.555  1.00  0.00    -0.237 OA
ATOM     72  O   UNL     1       7.614  -7.509   8.565  1.00  0.00    -0.744 OA
ENDBRANCH  66  69
ENDBRANCH  39  62
ENDBRANCH  13  14
ENDBRANCH   6   8
ENDBRANCH   5   6
ENDBRANCH   4   5
ENDBRANCH   3   4
ENDBRANCH   2   3
ENDBRANCH   1   2
BRANCH   1  73
ATOM     73  C   UNL     1      -1.137  -0.965  -6.423  1.00  0.00     0.188 C 
BRANCH  73  74
ATOM     74  O   UNL     1      -0.951  -1.887  -7.491  1.00  0.00    -0.376 OA
BRANCH  74  75
ATOM     75  C   UNL     1      -0.584  -3.214  -7.136  1.00  0.00     0.202 C 
BRANCH  75  76
ATOM     76  C   UNL     1       0.690  -3.469  -6.296  1.00  0.00     0.261 C 
BRANCH  76  77
ATOM     77  O   UNL     1       1.189  -2.387  -5.472  1.00  0.00    -0.463 OA
BRANCH  77  78
ATOM     78  C   UNL     1       2.260  -1.736  -6.003  1.00  0.00     0.310 C 
ATOM     79  O   UNL     1       2.722  -2.039  -7.101  1.00  0.00    -0.252 OA
BRANCH  78  80
ATOM     80  C   UNL     1       2.931  -0.718  -5.064  1.00  0.00     0.115 C 
ATOM     81  C   UNL     1       4.139  -0.108  -5.846  1.00  0.00     0.004 C 
ATOM     82  C   UNL     1       2.215   0.585  -4.595  1.00  0.00     0.096 C 
ATOM     83  C   UNL     1       3.672   0.693  -7.092  1.00  0.00     0.005 C 
ATOM     84  C   UNL     1       4.555   1.024  -4.926  1.00  0.00     0.009 C 
ATOM     85  C   UNL     1       3.187   1.709  -5.002  1.00  0.00     0.003 C 
ATOM     86  C   UNL     1       3.034   1.949  -6.501  1.00  0.00     0.005 C 
BRANCH  82  87
ATOM     87  C   UNL     1       1.877   0.666  -3.107  1.00  0.00     0.227 C 
ATOM     88  O   UNL     1       0.696   0.497  -2.782  1.00  0.00    -0.275 OA
ATOM     89  N   UNL     1       2.887   0.715  -2.163  1.00  0.00    -0.331 N 
ATOM     90  C   UNL     1       2.668  -0.127  -1.013  1.00  0.00     0.181 C 
ATOM     91  C   UNL     1       3.751   1.873  -1.821  1.00  0.00     0.181 C 
ATOM     92  C   UNL     1       3.975  -0.594  -0.406  1.00  0.00     0.284 C 
ATOM     93  C   UNL     1       5.069   1.469  -1.094  1.00  0.00     0.284 C 
ATOM     94  N   UNL     1       4.819   0.510  -0.039  1.00  0.00    -0.330 N 
ATOM     95  H   UNL     1       5.620   1.059   0.273  1.00  0.00     0.348 HD
BRANCH  94  96
ATOM     96  C   UNL     1       5.280   0.569   1.331  1.00  0.00     0.184 C 
ATOM     97  C   UNL     1       6.633   1.264   1.557  1.00  0.00     0.065 C 
ATOM     98  C   UNL     1       4.121   1.150   2.155  1.00  0.00     0.065 C 
ATOM     99  C   UNL     1       6.918   1.504   3.038  1.00  0.00     0.006 C 
ATOM    100  C   UNL     1       4.490   1.408   3.606  1.00  0.00     0.006 C 
ATOM    101  C   UNL     1       5.758   2.242   3.695  1.00  0.00     0.000 C 
ENDBRANCH  94  96
ENDBRANCH  82  87
ENDBRANCH  78  80
ENDBRANCH  77  78
ENDBRANCH  76  77
ENDBRANCH  75  76
ENDBRANCH  74  75
ENDBRANCH  73  74
ENDBRANCH   1  73
TORSDOF 22
