REMARK SMILES O=C(OCCOCCOCCOC(=O)c1ccc(-c2ccc(F)c(C(F)(F)F)c2)cc1[N+](=O)[O-])c1ccc(-c2c3nc(c(-c4cccc(S(=O)(=O)[O-])c4F)c4ccc([nH]4)c(-c4cccc(S(=O)(=O)[O-])c4F)c4nc(c(-c5cccc(S(=O)(=O)[O-])c5F)c5ccc2[nH]5)C=C4)C=C3)cc1
REMARK SMILES IDX 7 1 6 2 5 3 4 4 3 5 2 6 1 7 35 8 36 9 97 10 37 11 96 12
REMARK SMILES IDX 38 13 39 14 40 15 90 16 41 17 95 18 89 19 91 20 42 21 94 22
REMARK SMILES IDX 88 23 87 24 43 26 75 27 55 28 74 29 56 30 59 31 73 32 92 33
REMARK SMILES IDX 57 34 58 35 72 37 93 38 60 39 44 40 45 41 53 42 46 43 48 44
REMARK SMILES IDX 54 45 47 46 49 47 50 48 51 49 52 50 76 51 77 52 85 53 78 54
REMARK SMILES IDX 80 55 86 56 79 57 81 58 82 59 83 60 84 61 61 62 62 63 70 64
REMARK SMILES IDX 63 65 65 66 71 67 64 68 66 69 67 70 68 71 69 72 8 73 9 74
REMARK SMILES IDX 10 75 11 76 12 77 13 78 14 79 15 80 16 81 31 82 17 83 30 84
REMARK SMILES IDX 18 85 32 86 33 87 34 88 19 89 20 90 29 91 21 92 24 93 22 94
REMARK SMILES IDX 23 95 25 96 26 97 27 98 28 99
REMARK H PARENT 91 25 59 36
REMARK Flexibility Score: inf
ROOT
ATOM      1  C   UNL     1       2.396  -0.129  -2.329  1.00  0.00     0.188 C 
ENDROOT
BRANCH   1   2
ATOM      2  O   UNL     1       3.669   0.129  -1.722  1.00  0.00    -0.376 OA
BRANCH   2   3
ATOM      3  C   UNL     1       4.435  -1.050  -1.463  1.00  0.00     0.202 C 
BRANCH   3   4
ATOM      4  C   UNL     1       4.243  -1.604  -0.048  1.00  0.00     0.261 C 
BRANCH   4   5
ATOM      5  O   UNL     1       2.866  -1.530   0.356  1.00  0.00    -0.460 OA
BRANCH   5   6
ATOM      6  C   UNL     1       2.250  -0.514   1.014  1.00  0.00     0.338 C 
ATOM      7  O   UNL     1       1.025  -0.546   1.128  1.00  0.00    -0.246 OA
BRANCH   6   8
ATOM      8  C   UNL     1       2.988   0.591   1.699  1.00  0.00     0.060 A 
ATOM      9  C   UNL     1       4.173   1.175   1.248  1.00  0.00     0.016 A 
ATOM     10  C   UNL     1       2.407   1.098   2.874  1.00  0.00     0.016 A 
ATOM     11  C   UNL     1       4.856   2.104   2.035  1.00  0.00     0.010 A 
ATOM     12  C   UNL     1       3.049   2.085   3.629  1.00  0.00     0.010 A 
ATOM     13  C   UNL     1       4.316   2.539   3.248  1.00  0.00    -0.014 A 
BRANCH  13  14
ATOM     14  C   UNL     1       5.146   3.369   4.153  1.00  0.00     0.031 A 
ATOM     15  C   UNL     1       5.713   2.749   5.401  1.00  0.00     0.074 A 
ATOM     16  C   UNL     1       5.461   4.633   3.814  1.00  0.00     0.049 A 
ATOM     17  N   UNL     1       6.540   3.262   6.273  1.00  0.00    -0.248 NA
ATOM     18  C   UNL     1       5.303   1.367   5.704  1.00  0.00     0.031 C 
ATOM     19  C   UNL     1       4.978   5.329   2.622  1.00  0.00     0.029 A 
ATOM     20  N   UNL     1       6.280   5.545   4.428  1.00  0.00    -0.354 N 
ATOM     21  C   UNL     1       6.725   2.280   7.239  1.00  0.00     0.074 A 
ATOM     22  C   UNL     1       5.917   1.145   6.855  1.00  0.00     0.031 C 
ATOM     23  C   UNL     1       5.538   6.548   2.572  1.00  0.00     0.029 A 
ATOM     24  C   UNL     1       6.397   6.730   3.740  1.00  0.00     0.049 A 
ATOM     25  H   UNL     1       6.741   5.369   5.280  1.00  0.00     0.167 HD
ATOM     26  C   UNL     1       7.516   2.308   8.336  1.00  0.00     0.034 A 
ATOM     27  C   UNL     1       7.126   7.830   4.016  1.00  0.00     0.034 A 
ATOM     28  C   UNL     1       8.350   3.417   8.698  1.00  0.00     0.049 A 
ATOM     29  C   UNL     1       8.013   7.829   5.234  1.00  0.00     0.074 A 
ATOM     30  C   UNL     1       9.180   3.551   9.795  1.00  0.00     0.029 A 
ATOM     31  N   UNL     1       8.462   4.586   7.961  1.00  0.00    -0.354 N 
ATOM     32  N   UNL     1       8.238   6.859   6.088  1.00  0.00    -0.248 NA
ATOM     33  C   UNL     1       8.767   9.060   5.513  1.00  0.00     0.031 C 
ATOM     34  C   UNL     1       9.801   4.803   9.718  1.00  0.00     0.029 A 
ATOM     35  C   UNL     1       9.352   5.447   8.575  1.00  0.00     0.049 A 
ATOM     36  H   UNL     1       7.979   4.775   7.124  1.00  0.00     0.167 HD
ATOM     37  C   UNL     1       9.174   7.353   6.991  1.00  0.00     0.074 A 
ATOM     38  C   UNL     1       9.494   8.700   6.564  1.00  0.00     0.031 C 
ATOM     39  C   UNL     1       9.701   6.758   8.090  1.00  0.00     0.034 A 
BRANCH  26  40
ATOM     40  C   UNL     1       7.533   1.074   9.193  1.00  0.00     0.023 A 
ATOM     41  C   UNL     1       8.315  -0.029   8.796  1.00  0.00     0.012 A 
ATOM     42  C   UNL     1       6.771   0.997  10.373  1.00  0.00     0.148 A 
ATOM     43  C   UNL     1       8.319  -1.202   9.549  1.00  0.00     0.002 A 
ATOM     44  C   UNL     1       6.799  -0.168  11.132  1.00  0.00     0.091 A 
ATOM     45  F   UNL     1       6.003   2.042  10.710  1.00  0.00    -0.205 F 
ATOM     46  C   UNL     1       7.567  -1.269  10.720  1.00  0.00     0.022 A 
BRANCH  44  47
ATOM     47  S   UNL     1       5.882  -0.322  12.668  1.00  0.00     0.127 S 
ATOM     48  O   UNL     1       4.686  -1.038  12.228  1.00  0.00    -0.237 OA
ATOM     49  O   UNL     1       6.792  -1.109  13.502  1.00  0.00    -0.237 OA
ATOM     50  O   UNL     1       5.671   1.042  13.134  1.00  0.00    -0.744 OA
ENDBRANCH  44  47
ENDBRANCH  26  40
BRANCH  27  51
ATOM     51  C   UNL     1       7.103   8.986   3.074  1.00  0.00     0.023 A 
ATOM     52  C   UNL     1       8.254   9.301   2.327  1.00  0.00     0.012 A 
ATOM     53  C   UNL     1       5.930   9.732   2.858  1.00  0.00     0.148 A 
ATOM     54  C   UNL     1       8.239  10.345   1.399  1.00  0.00     0.002 A 
ATOM     55  C   UNL     1       5.904  10.727   1.886  1.00  0.00     0.091 A 
ATOM     56  F   UNL     1       4.836   9.441   3.578  1.00  0.00    -0.205 F 
ATOM     57  C   UNL     1       7.060  11.050   1.166  1.00  0.00     0.022 A 
BRANCH  55  58
ATOM     58  S   UNL     1       4.343  11.506   1.462  1.00  0.00     0.127 S 
ATOM     59  O   UNL     1       4.134  12.418   2.581  1.00  0.00    -0.237 OA
ATOM     60  O   UNL     1       4.631  12.158   0.185  1.00  0.00    -0.237 OA
ATOM     61  O   UNL     1       3.421  10.377   1.353  1.00  0.00    -0.744 OA
ENDBRANCH  55  58
ENDBRANCH  27  51
BRANCH  39  62
ATOM     62  C   UNL     1      10.682   7.550   8.909  1.00  0.00     0.023 A 
ATOM     63  C   UNL     1      10.201   8.539   9.788  1.00  0.00     0.012 A 
ATOM     64  C   UNL     1      12.056   7.249   8.887  1.00  0.00     0.148 A 
ATOM     65  C   UNL     1      11.077   9.228  10.625  1.00  0.00     0.002 A 
ATOM     66  C   UNL     1      12.919   7.915   9.751  1.00  0.00     0.091 A 
ATOM     67  F   UNL     1      12.501   6.321   8.026  1.00  0.00    -0.205 F 
ATOM     68  C   UNL     1      12.433   8.908  10.616  1.00  0.00     0.022 A 
BRANCH  66  69
ATOM     69  S   UNL     1      14.660   7.481   9.845  1.00  0.00     0.127 S 
ATOM     70  O   UNL     1      15.253   8.395   8.871  1.00  0.00    -0.237 OA
ATOM     71  O   UNL     1      14.993   7.778  11.239  1.00  0.00    -0.237 OA
ATOM     72  O   UNL     1      14.717   6.064   9.509  1.00  0.00    -0.744 OA
ENDBRANCH  66  69
ENDBRANCH  39  62
ENDBRANCH  13  14
ENDBRANCH   6   8
ENDBRANCH   5   6
ENDBRANCH   4   5
ENDBRANCH   3   4
ENDBRANCH   2   3
ENDBRANCH   1   2
BRANCH   1  73
ATOM     73  C   UNL     1       2.028   0.992  -3.303  1.00  0.00     0.188 C 
BRANCH  73  74
ATOM     74  O   UNL     1       2.798   0.976  -4.508  1.00  0.00    -0.376 OA
BRANCH  74  75
ATOM     75  C   UNL     1       4.161   1.393  -4.388  1.00  0.00     0.202 C 
BRANCH  75  76
ATOM     76  C   UNL     1       4.350   2.904  -4.261  1.00  0.00     0.261 C 
BRANCH  76  77
ATOM     77  O   UNL     1       3.868   3.416  -3.004  1.00  0.00    -0.459 OA
BRANCH  77  78
ATOM     78  C   UNL     1       3.260   4.619  -3.111  1.00  0.00     0.345 C 
ATOM     79  O   UNL     1       3.047   5.253  -4.131  1.00  0.00    -0.246 OA
BRANCH  78  80
ATOM     80  C   UNL     1       2.864   5.159  -1.804  1.00  0.00     0.137 A 
ATOM     81  C   UNL     1       1.722   4.663  -1.169  1.00  0.00     0.023 A 
ATOM     82  C   UNL     1       3.420   6.365  -1.371  1.00  0.00     0.284 A 
ATOM     83  C   UNL     1       1.111   5.422  -0.163  1.00  0.00     0.010 A 
ATOM     84  C   UNL     1       2.810   7.135  -0.376  1.00  0.00     0.095 A 
ATOM     85  C   UNL     1       1.611   6.689   0.204  1.00  0.00    -0.011 A 
BRANCH  82  86
ATOM     86  N   UNL     1       4.641   6.842  -1.992  1.00  0.00     0.063 N 
ATOM     87  O   UNL     1       4.649   7.995  -2.434  1.00  0.00    -0.258 OA
ATOM     88  O   UNL     1       5.586   6.041  -2.048  1.00  0.00    -0.258 OA
ENDBRANCH  82  86
BRANCH  85  89
ATOM     89  C   UNL     1       0.815   7.583   1.058  1.00  0.00    -0.017 A 
ATOM     90  C   UNL     1       0.437   7.235   2.362  1.00  0.00     0.012 A 
ATOM     91  C   UNL     1       0.357   8.810   0.536  1.00  0.00     0.025 A 
ATOM     92  C   UNL     1      -0.382   8.084   3.112  1.00  0.00     0.040 A 
ATOM     93  C   UNL     1      -0.476   9.663   1.276  1.00  0.00     0.092 A 
ATOM     94  C   UNL     1      -0.836   9.280   2.562  1.00  0.00     0.135 A 
ATOM     95  F   UNL     1      -1.663  10.050   3.284  1.00  0.00    -0.206 F 
BRANCH  93  96
ATOM     96  C   UNL     1      -1.020  10.931   0.698  1.00  0.00     0.419 C 
ATOM     97  F   UNL     1      -2.381  10.878   0.558  1.00  0.00    -0.166 F 
ATOM     98  F   UNL     1      -0.775  12.043   1.440  1.00  0.00    -0.166 F 
ATOM     99  F   UNL     1      -0.561  11.205  -0.558  1.00  0.00    -0.166 F 
ENDBRANCH  93  96
ENDBRANCH  85  89
ENDBRANCH  78  80
ENDBRANCH  77  78
ENDBRANCH  76  77
ENDBRANCH  75  76
ENDBRANCH  74  75
ENDBRANCH  73  74
ENDBRANCH   1  73
TORSDOF 23
