REMARK SMILES CCCCC(=O)Nc1ccc(C(=O)N2CCC[C@H](C(=O)OCCOCCOCCOC(=O)c3ccc(-c4c5nc(c(-c6cccc(S(=O)(=O)[O-])c6F)c6ccc([nH]6)c(-c6cccc(S(=O)(=O)[O-])c6F)c6nc(c(-c7cccc(S(=O)(=O)[O-])c7F)c7ccc4[nH]7)C=C6)C=C5)cc3)C2)cc1
REMARK SMILES IDX 24 1 23 2 22 3 21 4 19 5 20 6 18 7 14 8 15 9 96 10 16 11
REMARK SMILES IDX 17 12 12 13 13 14 11 15 8 16 9 17 98 18 10 19 97 20 7 21
REMARK SMILES IDX 5 22 6 23 4 25 3 26 2 27 1 28 25 29 26 30 27 31 28 32 29 33
REMARK SMILES IDX 30 34 31 35 32 36 33 37 34 38 95 39 35 40 94 41 36 42 37 43
REMARK SMILES IDX 38 44 88 45 39 46 93 47 87 48 89 49 40 50 92 51 86 52 85 53
REMARK SMILES IDX 41 55 73 56 53 57 72 58 54 59 57 60 71 61 90 62 55 63 56 64
REMARK SMILES IDX 70 66 91 67 58 68 42 69 43 70 51 71 44 72 46 73 52 74 45 75
REMARK SMILES IDX 47 76 48 77 49 78 50 79 74 80 75 81 83 82 76 83 78 84 84 85
REMARK SMILES IDX 77 86 79 87 80 88 81 89 82 90 59 91 60 92 68 93 61 94 63 95
REMARK SMILES IDX 69 96 62 97 64 98 65 99 66 100 67 101
REMARK H PARENT 7 24 89 54 57 65
REMARK Flexibility Score: inf
ROOT
ATOM      1  O   UNL     1      -0.414  -5.872   7.100  1.00  0.00    -0.376 OA
ENDROOT
BRANCH   1   2
ATOM      2  C   UNL     1      -0.658  -6.168   5.728  1.00  0.00     0.202 C 
BRANCH   2   3
ATOM      3  C   UNL     1      -0.526  -5.055   4.670  1.00  0.00     0.261 C 
BRANCH   3   4
ATOM      4  O   UNL     1       0.779  -4.440   4.572  1.00  0.00    -0.463 OA
BRANCH   4   5
ATOM      5  C   UNL     1       0.853  -3.117   4.840  1.00  0.00     0.310 C 
ATOM      6  O   UNL     1      -0.104  -2.433   5.195  1.00  0.00    -0.252 OA
BRANCH   5   7
ATOM      7  C   UNL     1       2.221  -2.476   4.596  1.00  0.00     0.119 C 
ATOM      8  N   UNL     1       1.855  -2.367   2.186  1.00  0.00    -0.338 N 
ATOM      9  C   UNL     1       3.036  -3.168   1.863  1.00  0.00     0.120 C 
ATOM     10  C   UNL     1       2.017  -1.555   3.396  1.00  0.00     0.135 C 
ATOM     11  C   UNL     1       3.457  -4.068   3.021  1.00  0.00     0.022 C 
ATOM     12  C   UNL     1       3.493  -3.297   4.336  1.00  0.00     0.019 C 
BRANCH   8  13
ATOM     13  C   UNL     1       0.621  -2.785   1.666  1.00  0.00     0.253 C 
ATOM     14  O   UNL     1       0.428  -3.958   1.338  1.00  0.00    -0.269 OA
BRANCH  13  15
ATOM     15  C   UNL     1      -0.375  -1.762   1.208  1.00  0.00     0.040 A 
ATOM     16  C   UNL     1      -1.570   0.278  -0.279  1.00  0.00     0.041 A 
ATOM     17  C   UNL     1      -1.681  -1.033  -0.723  1.00  0.00     0.027 A 
ATOM     18  C   UNL     1      -1.106   0.529   1.003  1.00  0.00     0.027 A 
ATOM     19  C   UNL     1      -1.054  -2.049   0.009  1.00  0.00     0.016 A 
ATOM     20  C   UNL     1      -0.541  -0.496   1.757  1.00  0.00     0.016 A 
BRANCH  16  21
ATOM     21  N   UNL     1      -1.945   1.346  -1.092  1.00  0.00    -0.326 N 
ATOM     22  C   UNL     1      -1.243   2.521  -1.243  1.00  0.00     0.224 C 
ATOM     23  O   UNL     1      -1.844   3.571  -1.476  1.00  0.00    -0.275 OA
ATOM     24  H   UNL     1      -2.782   1.252  -1.602  1.00  0.00     0.169 HD
BRANCH  22  25
ATOM     25  C   UNL     1       0.283   2.433  -1.379  1.00  0.00     0.100 C 
BRANCH  25  26
ATOM     26  C   UNL     1       1.176   2.849  -0.207  1.00  0.00     0.010 C 
BRANCH  26  27
ATOM     27  C   UNL     1       1.885   1.755   0.611  1.00  0.00    -0.003 C 
ATOM     28  C   UNL     1       2.316   0.503  -0.138  1.00  0.00     0.004 C 
ENDBRANCH  26  27
ENDBRANCH  25  26
ENDBRANCH  22  25
ENDBRANCH  16  21
ENDBRANCH  13  15
ENDBRANCH   8  13
ENDBRANCH   5   7
ENDBRANCH   4   5
ENDBRANCH   3   4
ENDBRANCH   2   3
ENDBRANCH   1   2
BRANCH   1  29
ATOM     29  C   UNL     1       0.740  -5.123   7.441  1.00  0.00     0.188 C 
BRANCH  29  30
ATOM     30  C   UNL     1       2.078  -5.527   6.816  1.00  0.00     0.188 C 
BRANCH  30  31
ATOM     31  O   UNL     1       2.016  -6.542   5.843  1.00  0.00    -0.376 OA
BRANCH  31  32
ATOM     32  C   UNL     1       2.671  -7.779   6.064  1.00  0.00     0.202 C 
BRANCH  32  33
ATOM     33  C   UNL     1       2.592  -8.487   7.430  1.00  0.00     0.261 C 
BRANCH  33  34
ATOM     34  O   UNL     1       2.790  -7.680   8.602  1.00  0.00    -0.460 OA
BRANCH  34  35
ATOM     35  C   UNL     1       4.031  -7.183   8.816  1.00  0.00     0.338 C 
ATOM     36  O   UNL     1       5.034  -7.425   8.157  1.00  0.00    -0.246 OA
BRANCH  35  37
ATOM     37  C   UNL     1       3.904  -6.063   9.786  1.00  0.00     0.060 A 
ATOM     38  C   UNL     1       4.394  -4.800   9.415  1.00  0.00     0.016 A 
ATOM     39  C   UNL     1       3.238  -6.223  11.003  1.00  0.00     0.016 A 
ATOM     40  C   UNL     1       4.257  -3.709  10.275  1.00  0.00     0.010 A 
ATOM     41  C   UNL     1       3.124  -5.133  11.876  1.00  0.00     0.010 A 
ATOM     42  C   UNL     1       3.669  -3.881  11.534  1.00  0.00    -0.014 A 
BRANCH  42  43
ATOM     43  C   UNL     1       3.839  -2.826  12.567  1.00  0.00     0.031 A 
ATOM     44  C   UNL     1       4.944  -2.999  13.578  1.00  0.00     0.074 A 
ATOM     45  C   UNL     1       3.068  -1.724  12.604  1.00  0.00     0.049 A 
ATOM     46  N   UNL     1       5.302  -2.218  14.563  1.00  0.00    -0.248 NA
ATOM     47  C   UNL     1       5.755  -4.223  13.457  1.00  0.00     0.031 C 
ATOM     48  C   UNL     1       1.974  -1.419  11.684  1.00  0.00     0.029 A 
ATOM     49  N   UNL     1       3.086  -0.658  13.472  1.00  0.00    -0.354 N 
ATOM     50  C   UNL     1       6.358  -2.865  15.194  1.00  0.00     0.074 A 
ATOM     51  C   UNL     1       6.570  -4.112  14.493  1.00  0.00     0.031 C 
ATOM     52  C   UNL     1       1.412  -0.252  12.049  1.00  0.00     0.029 A 
ATOM     53  C   UNL     1       2.091   0.262  13.238  1.00  0.00     0.049 A 
ATOM     54  H   UNL     1       3.749  -0.562  14.193  1.00  0.00     0.167 HD
ATOM     55  C   UNL     1       7.101  -2.457  16.249  1.00  0.00     0.034 A 
ATOM     56  C   UNL     1       1.758   1.380  13.916  1.00  0.00     0.034 A 
ATOM     57  C   UNL     1       6.901  -1.217  16.949  1.00  0.00     0.049 A 
ATOM     58  C   UNL     1       2.577   1.796  15.114  1.00  0.00     0.074 A 
ATOM     59  C   UNL     1       7.622  -0.703  18.012  1.00  0.00     0.029 A 
ATOM     60  N   UNL     1       5.896  -0.304  16.670  1.00  0.00    -0.354 N 
ATOM     61  N   UNL     1       3.639   1.227  15.632  1.00  0.00    -0.248 NA
ATOM     62  C   UNL     1       2.171   3.034  15.797  1.00  0.00     0.031 C 
ATOM     63  C   UNL     1       7.031   0.504  18.400  1.00  0.00     0.029 A 
ATOM     64  C   UNL     1       5.971   0.766  17.547  1.00  0.00     0.049 A 
ATOM     65  H   UNL     1       5.228  -0.401  15.954  1.00  0.00     0.167 HD
ATOM     66  C   UNL     1       4.052   2.059  16.670  1.00  0.00     0.074 A 
ATOM     67  C   UNL     1       3.138   3.182  16.691  1.00  0.00     0.031 C 
ATOM     68  C   UNL     1       5.087   1.904  17.534  1.00  0.00     0.034 A 
BRANCH  55  69
ATOM     69  C   UNL     1       8.213  -3.366  16.705  1.00  0.00     0.023 A 
ATOM     70  C   UNL     1       9.360  -3.531  15.901  1.00  0.00     0.012 A 
ATOM     71  C   UNL     1       8.136  -4.034  17.942  1.00  0.00     0.148 A 
ATOM     72  C   UNL     1      10.394  -4.377  16.302  1.00  0.00     0.002 A 
ATOM     73  C   UNL     1       9.192  -4.835  18.358  1.00  0.00     0.091 A 
ATOM     74  F   UNL     1       7.027  -3.885  18.681  1.00  0.00    -0.205 F 
ATOM     75  C   UNL     1      10.314  -5.020  17.534  1.00  0.00     0.022 A 
BRANCH  73  76
ATOM     76  S   UNL     1       9.222  -5.641  19.963  1.00  0.00     0.127 S 
ATOM     77  O   UNL     1       9.086  -7.048  19.589  1.00  0.00    -0.237 OA
ATOM     78  O   UNL     1      10.544  -5.269  20.467  1.00  0.00    -0.237 OA
ATOM     79  O   UNL     1       8.106  -5.084  20.714  1.00  0.00    -0.744 OA
ENDBRANCH  73  76
ENDBRANCH  55  69
BRANCH  56  80
ATOM     80  C   UNL     1       0.611   2.221  13.465  1.00  0.00     0.023 A 
ATOM     81  C   UNL     1       0.850   3.513  12.954  1.00  0.00     0.012 A 
ATOM     82  C   UNL     1      -0.715   1.755  13.556  1.00  0.00     0.148 A 
ATOM     83  C   UNL     1      -0.210   4.338  12.579  1.00  0.00     0.002 A 
ATOM     84  C   UNL     1      -1.763   2.561  13.127  1.00  0.00     0.091 A 
ATOM     85  F   UNL     1      -0.923   0.531  14.061  1.00  0.00    -0.205 F 
ATOM     86  C   UNL     1      -1.515   3.860  12.657  1.00  0.00     0.022 A 
BRANCH  84  87
ATOM     87  S   UNL     1      -3.465   1.990  13.080  1.00  0.00     0.127 S 
ATOM     88  O   UNL     1      -4.095   2.845  14.083  1.00  0.00    -0.237 OA
ATOM     89  O   UNL     1      -3.838   2.284  11.696  1.00  0.00    -0.237 OA
ATOM     90  O   UNL     1      -3.415   0.571  13.405  1.00  0.00    -0.744 OA
ENDBRANCH  84  87
ENDBRANCH  56  80
BRANCH  68  91
ATOM     91  C   UNL     1       5.330   3.001  18.543  1.00  0.00     0.023 A 
ATOM     92  C   UNL     1       4.417   3.216  19.595  1.00  0.00     0.012 A 
ATOM     93  C   UNL     1       6.491   3.798  18.468  1.00  0.00     0.148 A 
ATOM     94  C   UNL     1       4.626   4.239  20.520  1.00  0.00     0.002 A 
ATOM     95  C   UNL     1       6.721   4.778  19.427  1.00  0.00     0.091 A 
ATOM     96  F   UNL     1       7.345   3.593  17.455  1.00  0.00    -0.205 F 
ATOM     97  C   UNL     1       5.781   5.013  20.442  1.00  0.00     0.022 A 
BRANCH  95  98
ATOM     98  S   UNL     1       8.230   5.753  19.462  1.00  0.00     0.127 S 
ATOM     99  O   UNL     1       7.759   7.049  18.976  1.00  0.00    -0.237 OA
ATOM    100  O   UNL     1       8.585   5.726  20.881  1.00  0.00    -0.237 OA
ATOM    101  O   UNL     1       9.173   5.062  18.592  1.00  0.00    -0.744 OA
ENDBRANCH  95  98
ENDBRANCH  68  91
ENDBRANCH  42  43
ENDBRANCH  35  37
ENDBRANCH  34  35
ENDBRANCH  33  34
ENDBRANCH  32  33
ENDBRANCH  31  32
ENDBRANCH  30  31
ENDBRANCH  29  30
ENDBRANCH   1  29
TORSDOF 26
