REMARK SMILES N#C[C@H]1CN(C(=O)c2csc(/C=C/C(=O)OCCOCCOCCOC(=O)c3ccc(-c4c5nc(c(-c6cccc(S(=O)(=O)[O-])c6F)c6ccc([nH]6)c(-c6cccc(S(=O)(=O)[O-])c6F)c6nc(c(-c7cccc(S(=O)(=O)[O-])c7F)c7ccc4[nH]7)C=C6)C=C5)cc3)c2)CCO1
REMARK SMILES IDX 20 1 19 2 18 3 17 4 16 5 14 6 15 7 13 8 12 9 11 10 8 11 9 12
REMARK SMILES IDX 91 13 10 14 6 15 7 16 5 17 3 18 4 19 94 20 93 21 92 22 2 23
REMARK SMILES IDX 1 24 21 25 22 26 23 27 24 28 25 29 26 30 27 31 28 32 29 33
REMARK SMILES IDX 90 34 30 35 89 36 31 37 32 38 33 39 83 40 34 41 88 42 82 43
REMARK SMILES IDX 84 44 35 45 87 46 81 47 80 48 36 50 68 51 48 52 67 53 49 54
REMARK SMILES IDX 52 55 66 56 85 57 50 58 51 59 65 61 86 62 53 63 37 64 38 65
REMARK SMILES IDX 46 66 39 67 41 68 47 69 40 70 42 71 43 72 44 73 45 74 69 75
REMARK SMILES IDX 70 76 78 77 71 78 73 79 79 80 72 81 74 82 75 83 76 84 77 85
REMARK SMILES IDX 54 86 55 87 63 88 56 89 58 90 64 91 57 92 59 93 60 94 61 95
REMARK SMILES IDX 62 96
REMARK H PARENT 84 49 52 60
REMARK Flexibility Score: inf
ROOT
ATOM      1  C   UNL     1      -1.722   7.939   0.587  1.00  0.00     0.188 C 
ENDROOT
BRANCH   1   2
ATOM      2  O   UNL     1      -3.015   8.489   0.683  1.00  0.00    -0.376 OA
BRANCH   2   3
ATOM      3  C   UNL     1      -3.973   8.274  -0.337  1.00  0.00     0.202 C 
BRANCH   3   4
ATOM      4  C   UNL     1      -3.698   7.645  -1.720  1.00  0.00     0.261 C 
BRANCH   4   5
ATOM      5  O   UNL     1      -2.535   6.824  -1.872  1.00  0.00    -0.460 OA
BRANCH   5   6
ATOM      6  C   UNL     1      -1.543   7.358  -2.627  1.00  0.00     0.330 C 
ATOM      7  O   UNL     1      -1.577   8.434  -3.205  1.00  0.00    -0.247 OA
BRANCH   6   8
ATOM      8  C   UNL     1      -0.302   6.558  -2.573  1.00  0.00     0.095 C 
ATOM      9  C   UNL     1      -0.253   5.223  -2.444  1.00  0.00     0.026 C 
BRANCH   9  10
ATOM     10  C   UNL     1       0.974   4.484  -2.456  1.00  0.00     0.028 A 
ATOM     11  C   UNL     1       2.502   2.693  -2.754  1.00  0.00     0.051 A 
ATOM     12  C   UNL     1       3.350   3.739  -2.451  1.00  0.00     0.079 A 
ATOM     13  C   UNL     1       1.135   3.140  -2.750  1.00  0.00     0.033 A 
ATOM     14  S   UNL     1       2.508   5.178  -2.083  1.00  0.00    -0.144 S 
BRANCH  11  15
ATOM     15  C   UNL     1       2.925   1.352  -3.149  1.00  0.00     0.254 C 
ATOM     16  O   UNL     1       2.452   0.839  -4.161  1.00  0.00    -0.269 OA
BRANCH  15  17
ATOM     17  N   UNL     1       3.822   0.662  -2.338  1.00  0.00    -0.333 N 
ATOM     18  C   UNL     1       3.723  -0.101   0.016  1.00  0.00     0.240 C 
ATOM     19  C   UNL     1       4.199   1.002  -0.956  1.00  0.00     0.167 C 
ATOM     20  O   UNL     1       4.204  -1.398  -0.413  1.00  0.00    -0.360 OA
ATOM     21  C   UNL     1       3.755  -1.712  -1.741  1.00  0.00     0.183 C 
ATOM     22  C   UNL     1       4.263  -0.674  -2.746  1.00  0.00     0.148 C 
BRANCH  18  23
ATOM     23  C   UNL     1       4.204   0.191   1.377  1.00  0.00     0.096 C 
ATOM     24  N   UNL     1       4.577   0.441   2.450  1.00  0.00    -0.195 NA
ENDBRANCH  18  23
ENDBRANCH  15  17
ENDBRANCH  11  15
ENDBRANCH   9  10
ENDBRANCH   6   8
ENDBRANCH   5   6
ENDBRANCH   4   5
ENDBRANCH   3   4
ENDBRANCH   2   3
ENDBRANCH   1   2
BRANCH   1  25
ATOM     25  C   UNL     1      -1.580   6.427   0.848  1.00  0.00     0.188 C 
BRANCH  25  26
ATOM     26  O   UNL     1      -2.737   5.622   0.799  1.00  0.00    -0.376 OA
BRANCH  26  27
ATOM     27  C   UNL     1      -3.705   5.703   1.835  1.00  0.00     0.202 C 
BRANCH  27  28
ATOM     28  C   UNL     1      -3.518   6.372   3.216  1.00  0.00     0.261 C 
BRANCH  28  29
ATOM     29  O   UNL     1      -2.451   7.305   3.391  1.00  0.00    -0.460 OA
BRANCH  29  30
ATOM     30  C   UNL     1      -1.359   6.831   4.040  1.00  0.00     0.338 C 
ATOM     31  O   UNL     1      -1.182   5.697   4.450  1.00  0.00    -0.246 OA
BRANCH  30  32
ATOM     32  C   UNL     1      -0.304   7.861   4.010  1.00  0.00     0.060 A 
ATOM     33  C   UNL     1       0.826   7.652   3.206  1.00  0.00     0.016 A 
ATOM     34  C   UNL     1      -0.409   9.002   4.803  1.00  0.00     0.016 A 
ATOM     35  C   UNL     1       1.866   8.579   3.205  1.00  0.00     0.010 A 
ATOM     36  C   UNL     1       0.646   9.918   4.821  1.00  0.00     0.010 A 
ATOM     37  C   UNL     1       1.801   9.694   4.047  1.00  0.00    -0.014 A 
BRANCH  37  38
ATOM     38  C   UNL     1       3.005  10.534   4.251  1.00  0.00     0.031 A 
ATOM     39  C   UNL     1       3.809  10.348   5.508  1.00  0.00     0.074 A 
ATOM     40  C   UNL     1       3.374  11.453   3.342  1.00  0.00     0.049 A 
ATOM     41  N   UNL     1       4.862  11.001   5.924  1.00  0.00    -0.248 NA
ATOM     42  C   UNL     1       3.358   9.286   6.421  1.00  0.00     0.031 C 
ATOM     43  C   UNL     1       2.694  11.710   2.075  1.00  0.00     0.029 A 
ATOM     44  N   UNL     1       4.405  12.359   3.364  1.00  0.00    -0.354 N 
ATOM     45  C   UNL     1       5.171  10.465   7.168  1.00  0.00     0.074 A 
ATOM     46  C   UNL     1       4.190   9.437   7.440  1.00  0.00     0.031 C 
ATOM     47  C   UNL     1       3.313  12.725   1.448  1.00  0.00     0.029 A 
ATOM     48  C   UNL     1       4.408  13.211   2.286  1.00  0.00     0.049 A 
ATOM     49  H   UNL     1       5.077  12.396   4.083  1.00  0.00     0.167 HD
ATOM     50  C   UNL     1       6.181  10.796   8.008  1.00  0.00     0.034 A 
ATOM     51  C   UNL     1       5.188  14.277   2.020  1.00  0.00     0.034 A 
ATOM     52  C   UNL     1       7.154  11.818   7.730  1.00  0.00     0.049 A 
ATOM     53  C   UNL     1       6.276  14.658   2.991  1.00  0.00     0.074 A 
ATOM     54  C   UNL     1       8.249  12.191   8.489  1.00  0.00     0.029 A 
ATOM     55  N   UNL     1       7.132  12.654   6.624  1.00  0.00    -0.354 N 
ATOM     56  N   UNL     1       6.623  14.078   4.114  1.00  0.00    -0.248 NA
ATOM     57  C   UNL     1       7.100  15.824   2.640  1.00  0.00     0.031 C 
ATOM     58  C   UNL     1       8.850  13.294   7.874  1.00  0.00     0.029 A 
ATOM     59  C   UNL     1       8.175  13.562   6.694  1.00  0.00     0.049 A 
ATOM     60  H   UNL     1       6.472  12.608   5.895  1.00  0.00     0.167 HD
ATOM     61  C   UNL     1       7.732  14.778   4.581  1.00  0.00     0.074 A 
ATOM     62  C   UNL     1       8.003  15.820   3.611  1.00  0.00     0.031 C 
ATOM     63  C   UNL     1       8.459  14.574   5.708  1.00  0.00     0.034 A 
BRANCH  50  64
ATOM     64  C   UNL     1       6.261  10.060   9.321  1.00  0.00     0.023 A 
ATOM     65  C   UNL     1       6.583   8.688   9.353  1.00  0.00     0.012 A 
ATOM     66  C   UNL     1       6.030  10.741  10.533  1.00  0.00     0.148 A 
ATOM     67  C   UNL     1       6.616   7.993  10.563  1.00  0.00     0.002 A 
ATOM     68  C   UNL     1       6.120  10.056  11.738  1.00  0.00     0.091 A 
ATOM     69  F   UNL     1       5.706  12.041  10.485  1.00  0.00    -0.205 F 
ATOM     70  C   UNL     1       6.394   8.679  11.754  1.00  0.00     0.022 A 
BRANCH  68  71
ATOM     71  S   UNL     1       5.936  10.869  13.328  1.00  0.00     0.127 S 
ATOM     72  O   UNL     1       4.657  10.330  13.789  1.00  0.00    -0.237 OA
ATOM     73  O   UNL     1       7.104  10.378  14.060  1.00  0.00    -0.237 OA
ATOM     74  O   UNL     1       5.949  12.299  13.054  1.00  0.00    -0.744 OA
ENDBRANCH  68  71
ENDBRANCH  50  64
BRANCH  51  75
ATOM     75  C   UNL     1       4.993  15.044   0.757  1.00  0.00     0.023 A 
ATOM     76  C   UNL     1       5.977  14.980  -0.249  1.00  0.00     0.012 A 
ATOM     77  C   UNL     1       3.835  15.815   0.540  1.00  0.00     0.148 A 
ATOM     78  C   UNL     1       5.823  15.692  -1.439  1.00  0.00     0.002 A 
ATOM     79  C   UNL     1       3.663  16.478  -0.669  1.00  0.00     0.091 A 
ATOM     80  F   UNL     1       2.917  15.867   1.515  1.00  0.00    -0.205 F 
ATOM     81  C   UNL     1       4.663  16.431  -1.653  1.00  0.00     0.022 A 
BRANCH  79  82
ATOM     82  S   UNL     1       2.158  17.365  -1.082  1.00  0.00     0.127 S 
ATOM     83  O   UNL     1       2.650  18.732  -1.240  1.00  0.00    -0.237 OA
ATOM     84  O   UNL     1       1.758  16.707  -2.326  1.00  0.00    -0.237 OA
ATOM     85  O   UNL     1       1.250  17.154   0.037  1.00  0.00    -0.744 OA
ENDBRANCH  79  82
ENDBRANCH  51  75
BRANCH  63  86
ATOM     86  C   UNL     1       9.665  15.453   5.938  1.00  0.00     0.023 A 
ATOM     87  C   UNL     1       9.507  16.817   6.253  1.00  0.00     0.012 A 
ATOM     88  C   UNL     1      10.961  14.898   5.909  1.00  0.00     0.148 A 
ATOM     89  C   UNL     1      10.621  17.622   6.495  1.00  0.00     0.002 A 
ATOM     90  C   UNL     1      12.061  15.692   6.208  1.00  0.00     0.091 A 
ATOM     91  F   UNL     1      11.093  13.602   5.593  1.00  0.00    -0.205 F 
ATOM     92  C   UNL     1      11.895  17.058   6.485  1.00  0.00     0.022 A 
BRANCH  90  93
ATOM     93  S   UNL     1      13.727  15.030   6.318  1.00  0.00     0.127 S 
ATOM     94  O   UNL     1      14.373  15.656   5.165  1.00  0.00    -0.237 OA
ATOM     95  O   UNL     1      14.174  15.536   7.616  1.00  0.00    -0.237 OA
ATOM     96  O   UNL     1      13.594  13.582   6.244  1.00  0.00    -0.744 OA
ENDBRANCH  90  93
ENDBRANCH  63  86
ENDBRANCH  37  38
ENDBRANCH  30  32
ENDBRANCH  29  30
ENDBRANCH  28  29
ENDBRANCH  27  28
ENDBRANCH  26  27
ENDBRANCH  25  26
ENDBRANCH   1  25
TORSDOF 24
