REMARK SMILES O=C(OCCOCCOCCOC(=O)c1cc(Br)n(Cc2ccn(C3CCCC3)n2)c1)c1ccc(-c2c3nc(c(-c4cccc(S(=O)(=O)[O-])c4F)c4ccc([nH]4)c(-c4cccc(S(=O)(=O)[O-])c4F)c4nc(c(-c5cccc(S(=O)(=O)[O-])c5F)c5ccc2[nH]5)C=C4)C=C3)cc1
REMARK SMILES IDX 7 1 6 2 5 3 4 4 3 5 2 6 1 7 32 8 33 9 94 10 34 11 93 12
REMARK SMILES IDX 35 13 36 14 37 15 87 16 38 17 92 18 86 19 88 20 39 21 91 22
REMARK SMILES IDX 85 23 84 24 40 26 72 27 52 28 71 29 53 30 56 31 70 32 89 33
REMARK SMILES IDX 54 34 55 35 69 37 90 38 57 39 41 40 42 41 50 42 43 43 45 44
REMARK SMILES IDX 51 45 44 46 46 47 47 48 48 49 49 50 73 51 74 52 82 53 75 54
REMARK SMILES IDX 77 55 83 56 76 57 78 58 79 59 80 60 81 61 58 62 59 63 67 64
REMARK SMILES IDX 60 65 62 66 68 67 61 68 63 69 64 70 65 71 66 72 8 73 9 74
REMARK SMILES IDX 10 75 11 76 12 77 13 78 14 79 15 80 16 81 31 82 17 83 19 84
REMARK SMILES IDX 18 85 20 86 21 87 22 88 30 89 23 90 24 91 25 92 26 93 29 94
REMARK SMILES IDX 27 95 28 96
REMARK H PARENT 88 25 56 36
REMARK Flexibility Score: inf
ROOT
ATOM      1  C   UNL     1       3.358  -0.363  -1.759  1.00  0.00     0.188 C 
ENDROOT
BRANCH   1   2
ATOM      2  O   UNL     1       4.622  -0.786  -1.245  1.00  0.00    -0.376 OA
BRANCH   2   3
ATOM      3  C   UNL     1       4.976  -0.240   0.019  1.00  0.00     0.202 C 
BRANCH   3   4
ATOM      4  C   UNL     1       4.485  -1.107   1.175  1.00  0.00     0.261 C 
BRANCH   4   5
ATOM      5  O   UNL     1       3.055  -1.263   1.283  1.00  0.00    -0.460 OA
BRANCH   5   6
ATOM      6  C   UNL     1       2.046  -0.381   1.430  1.00  0.00     0.338 C 
ATOM      7  O   UNL     1       0.893  -0.791   1.318  1.00  0.00    -0.246 OA
BRANCH   6   8
ATOM      8  C   UNL     1       2.254   1.073   1.669  1.00  0.00     0.060 A 
ATOM      9  C   UNL     1       3.369   1.621   2.309  1.00  0.00     0.016 A 
ATOM     10  C   UNL     1       1.187   1.921   1.323  1.00  0.00     0.016 A 
ATOM     11  C   UNL     1       3.412   2.983   2.617  1.00  0.00     0.010 A 
ATOM     12  C   UNL     1       1.221   3.279   1.639  1.00  0.00     0.010 A 
ATOM     13  C   UNL     1       2.321   3.805   2.324  1.00  0.00    -0.014 A 
BRANCH  13  14
ATOM     14  C   UNL     1       2.259   5.160   2.896  1.00  0.00     0.031 A 
ATOM     15  C   UNL     1       2.958   6.314   2.234  1.00  0.00     0.074 A 
ATOM     16  C   UNL     1       1.458   5.360   3.968  1.00  0.00     0.049 A 
ATOM     17  N   UNL     1       2.867   7.575   2.546  1.00  0.00    -0.248 NA
ATOM     18  C   UNL     1       3.835   6.065   1.076  1.00  0.00     0.031 C 
ATOM     19  C   UNL     1       0.552   4.384   4.586  1.00  0.00     0.029 A 
ATOM     20  N   UNL     1       1.194   6.516   4.653  1.00  0.00    -0.354 N 
ATOM     21  C   UNL     1       3.557   8.287   1.570  1.00  0.00     0.074 A 
ATOM     22  C   UNL     1       4.194   7.302   0.724  1.00  0.00     0.031 C 
ATOM     23  C   UNL     1      -0.308   5.032   5.395  1.00  0.00     0.029 A 
ATOM     24  C   UNL     1       0.050   6.439   5.436  1.00  0.00     0.049 A 
ATOM     25  H   UNL     1       1.759   7.321   4.596  1.00  0.00     0.167 HD
ATOM     26  C   UNL     1       4.109   9.515   1.747  1.00  0.00     0.034 A 
ATOM     27  C   UNL     1      -0.605   7.453   6.044  1.00  0.00     0.034 A 
ATOM     28  C   UNL     1       4.704   9.676   3.034  1.00  0.00     0.049 A 
ATOM     29  C   UNL     1       0.323   8.598   6.187  1.00  0.00     0.074 A 
ATOM     30  C   UNL     1       5.942   9.457   3.585  1.00  0.00     0.029 A 
ATOM     31  N   UNL     1       3.833   9.957   4.050  1.00  0.00    -0.354 N 
ATOM     32  N   UNL     1       1.357   8.614   6.984  1.00  0.00    -0.248 NA
ATOM     33  C   UNL     1       0.211   9.741   5.286  1.00  0.00     0.031 C 
ATOM     34  C   UNL     1       5.753   9.467   4.994  1.00  0.00     0.029 A 
ATOM     35  C   UNL     1       4.398   9.661   5.262  1.00  0.00     0.049 A 
ATOM     36  H   UNL     1       2.927  10.322   3.928  1.00  0.00     0.167 HD
ATOM     37  C   UNL     1       2.216   9.532   6.409  1.00  0.00     0.074 A 
ATOM     38  C   UNL     1       1.385  10.330   5.520  1.00  0.00     0.031 C 
ATOM     39  C   UNL     1       3.568   9.346   6.414  1.00  0.00     0.034 A 
BRANCH  26  40
ATOM     40  C   UNL     1       3.411  10.711   1.145  1.00  0.00     0.023 A 
ATOM     41  C   UNL     1       4.204  11.835   0.838  1.00  0.00     0.012 A 
ATOM     42  C   UNL     1       2.007  10.839   1.050  1.00  0.00     0.148 A 
ATOM     43  C   UNL     1       3.626  13.037   0.422  1.00  0.00     0.002 A 
ATOM     44  C   UNL     1       1.438  12.027   0.597  1.00  0.00     0.091 A 
ATOM     45  F   UNL     1       1.238   9.827   1.471  1.00  0.00    -0.205 F 
ATOM     46  C   UNL     1       2.245  13.130   0.290  1.00  0.00     0.022 A 
BRANCH  44  47
ATOM     47  S   UNL     1      -0.332  12.242   0.377  1.00  0.00     0.127 S 
ATOM     48  O   UNL     1      -0.612  13.353   1.285  1.00  0.00    -0.237 OA
ATOM     49  O   UNL     1      -0.407  12.573  -1.046  1.00  0.00    -0.237 OA
ATOM     50  O   UNL     1      -0.931  10.969   0.745  1.00  0.00    -0.744 OA
ENDBRANCH  44  47
ENDBRANCH  26  40
BRANCH  27  51
ATOM     51  C   UNL     1      -2.007   7.531   6.522  1.00  0.00     0.023 A 
ATOM     52  C   UNL     1      -2.328   8.453   7.539  1.00  0.00     0.012 A 
ATOM     53  C   UNL     1      -3.071   6.862   5.876  1.00  0.00     0.148 A 
ATOM     54  C   UNL     1      -3.655   8.721   7.884  1.00  0.00     0.002 A 
ATOM     55  C   UNL     1      -4.392   7.106   6.248  1.00  0.00     0.091 A 
ATOM     56  F   UNL     1      -2.803   6.047   4.846  1.00  0.00    -0.205 F 
ATOM     57  C   UNL     1      -4.688   8.046   7.241  1.00  0.00     0.022 A 
BRANCH  55  58
ATOM     58  S   UNL     1      -5.766   6.222   5.495  1.00  0.00     0.127 S 
ATOM     59  O   UNL     1      -6.677   6.037   6.627  1.00  0.00    -0.237 OA
ATOM     60  O   UNL     1      -6.233   7.171   4.489  1.00  0.00    -0.237 OA
ATOM     61  O   UNL     1      -5.194   4.979   4.991  1.00  0.00    -0.744 OA
ENDBRANCH  55  58
ENDBRANCH  27  51
BRANCH  39  62
ATOM     62  C   UNL     1       4.196   8.490   7.482  1.00  0.00     0.023 A 
ATOM     63  C   UNL     1       3.840   7.141   7.667  1.00  0.00     0.012 A 
ATOM     64  C   UNL     1       5.304   8.996   8.189  1.00  0.00     0.148 A 
ATOM     65  C   UNL     1       4.558   6.323   8.544  1.00  0.00     0.002 A 
ATOM     66  C   UNL     1       6.063   8.158   8.997  1.00  0.00     0.091 A 
ATOM     67  F   UNL     1       5.643  10.286   8.026  1.00  0.00    -0.205 F 
ATOM     68  C   UNL     1       5.684   6.824   9.193  1.00  0.00     0.022 A 
BRANCH  66  69
ATOM     69  S   UNL     1       7.633   8.737   9.650  1.00  0.00     0.127 S 
ATOM     70  O   UNL     1       7.229   9.498  10.829  1.00  0.00    -0.237 OA
ATOM     71  O   UNL     1       8.351   7.495   9.944  1.00  0.00    -0.237 OA
ATOM     72  O   UNL     1       8.217   9.504   8.553  1.00  0.00    -0.744 OA
ENDBRANCH  66  69
ENDBRANCH  39  62
ENDBRANCH  13  14
ENDBRANCH   6   8
ENDBRANCH   5   6
ENDBRANCH   4   5
ENDBRANCH   3   4
ENDBRANCH   2   3
ENDBRANCH   1   2
BRANCH   1  73
ATOM     73  C   UNL     1       2.325  -1.502  -1.897  1.00  0.00     0.188 C 
BRANCH  73  74
ATOM     74  O   UNL     1       2.590  -2.654  -2.703  1.00  0.00    -0.376 OA
BRANCH  74  75
ATOM     75  C   UNL     1       3.931  -3.091  -2.827  1.00  0.00     0.202 C 
BRANCH  75  76
ATOM     76  C   UNL     1       4.523  -2.629  -4.160  1.00  0.00     0.261 C 
BRANCH  76  77
ATOM     77  O   UNL     1       4.083  -1.311  -4.537  1.00  0.00    -0.460 OA
BRANCH  77  78
ATOM     78  C   UNL     1       3.004  -1.268  -5.364  1.00  0.00     0.339 C 
ATOM     79  O   UNL     1       2.467  -2.256  -5.878  1.00  0.00    -0.246 OA
BRANCH  78  80
ATOM     80  C   UNL     1       2.599   0.083  -5.716  1.00  0.00     0.078 A 
ATOM     81  C   UNL     1       2.776   0.690  -6.989  1.00  0.00     0.051 A 
ATOM     82  C   UNL     1       1.854   0.978  -4.959  1.00  0.00     0.102 A 
ATOM     83  C   UNL     1       2.058   1.861  -7.003  1.00  0.00     0.086 A 
ATOM     84  N   UNL     1       1.530   2.068  -5.752  1.00  0.00    -0.335 N 
ATOM     85  Br  UNL     1       1.802   2.869  -8.558  1.00  0.00    -0.031 Br
BRANCH  84  86
ATOM     86  C   UNL     1       0.563   3.102  -5.377  1.00  0.00     0.180 C 
BRANCH  86  87
ATOM     87  C   UNL     1       1.178   4.424  -5.047  1.00  0.00     0.082 A 
ATOM     88  C   UNL     1       2.128   5.191  -5.765  1.00  0.00     0.047 A 
ATOM     89  N   UNL     1       0.752   5.091  -3.964  1.00  0.00    -0.176 NA
ATOM     90  C   UNL     1       2.252   6.368  -5.070  1.00  0.00     0.109 A 
ATOM     91  N   UNL     1       1.416   6.263  -3.998  1.00  0.00    -0.269 N 
BRANCH  91  92
ATOM     92  C   UNL     1       1.284   7.232  -2.937  1.00  0.00     0.107 C 
ATOM     93  C   UNL     1      -0.056   7.960  -2.864  1.00  0.00     0.027 C 
ATOM     94  C   UNL     1       1.425   6.645  -1.540  1.00  0.00     0.027 C 
ATOM     95  C   UNL     1      -0.089   8.538  -1.449  1.00  0.00     0.002 C 
ATOM     96  C   UNL     1       1.009   7.816  -0.672  1.00  0.00     0.002 C 
ENDBRANCH  91  92
ENDBRANCH  86  87
ENDBRANCH  84  86
ENDBRANCH  78  80
ENDBRANCH  77  78
ENDBRANCH  76  77
ENDBRANCH  75  76
ENDBRANCH  74  75
ENDBRANCH  73  74
ENDBRANCH   1  73
TORSDOF 23
