REMARK SMILES COc1cccc(O[C@@H](F)C(=O)OCCOCCOCCOC(=O)c2ccc(-c3c4nc(c(-c5cccc(S(=O)(=O)[O-])c5F)c5ccc([nH]5)c(-c5cccc(S(=O)(=O)[O-])c5F)c5nc(c(-c6cccc(S(=O)(=O)[O-])c6F)c6ccc3[nH]6)C=C5)C=C4)cc2)c1
REMARK SMILES IDX 17 1 16 2 15 3 14 4 13 5 11 6 12 7 9 8 10 9 8 10 7 11 3 12
REMARK SMILES IDX 4 13 88 14 5 15 6 16 2 17 1 18 18 19 19 20 20 21 21 22 22 23
REMARK SMILES IDX 23 24 24 25 25 26 26 27 87 28 27 29 86 30 28 31 29 32 30 33
REMARK SMILES IDX 80 34 31 35 85 36 79 37 81 38 32 39 84 40 78 41 77 42 33 44
REMARK SMILES IDX 65 45 45 46 64 47 46 48 49 49 63 50 82 51 47 52 48 53 62 55
REMARK SMILES IDX 83 56 50 57 34 58 35 59 43 60 36 61 38 62 44 63 37 64 39 65
REMARK SMILES IDX 40 66 41 67 42 68 66 69 67 70 75 71 68 72 70 73 76 74 69 75
REMARK SMILES IDX 71 76 72 77 73 78 74 79 51 80 52 81 60 82 53 83 55 84 61 85
REMARK SMILES IDX 54 86 56 87 57 88 58 89 59 90
REMARK H PARENT 81 43 49 54
REMARK Flexibility Score: inf
ROOT
ATOM      1  C   UNL     1       5.649   3.115  -2.875  1.00  0.00     0.188 C 
ENDROOT
BRANCH   1   2
ATOM      2  O   UNL     1       5.609   2.027  -3.792  1.00  0.00    -0.376 OA
BRANCH   2   3
ATOM      3  C   UNL     1       4.596   1.036  -3.639  1.00  0.00     0.202 C 
BRANCH   3   4
ATOM      4  C   UNL     1       4.349   0.452  -2.238  1.00  0.00     0.261 C 
BRANCH   4   5
ATOM      5  O   UNL     1       4.098   1.451  -1.228  1.00  0.00    -0.458 OA
BRANCH   5   6
ATOM      6  C   UNL     1       4.699   1.281  -0.019  1.00  0.00     0.381 C 
ATOM      7  O   UNL     1       5.351   0.284   0.278  1.00  0.00    -0.244 OA
BRANCH   6   8
ATOM      8  C   UNL     1       4.500   2.486   0.962  1.00  0.00     0.461 C 
ATOM      9  F   UNL     1       4.210   2.026   2.220  1.00  0.00    -0.189 F 
BRANCH   8  10
ATOM     10  O   UNL     1       3.685   3.629   0.764  1.00  0.00    -0.450 OA
BRANCH  10  11
ATOM     11  C   UNL     1       2.373   3.472   0.425  1.00  0.00     0.127 A 
ATOM     12  C   UNL     1       0.417   2.172  -0.141  1.00  0.00     0.122 A 
ATOM     13  C   UNL     1      -0.215   3.327  -0.606  1.00  0.00     0.046 A 
ATOM     14  C   UNL     1       1.689   2.261   0.427  1.00  0.00     0.093 A 
ATOM     15  C   UNL     1       0.427   4.562  -0.522  1.00  0.00     0.008 A 
ATOM     16  C   UNL     1       1.723   4.630  -0.014  1.00  0.00     0.047 A 
BRANCH  12  17
ATOM     17  O   UNL     1      -0.286   1.008  -0.306  1.00  0.00    -0.497 OA
ATOM     18  C   UNL     1       0.440  -0.195  -0.062  1.00  0.00     0.278 C 
ENDBRANCH  12  17
ENDBRANCH  10  11
ENDBRANCH   8  10
ENDBRANCH   6   8
ENDBRANCH   5   6
ENDBRANCH   4   5
ENDBRANCH   3   4
ENDBRANCH   2   3
ENDBRANCH   1   2
BRANCH   1  19
ATOM     19  C   UNL     1       4.348   3.891  -2.594  1.00  0.00     0.188 C 
BRANCH  19  20
ATOM     20  O   UNL     1       3.207   3.339  -3.211  1.00  0.00    -0.376 OA
BRANCH  20  21
ATOM     21  C   UNL     1       2.611   4.075  -4.264  1.00  0.00     0.202 C 
BRANCH  21  22
ATOM     22  C   UNL     1       3.473   4.615  -5.423  1.00  0.00     0.261 C 
BRANCH  22  23
ATOM     23  O   UNL     1       4.786   5.103  -5.102  1.00  0.00    -0.460 OA
BRANCH  23  24
ATOM     24  C   UNL     1       4.886   6.353  -4.596  1.00  0.00     0.338 C 
ATOM     25  O   UNL     1       3.963   7.122  -4.361  1.00  0.00    -0.246 OA
BRANCH  24  26
ATOM     26  C   UNL     1       6.285   6.554  -4.156  1.00  0.00     0.060 A 
ATOM     27  C   UNL     1       6.556   6.729  -2.790  1.00  0.00     0.016 A 
ATOM     28  C   UNL     1       7.328   6.551  -5.084  1.00  0.00     0.016 A 
ATOM     29  C   UNL     1       7.870   6.921  -2.352  1.00  0.00     0.010 A 
ATOM     30  C   UNL     1       8.638   6.769  -4.646  1.00  0.00     0.010 A 
ATOM     31  C   UNL     1       8.914   6.984  -3.283  1.00  0.00    -0.014 A 
BRANCH  31  32
ATOM     32  C   UNL     1      10.259   7.457  -2.868  1.00  0.00     0.031 A 
ATOM     33  C   UNL     1      10.624   8.893  -3.138  1.00  0.00     0.074 A 
ATOM     34  C   UNL     1      11.148   6.634  -2.282  1.00  0.00     0.049 A 
ATOM     35  N   UNL     1      11.760   9.511  -2.953  1.00  0.00    -0.248 NA
ATOM     36  C   UNL     1       9.559   9.744  -3.697  1.00  0.00     0.031 C 
ATOM     37  C   UNL     1      10.915   5.230  -1.949  1.00  0.00     0.029 A 
ATOM     38  N   UNL     1      12.446   6.861  -1.891  1.00  0.00    -0.354 N 
ATOM     39  C   UNL     1      11.557  10.814  -3.394  1.00  0.00     0.074 A 
ATOM     40  C   UNL     1      10.195  10.893  -3.873  1.00  0.00     0.031 C 
ATOM     41  C   UNL     1      12.044   4.710  -1.437  1.00  0.00     0.029 A 
ATOM     42  C   UNL     1      13.089   5.732  -1.436  1.00  0.00     0.049 A 
ATOM     43  H   UNL     1      12.875   7.746  -1.933  1.00  0.00     0.167 HD
ATOM     44  C   UNL     1      12.420  11.857  -3.386  1.00  0.00     0.034 A 
ATOM     45  C   UNL     1      14.379   5.543  -1.091  1.00  0.00     0.034 A 
ATOM     46  C   UNL     1      13.773  11.781  -2.908  1.00  0.00     0.049 A 
ATOM     47  C   UNL     1      15.338   6.709  -1.149  1.00  0.00     0.074 A 
ATOM     48  C   UNL     1      14.721  12.786  -2.845  1.00  0.00     0.029 A 
ATOM     49  N   UNL     1      14.376  10.632  -2.422  1.00  0.00    -0.354 N 
ATOM     50  N   UNL     1      15.107   7.957  -1.480  1.00  0.00    -0.248 NA
ATOM     51  C   UNL     1      16.731   6.445  -0.755  1.00  0.00     0.031 C 
ATOM     52  C   UNL     1      15.907  12.238  -2.347  1.00  0.00     0.029 A 
ATOM     53  C   UNL     1      15.684  10.901  -2.061  1.00  0.00     0.049 A 
ATOM     54  H   UNL     1      13.938   9.754  -2.344  1.00  0.00     0.167 HD
ATOM     55  C   UNL     1      16.308   8.633  -1.288  1.00  0.00     0.074 A 
ATOM     56  C   UNL     1      17.260   7.660  -0.795  1.00  0.00     0.031 C 
ATOM     57  C   UNL     1      16.603   9.938  -1.510  1.00  0.00     0.034 A 
BRANCH  44  58
ATOM     58  C   UNL     1      11.915  13.184  -3.892  1.00  0.00     0.023 A 
ATOM     59  C   UNL     1      10.982  13.911  -3.125  1.00  0.00     0.012 A 
ATOM     60  C   UNL     1      12.402  13.736  -5.093  1.00  0.00     0.148 A 
ATOM     61  C   UNL     1      10.516  15.151  -3.561  1.00  0.00     0.002 A 
ATOM     62  C   UNL     1      11.969  14.993  -5.497  1.00  0.00     0.091 A 
ATOM     63  F   UNL     1      13.274  13.020  -5.817  1.00  0.00    -0.205 F 
ATOM     64  C   UNL     1      11.017  15.695  -4.740  1.00  0.00     0.022 A 
BRANCH  62  65
ATOM     65  S   UNL     1      12.610  15.818  -6.957  1.00  0.00     0.127 S 
ATOM     66  O   UNL     1      11.434  15.836  -7.826  1.00  0.00    -0.237 OA
ATOM     67  O   UNL     1      12.995  17.125  -6.425  1.00  0.00    -0.237 OA
ATOM     68  O   UNL     1      13.719  15.001  -7.430  1.00  0.00    -0.744 OA
ENDBRANCH  62  65
ENDBRANCH  44  58
BRANCH  45  69
ATOM     69  C   UNL     1      14.858   4.201  -0.645  1.00  0.00     0.023 A 
ATOM     70  C   UNL     1      15.300   4.024   0.681  1.00  0.00     0.012 A 
ATOM     71  C   UNL     1      14.913   3.111  -1.535  1.00  0.00     0.148 A 
ATOM     72  C   UNL     1      15.832   2.803   1.099  1.00  0.00     0.002 A 
ATOM     73  C   UNL     1      15.388   1.881  -1.097  1.00  0.00     0.091 A 
ATOM     74  F   UNL     1      14.506   3.301  -2.798  1.00  0.00    -0.205 F 
ATOM     75  C   UNL     1      15.868   1.730   0.213  1.00  0.00     0.022 A 
BRANCH  73  76
ATOM     76  S   UNL     1      15.363   0.413  -2.132  1.00  0.00     0.127 S 
ATOM     77  O   UNL     1      16.785   0.211  -2.399  1.00  0.00    -0.237 OA
ATOM     78  O   UNL     1      14.757  -0.575  -1.239  1.00  0.00    -0.237 OA
ATOM     79  O   UNL     1      14.545   0.761  -3.286  1.00  0.00    -0.744 OA
ENDBRANCH  73  76
ENDBRANCH  45  69
BRANCH  57  80
ATOM     80  C   UNL     1      17.989  10.418  -1.160  1.00  0.00     0.023 A 
ATOM     81  C   UNL     1      19.095  10.027  -1.941  1.00  0.00     0.012 A 
ATOM     82  C   UNL     1      18.182  11.320  -0.093  1.00  0.00     0.148 A 
ATOM     83  C   UNL     1      20.374  10.496  -1.643  1.00  0.00     0.002 A 
ATOM     84  C   UNL     1      19.451  11.825   0.164  1.00  0.00     0.091 A 
ATOM     85  F   UNL     1      17.120  11.670   0.648  1.00  0.00    -0.205 F 
ATOM     86  C   UNL     1      20.550  11.402  -0.600  1.00  0.00     0.022 A 
BRANCH  84  87
ATOM     87  S   UNL     1      19.758  13.072   1.420  1.00  0.00     0.127 S 
ATOM     88  O   UNL     1      20.508  12.310   2.418  1.00  0.00    -0.237 OA
ATOM     89  O   UNL     1      20.549  14.060   0.686  1.00  0.00    -0.237 OA
ATOM     90  O   UNL     1      18.448  13.542   1.851  1.00  0.00    -0.744 OA
ENDBRANCH  84  87
ENDBRANCH  57  80
ENDBRANCH  31  32
ENDBRANCH  24  26
ENDBRANCH  23  24
ENDBRANCH  22  23
ENDBRANCH  21  22
ENDBRANCH  20  21
ENDBRANCH  19  20
ENDBRANCH   1  19
TORSDOF 23
