REMARK SMILES Cc1cc(C)cc(C2(C(=O)OCCOCCOCCOC(=O)c3ccc(-c4c5nc(c(-c6cccc(S(=O)(=O)[O-])c6F)c6ccc([nH]6)c(-c6cccc(S(=O)(=O)[O-])c6F)c6nc(c(-c7cccc(S(=O)(=O)[O-])c7F)c7ccc4[nH]7)C=C6)C=C5)cc3)CCOCC2)c1
REMARK SMILES IDX 16 1 15 2 14 3 13 4 12 5 11 6 9 7 10 8 8 9 86 10 90 11 87 12
REMARK SMILES IDX 89 13 88 14 7 15 1 16 2 17 3 18 91 19 4 20 5 21 6 22 17 23
REMARK SMILES IDX 18 24 19 25 20 26 21 27 22 28 23 29 24 30 85 31 25 32 84 33
REMARK SMILES IDX 26 34 27 35 28 36 78 37 29 38 83 39 77 40 79 41 30 42 82 43
REMARK SMILES IDX 76 44 75 45 31 47 63 48 43 49 62 50 44 51 47 52 61 53 80 54
REMARK SMILES IDX 45 55 46 56 60 58 81 59 48 60 32 61 33 62 41 63 34 64 36 65
REMARK SMILES IDX 42 66 35 67 37 68 38 69 39 70 40 71 64 72 65 73 73 74 66 75
REMARK SMILES IDX 68 76 74 77 67 78 69 79 70 80 71 81 72 82 49 83 50 84 58 85
REMARK SMILES IDX 51 86 53 87 59 88 52 89 54 90 55 91 56 92 57 93
REMARK H PARENT 79 46 47 57
REMARK Flexibility Score: inf
ROOT
ATOM      1  C   UNL     1      -2.322  -3.594   2.393  1.00  0.00     0.188 C 
ENDROOT
BRANCH   1   2
ATOM      2  C   UNL     1      -3.333  -2.756   1.596  1.00  0.00     0.188 C 
BRANCH   2   3
ATOM      3  O   UNL     1      -4.542  -3.430   1.344  1.00  0.00    -0.376 OA
BRANCH   3   4
ATOM      4  C   UNL     1      -4.651  -4.248   0.196  1.00  0.00     0.202 C 
BRANCH   4   5
ATOM      5  C   UNL     1      -3.462  -4.864  -0.575  1.00  0.00     0.261 C 
BRANCH   5   6
ATOM      6  O   UNL     1      -2.136  -4.431  -0.224  1.00  0.00    -0.463 OA
BRANCH   6   7
ATOM      7  C   UNL     1      -1.320  -4.053  -1.236  1.00  0.00     0.316 C 
ATOM      8  O   UNL     1      -1.680  -4.067  -2.412  1.00  0.00    -0.251 OA
BRANCH   7   9
ATOM      9  C   UNL     1       0.104  -3.546  -0.802  1.00  0.00     0.097 C 
ATOM     10  C   UNL     1       0.688  -3.975   0.575  1.00  0.00     0.052 C 
ATOM     11  C   UNL     1       1.028  -4.267  -1.819  1.00  0.00     0.052 C 
ATOM     12  C   UNL     1       0.659  -5.476   0.787  1.00  0.00     0.161 C 
ATOM     13  C   UNL     1       0.961  -5.785  -1.561  1.00  0.00     0.161 C 
ATOM     14  O   UNL     1       1.409  -6.116  -0.246  1.00  0.00    -0.381 OA
BRANCH   9  15
ATOM     15  C   UNL     1       0.140  -1.998  -0.847  1.00  0.00    -0.030 A 
ATOM     16  C   UNL     1       2.509   0.915  -0.057  1.00  0.00     0.044 C 
ATOM     17  C   UNL     1       1.273   0.135  -0.408  1.00  0.00    -0.051 A 
ATOM     18  C   UNL     1       0.059   0.818  -0.561  1.00  0.00     0.006 A 
ATOM     19  C   UNL     1       1.306  -1.263  -0.560  1.00  0.00     0.008 A 
ATOM     20  C   UNL     1      -1.107   0.126  -0.883  1.00  0.00    -0.051 A 
ATOM     21  C   UNL     1      -2.444   0.802  -0.988  1.00  0.00     0.044 C 
ATOM     22  C   UNL     1      -1.046  -1.262  -1.029  1.00  0.00     0.008 A 
ENDBRANCH   9  15
ENDBRANCH   7   9
ENDBRANCH   6   7
ENDBRANCH   5   6
ENDBRANCH   4   5
ENDBRANCH   3   4
ENDBRANCH   2   3
ENDBRANCH   1   2
BRANCH   1  23
ATOM     23  O   UNL     1      -2.647  -4.884   2.879  1.00  0.00    -0.376 OA
BRANCH  23  24
ATOM     24  C   UNL     1      -3.863  -5.048   3.582  1.00  0.00     0.202 C 
BRANCH  24  25
ATOM     25  C   UNL     1      -4.240  -4.078   4.716  1.00  0.00     0.261 C 
BRANCH  25  26
ATOM     26  O   UNL     1      -3.958  -2.684   4.501  1.00  0.00    -0.460 OA
BRANCH  26  27
ATOM     27  C   UNL     1      -2.873  -2.192   5.152  1.00  0.00     0.338 C 
ATOM     28  O   UNL     1      -2.127  -2.814   5.901  1.00  0.00    -0.246 OA
BRANCH  27  29
ATOM     29  C   UNL     1      -2.574  -0.818   4.686  1.00  0.00     0.060 A 
ATOM     30  C   UNL     1      -1.324  -0.549   4.104  1.00  0.00     0.016 A 
ATOM     31  C   UNL     1      -3.492   0.213   4.876  1.00  0.00     0.016 A 
ATOM     32  C   UNL     1      -0.977   0.756   3.742  1.00  0.00     0.010 A 
ATOM     33  C   UNL     1      -3.131   1.524   4.538  1.00  0.00     0.010 A 
ATOM     34  C   UNL     1      -1.861   1.810   4.004  1.00  0.00    -0.014 A 
BRANCH  34  35
ATOM     35  C   UNL     1      -1.415   3.223   3.873  1.00  0.00     0.031 A 
ATOM     36  C   UNL     1      -1.007   3.970   5.105  1.00  0.00     0.074 A 
ATOM     37  C   UNL     1      -1.405   3.856   2.687  1.00  0.00     0.049 A 
ATOM     38  N   UNL     1      -0.664   5.224   5.229  1.00  0.00    -0.248 NA
ATOM     39  C   UNL     1      -0.994   3.208   6.364  1.00  0.00     0.031 C 
ATOM     40  C   UNL     1      -1.770   3.233   1.427  1.00  0.00     0.029 A 
ATOM     41  N   UNL     1      -1.113   5.154   2.343  1.00  0.00    -0.354 N 
ATOM     42  C   UNL     1      -0.429   5.416   6.582  1.00  0.00     0.074 A 
ATOM     43  C   UNL     1      -0.675   4.150   7.239  1.00  0.00     0.031 C 
ATOM     44  C   UNL     1      -1.708   4.144   0.443  1.00  0.00     0.029 A 
ATOM     45  C   UNL     1      -1.333   5.432   1.012  1.00  0.00     0.049 A 
ATOM     46  H   UNL     1      -0.778   5.820   2.986  1.00  0.00     0.167 HD
ATOM     47  C   UNL     1      -0.040   6.545   7.217  1.00  0.00     0.034 A 
ATOM     48  C   UNL     1      -1.272   6.593   0.329  1.00  0.00     0.034 A 
ATOM     49  C   UNL     1       0.199   7.802   6.559  1.00  0.00     0.049 A 
ATOM     50  C   UNL     1      -0.872   7.842   1.065  1.00  0.00     0.074 A 
ATOM     51  C   UNL     1       0.634   8.991   7.116  1.00  0.00     0.029 A 
ATOM     52  N   UNL     1      -0.002   8.044   5.208  1.00  0.00    -0.354 N 
ATOM     53  N   UNL     1      -0.547   7.982   2.327  1.00  0.00    -0.248 NA
ATOM     54  C   UNL     1      -0.803   9.086   0.285  1.00  0.00     0.031 C 
ATOM     55  C   UNL     1       0.657   9.962   6.110  1.00  0.00     0.029 A 
ATOM     56  C   UNL     1       0.282   9.368   4.917  1.00  0.00     0.049 A 
ATOM     57  H   UNL     1      -0.301   7.373   4.553  1.00  0.00     0.167 HD
ATOM     58  C   UNL     1      -0.202   9.318   2.486  1.00  0.00     0.074 A 
ATOM     59  C   UNL     1      -0.336   9.941   1.185  1.00  0.00     0.031 C 
ATOM     60  C   UNL     1       0.181   9.970   3.611  1.00  0.00     0.034 A 
BRANCH  47  61
ATOM     61  C   UNL     1       0.144   6.465   8.707  1.00  0.00     0.023 A 
ATOM     62  C   UNL     1       1.232   5.748   9.244  1.00  0.00     0.012 A 
ATOM     63  C   UNL     1      -0.750   7.122   9.573  1.00  0.00     0.148 A 
ATOM     64  C   UNL     1       1.407   5.655  10.624  1.00  0.00     0.002 A 
ATOM     65  C   UNL     1      -0.541   7.067  10.945  1.00  0.00     0.091 A 
ATOM     66  F   UNL     1      -1.792   7.776   9.041  1.00  0.00    -0.205 F 
ATOM     67  C   UNL     1       0.527   6.322  11.473  1.00  0.00     0.022 A 
BRANCH  65  68
ATOM     68  S   UNL     1      -1.572   7.953  12.117  1.00  0.00     0.127 S 
ATOM     69  O   UNL     1      -2.248   6.854  12.805  1.00  0.00    -0.237 OA
ATOM     70  O   UNL     1      -0.577   8.659  12.924  1.00  0.00    -0.237 OA
ATOM     71  O   UNL     1      -2.436   8.816  11.323  1.00  0.00    -0.744 OA
ENDBRANCH  65  68
ENDBRANCH  47  61
BRANCH  48  72
ATOM     72  C   UNL     1      -1.571   6.630  -1.134  1.00  0.00     0.023 A 
ATOM     73  C   UNL     1      -0.539   6.919  -2.049  1.00  0.00     0.012 A 
ATOM     74  C   UNL     1      -2.868   6.378  -1.625  1.00  0.00     0.148 A 
ATOM     75  C   UNL     1      -0.799   6.990  -3.419  1.00  0.00     0.002 A 
ATOM     76  C   UNL     1      -3.108   6.395  -2.995  1.00  0.00     0.091 A 
ATOM     77  F   UNL     1      -3.841   6.117  -0.741  1.00  0.00    -0.205 F 
ATOM     78  C   UNL     1      -2.079   6.719  -3.892  1.00  0.00     0.022 A 
BRANCH  76  79
ATOM     79  S   UNL     1      -4.696   5.943  -3.704  1.00  0.00     0.127 S 
ATOM     80  O   UNL     1      -5.162   7.222  -4.233  1.00  0.00    -0.237 OA
ATOM     81  O   UNL     1      -4.304   4.962  -4.716  1.00  0.00    -0.237 OA
ATOM     82  O   UNL     1      -5.476   5.393  -2.603  1.00  0.00    -0.744 OA
ENDBRANCH  76  79
ENDBRANCH  48  72
BRANCH  60  83
ATOM     83  C   UNL     1       0.523  11.432   3.484  1.00  0.00     0.023 A 
ATOM     84  C   UNL     1      -0.494  12.380   3.257  1.00  0.00     0.012 A 
ATOM     85  C   UNL     1       1.852  11.869   3.655  1.00  0.00     0.148 A 
ATOM     86  C   UNL     1      -0.189  13.738   3.167  1.00  0.00     0.002 A 
ATOM     87  C   UNL     1       2.140  13.227   3.619  1.00  0.00     0.091 A 
ATOM     88  F   UNL     1       2.807  10.949   3.851  1.00  0.00    -0.205 F 
ATOM     89  C   UNL     1       1.124  14.162   3.361  1.00  0.00     0.022 A 
BRANCH  87  90
ATOM     90  S   UNL     1       3.781  13.874   3.955  1.00  0.00     0.127 S 
ATOM     91  O   UNL     1       4.180  14.372   2.639  1.00  0.00    -0.237 OA
ATOM     92  O   UNL     1       3.505  14.916   4.944  1.00  0.00    -0.237 OA
ATOM     93  O   UNL     1       4.562  12.752   4.458  1.00  0.00    -0.744 OA
ENDBRANCH  87  90
ENDBRANCH  60  83
ENDBRANCH  34  35
ENDBRANCH  27  29
ENDBRANCH  26  27
ENDBRANCH  25  26
ENDBRANCH  24  25
ENDBRANCH  23  24
ENDBRANCH   1  23
TORSDOF 21
