REMARK SMILES CCc1cc(S(F)(F)(F)(F)F)cc2c1O[C@@H](C(F)(F)F)C(C(=O)OCCOCCOCCOC(=O)c1ccc(-c3c4nc(c(-c5cccc(S(=O)(=O)[O-])c5F)c5ccc([nH]5)c(-c5cccc(S(=O)(=O)[O-])c5F)c5nc(c(-c6cccc(S(=O)(=O)[O-])c6F)c6ccc3[nH]6)C=C5)C=C4)cc1)=C2
REMARK SMILES IDX 29 1 28 2 27 3 26 4 25 5 24 6 22 7 23 8 21 9 3 10 4 11 14 12
REMARK SMILES IDX 5 13 13 14 15 15 12 16 99 17 16 18 2 19 1 20 6 21 7 22 8 23
REMARK SMILES IDX 9 24 10 25 11 26 17 27 18 28 19 29 20 30 30 31 31 32 32 33
REMARK SMILES IDX 33 34 34 35 35 36 36 37 37 38 98 39 38 40 97 41 39 42 40 43
REMARK SMILES IDX 41 44 91 45 42 46 96 47 90 48 92 49 43 50 95 51 89 52 88 53
REMARK SMILES IDX 44 55 76 56 56 57 75 58 57 59 60 60 74 61 93 62 58 63 59 64
REMARK SMILES IDX 73 66 94 67 61 68 45 69 46 70 54 71 47 72 49 73 55 74 48 75
REMARK SMILES IDX 50 76 51 77 52 78 53 79 77 80 78 81 86 82 79 83 81 84 87 85
REMARK SMILES IDX 80 86 82 87 83 88 84 89 85 90 62 91 63 92 71 93 64 94 66 95
REMARK SMILES IDX 72 96 65 97 67 98 68 99 69 100 70 101
REMARK H PARENT 92 54 60 65
REMARK Flexibility Score: inf
ROOT
ATOM      1  C   UNL     1       3.776  -2.252  -7.791  1.00  0.00     0.188 C 
ENDROOT
BRANCH   1   2
ATOM      2  C   UNL     1       4.911  -1.415  -7.225  1.00  0.00     0.188 C 
BRANCH   2   3
ATOM      3  O   UNL     1       6.030  -1.484  -8.096  1.00  0.00    -0.376 OA
BRANCH   3   4
ATOM      4  C   UNL     1       6.453  -2.834  -8.217  1.00  0.00     0.202 C 
BRANCH   4   5
ATOM      5  C   UNL     1       6.842  -3.368  -6.848  1.00  0.00     0.261 C 
BRANCH   5   6
ATOM      6  O   UNL     1       5.723  -3.299  -5.977  1.00  0.00    -0.460 OA
BRANCH   6   7
ATOM      7  C   UNL     1       5.117  -2.045  -5.697  1.00  0.00     0.338 C 
ATOM      8  O   UNL     1       5.578  -0.985  -6.226  1.00  0.00    -0.246 OA
BRANCH   7   9
ATOM      9  C   UNL     1       3.919  -1.971  -4.765  1.00  0.00     0.087 C 
ATOM     10  C   UNL     1       0.958  -1.626  -1.839  1.00  0.00    -0.004 A 
ATOM     11  C   UNL     1       0.299  -2.755  -1.388  1.00  0.00     0.032 A 
ATOM     12  C   UNL     1       1.964  -1.774  -2.762  1.00  0.00     0.131 A 
ATOM     13  C   UNL     1       0.640  -4.000  -1.845  1.00  0.00     0.108 A 
ATOM     14  C   UNL     1       2.324  -3.014  -3.260  1.00  0.00     0.019 A 
ATOM     15  O   UNL     1       2.684  -0.659  -3.116  1.00  0.00    -0.475 OA
ATOM     16  C   UNL     1       1.644  -4.128  -2.783  1.00  0.00     0.036 A 
ATOM     17  C   UNL     1       3.427  -3.070  -4.205  1.00  0.00     0.027 C 
ATOM     18  C   UNL     1       3.257  -0.636  -4.453  1.00  0.00     0.316 C 
BRANCH  10  19
ATOM     19  C   UNL     1       0.451  -0.284  -1.337  1.00  0.00     0.036 C 
ATOM     20  C   UNL     1       0.958  -0.048   0.077  1.00  0.00     0.009 C 
ENDBRANCH  10  19
BRANCH  13  21
ATOM     21  S   UNL     1      -0.219  -5.467  -1.224  1.00  0.00     0.310 S 
ATOM     22  F   UNL     1       0.625  -5.386   0.116  1.00  0.00    -0.094 F 
ATOM     23  F   UNL     1       0.977  -6.282  -1.847  1.00  0.00    -0.094 F 
ATOM     24  F   UNL     1      -0.857  -6.773  -0.671  1.00  0.00    -0.094 F 
ATOM     25  F   UNL     1      -1.332  -4.622  -0.488  1.00  0.00    -0.094 F 
ATOM     26  F   UNL     1       0.478  -4.125  -1.683  1.00  0.00    -0.094 F 
ENDBRANCH  13  21
BRANCH  18  27
ATOM     27  C   UNL     1       4.303   0.465  -4.525  1.00  0.00     0.430 C 
ATOM     28  F   UNL     1       4.830   0.496  -5.746  1.00  0.00    -0.167 F 
ATOM     29  F   UNL     1       3.733   1.636  -4.258  1.00  0.00    -0.167 F 
ATOM     30  F   UNL     1       5.262   0.225  -3.634  1.00  0.00    -0.167 F 
ENDBRANCH  18  27
ENDBRANCH   7   9
ENDBRANCH   6   7
ENDBRANCH   5   6
ENDBRANCH   4   5
ENDBRANCH   3   4
ENDBRANCH   2   3
ENDBRANCH   1   2
BRANCH   1  31
ATOM     31  O   UNL     1       4.198  -3.603  -7.912  1.00  0.00    -0.376 OA
BRANCH  31  32
ATOM     32  C   UNL     1       5.318  -3.672  -8.783  1.00  0.00     0.202 C 
BRANCH  32  33
ATOM     33  C   UNL     1       4.928  -3.138 -10.152  1.00  0.00     0.261 C 
BRANCH  33  34
ATOM     34  O   UNL     1       4.505  -1.788 -10.031  1.00  0.00    -0.460 OA
BRANCH  34  35
ATOM     35  C   UNL     1       3.395  -1.462  -9.207  1.00  0.00     0.338 C 
ATOM     36  O   UNL     1       2.780  -2.380  -8.579  1.00  0.00    -0.246 OA
BRANCH  35  37
ATOM     37  C   UNL     1       2.943  -0.017  -9.078  1.00  0.00     0.060 A 
ATOM     38  C   UNL     1       2.645   0.498  -7.827  1.00  0.00     0.016 A 
ATOM     39  C   UNL     1       2.846   0.730 -10.171  1.00  0.00     0.016 A 
ATOM     40  C   UNL     1       1.970   1.742  -7.866  1.00  0.00     0.010 A 
ATOM     41  C   UNL     1       2.301   1.989 -10.113  1.00  0.00     0.010 A 
ATOM     42  C   UNL     1       1.929   2.539  -8.917  1.00  0.00    -0.014 A 
BRANCH  42  43
ATOM     43  C   UNL     1       1.492   3.991  -8.805  1.00  0.00     0.031 A 
ATOM     44  C   UNL     1       0.381   4.410  -9.539  1.00  0.00     0.074 A 
ATOM     45  C   UNL     1       2.226   4.817  -7.972  1.00  0.00     0.049 A 
ATOM     46  N   UNL     1      -0.178   5.621  -9.549  1.00  0.00    -0.248 NA
ATOM     47  C   UNL     1      -0.380   3.542 -10.450  1.00  0.00     0.031 C 
ATOM     48  C   UNL     1       3.343   4.400  -7.222  1.00  0.00     0.029 A 
ATOM     49  N   UNL     1       2.025   6.156  -7.719  1.00  0.00    -0.354 N 
ATOM     50  C   UNL     1      -1.237   5.633 -10.361  1.00  0.00     0.074 A 
ATOM     51  C   UNL     1      -1.379   4.298 -10.957  1.00  0.00     0.031 C 
ATOM     52  C   UNL     1       3.815   5.474  -6.536  1.00  0.00     0.029 A 
ATOM     53  C   UNL     1       3.001   6.580  -6.845  1.00  0.00     0.049 A 
ATOM     54  H   UNL     1       1.307   6.714  -8.098  1.00  0.00     0.167 HD
ATOM     55  C   UNL     1      -2.091   6.705 -10.626  1.00  0.00     0.034 A 
ATOM     56  C   UNL     1       3.189   7.856  -6.336  1.00  0.00     0.034 A 
ATOM     57  C   UNL     1      -1.929   7.970 -10.082  1.00  0.00     0.049 A 
ATOM     58  C   UNL     1       2.368   8.943  -6.646  1.00  0.00     0.074 A 
ATOM     59  C   UNL     1      -2.786   9.059 -10.333  1.00  0.00     0.029 A 
ATOM     60  N   UNL     1      -0.939   8.400  -9.228  1.00  0.00    -0.354 N 
ATOM     61  N   UNL     1       1.286   8.945  -7.427  1.00  0.00    -0.248 NA
ATOM     62  C   UNL     1       2.576  10.305  -6.138  1.00  0.00     0.031 C 
ATOM     63  C   UNL     1      -2.313  10.133  -9.646  1.00  0.00     0.029 A 
ATOM     64  C   UNL     1      -1.153   9.733  -8.956  1.00  0.00     0.049 A 
ATOM     65  H   UNL     1      -0.204   7.849  -8.872  1.00  0.00     0.167 HD
ATOM     66  C   UNL     1       0.752  10.167  -7.469  1.00  0.00     0.074 A 
ATOM     67  C   UNL     1       1.579  11.062  -6.647  1.00  0.00     0.031 C 
ATOM     68  C   UNL     1      -0.393  10.572  -8.157  1.00  0.00     0.034 A 
BRANCH  55  69
ATOM     69  C   UNL     1      -3.266   6.472 -11.562  1.00  0.00     0.023 A 
ATOM     70  C   UNL     1      -4.224   5.528 -11.233  1.00  0.00     0.012 A 
ATOM     71  C   UNL     1      -3.358   7.187 -12.678  1.00  0.00     0.148 A 
ATOM     72  C   UNL     1      -5.099   5.204 -12.296  1.00  0.00     0.002 A 
ATOM     73  C   UNL     1      -4.324   6.903 -13.612  1.00  0.00     0.091 A 
ATOM     74  F   UNL     1      -2.508   8.187 -12.892  1.00  0.00    -0.205 F 
ATOM     75  C   UNL     1      -5.268   5.941 -13.379  1.00  0.00     0.022 A 
BRANCH  73  76
ATOM     76  S   UNL     1      -4.348   7.814 -15.176  1.00  0.00     0.127 S 
ATOM     77  O   UNL     1      -4.184   6.835 -16.340  1.00  0.00    -0.237 OA
ATOM     78  O   UNL     1      -5.681   8.554 -15.315  1.00  0.00    -0.237 OA
ATOM     79  O   UNL     1      -3.064   8.944 -15.197  1.00  0.00    -0.744 OA
ENDBRANCH  73  76
ENDBRANCH  55  69
BRANCH  56  80
ATOM     80  C   UNL     1       4.353   8.084  -5.386  1.00  0.00     0.023 A 
ATOM     81  C   UNL     1       4.106   8.545  -4.103  1.00  0.00     0.012 A 
ATOM     82  C   UNL     1       5.590   7.848  -5.807  1.00  0.00     0.148 A 
ATOM     83  C   UNL     1       5.261   9.005  -3.427  1.00  0.00     0.002 A 
ATOM     84  C   UNL     1       6.671   8.200  -5.035  1.00  0.00     0.091 A 
ATOM     85  F   UNL     1       5.785   7.265  -6.986  1.00  0.00    -0.205 F 
ATOM     86  C   UNL     1       6.500   8.716  -3.780  1.00  0.00     0.022 A 
BRANCH  84  87
ATOM     87  S   UNL     1       8.344   7.977  -5.688  1.00  0.00     0.127 S 
ATOM     88  O   UNL     1       9.057   9.330  -5.737  1.00  0.00    -0.237 OA
ATOM     89  O   UNL     1       9.123   7.023  -4.779  1.00  0.00    -0.237 OA
ATOM     90  O   UNL     1       8.258   7.319  -7.264  1.00  0.00    -0.744 OA
ENDBRANCH  84  87
ENDBRANCH  56  80
BRANCH  68  91
ATOM     91  C   UNL     1      -0.833  12.021  -8.021  1.00  0.00     0.023 A 
ATOM     92  C   UNL     1       0.019  13.036  -8.424  1.00  0.00     0.012 A 
ATOM     93  C   UNL     1      -2.033  12.287  -7.520  1.00  0.00     0.148 A 
ATOM     94  C   UNL     1      -0.375  14.322  -7.988  1.00  0.00     0.002 A 
ATOM     95  C   UNL     1      -2.404  13.581  -7.245  1.00  0.00     0.091 A 
ATOM     96  F   UNL     1      -2.884  11.293  -7.284  1.00  0.00    -0.205 F 
ATOM     97  C   UNL     1      -1.587  14.630  -7.562  1.00  0.00     0.022 A 
BRANCH  95  98
ATOM     98  S   UNL     1      -3.998  13.901  -6.450  1.00  0.00     0.127 S 
ATOM     99  O   UNL     1      -3.769  14.617  -5.116  1.00  0.00    -0.237 OA
ATOM    100  O   UNL     1      -4.855  14.784  -7.361  1.00  0.00    -0.237 OA
ATOM    101  O   UNL     1      -4.804  12.419  -6.170  1.00  0.00    -0.744 OA
ENDBRANCH  95  98
ENDBRANCH  68  91
ENDBRANCH  42  43
ENDBRANCH  35  37
ENDBRANCH  34  35
ENDBRANCH  33  34
ENDBRANCH  32  33
ENDBRANCH  31  32
ENDBRANCH   1  31
TORSDOF 23
