REMARK SMILES C#Cc1cc(Cl)c2c(c1)C=C(C(=O)OCCOCCOCCOC(=O)c1ccc(-c3c4nc(c(-c5cccc(S(=O)(=O)[O-])c5F)c5ccc([nH]5)c(-c5cccc(S(=O)(=O)[O-])c5F)c5nc(c(-c6cccc(S(=O)(=O)[O-])c6F)c6ccc3[nH]6)C=C5)C=C4)cc1)[C@@H](C(F)(F)F)O2
REMARK SMILES IDX 19 1 18 2 17 3 16 4 15 5 14 6 12 7 13 8 11 9 3 10 4 11 9 12
REMARK SMILES IDX 5 13 8 14 6 15 7 16 10 17 94 18 89 19 2 20 1 21 90 22 91 23
REMARK SMILES IDX 92 24 93 25 20 26 21 27 22 28 23 29 24 30 25 31 26 32 27 33
REMARK SMILES IDX 88 34 28 35 87 36 29 37 30 38 31 39 81 40 32 41 86 42 80 43
REMARK SMILES IDX 82 44 33 45 85 46 79 47 78 48 34 50 66 51 46 52 65 53 47 54
REMARK SMILES IDX 50 55 64 56 83 57 48 58 49 59 63 61 84 62 51 63 35 64 36 65
REMARK SMILES IDX 44 66 37 67 39 68 45 69 38 70 40 71 41 72 42 73 43 74 67 75
REMARK SMILES IDX 68 76 76 77 69 78 71 79 77 80 70 81 72 82 73 83 74 84 75 85
REMARK SMILES IDX 52 86 53 87 61 88 54 89 56 90 62 91 55 92 57 93 58 94 59 95
REMARK SMILES IDX 60 96
REMARK H PARENT 82 49 50 60
REMARK Flexibility Score: inf
ROOT
ATOM      1  C   UNL     1      -6.872   3.945   2.236  1.00  0.00     0.188 C 
ENDROOT
BRANCH   1   2
ATOM      2  C   UNL     1      -6.394   5.226   1.522  1.00  0.00     0.188 C 
BRANCH   2   3
ATOM      3  O   UNL     1      -7.349   6.254   1.405  1.00  0.00    -0.376 OA
BRANCH   3   4
ATOM      4  C   UNL     1      -8.331   6.215   0.385  1.00  0.00     0.202 C 
BRANCH   4   5
ATOM      5  C   UNL     1      -8.503   5.099  -0.669  1.00  0.00     0.261 C 
BRANCH   5   6
ATOM      6  O   UNL     1      -7.803   3.868  -0.469  1.00  0.00    -0.460 OA
BRANCH   6   7
ATOM      7  C   UNL     1      -6.721   3.665  -1.260  1.00  0.00     0.338 C 
ATOM      8  O   UNL     1      -6.309   4.403  -2.137  1.00  0.00    -0.246 OA
BRANCH   7   9
ATOM      9  C   UNL     1      -6.009   2.450  -0.807  1.00  0.00     0.087 C 
ATOM     10  C   UNL     1      -1.852   0.160   0.010  1.00  0.00     0.027 A 
ATOM     11  C   UNL     1      -2.538  -1.049   0.123  1.00  0.00     0.041 A 
ATOM     12  C   UNL     1      -2.562   1.351  -0.175  1.00  0.00     0.029 A 
ATOM     13  C   UNL     1      -3.932  -1.062   0.075  1.00  0.00     0.084 A 
ATOM     14  C   UNL     1      -3.960   1.332  -0.274  1.00  0.00     0.020 A 
ATOM     15  Cl  UNL     1      -4.739  -2.586   0.205  1.00  0.00    -0.080 Cl
ATOM     16  C   UNL     1      -4.652   0.126  -0.118  1.00  0.00     0.146 A 
ATOM     17  C   UNL     1      -4.685   2.544  -0.625  1.00  0.00     0.027 C 
ATOM     18  O   UNL     1      -6.017   0.045  -0.149  1.00  0.00    -0.474 OA
ATOM     19  C   UNL     1      -6.799   1.194  -0.564  1.00  0.00     0.316 C 
BRANCH  10  20
ATOM     20  C   UNL     1      -0.424   0.172   0.037  1.00  0.00    -0.070 C 
ATOM     21  C   UNL     1       0.780   0.175   0.042  1.00  0.00     0.010 C 
ENDBRANCH  10  20
BRANCH  19  22
ATOM     22  C   UNL     1      -7.637   0.795  -1.785  1.00  0.00     0.430 C 
ATOM     23  F   UNL     1      -8.291  -0.373  -1.575  1.00  0.00    -0.167 F 
ATOM     24  F   UNL     1      -8.584   1.719  -2.071  1.00  0.00    -0.167 F 
ATOM     25  F   UNL     1      -6.875   0.639  -2.892  1.00  0.00    -0.167 F 
ENDBRANCH  19  22
ENDBRANCH   7   9
ENDBRANCH   6   7
ENDBRANCH   5   6
ENDBRANCH   4   5
ENDBRANCH   3   4
ENDBRANCH   2   3
ENDBRANCH   1   2
BRANCH   1  26
ATOM     26  O   UNL     1      -8.253   3.781   2.477  1.00  0.00    -0.376 OA
BRANCH  26  27
ATOM     27  C   UNL     1      -8.903   4.660   3.385  1.00  0.00     0.202 C 
BRANCH  27  28
ATOM     28  C   UNL     1      -8.202   5.489   4.490  1.00  0.00     0.261 C 
BRANCH  28  29
ATOM     29  O   UNL     1      -6.816   5.822   4.329  1.00  0.00    -0.460 OA
BRANCH  29  30
ATOM     30  C   UNL     1      -5.935   5.103   5.072  1.00  0.00     0.338 C 
ATOM     31  O   UNL     1      -6.197   4.205   5.853  1.00  0.00    -0.246 OA
BRANCH  30  32
ATOM     32  C   UNL     1      -4.561   5.423   4.624  1.00  0.00     0.060 A 
ATOM     33  C   UNL     1      -3.836   4.462   3.900  1.00  0.00     0.016 A 
ATOM     34  C   UNL     1      -3.986   6.656   4.926  1.00  0.00     0.016 A 
ATOM     35  C   UNL     1      -2.536   4.732   3.474  1.00  0.00     0.010 A 
ATOM     36  C   UNL     1      -2.667   6.910   4.534  1.00  0.00     0.010 A 
ATOM     37  C   UNL     1      -1.928   5.941   3.828  1.00  0.00    -0.014 A 
BRANCH  37  38
ATOM     38  C   UNL     1      -0.467   6.114   3.630  1.00  0.00     0.031 A 
ATOM     39  C   UNL     1       0.442   5.889   4.808  1.00  0.00     0.074 A 
ATOM     40  C   UNL     1       0.048   6.448   2.433  1.00  0.00     0.049 A 
ATOM     41  N   UNL     1       1.738   6.032   4.892  1.00  0.00    -0.248 NA
ATOM     42  C   UNL     1      -0.195   5.441   6.059  1.00  0.00     0.031 C 
ATOM     43  C   UNL     1      -0.724   6.662   1.210  1.00  0.00     0.029 A 
ATOM     44  N   UNL     1       1.348   6.688   2.057  1.00  0.00    -0.354 N 
ATOM     45  C   UNL     1       2.068   5.721   6.206  1.00  0.00     0.074 A 
ATOM     46  C   UNL     1       0.837   5.393   6.889  1.00  0.00     0.031 C 
ATOM     47  C   UNL     1       0.115   7.027   0.224  1.00  0.00     0.029 A 
ATOM     48  C   UNL     1       1.477   7.106   0.752  1.00  0.00     0.049 A 
ATOM     49  H   UNL     1       2.114   6.573   2.664  1.00  0.00     0.167 HD
ATOM     50  C   UNL     1       3.290   5.693   6.786  1.00  0.00     0.034 A 
ATOM     51  C   UNL     1       2.564   7.528   0.072  1.00  0.00     0.034 A 
ATOM     52  C   UNL     1       4.514   6.001   6.100  1.00  0.00     0.049 A 
ATOM     53  C   UNL     1       3.907   7.543   0.762  1.00  0.00     0.074 A 
ATOM     54  C   UNL     1       5.804   5.969   6.600  1.00  0.00     0.029 A 
ATOM     55  N   UNL     1       4.606   6.406   4.779  1.00  0.00    -0.354 N 
ATOM     56  N   UNL     1       4.216   7.155   1.976  1.00  0.00    -0.248 NA
ATOM     57  C   UNL     1       5.056   8.026  -0.019  1.00  0.00     0.031 C 
ATOM     58  C   UNL     1       6.671   6.398   5.594  1.00  0.00     0.029 A 
ATOM     59  C   UNL     1       5.929   6.645   4.450  1.00  0.00     0.049 A 
ATOM     60  H   UNL     1       3.843   6.509   4.165  1.00  0.00     0.167 HD
ATOM     61  C   UNL     1       5.595   7.313   2.091  1.00  0.00     0.074 A 
ATOM     62  C   UNL     1       6.065   7.807   0.814  1.00  0.00     0.031 C 
ATOM     63  C   UNL     1       6.396   7.083   3.160  1.00  0.00     0.034 A 
BRANCH  50  64
ATOM     64  C   UNL     1       3.384   5.286   8.233  1.00  0.00     0.023 A 
ATOM     65  C   UNL     1       3.186   3.938   8.592  1.00  0.00     0.012 A 
ATOM     66  C   UNL     1       3.792   6.212   9.214  1.00  0.00     0.148 A 
ATOM     67  C   UNL     1       3.382   3.519   9.907  1.00  0.00     0.002 A 
ATOM     68  C   UNL     1       4.036   5.777  10.511  1.00  0.00     0.091 A 
ATOM     69  F   UNL     1       3.955   7.493   8.854  1.00  0.00    -0.205 F 
ATOM     70  C   UNL     1       3.823   4.433  10.861  1.00  0.00     0.022 A 
BRANCH  68  71
ATOM     71  S   UNL     1       4.696   6.851  11.789  1.00  0.00     0.127 S 
ATOM     72  O   UNL     1       3.606   6.854  12.764  1.00  0.00    -0.237 OA
ATOM     73  O   UNL     1       5.891   6.121  12.213  1.00  0.00    -0.237 OA
ATOM     74  O   UNL     1       4.953   8.133  11.149  1.00  0.00    -0.744 OA
ENDBRANCH  68  71
ENDBRANCH  50  64
BRANCH  51  75
ATOM     75  C   UNL     1       2.442   7.949  -1.356  1.00  0.00     0.023 A 
ATOM     76  C   UNL     1       3.076   7.193  -2.361  1.00  0.00     0.012 A 
ATOM     77  C   UNL     1       1.699   9.089  -1.724  1.00  0.00     0.148 A 
ATOM     78  C   UNL     1       3.001   7.581  -3.700  1.00  0.00     0.002 A 
ATOM     79  C   UNL     1       1.576   9.434  -3.065  1.00  0.00     0.091 A 
ATOM     80  F   UNL     1       1.118   9.808  -0.754  1.00  0.00    -0.205 F 
ATOM     81  C   UNL     1       2.242   8.693  -4.053  1.00  0.00     0.022 A 
BRANCH  79  82
ATOM     82  S   UNL     1       0.516  10.771  -3.628  1.00  0.00     0.127 S 
ATOM     83  O   UNL     1       1.489  11.713  -4.175  1.00  0.00    -0.237 OA
ATOM     84  O   UNL     1      -0.314  10.092  -4.623  1.00  0.00    -0.237 OA
ATOM     85  O   UNL     1      -0.206  11.226  -2.448  1.00  0.00    -0.744 OA
ENDBRANCH  79  82
ENDBRANCH  51  75
BRANCH  63  86
ATOM     86  C   UNL     1       7.879   7.323   3.012  1.00  0.00     0.023 A 
ATOM     87  C   UNL     1       8.372   8.638   2.907  1.00  0.00     0.012 A 
ATOM     88  C   UNL     1       8.791   6.250   3.104  1.00  0.00     0.148 A 
ATOM     89  C   UNL     1       9.745   8.881   2.868  1.00  0.00     0.002 A 
ATOM     90  C   UNL     1      10.157   6.504   3.124  1.00  0.00     0.091 A 
ATOM     91  F   UNL     1       8.304   5.004   3.194  1.00  0.00    -0.205 F 
ATOM     92  C   UNL     1      10.636   7.817   2.992  1.00  0.00     0.022 A 
BRANCH  90  93
ATOM     93  S   UNL     1      11.380   5.215   3.391  1.00  0.00     0.127 S 
ATOM     94  O   UNL     1      12.075   5.192   2.105  1.00  0.00    -0.237 OA
ATOM     95  O   UNL     1      12.164   5.760   4.499  1.00  0.00    -0.237 OA
ATOM     96  O   UNL     1      10.632   4.006   3.711  1.00  0.00    -0.744 OA
ENDBRANCH  90  93
ENDBRANCH  63  86
ENDBRANCH  37  38
ENDBRANCH  30  32
ENDBRANCH  29  30
ENDBRANCH  28  29
ENDBRANCH  27  28
ENDBRANCH  26  27
ENDBRANCH   1  26
TORSDOF 22
