REMARK SMILES CCC[NH2+][C@@H]1COC[C@@H]1C(=O)N[C@@](C)(CC)C(=O)OCCOCCOCCOC(=O)c1ccc(-c2c3nc(c(-c4cccc(S(=O)(=O)[O-])c4F)c4ccc([nH]4)c(-c4cccc(S(=O)(=O)[O-])c4F)c4nc(c(-c5cccc(S(=O)(=O)[O-])c5F)c5ccc2[nH]5)C=C4)C=C3)cc1
REMARK SMILES IDX 23 1 22 2 21 3 20 4 19 5 17 6 18 7 13 8 14 9 12 10 10 11
REMARK SMILES IDX 11 12 9 14 5 15 6 16 7 17 8 18 4 19 3 22 2 23 1 24 15 25
REMARK SMILES IDX 16 26 24 27 25 28 26 29 27 30 28 31 29 32 30 33 31 34 32 35
REMARK SMILES IDX 93 36 33 37 92 38 34 39 35 40 36 41 86 42 37 43 91 44 85 45
REMARK SMILES IDX 87 46 38 47 90 48 84 49 83 50 39 52 71 53 51 54 70 55 52 56
REMARK SMILES IDX 55 57 69 58 88 59 53 60 54 61 68 63 89 64 56 65 40 66 41 67
REMARK SMILES IDX 49 68 42 69 44 70 50 71 43 72 45 73 46 74 47 75 48 76 72 77
REMARK SMILES IDX 73 78 81 79 74 80 76 81 82 82 75 83 77 84 78 85 79 86 80 87
REMARK SMILES IDX 57 88 58 89 66 90 59 91 61 92 67 93 60 94 62 95 63 96 64 97
REMARK SMILES IDX 65 98
REMARK H PARENT 12 13 4 20 4 21 87 51 55 62
REMARK Flexibility Score: inf
ROOT
ATOM      1  C   UNL     1      -1.262   6.335  -4.393  1.00  0.00     0.188 C 
ENDROOT
BRANCH   1   2
ATOM      2  O   UNL     1      -1.808   5.756  -5.572  1.00  0.00    -0.376 OA
BRANCH   2   3
ATOM      3  C   UNL     1      -1.731   4.339  -5.632  1.00  0.00     0.202 C 
BRANCH   3   4
ATOM      4  C   UNL     1      -2.792   3.628  -4.785  1.00  0.00     0.261 C 
BRANCH   4   5
ATOM      5  O   UNL     1      -2.834   4.068  -3.409  1.00  0.00    -0.462 OA
BRANCH   5   6
ATOM      6  C   UNL     1      -2.379   3.232  -2.442  1.00  0.00     0.331 C 
ATOM      7  O   UNL     1      -1.859   2.154  -2.703  1.00  0.00    -0.249 OA
BRANCH   6   8
ATOM      8  C   UNL     1      -2.529   3.833  -0.991  1.00  0.00     0.135 C 
ATOM      9  C   UNL     1      -2.980   2.588  -0.174  1.00  0.00     0.047 C 
BRANCH   8  10
ATOM     10  N   UNL     1      -1.300   4.316  -0.299  1.00  0.00    -0.340 N 
ATOM     11  C   UNL     1      -0.003   4.569  -0.621  1.00  0.00     0.232 C 
ATOM     12  O   UNL     1       0.653   5.150   0.247  1.00  0.00    -0.274 OA
ATOM     13  H   UNL     1      -1.476   4.504   0.651  1.00  0.00     0.164 HD
BRANCH  11  14
ATOM     14  C   UNL     1       0.610   4.164  -1.945  1.00  0.00     0.164 C 
ATOM     15  C   UNL     1       1.471   2.908  -1.961  1.00  0.00     0.223 C 
ATOM     16  C   UNL     1       2.896   3.420  -1.762  1.00  0.00     0.225 C 
ATOM     17  O   UNL     1       2.924   4.755  -2.279  1.00  0.00    -0.374 OA
ATOM     18  C   UNL     1       1.585   5.224  -2.447  1.00  0.00     0.180 C 
BRANCH  15  19
ATOM     19  N   UNL     1       0.994   1.744  -1.213  1.00  0.00    -0.341 N 
ATOM     20  H   UNL     1      -0.024   1.732  -1.263  1.00  0.00     0.346 HD
ATOM     21  H   UNL     1       1.433   0.931  -1.646  1.00  0.00     0.346 HD
BRANCH  19  22
ATOM     22  C   UNL     1       1.379   1.710   0.198  1.00  0.00     0.260 C 
BRANCH  22  23
ATOM     23  C   UNL     1       0.626   0.590   0.922  1.00  0.00     0.058 C 
ATOM     24  C   UNL     1       0.935  -0.798   0.379  1.00  0.00     0.010 C 
ENDBRANCH  22  23
ENDBRANCH  19  22
ENDBRANCH  15  19
ENDBRANCH  11  14
ENDBRANCH   8  10
BRANCH   8  25
ATOM     25  C   UNL     1      -3.720   4.859  -0.821  1.00  0.00     0.037 C 
ATOM     26  C   UNL     1      -3.428   6.294  -0.357  1.00  0.00     0.007 C 
ENDBRANCH   8  25
ENDBRANCH   6   8
ENDBRANCH   5   6
ENDBRANCH   4   5
ENDBRANCH   3   4
ENDBRANCH   2   3
ENDBRANCH   1   2
BRANCH   1  27
ATOM     27  C   UNL     1      -2.333   6.995  -3.526  1.00  0.00     0.188 C 
BRANCH  27  28
ATOM     28  O   UNL     1      -3.347   7.779  -4.136  1.00  0.00    -0.376 OA
BRANCH  28  29
ATOM     29  C   UNL     1      -3.015   8.448  -5.337  1.00  0.00     0.202 C 
BRANCH  29  30
ATOM     30  C   UNL     1      -2.035   9.622  -5.221  1.00  0.00     0.261 C 
BRANCH  30  31
ATOM     31  O   UNL     1      -0.897   9.403  -4.365  1.00  0.00    -0.460 OA
BRANCH  31  32
ATOM     32  C   UNL     1      -1.016   9.883  -3.105  1.00  0.00     0.338 C 
ATOM     33  O   UNL     1      -2.001  10.463  -2.637  1.00  0.00    -0.246 OA
BRANCH  32  34
ATOM     34  C   UNL     1       0.147   9.508  -2.272  1.00  0.00     0.060 A 
ATOM     35  C   UNL     1      -0.083   8.924  -1.018  1.00  0.00     0.016 A 
ATOM     36  C   UNL     1       1.452   9.818  -2.663  1.00  0.00     0.016 A 
ATOM     37  C   UNL     1       0.976   8.696  -0.133  1.00  0.00     0.010 A 
ATOM     38  C   UNL     1       2.510   9.609  -1.765  1.00  0.00     0.010 A 
ATOM     39  C   UNL     1       2.276   9.086  -0.478  1.00  0.00    -0.014 A 
BRANCH  39  40
ATOM     40  C   UNL     1       3.354   9.126   0.551  1.00  0.00     0.031 A 
ATOM     41  C   UNL     1       3.693  10.444   1.196  1.00  0.00     0.074 A 
ATOM     42  C   UNL     1       4.050   8.029   0.904  1.00  0.00     0.049 A 
ATOM     43  N   UNL     1       4.639  10.731   2.052  1.00  0.00    -0.248 NA
ATOM     44  C   UNL     1       2.848  11.592   0.827  1.00  0.00     0.031 C 
ATOM     45  C   UNL     1       3.811   6.686   0.397  1.00  0.00     0.029 A 
ATOM     46  N   UNL     1       5.126   7.880   1.748  1.00  0.00    -0.354 N 
ATOM     47  C   UNL     1       4.525  12.092   2.303  1.00  0.00     0.074 A 
ATOM     48  C   UNL     1       3.422  12.578   1.501  1.00  0.00     0.031 C 
ATOM     49  C   UNL     1       4.742   5.854   0.891  1.00  0.00     0.029 A 
ATOM     50  C   UNL     1       5.656   6.609   1.742  1.00  0.00     0.049 A 
ATOM     51  H   UNL     1       5.483   8.611   2.303  1.00  0.00     0.167 HD
ATOM     52  C   UNL     1       5.258  12.868   3.137  1.00  0.00     0.034 A 
ATOM     53  C   UNL     1       6.761   6.112   2.335  1.00  0.00     0.034 A 
ATOM     54  C   UNL     1       6.344  12.389   3.950  1.00  0.00     0.049 A 
ATOM     55  C   UNL     1       7.590   7.005   3.220  1.00  0.00     0.074 A 
ATOM     56  C   UNL     1       7.114  13.097   4.856  1.00  0.00     0.029 A 
ATOM     57  N   UNL     1       6.827  11.090   3.946  1.00  0.00    -0.354 N 
ATOM     58  N   UNL     1       7.398   8.263   3.538  1.00  0.00    -0.248 NA
ATOM     59  C   UNL     1       8.768   6.401   3.862  1.00  0.00     0.031 C 
ATOM     60  C   UNL     1       8.083  12.234   5.377  1.00  0.00     0.029 A 
ATOM     61  C   UNL     1       7.895  10.979   4.821  1.00  0.00     0.049 A 
ATOM     62  H   UNL     1       6.464  10.355   3.401  1.00  0.00     0.167 HD
ATOM     63  C   UNL     1       8.399   8.586   4.447  1.00  0.00     0.074 A 
ATOM     64  C   UNL     1       9.189   7.388   4.642  1.00  0.00     0.031 C 
ATOM     65  C   UNL     1       8.646   9.772   5.057  1.00  0.00     0.034 A 
BRANCH  52  66
ATOM     66  C   UNL     1       4.896  14.326   3.226  1.00  0.00     0.023 A 
ATOM     67  C   UNL     1       3.719  14.714   3.899  1.00  0.00     0.012 A 
ATOM     68  C   UNL     1       5.743  15.315   2.688  1.00  0.00     0.148 A 
ATOM     69  C   UNL     1       3.375  16.060   4.008  1.00  0.00     0.002 A 
ATOM     70  C   UNL     1       5.416  16.657   2.839  1.00  0.00     0.091 A 
ATOM     71  F   UNL     1       6.846  14.924   2.033  1.00  0.00    -0.205 F 
ATOM     72  C   UNL     1       4.228  17.031   3.487  1.00  0.00     0.022 A 
BRANCH  70  73
ATOM     73  S   UNL     1       6.486  17.983   2.272  1.00  0.00     0.127 S 
ATOM     74  O   UNL     1       5.726  18.512   1.141  1.00  0.00    -0.237 OA
ATOM     75  O   UNL     1       6.532  18.862   3.441  1.00  0.00    -0.237 OA
ATOM     76  O   UNL     1       7.757  17.358   1.933  1.00  0.00    -0.744 OA
ENDBRANCH  70  73
ENDBRANCH  52  66
BRANCH  53  77
ATOM     77  C   UNL     1       7.131   4.678   2.148  1.00  0.00     0.023 A 
ATOM     78  C   UNL     1       7.033   3.791   3.238  1.00  0.00     0.012 A 
ATOM     79  C   UNL     1       7.576   4.188   0.903  1.00  0.00     0.148 A 
ATOM     80  C   UNL     1       7.407   2.453   3.104  1.00  0.00     0.002 A 
ATOM     81  C   UNL     1       7.894   2.842   0.762  1.00  0.00     0.091 A 
ATOM     82  F   UNL     1       7.678   5.050  -0.118  1.00  0.00    -0.205 F 
ATOM     83  C   UNL     1       7.829   1.977   1.866  1.00  0.00     0.022 A 
BRANCH  81  84
ATOM     84  S   UNL     1       8.333   2.105  -0.816  1.00  0.00     0.127 S 
ATOM     85  O   UNL     1       9.723   1.718  -0.591  1.00  0.00    -0.237 OA
ATOM     86  O   UNL     1       7.388   0.989  -0.897  1.00  0.00    -0.237 OA
ATOM     87  O   UNL     1       8.124   3.144  -1.814  1.00  0.00    -0.744 OA
ENDBRANCH  81  84
ENDBRANCH  53  77
BRANCH  65  88
ATOM     88  C   UNL     1       9.792   9.839   6.034  1.00  0.00     0.023 A 
ATOM     89  C   UNL     1      11.120   9.802   5.564  1.00  0.00     0.012 A 
ATOM     90  C   UNL     1       9.553  10.015   7.412  1.00  0.00     0.148 A 
ATOM     91  C   UNL     1      12.191   9.905   6.452  1.00  0.00     0.002 A 
ATOM     92  C   UNL     1      10.624  10.168   8.285  1.00  0.00     0.091 A 
ATOM     93  F   UNL     1       8.284  10.031   7.844  1.00  0.00    -0.205 F 
ATOM     94  C   UNL     1      11.943  10.101   7.809  1.00  0.00     0.022 A 
BRANCH  92  95
ATOM     95  S   UNL     1      10.401  10.521  10.033  1.00  0.00     0.127 S 
ATOM     96  O   UNL     1      10.791   9.252  10.646  1.00  0.00    -0.237 OA
ATOM     97  O   UNL     1      11.345  11.618  10.252  1.00  0.00    -0.237 OA
ATOM     98  O   UNL     1       9.001  10.889  10.194  1.00  0.00    -0.744 OA
ENDBRANCH  92  95
ENDBRANCH  65  88
ENDBRANCH  39  40
ENDBRANCH  32  34
ENDBRANCH  31  32
ENDBRANCH  30  31
ENDBRANCH  29  30
ENDBRANCH  28  29
ENDBRANCH  27  28
ENDBRANCH   1  27
TORSDOF 26
