REMARK SMILES O=C(OCCOCCOCCOC(=O)c1ccc(-c2c3nc(c(-c4cccc(S(=O)(=O)[O-])c4F)c4ccc([nH]4)c(-c4cccc(S(=O)(=O)[O-])c4F)c4nc(c(-c5cccc(S(=O)(=O)[O-])c5F)c5ccc2[nH]5)C=C4)C=C3)cc1)C1=Cc2c(Cl)cc(Cl)cc2O[C@@H]1C(F)(F)F
REMARK SMILES IDX 8 1 7 2 6 3 5 4 4 5 3 6 2 7 1 8 78 9 79 10 89 11 80 12 88 13
REMARK SMILES IDX 81 14 87 15 82 16 83 17 86 18 84 19 85 20 90 21 91 22 92 23
REMARK SMILES IDX 93 24 9 25 10 26 11 27 12 28 13 29 14 30 15 31 16 32 77 33
REMARK SMILES IDX 17 34 76 35 18 36 19 37 20 38 70 39 21 40 75 41 69 42 71 43
REMARK SMILES IDX 22 44 74 45 68 46 67 47 23 49 55 50 35 51 54 52 36 53 39 54
REMARK SMILES IDX 53 55 72 56 37 57 38 58 52 60 73 61 40 62 24 63 25 64 33 65
REMARK SMILES IDX 26 66 28 67 34 68 27 69 29 70 30 71 31 72 32 73 56 74 57 75
REMARK SMILES IDX 65 76 58 77 60 78 66 79 59 80 61 81 62 82 63 83 64 84 41 85
REMARK SMILES IDX 42 86 50 87 43 88 45 89 51 90 44 91 46 92 47 93 48 94 49 95
REMARK H PARENT 71 48 39 59
REMARK Flexibility Score: inf
ROOT
ATOM      1  C   UNL     1       2.146  -2.634   2.219  1.00  0.00     0.188 C 
ENDROOT
BRANCH   1   2
ATOM      2  C   UNL     1       2.443  -2.118   0.801  1.00  0.00     0.188 C 
BRANCH   2   3
ATOM      3  O   UNL     1       3.839  -1.960   0.293  1.00  0.00    -0.376 OA
BRANCH   3   4
ATOM      4  C   UNL     1       4.546  -0.572  -0.456  1.00  0.00     0.202 C 
BRANCH   4   5
ATOM      5  C   UNL     1       3.871   1.466  -0.135  1.00  0.00     0.261 C 
BRANCH   5   6
ATOM      6  O   UNL     1       2.877   2.228  -0.979  1.00  0.00    -0.460 OA
BRANCH   6   7
ATOM      7  C   UNL     1       3.018   1.940  -2.282  1.00  0.00     0.338 C 
ATOM      8  O   UNL     1       2.261   2.234  -3.175  1.00  0.00    -0.246 OA
BRANCH   7   9
ATOM      9  C   UNL     1       3.925   0.805  -2.129  1.00  0.00     0.087 C 
ATOM     10  C   UNL     1       5.319   1.119  -1.819  1.00  0.00     0.029 C 
ATOM     11  C   UNL     1       2.723  -0.070  -0.923  1.00  0.00     0.316 C 
ATOM     12  C   UNL     1       6.060   1.024  -0.173  1.00  0.00     0.036 A 
ATOM     13  O   UNL     1       3.408  -0.020   0.903  1.00  0.00    -0.475 OA
ATOM     14  C   UNL     1       7.350   1.423   0.065  1.00  0.00     0.053 A 
ATOM     15  C   UNL     1       5.136   0.514   1.202  1.00  0.00     0.130 A 
ATOM     16  Cl  UNL     1       8.383   2.054  -1.147  1.00  0.00    -0.083 Cl
ATOM     17  C   UNL     1       7.791   1.323   1.398  1.00  0.00     0.042 A 
ATOM     18  C   UNL     1       5.634   0.435   2.472  1.00  0.00     0.067 A 
ATOM     19  C   UNL     1       6.986   0.848   2.521  1.00  0.00     0.046 A 
ATOM     20  Cl  UNL     1       7.796   0.801   4.056  1.00  0.00    -0.084 Cl
BRANCH  11  21
ATOM     21  C   UNL     1       2.447  -1.358  -1.980  1.00  0.00     0.430 C 
ATOM     22  F   UNL     1       2.658  -2.619  -1.599  1.00  0.00    -0.167 F 
ATOM     23  F   UNL     1       1.171  -1.290  -2.432  1.00  0.00    -0.167 F 
ATOM     24  F   UNL     1       3.226  -1.243  -3.100  1.00  0.00    -0.167 F 
ENDBRANCH  11  21
ENDBRANCH   7   9
ENDBRANCH   6   7
ENDBRANCH   5   6
ENDBRANCH   4   5
ENDBRANCH   3   4
ENDBRANCH   2   3
ENDBRANCH   1   2
BRANCH   1  25
ATOM     25  O   UNL     1       3.093  -2.411   3.234  1.00  0.00    -0.376 OA
BRANCH  25  26
ATOM     26  C   UNL     1       4.390  -2.933   2.972  1.00  0.00     0.202 C 
BRANCH  26  27
ATOM     27  C   UNL     1       4.509  -4.405   2.540  1.00  0.00     0.261 C 
BRANCH  27  28
ATOM     28  O   UNL     1       4.050  -4.672   1.196  1.00  0.00    -0.460 OA
BRANCH  28  29
ATOM     29  C   UNL     1       2.997  -5.514   1.040  1.00  0.00     0.338 C 
ATOM     30  O   UNL     1       2.353  -6.059   1.921  1.00  0.00    -0.246 OA
BRANCH  29  31
ATOM     31  C   UNL     1       2.631  -5.578  -0.391  1.00  0.00     0.060 A 
ATOM     32  C   UNL     1       1.369  -5.130  -0.820  1.00  0.00     0.016 A 
ATOM     33  C   UNL     1       3.533  -6.120  -1.303  1.00  0.00     0.016 A 
ATOM     34  C   UNL     1       1.029  -5.180  -2.176  1.00  0.00     0.010 A 
ATOM     35  C   UNL     1       3.171  -6.221  -2.647  1.00  0.00     0.010 A 
ATOM     36  C   UNL     1       1.915  -5.762  -3.088  1.00  0.00    -0.014 A 
BRANCH  36  37
ATOM     37  C   UNL     1       1.458  -6.149  -4.445  1.00  0.00     0.031 A 
ATOM     38  C   UNL     1       0.904  -7.534  -4.612  1.00  0.00     0.074 A 
ATOM     39  C   UNL     1       1.619  -5.348  -5.512  1.00  0.00     0.049 A 
ATOM     40  N   UNL     1       0.585  -8.177  -5.702  1.00  0.00    -0.248 NA
ATOM     41  C   UNL     1       0.706  -8.306  -3.373  1.00  0.00     0.031 C 
ATOM     42  C   UNL     1       2.139  -3.985  -5.474  1.00  0.00     0.029 A 
ATOM     43  N   UNL     1       1.404  -5.594  -6.847  1.00  0.00    -0.354 N 
ATOM     44  C   UNL     1       0.197  -9.444  -5.287  1.00  0.00     0.074 A 
ATOM     45  C   UNL     1       0.316  -9.477  -3.846  1.00  0.00     0.031 C 
ATOM     46  C   UNL     1       2.253  -3.530  -6.734  1.00  0.00     0.029 A 
ATOM     47  C   UNL     1       1.854  -4.585  -7.666  1.00  0.00     0.049 A 
ATOM     48  H   UNL     1       0.970  -6.412  -7.184  1.00  0.00     0.167 HD
ATOM     49  C   UNL     1      -0.209 -10.493  -6.038  1.00  0.00     0.034 A 
ATOM     50  C   UNL     1       1.981  -4.541  -9.009  1.00  0.00     0.034 A 
ATOM     51  C   UNL     1      -0.293 -10.462  -7.470  1.00  0.00     0.049 A 
ATOM     52  C   UNL     1       1.557  -5.731  -9.834  1.00  0.00     0.074 A 
ATOM     53  C   UNL     1      -0.744 -11.451  -8.324  1.00  0.00     0.029 A 
ATOM     54  N   UNL     1       0.125  -9.405  -8.263  1.00  0.00    -0.354 N 
ATOM     55  N   UNL     1       1.087  -6.887  -9.432  1.00  0.00    -0.248 NA
ATOM     56  C   UNL     1       1.659  -5.606 -11.297  1.00  0.00     0.031 C 
ATOM     57  C   UNL     1      -0.529 -11.021  -9.636  1.00  0.00     0.029 A 
ATOM     58  C   UNL     1      -0.025  -9.729  -9.599  1.00  0.00     0.049 A 
ATOM     59  H   UNL     1       0.478  -8.550  -7.926  1.00  0.00     0.167 HD
ATOM     60  C   UNL     1       0.800  -7.610 -10.586  1.00  0.00     0.074 A 
ATOM     61  C   UNL     1       1.148  -6.761 -11.706  1.00  0.00     0.031 C 
ATOM     62  C   UNL     1       0.291  -8.861 -10.705  1.00  0.00     0.034 A 
BRANCH  49  63
ATOM     63  C   UNL     1      -0.540 -11.772  -5.316  1.00  0.00     0.023 A 
ATOM     64  C   UNL     1      -1.656 -11.840  -4.457  1.00  0.00     0.012 A 
ATOM     65  C   UNL     1       0.266 -12.913  -5.494  1.00  0.00     0.148 A 
ATOM     66  C   UNL     1      -1.928 -13.005  -3.740  1.00  0.00     0.002 A 
ATOM     67  C   UNL     1      -0.047 -14.087  -4.823  1.00  0.00     0.091 A 
ATOM     68  F   UNL     1       1.335 -12.823  -6.297  1.00  0.00    -0.205 F 
ATOM     69  C   UNL     1      -1.130 -14.129  -3.930  1.00  0.00     0.022 A 
BRANCH  67  70
ATOM     70  S   UNL     1       0.869 -15.611  -5.068  1.00  0.00     0.127 S 
ATOM     71  O   UNL     1       1.529 -15.770  -3.773  1.00  0.00    -0.237 OA
ATOM     72  O   UNL     1      -0.204 -16.572  -5.327  1.00  0.00    -0.237 OA
ATOM     73  O   UNL     1       1.758 -15.373  -6.196  1.00  0.00    -0.744 OA
ENDBRANCH  67  70
ENDBRANCH  49  63
BRANCH  50  74
ATOM     74  C   UNL     1       2.559  -3.329  -9.657  1.00  0.00     0.023 A 
ATOM     75  C   UNL     1       1.745  -2.488 -10.440  1.00  0.00     0.012 A 
ATOM     76  C   UNL     1       3.914  -2.991  -9.467  1.00  0.00     0.148 A 
ATOM     77  C   UNL     1       2.276  -1.343 -11.039  1.00  0.00     0.002 A 
ATOM     78  C   UNL     1       4.420  -1.819 -10.015  1.00  0.00     0.091 A 
ATOM     79  F   UNL     1       4.674  -3.815  -8.733  1.00  0.00    -0.205 F 
ATOM     80  C   UNL     1       3.608  -1.002 -10.816  1.00  0.00     0.022 A 
BRANCH  78  81
ATOM     81  S   UNL     1       6.087  -1.238  -9.680  1.00  0.00     0.127 S 
ATOM     82  O   UNL     1       6.684  -1.256 -11.014  1.00  0.00    -0.237 OA
ATOM     83  O   UNL     1       5.833   0.095  -9.136  1.00  0.00    -0.237 OA
ATOM     84  O   UNL     1       6.656  -2.183  -8.729  1.00  0.00    -0.744 OA
ENDBRANCH  78  81
ENDBRANCH  50  74
BRANCH  62  85
ATOM     85  C   UNL     1       0.001  -9.388 -12.087  1.00  0.00     0.023 A 
ATOM     86  C   UNL     1       1.048  -9.773 -12.946  1.00  0.00     0.012 A 
ATOM     87  C   UNL     1      -1.335  -9.617 -12.477  1.00  0.00     0.148 A 
ATOM     88  C   UNL     1       0.768 -10.360 -14.181  1.00  0.00     0.002 A 
ATOM     89  C   UNL     1      -1.604 -10.253 -13.681  1.00  0.00     0.091 A 
ATOM     90  F   UNL     1      -2.316  -9.231 -11.649  1.00  0.00    -0.205 F 
ATOM     91  C   UNL     1      -0.555 -10.614 -14.541  1.00  0.00     0.022 A 
BRANCH  89  92
ATOM     92  S   UNL     1      -3.268 -10.715 -14.177  1.00  0.00     0.127 S 
ATOM     93  O   UNL     1      -3.467  -9.879 -15.361  1.00  0.00    -0.237 OA
ATOM     94  O   UNL     1      -3.119 -12.143 -14.456  1.00  0.00    -0.237 OA
ATOM     95  O   UNL     1      -4.132 -10.400 -13.048  1.00  0.00    -0.744 OA
ENDBRANCH  89  92
ENDBRANCH  62  85
ENDBRANCH  36  37
ENDBRANCH  29  31
ENDBRANCH  28  29
ENDBRANCH  27  28
ENDBRANCH  26  27
ENDBRANCH  25  26
ENDBRANCH   1  25
TORSDOF 21
