REMARK SMILES O=C(OCCOCCOCCOC(=O)c1ccc(N2C(=O)/C(=C\c3ccc4c(c3)OCO4)[NH+]=C2c2ccccc2)cc1)c1ccc(-c2c3nc(c(-c4cccc(S(=O)(=O)[O-])c4F)c4ccc([nH]4)c(-c4cccc(S(=O)(=O)[O-])c4F)c4nc(c(-c5cccc(S(=O)(=O)[O-])c5F)c5ccc2[nH]5)C=C4)C=C3)cc1
REMARK SMILES IDX 7 1 6 2 5 3 4 4 3 5 2 6 1 7 43 8 44 9 105 10 45 11 104 12
REMARK SMILES IDX 46 13 47 14 48 15 98 16 49 17 103 18 97 19 99 20 50 21
REMARK SMILES IDX 102 22 96 23 95 24 51 26 83 27 63 28 82 29 64 30 67 31 81 32
REMARK SMILES IDX 100 33 65 34 66 35 80 37 101 38 68 39 52 40 53 41 61 42
REMARK SMILES IDX 54 43 56 44 62 45 55 46 57 47 58 48 59 49 60 50 84 51 85 52
REMARK SMILES IDX 93 53 86 54 88 55 94 56 87 57 89 58 90 59 91 60 92 61 69 62
REMARK SMILES IDX 70 63 78 64 71 65 73 66 79 67 72 68 74 69 75 70 76 71 77 72
REMARK SMILES IDX 8 73 9 74 10 75 11 76 12 77 13 78 14 79 15 80 16 81 42 82
REMARK SMILES IDX 17 83 41 84 18 85 19 86 20 87 34 88 21 89 22 90 33 91 23 92
REMARK SMILES IDX 35 94 36 95 40 96 37 97 39 98 38 99 24 100 25 101 29 102
REMARK SMILES IDX 26 103 28 104 27 105 30 106 32 107 31 108
REMARK H PARENT 99 25 67 36 33 93
REMARK Flexibility Score: inf
ROOT
ATOM      1  C   UNL     1       2.636  -2.153   0.634  1.00  0.00     0.188 C 
ENDROOT
BRANCH   1   2
ATOM      2  O   UNL     1       3.963  -1.921   0.183  1.00  0.00    -0.376 OA
BRANCH   2   3
ATOM      3  C   UNL     1       4.842  -1.147   0.991  1.00  0.00     0.202 C 
BRANCH   3   4
ATOM      4  C   UNL     1       4.371   0.218   1.516  1.00  0.00     0.261 C 
BRANCH   4   5
ATOM      5  O   UNL     1       2.989   0.539   1.289  1.00  0.00    -0.460 OA
BRANCH   5   6
ATOM      6  C   UNL     1       2.447   1.167   0.216  1.00  0.00     0.338 C 
ATOM      7  O   UNL     1       1.275   1.529   0.248  1.00  0.00    -0.246 OA
BRANCH   6   8
ATOM      8  C   UNL     1       3.250   1.443  -0.996  1.00  0.00     0.060 A 
ATOM      9  C   UNL     1       4.122   0.523  -1.575  1.00  0.00     0.016 A 
ATOM     10  C   UNL     1       3.043   2.651  -1.649  1.00  0.00     0.016 A 
ATOM     11  C   UNL     1       4.957   0.854  -2.630  1.00  0.00     0.010 A 
ATOM     12  C   UNL     1       3.773   2.935  -2.799  1.00  0.00     0.010 A 
ATOM     13  C   UNL     1       4.784   2.068  -3.266  1.00  0.00    -0.014 A 
BRANCH  13  14
ATOM     14  C   UNL     1       5.661   2.498  -4.381  1.00  0.00     0.031 A 
ATOM     15  C   UNL     1       6.260   3.870  -4.266  1.00  0.00     0.074 A 
ATOM     16  C   UNL     1       5.763   1.767  -5.510  1.00  0.00     0.049 A 
ATOM     17  N   UNL     1       6.628   4.696  -5.203  1.00  0.00    -0.248 NA
ATOM     18  C   UNL     1       6.366   4.418  -2.900  1.00  0.00     0.031 C 
ATOM     19  C   UNL     1       5.251   0.408  -5.713  1.00  0.00     0.029 A 
ATOM     20  N   UNL     1       6.232   2.125  -6.753  1.00  0.00    -0.354 N 
ATOM     21  C   UNL     1       6.898   5.894  -4.552  1.00  0.00     0.074 A 
ATOM     22  C   UNL     1       6.635   5.689  -3.147  1.00  0.00     0.031 C 
ATOM     23  C   UNL     1       5.373   0.071  -7.006  1.00  0.00     0.029 A 
ATOM     24  C   UNL     1       5.870   1.226  -7.737  1.00  0.00     0.049 A 
ATOM     25  H   UNL     1       6.767   2.933  -6.923  1.00  0.00     0.167 HD
ATOM     26  C   UNL     1       7.327   7.058  -5.094  1.00  0.00     0.034 A 
ATOM     27  C   UNL     1       5.826   1.368  -9.076  1.00  0.00     0.034 A 
ATOM     28  C   UNL     1       7.608   7.190  -6.495  1.00  0.00     0.049 A 
ATOM     29  C   UNL     1       6.210   2.700  -9.659  1.00  0.00     0.074 A 
ATOM     30  C   UNL     1       8.200   8.242  -7.166  1.00  0.00     0.029 A 
ATOM     31  N   UNL     1       7.302   6.224  -7.444  1.00  0.00    -0.354 N 
ATOM     32  N   UNL     1       6.580   3.794  -9.038  1.00  0.00    -0.248 NA
ATOM     33  C   UNL     1       6.189   2.813 -11.123  1.00  0.00     0.031 C 
ATOM     34  C   UNL     1       8.217   7.925  -8.528  1.00  0.00     0.029 A 
ATOM     35  C   UNL     1       7.676   6.658  -8.698  1.00  0.00     0.049 A 
ATOM     36  H   UNL     1       6.879   5.356  -7.250  1.00  0.00     0.167 HD
ATOM     37  C   UNL     1       6.961   4.682 -10.037  1.00  0.00     0.074 A 
ATOM     38  C   UNL     1       6.708   4.020 -11.302  1.00  0.00     0.031 C 
ATOM     39  C   UNL     1       7.505   5.918  -9.922  1.00  0.00     0.034 A 
BRANCH  26  40
ATOM     40  C   UNL     1       7.538   8.231  -4.170  1.00  0.00     0.023 A 
ATOM     41  C   UNL     1       8.505   8.158  -3.145  1.00  0.00     0.012 A 
ATOM     42  C   UNL     1       6.779   9.411  -4.309  1.00  0.00     0.148 A 
ATOM     43  C   UNL     1       8.660   9.198  -2.229  1.00  0.00     0.002 A 
ATOM     44  C   UNL     1       6.984  10.470  -3.431  1.00  0.00     0.091 A 
ATOM     45  F   UNL     1       5.848   9.466  -5.272  1.00  0.00    -0.205 F 
ATOM     46  C   UNL     1       7.905  10.357  -2.378  1.00  0.00     0.022 A 
BRANCH  44  47
ATOM     47  S   UNL     1       6.135  12.044  -3.596  1.00  0.00     0.127 S 
ATOM     48  O   UNL     1       5.215  12.003  -2.460  1.00  0.00    -0.237 OA
ATOM     49  O   UNL     1       7.234  13.001  -3.456  1.00  0.00    -0.237 OA
ATOM     50  O   UNL     1       5.510  12.026  -4.911  1.00  0.00    -0.744 OA
ENDBRANCH  44  47
ENDBRANCH  26  40
BRANCH  27  51
ATOM     51  C   UNL     1       5.438   0.227  -9.954  1.00  0.00     0.023 A 
ATOM     52  C   UNL     1       6.430  -0.374 -10.753  1.00  0.00     0.012 A 
ATOM     53  C   UNL     1       4.132  -0.291  -9.995  1.00  0.00     0.148 A 
ATOM     54  C   UNL     1       6.126  -1.442 -11.598  1.00  0.00     0.002 A 
ATOM     55  C   UNL     1       3.851  -1.394 -10.799  1.00  0.00     0.091 A 
ATOM     56  F   UNL     1       3.202   0.274  -9.210  1.00  0.00    -0.205 F 
ATOM     57  C   UNL     1       4.837  -1.956 -11.619  1.00  0.00     0.022 A 
BRANCH  55  58
ATOM     58  S   UNL     1       2.252  -2.195 -10.802  1.00  0.00     0.127 S 
ATOM     59  O   UNL     1       2.008  -2.409 -12.226  1.00  0.00    -0.237 OA
ATOM     60  O   UNL     1       2.530  -3.397 -10.021  1.00  0.00    -0.237 OA
ATOM     61  O   UNL     1       1.383  -1.220 -10.165  1.00  0.00    -0.744 OA
ENDBRANCH  55  58
ENDBRANCH  27  51
BRANCH  39  62
ATOM     62  C   UNL     1       8.047   6.557 -11.167  1.00  0.00     0.023 A 
ATOM     63  C   UNL     1       7.194   7.161 -12.107  1.00  0.00     0.012 A 
ATOM     64  C   UNL     1       9.445   6.660 -11.319  1.00  0.00     0.148 A 
ATOM     65  C   UNL     1       7.730   7.855 -13.191  1.00  0.00     0.002 A 
ATOM     66  C   UNL     1       9.969   7.403 -12.364  1.00  0.00     0.091 A 
ATOM     67  F   UNL     1      10.231   6.050 -10.419  1.00  0.00    -0.205 F 
ATOM     68  C   UNL     1       9.114   7.992 -13.308  1.00  0.00     0.022 A 
BRANCH  66  69
ATOM     69  S   UNL     1      11.727   7.736 -12.515  1.00  0.00     0.127 S 
ATOM     70  O   UNL     1      12.064   7.002 -13.734  1.00  0.00    -0.237 OA
ATOM     71  O   UNL     1      11.752   9.192 -12.649  1.00  0.00    -0.237 OA
ATOM     72  O   UNL     1      12.343   7.228 -11.296  1.00  0.00    -0.744 OA
ENDBRANCH  66  69
ENDBRANCH  39  62
ENDBRANCH  13  14
ENDBRANCH   6   8
ENDBRANCH   5   6
ENDBRANCH   4   5
ENDBRANCH   3   4
ENDBRANCH   2   3
ENDBRANCH   1   2
BRANCH   1  73
ATOM     73  C   UNL     1       1.977  -3.323  -0.108  1.00  0.00     0.188 C 
BRANCH  73  74
ATOM     74  O   UNL     1       2.632  -4.582  -0.010  1.00  0.00    -0.376 OA
BRANCH  74  75
ATOM     75  C   UNL     1       3.994  -4.618  -0.425  1.00  0.00     0.202 C 
BRANCH  75  76
ATOM     76  C   UNL     1       4.334  -4.311  -1.899  1.00  0.00     0.261 C 
BRANCH  76  77
ATOM     77  O   UNL     1       3.666  -3.192  -2.533  1.00  0.00    -0.460 OA
BRANCH  77  78
ATOM     78  C   UNL     1       2.889  -3.535  -3.600  1.00  0.00     0.338 C 
ATOM     79  O   UNL     1       2.637  -4.681  -3.944  1.00  0.00    -0.246 OA
BRANCH  78  80
ATOM     80  C   UNL     1       2.429  -2.371  -4.415  1.00  0.00     0.060 A 
ATOM     81  C   UNL     1       1.820  -1.222  -3.890  1.00  0.00     0.020 A 
ATOM     82  C   UNL     1       2.496  -2.514  -5.803  1.00  0.00     0.020 A 
ATOM     83  C   UNL     1       1.288  -0.226  -4.754  1.00  0.00     0.053 A 
ATOM     84  C   UNL     1       1.924  -1.553  -6.648  1.00  0.00     0.053 A 
ATOM     85  C   UNL     1       1.311  -0.394  -6.146  1.00  0.00     0.136 A 
BRANCH  85  86
ATOM     86  N   UNL     1       0.723   0.511  -7.070  1.00  0.00    -0.154 N 
ATOM     87  C   UNL     1      -0.121   0.099  -8.092  1.00  0.00     0.385 C 
ATOM     88  C   UNL     1       0.793   1.869  -7.171  1.00  0.00     0.295 C 
ATOM     89  O   UNL     1      -0.822  -0.901  -8.131  1.00  0.00    -0.236 OA
ATOM     90  C   UNL     1      -0.255   1.349  -8.933  1.00  0.00     0.216 C 
ATOM     91  N   UNL     1       0.238   2.406  -8.219  1.00  0.00    -0.233 N 
ATOM     92  C   UNL     1      -0.736   1.533 -10.172  1.00  0.00     0.068 C 
ATOM     93  H   UNL     1       0.186   3.362  -8.447  1.00  0.00     0.312 HD
BRANCH  88  94
ATOM     94  C   UNL     1       1.512   2.777  -6.288  1.00  0.00     0.065 A 
ATOM     95  C   UNL     1       0.774   3.720  -5.561  1.00  0.00     0.017 A 
ATOM     96  C   UNL     1       2.833   3.034  -6.636  1.00  0.00     0.017 A 
ATOM     97  C   UNL     1       1.383   4.909  -5.156  1.00  0.00     0.001 A 
ATOM     98  C   UNL     1       3.423   4.236  -6.257  1.00  0.00     0.001 A 
ATOM     99  C   UNL     1       2.706   5.169  -5.511  1.00  0.00     0.000 A 
ENDBRANCH  88  94
BRANCH  92 100
ATOM    100  C   UNL     1      -1.383   0.490 -10.953  1.00  0.00    -0.017 A 
ATOM    101  C   UNL     1      -0.742  -0.114 -12.055  1.00  0.00     0.012 A 
ATOM    102  C   UNL     1      -2.601   0.004 -10.475  1.00  0.00     0.059 A 
ATOM    103  C   UNL     1      -1.249  -1.296 -12.605  1.00  0.00     0.051 A 
ATOM    104  C   UNL     1      -3.037  -1.185 -10.992  1.00  0.00     0.166 A 
ATOM    105  C   UNL     1      -2.368  -1.832 -12.010  1.00  0.00     0.165 A 
ATOM    106  O   UNL     1      -4.052  -1.935 -10.479  1.00  0.00    -0.454 OA
ATOM    107  O   UNL     1      -2.890  -3.074 -12.233  1.00  0.00    -0.454 OA
ATOM    108  C   UNL     1      -3.656  -3.209 -11.018  1.00  0.00     0.468 C 
ENDBRANCH  92 100
ENDBRANCH  85  86
ENDBRANCH  78  80
ENDBRANCH  77  78
ENDBRANCH  76  77
ENDBRANCH  75  76
ENDBRANCH  74  75
ENDBRANCH  73  74
ENDBRANCH   1  73
TORSDOF 23
