REMARK SMILES O=C(OCCOCCOCCOC(=O)c1cc2ccccc2cc1OCCO)c1ccc(-c2c3nc(c(-c4cccc(S(=O)(=O)[O-])c4F)c4ccc([nH]4)c(-c4cccc(S(=O)(=O)[O-])c4F)c4nc(c(-c5cccc(S(=O)(=O)[O-])c5F)c5ccc2[nH]5)C=C4)C=C3)cc1
REMARK SMILES IDX 8 1 7 2 6 3 5 4 4 5 3 6 2 7 1 8 29 9 30 10 91 11 31 12 90 13
REMARK SMILES IDX 32 14 33 15 34 16 84 17 35 18 89 19 83 20 85 21 36 22 88 23
REMARK SMILES IDX 82 24 81 25 37 27 69 28 49 29 68 30 50 31 53 32 67 33 86 34
REMARK SMILES IDX 51 35 52 36 66 38 87 39 54 40 38 41 39 42 47 43 40 44 42 45
REMARK SMILES IDX 48 46 41 47 43 48 44 49 45 50 46 51 70 52 71 53 79 54 72 55
REMARK SMILES IDX 74 56 80 57 73 58 75 59 76 60 77 61 78 62 55 63 56 64 64 65
REMARK SMILES IDX 57 66 59 67 65 68 58 69 60 70 61 71 62 72 63 73 9 74 10 75
REMARK SMILES IDX 11 76 12 77 13 78 14 79 15 80 16 81 24 82 17 83 23 84 18 85
REMARK SMILES IDX 22 86 19 87 21 88 20 89 25 90 26 91 27 92 28 93
REMARK H PARENT 85 26 53 37 28 94
REMARK Flexibility Score: inf
ROOT
ATOM      1  C   UNL     1       1.758  -2.744   1.226  1.00  0.00     0.188 C 
ENDROOT
BRANCH   1   2
ATOM      2  C   UNL     1       2.350  -1.334   1.262  1.00  0.00     0.188 C 
BRANCH   2   3
ATOM      3  O   UNL     1       3.673  -1.290   0.714  1.00  0.00    -0.376 OA
BRANCH   3   4
ATOM      4  C   UNL     1       4.598  -0.533   1.501  1.00  0.00     0.202 C 
BRANCH   4   5
ATOM      5  C   UNL     1       4.585   0.975   1.216  1.00  0.00     0.261 C 
BRANCH   5   6
ATOM      6  O   UNL     1       3.262   1.465   0.952  1.00  0.00    -0.460 OA
BRANCH   6   7
ATOM      7  C   UNL     1       2.620   1.552  -0.241  1.00  0.00     0.338 C 
ATOM      8  O   UNL     1       1.454   1.947  -0.235  1.00  0.00    -0.246 OA
BRANCH   7   9
ATOM      9  C   UNL     1       3.248   1.245  -1.569  1.00  0.00     0.060 A 
ATOM     10  C   UNL     1       4.372   0.445  -1.783  1.00  0.00     0.016 A 
ATOM     11  C   UNL     1       2.623   1.802  -2.702  1.00  0.00     0.016 A 
ATOM     12  C   UNL     1       4.950   0.330  -3.045  1.00  0.00     0.010 A 
ATOM     13  C   UNL     1       3.160   1.639  -3.983  1.00  0.00     0.010 A 
ATOM     14  C   UNL     1       4.365   0.952  -4.147  1.00  0.00    -0.014 A 
BRANCH  14  15
ATOM     15  C   UNL     1       5.106   0.971  -5.424  1.00  0.00     0.031 A 
ATOM     16  C   UNL     1       5.815   2.227  -5.830  1.00  0.00     0.074 A 
ATOM     17  C   UNL     1       5.235  -0.156  -6.146  1.00  0.00     0.049 A 
ATOM     18  N   UNL     1       6.569   2.446  -6.874  1.00  0.00    -0.248 NA
ATOM     19  C   UNL     1       5.670   3.388  -4.936  1.00  0.00     0.031 C 
ATOM     20  C   UNL     1       4.626  -1.438  -5.803  1.00  0.00     0.029 A 
ATOM     21  N   UNL     1       5.928  -0.411  -7.300  1.00  0.00    -0.354 N 
ATOM     22  C   UNL     1       6.962   3.773  -6.779  1.00  0.00     0.074 A 
ATOM     23  C   UNL     1       6.368   4.313  -5.577  1.00  0.00     0.031 C 
ATOM     24  C   UNL     1       4.994  -2.352  -6.713  1.00  0.00     0.029 A 
ATOM     25  C   UNL     1       5.803  -1.707  -7.738  1.00  0.00     0.049 A 
ATOM     26  H   UNL     1       6.464   0.269  -7.769  1.00  0.00     0.167 HD
ATOM     27  C   UNL     1       7.756   4.476  -7.617  1.00  0.00     0.034 A 
ATOM     28  C   UNL     1       6.264  -2.301  -8.855  1.00  0.00     0.034 A 
ATOM     29  C   UNL     1       8.345   3.927  -8.805  1.00  0.00     0.049 A 
ATOM     30  C   UNL     1       7.098  -1.482  -9.800  1.00  0.00     0.074 A 
ATOM     31  C   UNL     1       9.147   4.554  -9.740  1.00  0.00     0.029 A 
ATOM     32  N   UNL     1       8.184   2.614  -9.226  1.00  0.00    -0.354 N 
ATOM     33  N   UNL     1       7.511  -0.245  -9.667  1.00  0.00    -0.248 NA
ATOM     34  C   UNL     1       7.543  -2.139 -11.036  1.00  0.00     0.031 C 
ATOM     35  C   UNL     1       9.457   3.622 -10.738  1.00  0.00     0.029 A 
ATOM     36  C   UNL     1       8.861   2.412 -10.415  1.00  0.00     0.049 A 
ATOM     37  H   UNL     1       7.664   1.928  -8.749  1.00  0.00     0.167 HD
ATOM     38  C   UNL     1       8.280   0.022 -10.790  1.00  0.00     0.074 A 
ATOM     39  C   UNL     1       8.299  -1.194 -11.580  1.00  0.00     0.031 C 
ATOM     40  C   UNL     1       8.898   1.174 -11.150  1.00  0.00     0.034 A 
BRANCH  27  41
ATOM     41  C   UNL     1       8.010   5.915  -7.266  1.00  0.00     0.023 A 
ATOM     42  C   UNL     1       8.914   6.233  -6.233  1.00  0.00     0.012 A 
ATOM     43  C   UNL     1       7.335   6.949  -7.942  1.00  0.00     0.148 A 
ATOM     44  C   UNL     1       9.119   7.560  -5.856  1.00  0.00     0.002 A 
ATOM     45  C   UNL     1       7.568   8.270  -7.581  1.00  0.00     0.091 A 
ATOM     46  F   UNL     1       6.453   6.620  -8.896  1.00  0.00    -0.205 F 
ATOM     47  C   UNL     1       8.451   8.577  -6.533  1.00  0.00     0.022 A 
BRANCH  45  48
ATOM     48  S   UNL     1       6.784   9.649  -8.423  1.00  0.00     0.127 S 
ATOM     49  O   UNL     1       5.790  10.070  -7.438  1.00  0.00    -0.237 OA
ATOM     50  O   UNL     1       7.900  10.579  -8.599  1.00  0.00    -0.237 OA
ATOM     51  O   UNL     1       6.249   9.105  -9.664  1.00  0.00    -0.744 OA
ENDBRANCH  45  48
ENDBRANCH  27  41
BRANCH  28  52
ATOM     52  C   UNL     1       5.945  -3.730  -9.136  1.00  0.00     0.023 A 
ATOM     53  C   UNL     1       6.970  -4.694  -9.126  1.00  0.00     0.012 A 
ATOM     54  C   UNL     1       4.621  -4.141  -9.389  1.00  0.00     0.148 A 
ATOM     55  C   UNL     1       6.687  -6.036  -9.390  1.00  0.00     0.002 A 
ATOM     56  C   UNL     1       4.339  -5.484  -9.603  1.00  0.00     0.091 A 
ATOM     57  F   UNL     1       3.653  -3.214  -9.367  1.00  0.00    -0.205 F 
ATOM     58  C   UNL     1       5.372  -6.432  -9.625  1.00  0.00     0.022 A 
BRANCH  56  59
ATOM     59  S   UNL     1       2.660  -6.089  -9.803  1.00  0.00     0.127 S 
ATOM     60  O   UNL     1       2.789  -6.983 -10.952  1.00  0.00    -0.237 OA
ATOM     61  O   UNL     1       2.444  -6.753  -8.520  1.00  0.00    -0.237 OA
ATOM     62  O   UNL     1       1.843  -4.907 -10.036  1.00  0.00    -0.744 OA
ENDBRANCH  56  59
ENDBRANCH  28  52
BRANCH  40  63
ATOM     63  C   UNL     1       9.658   1.169 -12.446  1.00  0.00     0.023 A 
ATOM     64  C   UNL     1       8.952   1.233 -13.663  1.00  0.00     0.012 A 
ATOM     65  C   UNL     1      11.065   1.193 -12.452  1.00  0.00     0.148 A 
ATOM     66  C   UNL     1       9.640   1.302 -14.873  1.00  0.00     0.002 A 
ATOM     67  C   UNL     1      11.742   1.308 -13.659  1.00  0.00     0.091 A 
ATOM     68  F   UNL     1      11.713   1.104 -11.281  1.00  0.00    -0.205 F 
ATOM     69  C   UNL     1      11.032   1.354 -14.870  1.00  0.00     0.022 A 
BRANCH  67  70
ATOM     70  S   UNL     1      13.528   1.479 -13.733  1.00  0.00     0.127 S 
ATOM     71  O   UNL     1      13.939   0.136 -14.138  1.00  0.00    -0.237 OA
ATOM     72  O   UNL     1      13.702   2.507 -14.760  1.00  0.00    -0.237 OA
ATOM     73  O   UNL     1      13.942   1.889 -12.398  1.00  0.00    -0.744 OA
ENDBRANCH  67  70
ENDBRANCH  40  63
ENDBRANCH  14  15
ENDBRANCH   7   9
ENDBRANCH   6   7
ENDBRANCH   5   6
ENDBRANCH   4   5
ENDBRANCH   3   4
ENDBRANCH   2   3
ENDBRANCH   1   2
BRANCH   1  74
ATOM     74  O   UNL     1       2.385  -3.677   2.106  1.00  0.00    -0.376 OA
BRANCH  74  75
ATOM     75  C   UNL     1       3.712  -4.075   1.762  1.00  0.00     0.202 C 
BRANCH  75  76
ATOM     76  C   UNL     1       3.841  -4.968   0.528  1.00  0.00     0.261 C 
BRANCH  76  77
ATOM     77  O   UNL     1       3.482  -4.307  -0.698  1.00  0.00    -0.460 OA
BRANCH  77  78
ATOM     78  C   UNL     1       2.631  -5.003  -1.490  1.00  0.00     0.342 C 
ATOM     79  O   UNL     1       2.047  -6.040  -1.203  1.00  0.00    -0.246 OA
BRANCH  78  80
ATOM     80  C   UNL     1       2.495  -4.369  -2.808  1.00  0.00     0.102 A 
ATOM     81  C   UNL     1       1.481  -3.403  -2.948  1.00  0.00     0.028 A 
ATOM     82  C   UNL     1       3.139  -4.887  -3.934  1.00  0.00     0.134 A 
ATOM     83  C   UNL     1       1.055  -2.983  -4.221  1.00  0.00    -0.017 A 
ATOM     84  C   UNL     1       2.649  -4.535  -5.197  1.00  0.00     0.056 A 
ATOM     85  C   UNL     1       0.050  -2.013  -4.395  1.00  0.00     0.009 A 
ATOM     86  C   UNL     1       1.626  -3.587  -5.361  1.00  0.00    -0.015 A 
ATOM     87  C   UNL     1      -0.386  -1.654  -5.673  1.00  0.00     0.001 A 
ATOM     88  C   UNL     1       1.168  -3.227  -6.638  1.00  0.00     0.009 A 
ATOM     89  C   UNL     1       0.170  -2.266  -6.793  1.00  0.00     0.001 A 
BRANCH  82  90
ATOM     90  O   UNL     1       4.189  -5.758  -3.993  1.00  0.00    -0.490 OA
BRANCH  90  91
ATOM     91  C   UNL     1       5.229  -5.719  -3.014  1.00  0.00     0.257 C 
BRANCH  91  92
ATOM     92  C   UNL     1       6.159  -4.504  -3.110  1.00  0.00     0.197 C 
BRANCH  92  93
ATOM     93  O   UNL     1       5.549  -3.297  -2.667  1.00  0.00    -0.393 OA
ATOM     94  H   UNL     1       4.784  -3.097  -3.229  1.00  0.00     0.210 HD
ENDBRANCH  92  93
ENDBRANCH  91  92
ENDBRANCH  90  91
ENDBRANCH  82  90
ENDBRANCH  78  80
ENDBRANCH  77  78
ENDBRANCH  76  77
ENDBRANCH  75  76
ENDBRANCH  74  75
ENDBRANCH   1  74
TORSDOF 24
