REMARK SMILES Nc1oc2ccc(F)cc2c(=O)c1[C@@H]1[NH2+][C@H](C(=O)OCCOCCOCCOC(=O)c2ccc(-c3c4nc(c(-c5cccc(S(=O)(=O)[O-])c5F)c5ccc([nH]5)c(-c5cccc(S(=O)(=O)[O-])c5F)c5nc(c(-c6cccc(S(=O)(=O)[O-])c6F)c6ccc3[nH]6)C=C5)C=C4)cc2)CS1
REMARK SMILES IDX 24 1 23 2 22 3 21 4 20 5 19 6 17 7 18 8 16 9 14 10 15 11
REMARK SMILES IDX 95 12 94 15 13 16 2 17 3 18 4 19 11 20 5 21 10 22 12 23 6 24
REMARK SMILES IDX 9 25 7 26 8 27 1 28 25 31 26 32 27 33 28 34 29 35 30 36
REMARK SMILES IDX 31 37 32 38 93 39 33 40 92 41 34 42 35 43 36 44 86 45 37 46
REMARK SMILES IDX 91 47 85 48 87 49 38 50 90 51 84 52 83 53 39 55 71 56 51 57
REMARK SMILES IDX 70 58 52 59 55 60 69 61 88 62 53 63 54 64 68 66 89 67 56 68
REMARK SMILES IDX 40 69 41 70 49 71 42 72 44 73 50 74 43 75 45 76 46 77 47 78
REMARK SMILES IDX 48 79 72 80 73 81 81 82 74 83 76 84 82 85 75 86 77 87 78 88
REMARK SMILES IDX 79 89 80 90 57 91 58 92 66 93 59 94 61 95 67 96 60 97 62 98
REMARK SMILES IDX 63 99 64 100 65 101
REMARK H PARENT 15 13 15 14 1 29 1 30 87 54 55 65
REMARK Flexibility Score: inf
ROOT
ATOM      1  C   UNL     1      -0.944  -2.623  -1.072  1.00  0.00     0.188 C 
ENDROOT
BRANCH   1   2
ATOM      2  C   UNL     1      -0.597  -3.663   0.014  1.00  0.00     0.188 C 
BRANCH   2   3
ATOM      3  O   UNL     1      -1.089  -3.431   1.336  1.00  0.00    -0.376 OA
BRANCH   3   4
ATOM      4  C   UNL     1      -0.807  -2.167   1.937  1.00  0.00     0.202 C 
BRANCH   4   5
ATOM      5  C   UNL     1       0.660  -1.735   1.942  1.00  0.00     0.261 C 
BRANCH   5   6
ATOM      6  O   UNL     1       1.174  -1.580   0.610  1.00  0.00    -0.459 OA
BRANCH   6   7
ATOM      7  C   UNL     1       2.525  -1.497   0.512  1.00  0.00     0.365 C 
ATOM      8  O   UNL     1       3.268  -1.444   1.487  1.00  0.00    -0.245 OA
BRANCH   7   9
ATOM      9  C   UNL     1       3.044  -1.590  -0.936  1.00  0.00     0.304 C 
ATOM     10  C   UNL     1       2.271   0.261  -2.327  1.00  0.00     0.283 C 
ATOM     11  N   UNL     1       2.089  -1.159  -1.992  1.00  0.00    -0.319 N 
ATOM     12  S   UNL     1       3.870   0.817  -1.679  1.00  0.00    -0.087 SA
ATOM     13  H   UNL     1       2.243  -1.721  -2.829  1.00  0.00     0.348 HD
ATOM     14  H   UNL     1       1.141  -1.288  -1.640  1.00  0.00     0.348 HD
ATOM     15  C   UNL     1       4.351  -0.827  -1.102  1.00  0.00     0.153 C 
BRANCH  10  16
ATOM     16  C   UNL     1       1.107   1.134  -1.924  1.00  0.00     0.128 A 
ATOM     17  C   UNL     1       0.797   1.597  -0.692  1.00  0.00     0.205 A 
ATOM     18  O   UNL     1      -0.355   2.312  -0.403  1.00  0.00    -0.440 OA
ATOM     19  C   UNL     1      -1.069   2.862  -1.426  1.00  0.00     0.140 A 
ATOM     20  C   UNL     1       0.225   1.565  -3.053  1.00  0.00     0.205 A 
ATOM     21  C   UNL     1      -2.060   3.784  -1.086  1.00  0.00     0.051 A 
ATOM     22  C   UNL     1      -0.816   2.558  -2.755  1.00  0.00     0.068 A 
ATOM     23  O   UNL     1       0.379   1.177  -4.205  1.00  0.00    -0.288 OA
ATOM     24  C   UNL     1      -2.767   4.440  -2.092  1.00  0.00     0.043 A 
ATOM     25  C   UNL     1      -1.523   3.210  -3.771  1.00  0.00     0.055 A 
ATOM     26  C   UNL     1      -2.483   4.155  -3.425  1.00  0.00     0.124 A 
ATOM     27  F   UNL     1      -3.141   4.814  -4.388  1.00  0.00    -0.207 F 
BRANCH  17  28
ATOM     28  N   UNL     1       1.567   1.431   0.418  1.00  0.00    -0.369 N 
ATOM     29  H   UNL     1       1.271   1.799   1.282  1.00  0.00     0.159 HD
ATOM     30  H   UNL     1       2.419   0.942   0.357  1.00  0.00     0.159 HD
ENDBRANCH  17  28
ENDBRANCH  10  16
ENDBRANCH   7   9
ENDBRANCH   6   7
ENDBRANCH   5   6
ENDBRANCH   4   5
ENDBRANCH   3   4
ENDBRANCH   2   3
ENDBRANCH   1   2
BRANCH   1  31
ATOM     31  O   UNL     1      -1.828  -1.624  -0.604  1.00  0.00    -0.376 OA
BRANCH  31  32
ATOM     32  C   UNL     1      -3.122  -1.557  -1.164  1.00  0.00     0.202 C 
BRANCH  32  33
ATOM     33  C   UNL     1      -4.030  -2.797  -1.140  1.00  0.00     0.261 C 
BRANCH  33  34
ATOM     34  O   UNL     1      -3.394  -4.072  -1.293  1.00  0.00    -0.460 OA
BRANCH  34  35
ATOM     35  C   UNL     1      -3.147  -4.507  -2.551  1.00  0.00     0.338 C 
ATOM     36  O   UNL     1      -3.395  -3.917  -3.589  1.00  0.00    -0.246 OA
BRANCH  35  37
ATOM     37  C   UNL     1      -2.322  -5.732  -2.430  1.00  0.00     0.060 A 
ATOM     38  C   UNL     1      -2.742  -6.791  -1.619  1.00  0.00     0.016 A 
ATOM     39  C   UNL     1      -1.079  -5.786  -3.073  1.00  0.00     0.016 A 
ATOM     40  C   UNL     1      -1.923  -7.912  -1.466  1.00  0.00     0.010 A 
ATOM     41  C   UNL     1      -0.253  -6.904  -2.906  1.00  0.00     0.010 A 
ATOM     42  C   UNL     1      -0.678  -7.982  -2.115  1.00  0.00    -0.014 A 
BRANCH  42  43
ATOM     43  C   UNL     1       0.064  -9.266  -2.127  1.00  0.00     0.031 A 
ATOM     44  C   UNL     1       1.192  -9.559  -1.184  1.00  0.00     0.074 A 
ATOM     45  C   UNL     1      -0.319 -10.191  -3.027  1.00  0.00     0.049 A 
ATOM     46  N   UNL     1       1.826 -10.689  -1.002  1.00  0.00    -0.248 NA
ATOM     47  C   UNL     1       1.677  -8.455  -0.344  1.00  0.00     0.031 C 
ATOM     48  C   UNL     1      -1.367  -9.996  -4.032  1.00  0.00     0.029 A 
ATOM     49  N   UNL     1       0.118 -11.472  -3.244  1.00  0.00    -0.354 N 
ATOM     50  C   UNL     1       2.781 -10.442  -0.026  1.00  0.00     0.074 A 
ATOM     51  C   UNL     1       2.660  -9.043   0.332  1.00  0.00     0.031 C 
ATOM     52  C   UNL     1      -1.501 -11.121  -4.749  1.00  0.00     0.029 A 
ATOM     53  C   UNL     1      -0.553 -12.115  -4.255  1.00  0.00     0.049 A 
ATOM     54  H   UNL     1       0.843 -11.890  -2.725  1.00  0.00     0.167 HD
ATOM     55  C   UNL     1       3.655 -11.313   0.534  1.00  0.00     0.034 A 
ATOM     56  C   UNL     1      -0.441 -13.373  -4.721  1.00  0.00     0.034 A 
ATOM     57  C   UNL     1       3.757 -12.707   0.185  1.00  0.00     0.049 A 
ATOM     58  C   UNL     1       0.522 -14.319  -4.067  1.00  0.00     0.074 A 
ATOM     59  C   UNL     1       4.565 -13.677   0.757  1.00  0.00     0.029 A 
ATOM     60  N   UNL     1       3.044 -13.330  -0.826  1.00  0.00    -0.354 N 
ATOM     61  N   UNL     1       1.303 -14.110  -3.036  1.00  0.00    -0.248 NA
ATOM     62  C   UNL     1       0.595 -15.681  -4.614  1.00  0.00     0.031 C 
ATOM     63  C   UNL     1       4.348 -14.883   0.084  1.00  0.00     0.029 A 
ATOM     64  C   UNL     1       3.400 -14.666  -0.902  1.00  0.00     0.049 A 
ATOM     65  H   UNL     1       2.382 -12.888  -1.405  1.00  0.00     0.167 HD
ATOM     66  C   UNL     1       1.947 -15.317  -2.798  1.00  0.00     0.074 A 
ATOM     67  C   UNL     1       1.452 -16.259  -3.781  1.00  0.00     0.031 C 
ATOM     68  C   UNL     1       2.875 -15.608  -1.856  1.00  0.00     0.034 A 
BRANCH  55  69
ATOM     69  C   UNL     1       4.534 -10.826   1.654  1.00  0.00     0.023 A 
ATOM     70  C   UNL     1       3.991 -10.748   2.952  1.00  0.00     0.012 A 
ATOM     71  C   UNL     1       5.912 -10.606   1.463  1.00  0.00     0.148 A 
ATOM     72  C   UNL     1       4.806 -10.458   4.045  1.00  0.00     0.002 A 
ATOM     73  C   UNL     1       6.723 -10.340   2.561  1.00  0.00     0.091 A 
ATOM     74  F   UNL     1       6.403 -10.683   0.218  1.00  0.00    -0.205 F 
ATOM     75  C   UNL     1       6.172 -10.265   3.852  1.00  0.00     0.022 A 
BRANCH  73  76
ATOM     76  S   UNL     1       8.503 -10.130   2.434  1.00  0.00     0.127 S 
ATOM     77  O   UNL     1       8.665  -8.738   2.852  1.00  0.00    -0.237 OA
ATOM     78  O   UNL     1       8.998 -11.116   3.394  1.00  0.00    -0.237 OA
ATOM     79  O   UNL     1       8.844 -10.399   1.044  1.00  0.00    -0.744 OA
ENDBRANCH  73  76
ENDBRANCH  55  69
BRANCH  56  80
ATOM     80  C   UNL     1      -1.345 -13.822  -5.810  1.00  0.00     0.023 A 
ATOM     81  C   UNL     1      -2.443 -14.643  -5.494  1.00  0.00     0.012 A 
ATOM     82  C   UNL     1      -1.171 -13.373  -7.133  1.00  0.00     0.148 A 
ATOM     83  C   UNL     1      -3.352 -15.020  -6.482  1.00  0.00     0.002 A 
ATOM     84  C   UNL     1      -2.101 -13.720  -8.104  1.00  0.00     0.091 A 
ATOM     85  F   UNL     1      -0.115 -12.593  -7.402  1.00  0.00    -0.205 F 
ATOM     86  C   UNL     1      -3.187 -14.551  -7.783  1.00  0.00     0.022 A 
BRANCH  84  87
ATOM     87  S   UNL     1      -2.032 -13.081  -9.781  1.00  0.00     0.127 S 
ATOM     88  O   UNL     1      -1.753 -14.292 -10.549  1.00  0.00    -0.237 OA
ATOM     89  O   UNL     1      -3.380 -12.539  -9.950  1.00  0.00    -0.237 OA
ATOM     90  O   UNL     1      -0.974 -12.081  -9.780  1.00  0.00    -0.744 OA
ENDBRANCH  84  87
ENDBRANCH  56  80
BRANCH  68  91
ATOM     91  C   UNL     1       3.437 -17.003  -1.831  1.00  0.00     0.023 A 
ATOM     92  C   UNL     1       4.426 -17.361  -2.767  1.00  0.00     0.012 A 
ATOM     93  C   UNL     1       3.073 -17.914  -0.820  1.00  0.00     0.148 A 
ATOM     94  C   UNL     1       5.039 -18.611  -2.705  1.00  0.00     0.002 A 
ATOM     95  C   UNL     1       3.711 -19.146  -0.744  1.00  0.00     0.091 A 
ATOM     96  F   UNL     1       2.122 -17.551   0.052  1.00  0.00    -0.205 F 
ATOM     97  C   UNL     1       4.691 -19.498  -1.688  1.00  0.00     0.022 A 
BRANCH  95  98
ATOM     98  S   UNL     1       3.384 -20.330   0.566  1.00  0.00     0.127 S 
ATOM     99  O   UNL     1       2.766 -21.430  -0.173  1.00  0.00    -0.237 OA
ATOM    100  O   UNL     1       4.728 -20.612   1.070  1.00  0.00    -0.237 OA
ATOM    101  O   UNL     1       2.509 -19.654   1.514  1.00  0.00    -0.744 OA
ENDBRANCH  95  98
ENDBRANCH  68  91
ENDBRANCH  42  43
ENDBRANCH  35  37
ENDBRANCH  34  35
ENDBRANCH  33  34
ENDBRANCH  32  33
ENDBRANCH  31  32
ENDBRANCH   1  31
TORSDOF 22
