REMARK SMILES CC(C)c1cc(OCC(=O)OCCOCCOCCOC(=O)c2ccc(-c3c4nc(c(-c5cccc(S(=O)(=O)[O-])c5F)c5ccc([nH]5)c(-c5cccc(S(=O)(=O)[O-])c5F)c5nc(c(-c6cccc(S(=O)(=O)[O-])c6F)c6ccc3[nH]6)C=C5)C=C4)cc2)nc(Nc2ccc(F)cc2F)n1
REMARK SMILES IDX 15 1 14 2 13 3 12 4 11 5 9 6 10 7 8 8 7 9 6 10 4 11 5 12
REMARK SMILES IDX 97 13 87 14 86 15 2 16 1 17 3 18 88 19 89 21 90 22 95 23
REMARK SMILES IDX 91 24 94 25 96 26 92 27 93 28 16 29 17 30 18 31 19 32 20 33
REMARK SMILES IDX 21 34 22 35 23 36 24 37 85 38 25 39 84 40 26 41 27 42 28 43
REMARK SMILES IDX 78 44 29 45 83 46 77 47 79 48 30 49 82 50 76 51 75 52 31 54
REMARK SMILES IDX 63 55 43 56 62 57 44 58 47 59 61 60 80 61 45 62 46 63 60 65
REMARK SMILES IDX 81 66 48 67 32 68 33 69 41 70 34 71 36 72 42 73 35 74 37 75
REMARK SMILES IDX 38 76 39 77 40 78 64 79 65 80 73 81 66 82 68 83 74 84 67 85
REMARK SMILES IDX 69 86 70 87 71 88 72 89 49 90 50 91 58 92 51 93 53 94 59 95
REMARK SMILES IDX 52 96 54 97 55 98 56 99 57 100
REMARK H PARENT 88 20 79 53 47 64
REMARK Flexibility Score: inf
ROOT
ATOM      1  C   UNL     1      -1.124  -2.133  -1.278  1.00  0.00     0.188 C 
ENDROOT
BRANCH   1   2
ATOM      2  O   UNL     1      -0.811  -3.244  -2.105  1.00  0.00    -0.376 OA
BRANCH   2   3
ATOM      3  C   UNL     1      -1.901  -3.730  -2.867  1.00  0.00     0.202 C 
BRANCH   3   4
ATOM      4  C   UNL     1      -3.100  -4.173  -2.002  1.00  0.00     0.261 C 
BRANCH   4   5
ATOM      5  O   UNL     1      -3.628  -3.096  -1.151  1.00  0.00    -0.461 OA
BRANCH   5   6
ATOM      6  C   UNL     1      -3.675  -3.294   0.204  1.00  0.00     0.344 C 
ATOM      7  O   UNL     1      -3.684  -4.415   0.706  1.00  0.00    -0.248 OA
BRANCH   6   8
ATOM      8  C   UNL     1      -3.510  -1.968   1.090  1.00  0.00     0.353 C 
BRANCH   8   9
ATOM      9  O   UNL     1      -3.801  -0.678   0.557  1.00  0.00    -0.466 OA
BRANCH   9  10
ATOM     10  C   UNL     1      -3.277   0.518   1.036  1.00  0.00     0.218 A 
ATOM     11  C   UNL     1      -1.451   2.100   1.209  1.00  0.00     0.052 A 
ATOM     12  C   UNL     1      -1.919   0.777   1.282  1.00  0.00     0.092 A 
ATOM     13  N   UNL     1      -2.359   3.042   1.020  1.00  0.00    -0.217 NA
ATOM     14  C   UNL     1      -3.663   2.768   0.946  1.00  0.00     0.230 A 
ATOM     15  N   UNL     1      -4.167   1.528   0.950  1.00  0.00    -0.177 NA
BRANCH  11  16
ATOM     16  C   UNL     1      -0.027   2.704   1.324  1.00  0.00     0.032 C 
ATOM     17  C   UNL     1       0.841   2.894   0.052  1.00  0.00     0.014 C 
ATOM     18  C   UNL     1      -0.095   4.182   1.802  1.00  0.00     0.014 C 
ENDBRANCH  11  16
BRANCH  14  19
ATOM     19  N   UNL     1      -4.476   3.907   0.932  1.00  0.00    -0.322 N 
ATOM     20  H   UNL     1      -5.453   3.811   1.003  1.00  0.00     0.170 HD
BRANCH  19  21
ATOM     21  C   UNL     1      -3.903   5.196   0.818  1.00  0.00     0.077 A 
ATOM     22  C   UNL     1      -3.890   6.070   1.914  1.00  0.00     0.032 A 
ATOM     23  C   UNL     1      -3.059   5.501  -0.278  1.00  0.00     0.149 A 
ATOM     24  C   UNL     1      -3.048   7.191   1.911  1.00  0.00     0.041 A 
ATOM     25  C   UNL     1      -2.222   6.610  -0.285  1.00  0.00     0.080 A 
ATOM     26  F   UNL     1      -2.998   4.663  -1.328  1.00  0.00    -0.205 F 
ATOM     27  C   UNL     1      -2.218   7.442   0.820  1.00  0.00     0.126 A 
ATOM     28  F   UNL     1      -1.381   8.486   0.851  1.00  0.00    -0.207 F 
ENDBRANCH  19  21
ENDBRANCH  14  19
ENDBRANCH   9  10
ENDBRANCH   8   9
ENDBRANCH   6   8
ENDBRANCH   5   6
ENDBRANCH   4   5
ENDBRANCH   3   4
ENDBRANCH   2   3
ENDBRANCH   1   2
BRANCH   1  29
ATOM     29  C   UNL     1      -1.888  -0.975  -1.948  1.00  0.00     0.188 C 
BRANCH  29  30
ATOM     30  O   UNL     1      -1.403  -0.847  -3.272  1.00  0.00    -0.376 OA
BRANCH  30  31
ATOM     31  C   UNL     1      -0.689   0.326  -3.557  1.00  0.00     0.202 C 
BRANCH  31  32
ATOM     32  C   UNL     1       0.737   0.580  -2.987  1.00  0.00     0.261 C 
BRANCH  32  33
ATOM     33  O   UNL     1       1.449  -0.300  -2.070  1.00  0.00    -0.460 OA
BRANCH  33  34
ATOM     34  C   UNL     1       1.058  -0.107  -0.794  1.00  0.00     0.338 C 
ATOM     35  O   UNL     1      -0.015   0.433  -0.553  1.00  0.00    -0.246 OA
BRANCH  34  36
ATOM     36  C   UNL     1       1.847  -0.463   0.421  1.00  0.00     0.060 A 
ATOM     37  C   UNL     1       1.068  -0.911   1.505  1.00  0.00     0.016 A 
ATOM     38  C   UNL     1       3.030   0.220   0.703  1.00  0.00     0.016 A 
ATOM     39  C   UNL     1       1.321  -0.481   2.812  1.00  0.00     0.010 A 
ATOM     40  C   UNL     1       3.365   0.529   2.041  1.00  0.00     0.010 A 
ATOM     41  C   UNL     1       2.501   0.213   3.107  1.00  0.00    -0.014 A 
BRANCH  41  42
ATOM     42  C   UNL     1       2.975   0.275   4.522  1.00  0.00     0.031 A 
ATOM     43  C   UNL     1       3.224   1.545   5.299  1.00  0.00     0.074 A 
ATOM     44  C   UNL     1       3.312  -0.920   5.051  1.00  0.00     0.049 A 
ATOM     45  N   UNL     1       3.866   1.697   6.432  1.00  0.00    -0.248 NA
ATOM     46  C   UNL     1       2.681   2.800   4.759  1.00  0.00     0.031 C 
ATOM     47  C   UNL     1       3.103  -2.215   4.389  1.00  0.00     0.029 A 
ATOM     48  N   UNL     1       3.957  -1.248   6.213  1.00  0.00    -0.354 N 
ATOM     49  C   UNL     1       3.859   3.062   6.719  1.00  0.00     0.074 A 
ATOM     50  C   UNL     1       3.109   3.694   5.650  1.00  0.00     0.031 C 
ATOM     51  C   UNL     1       3.658  -3.183   5.117  1.00  0.00     0.029 A 
ATOM     52  C   UNL     1       4.330  -2.572   6.247  1.00  0.00     0.049 A 
ATOM     53  H   UNL     1       4.134  -0.609   6.942  1.00  0.00     0.167 HD
ATOM     54  C   UNL     1       4.435   3.711   7.768  1.00  0.00     0.034 A 
ATOM     55  C   UNL     1       5.186  -3.234   7.041  1.00  0.00     0.034 A 
ATOM     56  C   UNL     1       5.163   3.042   8.826  1.00  0.00     0.049 A 
ATOM     57  C   UNL     1       5.828  -2.494   8.162  1.00  0.00     0.074 A 
ATOM     58  C   UNL     1       5.725   3.589   9.969  1.00  0.00     0.029 A 
ATOM     59  N   UNL     1       5.450   1.683   8.863  1.00  0.00    -0.354 N 
ATOM     60  N   UNL     1       5.734  -1.223   8.463  1.00  0.00    -0.248 NA
ATOM     61  C   UNL     1       6.651  -3.285   9.080  1.00  0.00     0.031 C 
ATOM     62  C   UNL     1       6.387   2.573  10.669  1.00  0.00     0.029 A 
ATOM     63  C   UNL     1       6.201   1.381   9.989  1.00  0.00     0.049 A 
ATOM     64  H   UNL     1       5.162   1.029   8.186  1.00  0.00     0.167 HD
ATOM     65  C   UNL     1       6.457  -1.063   9.633  1.00  0.00     0.074 A 
ATOM     66  C   UNL     1       6.965  -2.374   9.991  1.00  0.00     0.031 C 
ATOM     67  C   UNL     1       6.682   0.068  10.344  1.00  0.00     0.034 A 
BRANCH  54  68
ATOM     68  C   UNL     1       4.319   5.223   7.861  1.00  0.00     0.023 A 
ATOM     69  C   UNL     1       3.088   5.819   8.201  1.00  0.00     0.012 A 
ATOM     70  C   UNL     1       5.462   6.048   7.743  1.00  0.00     0.148 A 
ATOM     71  C   UNL     1       2.987   7.201   8.392  1.00  0.00     0.002 A 
ATOM     72  C   UNL     1       5.362   7.420   7.971  1.00  0.00     0.091 A 
ATOM     73  F   UNL     1       6.631   5.476   7.422  1.00  0.00    -0.205 F 
ATOM     74  C   UNL     1       4.124   7.998   8.285  1.00  0.00     0.022 A 
BRANCH  72  75
ATOM     75  S   UNL     1       6.783   8.525   7.938  1.00  0.00     0.127 S 
ATOM     76  O   UNL     1       6.534   9.290   6.717  1.00  0.00    -0.237 OA
ATOM     77  O   UNL     1       6.614   9.286   9.177  1.00  0.00    -0.237 OA
ATOM     78  O   UNL     1       7.959   7.667   7.908  1.00  0.00    -0.744 OA
ENDBRANCH  72  75
ENDBRANCH  54  68
BRANCH  55  79
ATOM     79  C   UNL     1       5.418  -4.680   6.789  1.00  0.00     0.023 A 
ATOM     80  C   UNL     1       4.823  -5.621   7.647  1.00  0.00     0.012 A 
ATOM     81  C   UNL     1       6.087  -5.123   5.629  1.00  0.00     0.148 A 
ATOM     82  C   UNL     1       4.903  -6.983   7.364  1.00  0.00     0.002 A 
ATOM     83  C   UNL     1       6.109  -6.476   5.321  1.00  0.00     0.091 A 
ATOM     84  F   UNL     1       6.633  -4.204   4.819  1.00  0.00    -0.205 F 
ATOM     85  C   UNL     1       5.531  -7.409   6.196  1.00  0.00     0.022 A 
BRANCH  83  86
ATOM     86  S   UNL     1       6.742  -7.100   3.759  1.00  0.00     0.127 S 
ATOM     87  O   UNL     1       7.996  -7.717   4.168  1.00  0.00    -0.237 OA
ATOM     88  O   UNL     1       5.692  -8.034   3.355  1.00  0.00    -0.237 OA
ATOM     89  O   UNL     1       6.862  -5.928   2.891  1.00  0.00    -0.744 OA
ENDBRANCH  83  86
ENDBRANCH  55  79
BRANCH  67  90
ATOM     90  C   UNL     1       7.493  -0.082  11.602  1.00  0.00     0.023 A 
ATOM     91  C   UNL     1       8.874  -0.352  11.521  1.00  0.00     0.012 A 
ATOM     92  C   UNL     1       6.885   0.047  12.865  1.00  0.00     0.148 A 
ATOM     93  C   UNL     1       9.628  -0.538  12.678  1.00  0.00     0.002 A 
ATOM     94  C   UNL     1       7.653  -0.085  14.014  1.00  0.00     0.091 A 
ATOM     95  F   UNL     1       5.564   0.277  12.919  1.00  0.00    -0.205 F 
ATOM     96  C   UNL     1       9.020  -0.394  13.923  1.00  0.00     0.022 A 
BRANCH  94  97
ATOM     97  S   UNL     1       6.977   0.171  15.657  1.00  0.00     0.127 S 
ATOM     98  O   UNL     1       6.968  -1.190  16.191  1.00  0.00    -0.237 OA
ATOM     99  O   UNL     1       7.971   1.058  16.264  1.00  0.00    -0.237 OA
ATOM    100  O   UNL     1       5.666   0.775  15.463  1.00  0.00    -0.744 OA
ENDBRANCH  94  97
ENDBRANCH  67  90
ENDBRANCH  41  42
ENDBRANCH  34  36
ENDBRANCH  33  34
ENDBRANCH  32  33
ENDBRANCH  31  32
ENDBRANCH  30  31
ENDBRANCH  29  30
ENDBRANCH   1  29
TORSDOF 25
