REMARK SMILES O=C(CCN1C(=O)/C(=C2\C(=O)N(Cc3ccc(Cl)cc3)c3ccccc32)SC1=S)OCCOCCOCCOC(=O)c1ccc(-c2c3nc(c(-c4cccc(S(=O)(=O)[O-])c4F)c4ccc([nH]4)c(-c4cccc(S(=O)(=O)[O-])c4F)c4nc(c(-c5cccc(S(=O)(=O)[O-])c5F)c5ccc2[nH]5)C=C4)C=C3)cc1
REMARK SMILES IDX 34 1 33 2 32 3 31 4 30 5 2 6 1 7 3 8 4 9 5 10 6 11 28 12
REMARK SMILES IDX 7 13 8 14 27 15 29 16 9 17 10 18 26 19 11 20 12 21 21 22
REMARK SMILES IDX 25 23 22 24 24 25 23 26 13 27 14 28 15 29 20 30 16 31 19 32
REMARK SMILES IDX 17 33 18 34 35 35 36 36 37 37 38 38 39 39 40 40 41 41 42 42
REMARK SMILES IDX 43 43 104 44 44 45 103 46 45 47 46 48 47 49 97 50 48 51
REMARK SMILES IDX 102 52 96 53 98 54 49 55 101 56 95 57 94 58 50 60 82 61
REMARK SMILES IDX 62 62 81 63 63 64 66 65 80 66 99 67 64 68 65 69 79 71 100 72
REMARK SMILES IDX 67 73 51 74 52 75 60 76 53 77 55 78 61 79 54 80 56 81 57 82
REMARK SMILES IDX 58 83 59 84 83 85 84 86 92 87 85 88 87 89 93 90 86 91 88 92
REMARK SMILES IDX 89 93 90 94 91 95 68 96 69 97 77 98 70 99 72 100 78 101
REMARK SMILES IDX 71 102 73 103 74 104 75 105 76 106
REMARK H PARENT 98 59 66 70
REMARK Flexibility Score: inf
ROOT
ATOM      1  C   UNL     1       2.793  -1.373   1.569  1.00  0.00     0.188 C 
ENDROOT
BRANCH   1   2
ATOM      2  O   UNL     1       4.198  -1.282   1.466  1.00  0.00    -0.376 OA
BRANCH   2   3
ATOM      3  C   UNL     1       4.779  -0.182   0.786  1.00  0.00     0.202 C 
BRANCH   3   4
ATOM      4  C   UNL     1       3.991   1.111   0.618  1.00  0.00     0.261 C 
BRANCH   4   5
ATOM      5  O   UNL     1       2.753   1.132  -0.145  1.00  0.00    -0.463 OA
BRANCH   5   6
ATOM      6  C   UNL     1       2.259   0.503  -1.226  1.00  0.00     0.307 C 
ATOM      7  O   UNL     1       1.138   0.804  -1.635  1.00  0.00    -0.252 OA
BRANCH   6   8
ATOM      8  C   UNL     1       3.018  -0.608  -1.895  1.00  0.00     0.144 C 
BRANCH   8   9
ATOM      9  C   UNL     1       3.780  -0.138  -3.121  1.00  0.00     0.139 C 
BRANCH   9  10
ATOM     10  N   UNL     1       4.979   0.626  -2.768  1.00  0.00    -0.292 N 
ATOM     11  C   UNL     1       4.864   2.003  -2.632  1.00  0.00     0.267 C 
ATOM     12  C   UNL     1       6.233   0.082  -2.612  1.00  0.00     0.148 C 
ATOM     13  O   UNL     1       3.844   2.628  -2.861  1.00  0.00    -0.268 OA
ATOM     14  C   UNL     1       6.172   2.611  -2.253  1.00  0.00     0.093 C 
ATOM     15  S   UNL     1       7.354   1.346  -2.160  1.00  0.00    -0.053 SA
ATOM     16  S   UNL     1       6.713  -1.507  -2.753  1.00  0.00    -0.052 S 
ATOM     17  C   UNL     1       6.427   3.929  -2.188  1.00  0.00     0.069 C 
ATOM     18  C   UNL     1       5.421   5.034  -2.390  1.00  0.00     0.260 C 
ATOM     19  C   UNL     1       7.749   4.539  -2.393  1.00  0.00     0.012 A 
ATOM     20  O   UNL     1       4.282   5.087  -1.966  1.00  0.00    -0.269 OA
ATOM     21  N   UNL     1       6.130   6.031  -3.062  1.00  0.00    -0.303 N 
ATOM     22  C   UNL     1       7.500   5.714  -3.112  1.00  0.00     0.052 A 
ATOM     23  C   UNL     1       9.045   4.154  -2.095  1.00  0.00     0.011 A 
ATOM     24  C   UNL     1       8.530   6.395  -3.730  1.00  0.00     0.027 A 
ATOM     25  C   UNL     1      10.097   4.886  -2.646  1.00  0.00     0.001 A 
ATOM     26  C   UNL     1       9.840   5.973  -3.493  1.00  0.00     0.002 A 
BRANCH  21  27
ATOM     27  C   UNL     1       5.529   7.276  -3.494  1.00  0.00     0.161 C 
BRANCH  27  28
ATOM     28  C   UNL     1       5.755   8.444  -2.548  1.00  0.00    -0.028 A 
ATOM     29  C   UNL     1       6.974   9.141  -2.531  1.00  0.00     0.007 A 
ATOM     30  C   UNL     1       4.742   8.869  -1.675  1.00  0.00     0.007 A 
ATOM     31  C   UNL     1       7.193  10.205  -1.655  1.00  0.00     0.021 A 
ATOM     32  C   UNL     1       4.947   9.956  -0.815  1.00  0.00     0.021 A 
ATOM     33  C   UNL     1       6.176  10.612  -0.802  1.00  0.00     0.041 A 
ATOM     34  Cl  UNL     1       6.442  11.937   0.263  1.00  0.00    -0.084 Cl
ENDBRANCH  27  28
ENDBRANCH  21  27
ENDBRANCH   9  10
ENDBRANCH   8   9
ENDBRANCH   6   8
ENDBRANCH   5   6
ENDBRANCH   4   5
ENDBRANCH   3   4
ENDBRANCH   2   3
ENDBRANCH   1   2
BRANCH   1  35
ATOM     35  C   UNL     1       2.174  -0.867   2.878  1.00  0.00     0.188 C 
BRANCH  35  36
ATOM     36  O   UNL     1       2.982  -0.103   3.762  1.00  0.00    -0.376 OA
BRANCH  36  37
ATOM     37  C   UNL     1       4.195  -0.671   4.251  1.00  0.00     0.202 C 
BRANCH  37  38
ATOM     38  C   UNL     1       4.191  -2.106   4.798  1.00  0.00     0.261 C 
BRANCH  38  39
ATOM     39  O   UNL     1       4.004  -3.112   3.784  1.00  0.00    -0.460 OA
BRANCH  39  40
ATOM     40  C   UNL     1       2.931  -3.928   3.942  1.00  0.00     0.338 C 
ATOM     41  O   UNL     1       2.111  -3.892   4.843  1.00  0.00    -0.246 OA
BRANCH  40  42
ATOM     42  C   UNL     1       2.786  -4.790   2.749  1.00  0.00     0.060 A 
ATOM     43  C   UNL     1       3.826  -5.620   2.327  1.00  0.00     0.016 A 
ATOM     44  C   UNL     1       1.566  -4.776   2.058  1.00  0.00     0.016 A 
ATOM     45  C   UNL     1       3.633  -6.455   1.221  1.00  0.00     0.010 A 
ATOM     46  C   UNL     1       1.388  -5.585   0.933  1.00  0.00     0.010 A 
ATOM     47  C   UNL     1       2.412  -6.449   0.522  1.00  0.00    -0.014 A 
BRANCH  47  48
ATOM     48  C   UNL     1       2.139  -7.487  -0.501  1.00  0.00     0.031 A 
ATOM     49  C   UNL     1       2.330  -7.245  -1.966  1.00  0.00     0.074 A 
ATOM     50  C   UNL     1       1.690  -8.681  -0.072  1.00  0.00     0.049 A 
ATOM     51  N   UNL     1       2.222  -8.097  -2.953  1.00  0.00    -0.248 NA
ATOM     52  C   UNL     1       2.681  -5.880  -2.379  1.00  0.00     0.031 C 
ATOM     53  C   UNL     1       1.414  -9.015   1.326  1.00  0.00     0.029 A 
ATOM     54  N   UNL     1       1.381  -9.825  -0.761  1.00  0.00    -0.354 N 
ATOM     55  C   UNL     1       2.507  -7.383  -4.108  1.00  0.00     0.074 A 
ATOM     56  C   UNL     1       2.762  -6.014  -3.699  1.00  0.00     0.031 C 
ATOM     57  C   UNL     1       0.983 -10.283   1.393  1.00  0.00     0.029 A 
ATOM     58  C   UNL     1       0.952 -10.848   0.047  1.00  0.00     0.049 A 
ATOM     59  H   UNL     1       1.461  -9.904  -1.739  1.00  0.00     0.167 HD
ATOM     60  C   UNL     1       2.579  -7.834  -5.384  1.00  0.00     0.034 A 
ATOM     61  C   UNL     1       0.586 -12.108  -0.253  1.00  0.00     0.034 A 
ATOM     62  C   UNL     1       2.315  -9.193  -5.788  1.00  0.00     0.049 A 
ATOM     63  C   UNL     1       0.661 -12.585  -1.672  1.00  0.00     0.074 A 
ATOM     64  C   UNL     1       2.409  -9.747  -7.054  1.00  0.00     0.029 A 
ATOM     65  N   UNL     1       1.889 -10.207  -4.943  1.00  0.00    -0.354 N 
ATOM     66  N   UNL     1       1.066 -11.933  -2.734  1.00  0.00    -0.248 NA
ATOM     67  C   UNL     1       0.259 -13.974  -1.931  1.00  0.00     0.031 C 
ATOM     68  C   UNL     1       2.029 -11.092  -6.976  1.00  0.00     0.029 A 
ATOM     69  C   UNL     1       1.707 -11.379  -5.660  1.00  0.00     0.049 A 
ATOM     70  H   UNL     1       1.738 -10.108  -3.975  1.00  0.00     0.167 HD
ATOM     71  C   UNL     1       0.975 -12.831  -3.789  1.00  0.00     0.074 A 
ATOM     72  C   UNL     1       0.498 -14.082  -3.233  1.00  0.00     0.031 C 
ATOM     73  C   UNL     1       1.248 -12.627  -5.101  1.00  0.00     0.034 A 
BRANCH  60  74
ATOM     74  C   UNL     1       3.038  -6.865  -6.441  1.00  0.00     0.023 A 
ATOM     75  C   UNL     1       4.412  -6.561  -6.527  1.00  0.00     0.012 A 
ATOM     76  C   UNL     1       2.148  -6.327  -7.390  1.00  0.00     0.148 A 
ATOM     77  C   UNL     1       4.893  -5.722  -7.530  1.00  0.00     0.002 A 
ATOM     78  C   UNL     1       2.640  -5.510  -8.403  1.00  0.00     0.091 A 
ATOM     79  F   UNL     1       0.844  -6.617  -7.282  1.00  0.00    -0.205 F 
ATOM     80  C   UNL     1       4.010  -5.204  -8.472  1.00  0.00     0.022 A 
BRANCH  78  81
ATOM     81  S   UNL     1       1.595  -4.823  -9.694  1.00  0.00     0.127 S 
ATOM     82  O   UNL     1       1.581  -3.406  -9.333  1.00  0.00    -0.237 OA
ATOM     83  O   UNL     1       2.354  -5.136 -10.905  1.00  0.00    -0.237 OA
ATOM     84  O   UNL     1       0.316  -5.509  -9.582  1.00  0.00    -0.744 OA
ENDBRANCH  78  81
ENDBRANCH  60  74
BRANCH  61  85
ATOM     85  C   UNL     1       0.205 -13.014   0.861  1.00  0.00     0.023 A 
ATOM     86  C   UNL     1       1.154 -13.931   1.350  1.00  0.00     0.012 A 
ATOM     87  C   UNL     1      -1.030 -12.869   1.521  1.00  0.00     0.148 A 
ATOM     88  C   UNL     1       0.881 -14.686   2.490  1.00  0.00     0.002 A 
ATOM     89  C   UNL     1      -1.279 -13.597   2.677  1.00  0.00     0.091 A 
ATOM     90  F   UNL     1      -1.905 -11.977   1.036  1.00  0.00    -0.205 F 
ATOM     91  C   UNL     1      -0.328 -14.511   3.159  1.00  0.00     0.022 A 
BRANCH  89  92
ATOM     92  S   UNL     1      -2.756 -13.363   3.671  1.00  0.00     0.127 S 
ATOM     93  O   UNL     1      -3.319 -14.712   3.693  1.00  0.00    -0.237 OA
ATOM     94  O   UNL     1      -2.186 -12.912   4.941  1.00  0.00    -0.237 OA
ATOM     95  O   UNL     1      -3.557 -12.370   2.970  1.00  0.00    -0.744 OA
ENDBRANCH  89  92
ENDBRANCH  61  85
BRANCH  73  96
ATOM     96  C   UNL     1       1.013 -13.773  -6.049  1.00  0.00     0.023 A 
ATOM     97  C   UNL     1      -0.305 -14.076  -6.443  1.00  0.00     0.012 A 
ATOM     98  C   UNL     1       2.087 -14.491  -6.610  1.00  0.00     0.148 A 
ATOM     99  C   UNL     1      -0.553 -15.086  -7.372  1.00  0.00     0.002 A 
ATOM    100  C   UNL     1       1.835 -15.476  -7.560  1.00  0.00     0.091 A 
ATOM    101  F   UNL     1       3.332 -14.194  -6.210  1.00  0.00    -0.205 F 
ATOM    102  C   UNL     1       0.516 -15.778  -7.937  1.00  0.00     0.022 A 
BRANCH 100 103
ATOM    103  S   UNL     1       3.145 -16.380  -8.393  1.00  0.00     0.127 S 
ATOM    104  O   UNL     1       2.969 -17.727  -7.850  1.00  0.00    -0.237 OA
ATOM    105  O   UNL     1       2.773 -16.237  -9.801  1.00  0.00    -0.237 OA
ATOM    106  O   UNL     1       4.390 -15.720  -8.024  1.00  0.00    -0.744 OA
ENDBRANCH 100 103
ENDBRANCH  73  96
ENDBRANCH  47  48
ENDBRANCH  40  42
ENDBRANCH  39  40
ENDBRANCH  38  39
ENDBRANCH  37  38
ENDBRANCH  36  37
ENDBRANCH  35  36
ENDBRANCH   1  35
TORSDOF 24
