REMARK SMILES Cc1cc(C(=O)OCCOCCOCCOC(=O)c2ccc(-c3c4nc(c(-c5cccc(S(=O)(=O)[O-])c5F)c5ccc([nH]5)c(-c5cccc(S(=O)(=O)[O-])c5F)c5nc(c(-c6cccc(S(=O)(=O)[O-])c6F)c6ccc3[nH]6)C=C5)C=C4)cc2)ccc1NC(=O)c1ccc(=O)n(CCOc2ccccc2)n1
REMARK SMILES IDX 10 1 9 2 8 3 7 4 5 5 6 6 4 7 1 8 2 9 3 10 84 11 83 12 82 13
REMARK SMILES IDX 85 14 86 15 87 17 88 18 89 19 103 20 90 21 93 22 91 23 92 24
REMARK SMILES IDX 94 25 95 26 96 27 97 28 98 29 102 30 99 31 101 32 100 33
REMARK SMILES IDX 11 34 12 35 13 36 14 37 15 38 16 39 17 40 18 41 19 42 20 43
REMARK SMILES IDX 81 44 21 45 80 46 22 47 23 48 24 49 74 50 25 51 79 52 73 53
REMARK SMILES IDX 75 54 26 55 78 56 72 57 71 58 27 60 59 61 39 62 58 63 40 64
REMARK SMILES IDX 43 65 57 66 76 67 41 68 42 69 56 71 77 72 44 73 28 74 29 75
REMARK SMILES IDX 37 76 30 77 32 78 38 79 31 80 33 81 34 82 35 83 36 84 60 85
REMARK SMILES IDX 61 86 69 87 62 88 64 89 70 90 63 91 65 92 66 93 67 94 68 95
REMARK SMILES IDX 45 96 46 97 54 98 47 99 49 100 55 101 48 102 50 103 51 104
REMARK SMILES IDX 52 105 53 106
REMARK H PARENT 85 16 75 59 43 70
REMARK Flexibility Score: inf
ROOT
ATOM      1  O   UNL     1      -5.673  -2.838  -2.725  1.00  0.00    -0.376 OA
ENDROOT
BRANCH   1   2
ATOM      2  C   UNL     1      -5.165  -2.699  -1.369  1.00  0.00     0.202 C 
BRANCH   2   3
ATOM      3  C   UNL     1      -4.892  -1.179  -0.855  1.00  0.00     0.261 C 
BRANCH   3   4
ATOM      4  O   UNL     1      -3.539  -0.517  -0.370  1.00  0.00    -0.460 OA
BRANCH   4   5
ATOM      5  C   UNL     1      -2.408  -0.624   0.401  1.00  0.00     0.338 C 
ATOM      6  O   UNL     1      -2.077  -1.387   1.283  1.00  0.00    -0.246 OA
BRANCH   5   7
ATOM      7  C   UNL     1      -1.240   0.142  -0.055  1.00  0.00     0.060 A 
ATOM      8  C   UNL     1       2.485   0.560   0.736  1.00  0.00     0.046 C 
ATOM      9  C   UNL     1       1.088   0.842   0.264  1.00  0.00    -0.027 A 
ATOM     10  C   UNL     1       0.032  -0.021   0.563  1.00  0.00     0.021 A 
ATOM     11  C   UNL     1       0.768   1.901  -0.572  1.00  0.00     0.044 A 
ATOM     12  C   UNL     1      -0.293   1.773  -1.467  1.00  0.00     0.027 A 
ATOM     13  C   UNL     1      -1.341   0.925  -1.177  1.00  0.00     0.018 A 
BRANCH  11  14
ATOM     14  N   UNL     1       1.264   3.186  -0.274  1.00  0.00    -0.320 N 
ATOM     15  C   UNL     1       0.457   4.306  -0.054  1.00  0.00     0.276 C 
ATOM     16  H   UNL     1       2.240   3.302  -0.216  1.00  0.00     0.170 HD
ATOM     17  O   UNL     1       0.922   5.414   0.195  1.00  0.00    -0.267 OA
BRANCH  15  18
ATOM     18  C   UNL     1      -1.070   4.144  -0.128  1.00  0.00     0.149 A 
ATOM     19  C   UNL     1      -1.664   4.441  -1.448  1.00  0.00     0.042 A 
ATOM     20  N   UNL     1      -1.741   3.727   0.906  1.00  0.00    -0.164 NA
ATOM     21  C   UNL     1      -2.866   3.909  -1.677  1.00  0.00     0.076 A 
ATOM     22  N   UNL     1      -3.078   3.362   0.675  1.00  0.00    -0.226 N 
ATOM     23  C   UNL     1      -3.613   3.213  -0.602  1.00  0.00     0.266 A 
ATOM     24  O   UNL     1      -4.636   2.613  -0.914  1.00  0.00    -0.268 OA
BRANCH  22  25
ATOM     25  C   UNL     1      -3.919   3.082   1.846  1.00  0.00     0.190 C 
BRANCH  25  26
ATOM     26  C   UNL     1      -4.467   4.367   2.493  1.00  0.00     0.253 C 
BRANCH  26  27
ATOM     27  O   UNL     1      -5.616   4.926   1.846  1.00  0.00    -0.492 OA
BRANCH  27  28
ATOM     28  C   UNL     1      -5.501   5.826   0.833  1.00  0.00     0.119 A 
ATOM     29  C   UNL     1      -6.712   6.346   0.368  1.00  0.00     0.046 A 
ATOM     30  C   UNL     1      -4.325   6.227   0.213  1.00  0.00     0.046 A 
ATOM     31  C   UNL     1      -6.749   7.195  -0.742  1.00  0.00     0.004 A 
ATOM     32  C   UNL     1      -4.359   7.019  -0.940  1.00  0.00     0.004 A 
ATOM     33  C   UNL     1      -5.573   7.500  -1.421  1.00  0.00     0.000 A 
ENDBRANCH  27  28
ENDBRANCH  26  27
ENDBRANCH  25  26
ENDBRANCH  22  25
ENDBRANCH  15  18
ENDBRANCH  11  14
ENDBRANCH   5   7
ENDBRANCH   4   5
ENDBRANCH   3   4
ENDBRANCH   2   3
ENDBRANCH   1   2
BRANCH   1  34
ATOM     34  C   UNL     1      -4.594  -2.898  -3.642  1.00  0.00     0.188 C 
BRANCH  34  35
ATOM     35  C   UNL     1      -4.961  -3.029  -5.115  1.00  0.00     0.188 C 
BRANCH  35  36
ATOM     36  O   UNL     1      -5.097  -4.332  -5.689  1.00  0.00    -0.376 OA
BRANCH  36  37
ATOM     37  C   UNL     1      -4.345  -5.403  -5.126  1.00  0.00     0.202 C 
BRANCH  37  38
ATOM     38  C   UNL     1      -2.796  -5.381  -5.252  1.00  0.00     0.261 C 
BRANCH  38  39
ATOM     39  O   UNL     1      -2.211  -4.077  -5.083  1.00  0.00    -0.460 OA
BRANCH  39  40
ATOM     40  C   UNL     1      -0.886  -4.065  -4.728  1.00  0.00     0.338 C 
ATOM     41  O   UNL     1       0.019  -4.584  -5.369  1.00  0.00    -0.246 OA
BRANCH  40  42
ATOM     42  C   UNL     1      -0.823  -3.518  -3.348  1.00  0.00     0.060 A 
ATOM     43  C   UNL     1      -0.227  -4.145  -2.275  1.00  0.00     0.016 A 
ATOM     44  C   UNL     1      -1.622  -2.472  -3.027  1.00  0.00     0.016 A 
ATOM     45  C   UNL     1      -0.738  -3.957  -0.948  1.00  0.00     0.010 A 
ATOM     46  C   UNL     1      -2.213  -2.481  -1.748  1.00  0.00     0.010 A 
ATOM     47  C   UNL     1      -1.968  -3.358  -0.679  1.00  0.00    -0.014 A 
BRANCH  47  48
ATOM     48  C   UNL     1      -2.939  -3.806   0.597  1.00  0.00     0.031 A 
ATOM     49  C   UNL     1      -3.887  -2.959   1.629  1.00  0.00     0.074 A 
ATOM     50  C   UNL     1      -2.885  -5.110   0.963  1.00  0.00     0.049 A 
ATOM     51  N   UNL     1      -3.573  -2.354   2.754  1.00  0.00    -0.248 NA
ATOM     52  C   UNL     1      -5.354  -2.843   1.472  1.00  0.00     0.031 C 
ATOM     53  C   UNL     1      -3.497  -5.705   2.148  1.00  0.00     0.029 A 
ATOM     54  N   UNL     1      -2.009  -6.106   0.526  1.00  0.00    -0.354 N 
ATOM     55  C   UNL     1      -4.677  -1.605   3.202  1.00  0.00     0.074 A 
ATOM     56  C   UNL     1      -5.703  -1.788   2.218  1.00  0.00     0.031 C 
ATOM     57  C   UNL     1      -2.684  -6.699   2.555  1.00  0.00     0.029 A 
ATOM     58  C   UNL     1      -1.511  -6.692   1.687  1.00  0.00     0.049 A 
ATOM     59  H   UNL     1      -1.790  -6.343  -0.404  1.00  0.00     0.167 HD
ATOM     60  C   UNL     1      -5.003  -1.363   4.512  1.00  0.00     0.034 A 
ATOM     61  C   UNL     1      -0.203  -6.574   2.069  1.00  0.00     0.034 A 
ATOM     62  C   UNL     1      -4.423  -2.443   5.281  1.00  0.00     0.049 A 
ATOM     63  C   UNL     1      -0.081  -5.958   3.457  1.00  0.00     0.074 A 
ATOM     64  C   UNL     1      -4.884  -3.742   5.434  1.00  0.00     0.029 A 
ATOM     65  N   UNL     1      -3.080  -2.444   5.576  1.00  0.00    -0.354 N 
ATOM     66  N   UNL     1      -1.030  -5.301   4.073  1.00  0.00    -0.248 NA
ATOM     67  C   UNL     1       1.137  -6.051   4.254  1.00  0.00     0.031 C 
ATOM     68  C   UNL     1      -3.757  -4.564   5.668  1.00  0.00     0.029 A 
ATOM     69  C   UNL     1      -2.644  -3.748   5.765  1.00  0.00     0.049 A 
ATOM     70  H   UNL     1      -2.514  -1.642   5.644  1.00  0.00     0.167 HD
ATOM     71  C   UNL     1      -0.553  -4.826   5.272  1.00  0.00     0.074 A 
ATOM     72  C   UNL     1       0.786  -5.380   5.362  1.00  0.00     0.031 C 
ATOM     73  C   UNL     1      -1.252  -3.982   6.092  1.00  0.00     0.034 A 
BRANCH  60  74
ATOM     74  C   UNL     1      -6.283  -0.622   4.937  1.00  0.00     0.023 A 
ATOM     75  C   UNL     1      -7.026  -1.101   6.040  1.00  0.00     0.012 A 
ATOM     76  C   UNL     1      -6.809   0.520   4.273  1.00  0.00     0.148 A 
ATOM     77  C   UNL     1      -8.274  -0.566   6.395  1.00  0.00     0.002 A 
ATOM     78  C   UNL     1      -8.076   1.033   4.608  1.00  0.00     0.091 A 
ATOM     79  F   UNL     1      -6.074   1.097   3.311  1.00  0.00    -0.205 F 
ATOM     80  C   UNL     1      -8.813   0.480   5.661  1.00  0.00     0.022 A 
BRANCH  78  81
ATOM     81  S   UNL     1      -8.916   2.311   3.646  1.00  0.00     0.127 S 
ATOM     82  O   UNL     1     -10.257   1.742   3.475  1.00  0.00    -0.237 OA
ATOM     83  O   UNL     1      -8.864   3.469   4.536  1.00  0.00    -0.237 OA
ATOM     84  O   UNL     1      -8.161   2.422   2.407  1.00  0.00    -0.744 OA
ENDBRANCH  78  81
ENDBRANCH  60  74
BRANCH  61  85
ATOM     85  C   UNL     1       0.858  -6.508   0.987  1.00  0.00     0.023 A 
ATOM     86  C   UNL     1       0.742  -7.423  -0.096  1.00  0.00     0.012 A 
ATOM     87  C   UNL     1       1.825  -5.486   0.860  1.00  0.00     0.148 A 
ATOM     88  C   UNL     1       1.479  -7.282  -1.278  1.00  0.00     0.002 A 
ATOM     89  C   UNL     1       2.549  -5.337  -0.337  1.00  0.00     0.091 A 
ATOM     90  F   UNL     1       1.974  -4.601   1.854  1.00  0.00    -0.205 F 
ATOM     91  C   UNL     1       2.382  -6.236  -1.401  1.00  0.00     0.022 A 
BRANCH  89  92
ATOM     92  S   UNL     1       3.516  -3.840  -0.655  1.00  0.00     0.127 S 
ATOM     93  O   UNL     1       3.550  -3.776  -2.118  1.00  0.00    -0.237 OA
ATOM     94  O   UNL     1       2.736  -2.777  -0.037  1.00  0.00    -0.237 OA
ATOM     95  O   UNL     1       4.792  -4.167  -0.029  1.00  0.00    -0.744 OA
ENDBRANCH  89  92
ENDBRANCH  61  85
BRANCH  73  96
ATOM     96  C   UNL     1      -0.686  -3.245   7.291  1.00  0.00     0.023 A 
ATOM     97  C   UNL     1       0.673  -2.899   7.372  1.00  0.00     0.012 A 
ATOM     98  C   UNL     1      -1.550  -2.686   8.272  1.00  0.00     0.148 A 
ATOM     99  C   UNL     1       1.166  -2.096   8.405  1.00  0.00     0.002 A 
ATOM    100  C   UNL     1      -1.076  -1.771   9.207  1.00  0.00     0.091 A 
ATOM    101  F   UNL     1      -2.847  -3.031   8.306  1.00  0.00    -0.205 F 
ATOM    102  C   UNL     1       0.289  -1.506   9.306  1.00  0.00     0.022 A 
BRANCH 100 103
ATOM    103  S   UNL     1      -2.235  -0.759  10.141  1.00  0.00     0.127 S 
ATOM    104  O   UNL     1      -2.580  -1.628  11.262  1.00  0.00    -0.237 OA
ATOM    105  O   UNL     1      -1.427   0.408  10.503  1.00  0.00    -0.237 OA
ATOM    106  O   UNL     1      -3.301  -0.468   9.190  1.00  0.00    -0.744 OA
ENDBRANCH 100 103
ENDBRANCH  73  96
ENDBRANCH  47  48
ENDBRANCH  40  42
ENDBRANCH  39  40
ENDBRANCH  38  39
ENDBRANCH  37  38
ENDBRANCH  36  37
ENDBRANCH  35  36
ENDBRANCH  34  35
ENDBRANCH   1  34
TORSDOF 26
