REMARK SMILES CN1C(=O)C[C@@H](C(=O)OCCOCCOCCOC(=O)c2ccc(-c3c4nc(c(-c5cccc(S(=O)(=O)[O-])c5F)c5ccc([nH]5)c(-c5cccc(S(=O)(=O)[O-])c5F)c5nc(c(-c6cccc(S(=O)(=O)[O-])c6F)c6ccc3[nH]6)C=C5)C=C4)cc2)C12CCN(C(=O)c1ccccc1-n1cccn1)CC2
REMARK SMILES IDX 14 1 13 2 12 3 11 4 10 5 9 6 7 7 8 8 6 9 1 10 2 11 3 12
REMARK SMILES IDX 84 13 4 14 5 15 85 16 102 17 86 18 101 19 87 20 88 21 89 22
REMARK SMILES IDX 90 23 91 24 95 25 92 26 94 27 93 28 96 29 97 30 100 31 98 32
REMARK SMILES IDX 99 33 15 34 16 35 17 36 18 37 19 38 20 39 21 40 22 41 83 42
REMARK SMILES IDX 23 43 82 44 24 45 25 46 26 47 76 48 27 49 81 50 75 51 77 52
REMARK SMILES IDX 28 53 80 54 74 55 73 56 29 58 61 59 41 60 60 61 42 62 45 63
REMARK SMILES IDX 59 64 78 65 43 66 44 67 58 69 79 70 46 71 30 72 31 73 39 74
REMARK SMILES IDX 32 75 34 76 40 77 33 78 35 79 36 80 37 81 38 82 62 83 63 84
REMARK SMILES IDX 71 85 64 86 66 87 72 88 65 89 67 90 68 91 69 92 70 93 47 94
REMARK SMILES IDX 48 95 56 96 49 97 51 98 57 99 50 100 52 101 53 102 54 103
REMARK SMILES IDX 55 104
REMARK H PARENT 77 57 45 68
REMARK Flexibility Score: inf
ROOT
ATOM      1  C   UNL     1       0.230  -4.228  -4.511  1.00  0.00     0.188 C 
ENDROOT
BRANCH   1   2
ATOM      2  C   UNL     1      -1.018  -5.101  -4.548  1.00  0.00     0.188 C 
BRANCH   2   3
ATOM      3  O   UNL     1      -2.234  -4.507  -4.986  1.00  0.00    -0.376 OA
BRANCH   3   4
ATOM      4  C   UNL     1      -2.330  -3.093  -5.044  1.00  0.00     0.202 C 
BRANCH   4   5
ATOM      5  C   UNL     1      -2.623  -2.375  -3.716  1.00  0.00     0.261 C 
BRANCH   5   6
ATOM      6  O   UNL     1      -1.567  -2.374  -2.714  1.00  0.00    -0.463 OA
BRANCH   6   7
ATOM      7  C   UNL     1      -1.684  -3.331  -1.764  1.00  0.00     0.311 C 
ATOM      8  O   UNL     1      -2.518  -4.232  -1.816  1.00  0.00    -0.252 OA
BRANCH   7   9
ATOM      9  C   UNL     1      -0.840  -3.170  -0.505  1.00  0.00     0.134 C 
ATOM     10  C   UNL     1       1.044   0.035   0.046  1.00  0.00     0.147 C 
ATOM     11  N   UNL     1       0.138  -1.099   0.020  1.00  0.00    -0.339 N 
ATOM     12  C   UNL     1      -1.160  -1.021   0.492  1.00  0.00     0.223 C 
ATOM     13  C   UNL     1       0.541  -2.466  -0.350  1.00  0.00     0.060 C 
ATOM     14  O   UNL     1      -1.725  -0.019   0.904  1.00  0.00    -0.275 OA
ATOM     15  C   UNL     1      -1.753  -2.401   0.471  1.00  0.00     0.118 C 
ATOM     16  C   UNL     1       1.514  -2.470  -1.543  1.00  0.00     0.051 C 
ATOM     17  C   UNL     1       1.301  -3.091   0.872  1.00  0.00     0.051 C 
ATOM     18  C   UNL     1       2.145  -3.835  -1.793  1.00  0.00     0.122 C 
ATOM     19  C   UNL     1       2.011  -4.416   0.579  1.00  0.00     0.122 C 
ATOM     20  N   UNL     1       2.839  -4.356  -0.622  1.00  0.00    -0.338 N 
ATOM     21  C   UNL     1       4.075  -5.034  -0.590  1.00  0.00     0.256 C 
ATOM     22  O   UNL     1       4.505  -5.543   0.447  1.00  0.00    -0.269 OA
BRANCH  21  23
ATOM     23  C   UNL     1       4.936  -5.226  -1.792  1.00  0.00     0.065 A 
ATOM     24  C   UNL     1       5.267  -6.563  -2.092  1.00  0.00     0.016 A 
ATOM     25  C   UNL     1       5.451  -4.211  -2.611  1.00  0.00     0.077 A 
ATOM     26  C   UNL     1       6.025  -6.889  -3.223  1.00  0.00     0.001 A 
ATOM     27  C   UNL     1       6.180  -4.545  -3.772  1.00  0.00     0.029 A 
ATOM     28  C   UNL     1       6.469  -5.879  -4.072  1.00  0.00     0.002 A 
BRANCH  25  29
ATOM     29  N   UNL     1       5.296  -2.843  -2.306  1.00  0.00    -0.240 N 
ATOM     30  C   UNL     1       5.264  -2.248  -1.064  1.00  0.00     0.115 A 
ATOM     31  N   UNL     1       5.168  -1.919  -3.296  1.00  0.00    -0.177 NA
ATOM     32  C   UNL     1       5.010  -0.913  -1.263  1.00  0.00     0.042 A 
ATOM     33  C   UNL     1       4.934  -0.774  -2.655  1.00  0.00     0.135 A 
ENDBRANCH  25  29
ENDBRANCH  21  23
ENDBRANCH   7   9
ENDBRANCH   6   7
ENDBRANCH   5   6
ENDBRANCH   4   5
ENDBRANCH   3   4
ENDBRANCH   2   3
ENDBRANCH   1   2
BRANCH   1  34
ATOM     34  O   UNL     1       0.526  -3.633  -5.767  1.00  0.00    -0.376 OA
BRANCH  34  35
ATOM     35  C   UNL     1       1.900  -3.748  -6.122  1.00  0.00     0.202 C 
BRANCH  35  36
ATOM     36  C   UNL     1       2.123  -5.076  -6.865  1.00  0.00     0.261 C 
BRANCH  36  37
ATOM     37  O   UNL     1       1.881  -6.274  -6.085  1.00  0.00    -0.460 OA
BRANCH  37  38
ATOM     38  C   UNL     1       2.728  -6.421  -5.045  1.00  0.00     0.338 C 
ATOM     39  O   UNL     1       3.579  -5.610  -4.728  1.00  0.00    -0.246 OA
BRANCH  38  40
ATOM     40  C   UNL     1       2.408  -7.572  -4.185  1.00  0.00     0.060 A 
ATOM     41  C   UNL     1       1.947  -7.308  -2.893  1.00  0.00     0.016 A 
ATOM     42  C   UNL     1       2.761  -8.868  -4.538  1.00  0.00     0.016 A 
ATOM     43  C   UNL     1       1.887  -8.305  -1.928  1.00  0.00     0.010 A 
ATOM     44  C   UNL     1       2.656  -9.889  -3.581  1.00  0.00     0.010 A 
ATOM     45  C   UNL     1       2.240  -9.612  -2.263  1.00  0.00    -0.014 A 
BRANCH  45  46
ATOM     46  C   UNL     1       2.196 -10.677  -1.230  1.00  0.00     0.031 A 
ATOM     47  C   UNL     1       3.459 -11.365  -0.798  1.00  0.00     0.074 A 
ATOM     48  C   UNL     1       1.017 -11.031  -0.682  1.00  0.00     0.049 A 
ATOM     49  N   UNL     1       3.607 -12.436  -0.063  1.00  0.00    -0.248 NA
ATOM     50  C   UNL     1       4.726 -10.769  -1.253  1.00  0.00     0.031 C 
ATOM     51  C   UNL     1      -0.273 -10.399  -0.964  1.00  0.00     0.029 A 
ATOM     52  N   UNL     1       0.710 -12.034   0.204  1.00  0.00    -0.354 N 
ATOM     53  C   UNL     1       4.975 -12.678  -0.015  1.00  0.00     0.074 A 
ATOM     54  C   UNL     1       5.616 -11.629  -0.778  1.00  0.00     0.031 C 
ATOM     55  C   UNL     1      -1.236 -11.044  -0.288  1.00  0.00     0.029 A 
ATOM     56  C   UNL     1      -0.643 -12.179   0.410  1.00  0.00     0.049 A 
ATOM     57  H   UNL     1       1.389 -12.594   0.646  1.00  0.00     0.167 HD
ATOM     58  C   UNL     1       5.633 -13.685   0.606  1.00  0.00     0.034 A 
ATOM     59  C   UNL     1      -1.336 -13.151   1.035  1.00  0.00     0.034 A 
ATOM     60  C   UNL     1       4.989 -14.708   1.389  1.00  0.00     0.049 A 
ATOM     61  C   UNL     1      -0.588 -14.293   1.662  1.00  0.00     0.074 A 
ATOM     62  C   UNL     1       5.570 -15.764   2.068  1.00  0.00     0.029 A 
ATOM     63  N   UNL     1       3.622 -14.806   1.593  1.00  0.00    -0.354 N 
ATOM     64  N   UNL     1       0.706 -14.493   1.734  1.00  0.00    -0.248 NA
ATOM     65  C   UNL     1      -1.394 -15.340   2.306  1.00  0.00     0.031 C 
ATOM     66  C   UNL     1       4.550 -16.516   2.661  1.00  0.00     0.029 A 
ATOM     67  C   UNL     1       3.336 -15.912   2.375  1.00  0.00     0.049 A 
ATOM     68  H   UNL     1       2.951 -14.180   1.234  1.00  0.00     0.167 HD
ATOM     69  C   UNL     1       0.870 -15.671   2.453  1.00  0.00     0.074 A 
ATOM     70  C   UNL     1      -0.456 -16.127   2.815  1.00  0.00     0.031 C 
ATOM     71  C   UNL     1       2.014 -16.326   2.769  1.00  0.00     0.034 A 
BRANCH  58  72
ATOM     72  C   UNL     1       7.130 -13.740   0.460  1.00  0.00     0.023 A 
ATOM     73  C   UNL     1       7.941 -12.835   1.173  1.00  0.00     0.012 A 
ATOM     74  C   UNL     1       7.735 -14.725  -0.346  1.00  0.00     0.148 A 
ATOM     75  C   UNL     1       9.331 -12.895   1.066  1.00  0.00     0.002 A 
ATOM     76  C   UNL     1       9.120 -14.803  -0.417  1.00  0.00     0.091 A 
ATOM     77  F   UNL     1       6.944 -15.559  -1.037  1.00  0.00    -0.205 F 
ATOM     78  C   UNL     1       9.920 -13.883   0.281  1.00  0.00     0.022 A 
BRANCH  76  79
ATOM     79  S   UNL     1       9.971 -16.082  -1.348  1.00  0.00     0.127 S 
ATOM     80  O   UNL     1      10.502 -15.320  -2.477  1.00  0.00    -0.237 OA
ATOM     81  O   UNL     1      10.980 -16.541  -0.393  1.00  0.00    -0.237 OA
ATOM     82  O   UNL     1       8.959 -17.074  -1.684  1.00  0.00    -0.744 OA
ENDBRANCH  76  79
ENDBRANCH  58  72
BRANCH  59  83
ATOM     83  C   UNL     1      -2.824 -13.090   1.077  1.00  0.00     0.023 A 
ATOM     84  C   UNL     1      -3.475 -12.868   2.305  1.00  0.00     0.012 A 
ATOM     85  C   UNL     1      -3.594 -13.216  -0.097  1.00  0.00     0.148 A 
ATOM     86  C   UNL     1      -4.867 -12.795   2.366  1.00  0.00     0.002 A 
ATOM     87  C   UNL     1      -4.975 -13.082  -0.038  1.00  0.00     0.091 A 
ATOM     88  F   UNL     1      -2.957 -13.451  -1.253  1.00  0.00    -0.205 F 
ATOM     89  C   UNL     1      -5.616 -12.888   1.195  1.00  0.00     0.022 A 
BRANCH  87  90
ATOM     90  S   UNL     1      -6.000 -13.048  -1.513  1.00  0.00     0.127 S 
ATOM     91  O   UNL     1      -6.668 -14.345  -1.442  1.00  0.00    -0.237 OA
ATOM     92  O   UNL     1      -6.862 -11.895  -1.257  1.00  0.00    -0.237 OA
ATOM     93  O   UNL     1      -5.076 -12.870  -2.626  1.00  0.00    -0.744 OA
ENDBRANCH  87  90
ENDBRANCH  59  83
BRANCH  71  94
ATOM     94  C   UNL     1       1.888 -17.592   3.575  1.00  0.00     0.023 A 
ATOM     95  C   UNL     1       1.397 -18.764   2.966  1.00  0.00     0.012 A 
ATOM     96  C   UNL     1       2.315 -17.636   4.917  1.00  0.00     0.148 A 
ATOM     97  C   UNL     1       1.302 -19.952   3.690  1.00  0.00     0.002 A 
ATOM     98  C   UNL     1       2.263 -18.835   5.617  1.00  0.00     0.091 A 
ATOM     99  F   UNL     1       2.760 -16.505   5.484  1.00  0.00    -0.205 F 
ATOM    100  C   UNL     1       1.745 -19.991   5.010  1.00  0.00     0.022 A 
BRANCH  98 101
ATOM    101  S   UNL     1       2.898 -18.999   7.290  1.00  0.00     0.127 S 
ATOM    102  O   UNL     1       1.665 -19.081   8.070  1.00  0.00    -0.237 OA
ATOM    103  O   UNL     1       3.656 -20.248   7.214  1.00  0.00    -0.237 OA
ATOM    104  O   UNL     1       3.712 -17.814   7.526  1.00  0.00    -0.744 OA
ENDBRANCH  98 101
ENDBRANCH  71  94
ENDBRANCH  45  46
ENDBRANCH  38  40
ENDBRANCH  37  38
ENDBRANCH  36  37
ENDBRANCH  35  36
ENDBRANCH  34  35
ENDBRANCH   1  34
TORSDOF 22
