REMARK SMILES [NH3+][C@@H]1C(=O)N2C(C(=O)OCCOCCOCCOC(=O)c3ccc(-c4c5nc(c(-c6cccc(S(=O)(=O)[O-])c6F)c6ccc([nH]6)c(-c6cccc(S(=O)(=O)[O-])c6F)c6nc(c(-c7cccc(S(=O)(=O)[O-])c7F)c7ccc4[nH]7)C=C6)C=C5)cc3)=CCS[C@@H]12
REMARK SMILES IDX 14 1 13 2 12 3 11 4 10 5 9 6 7 7 8 8 6 9 2 10 3 11 87 12
REMARK SMILES IDX 4 13 5 14 86 15 85 16 84 17 1 18 15 22 16 23 17 24 18 25
REMARK SMILES IDX 19 26 20 27 21 28 22 29 83 30 23 31 82 32 24 33 25 34 26 35
REMARK SMILES IDX 76 36 27 37 81 38 75 39 77 40 28 41 80 42 74 43 73 44 29 46
REMARK SMILES IDX 61 47 41 48 60 49 42 50 45 51 59 52 78 53 43 54 44 55 58 57
REMARK SMILES IDX 79 58 46 59 30 60 31 61 39 62 32 63 34 64 40 65 33 66 35 67
REMARK SMILES IDX 36 68 37 69 38 70 62 71 63 72 71 73 64 74 66 75 72 76 65 77
REMARK SMILES IDX 67 78 68 79 69 80 70 81 47 82 48 83 56 84 49 85 51 86 57 87
REMARK SMILES IDX 50 88 52 89 53 90 54 91 55 92
REMARK H PARENT 1 19 1 20 1 21 77 45 45 56
REMARK Flexibility Score: inf
ROOT
ATOM      1  C   UNL     1       1.425   5.888   1.901  1.00  0.00     0.188 C 
ENDROOT
BRANCH   1   2
ATOM      2  C   UNL     1       2.659   5.957   0.973  1.00  0.00     0.188 C 
BRANCH   2   3
ATOM      3  O   UNL     1       3.152   7.264   0.791  1.00  0.00    -0.376 OA
BRANCH   3   4
ATOM      4  C   UNL     1       2.789   8.009  -0.356  1.00  0.00     0.202 C 
BRANCH   4   5
ATOM      5  C   UNL     1       1.506   7.784  -1.182  1.00  0.00     0.261 C 
BRANCH   5   6
ATOM      6  O   UNL     1       0.644   6.724  -0.768  1.00  0.00    -0.459 OA
BRANCH   6   7
ATOM      7  C   UNL     1       0.524   5.672  -1.623  1.00  0.00     0.354 C 
ATOM      8  O   UNL     1       1.005   5.586  -2.740  1.00  0.00    -0.244 OA
BRANCH   7   9
ATOM      9  C   UNL     1      -0.280   4.596  -0.969  1.00  0.00     0.128 C 
ATOM     10  C   UNL     1       0.606   1.316  -0.907  1.00  0.00     0.305 C 
ATOM     11  C   UNL     1       1.357   2.682  -1.197  1.00  0.00     0.289 C 
ATOM     12  C   UNL     1      -0.383   2.255  -0.144  1.00  0.00     0.217 C 
ATOM     13  O   UNL     1       2.457   3.056  -1.553  1.00  0.00    -0.267 OA
ATOM     14  N   UNL     1       0.224   3.341  -0.895  1.00  0.00    -0.282 N 
ATOM     15  S   UNL     1      -2.136   2.159  -0.588  1.00  0.00    -0.126 SA
ATOM     16  C   UNL     1      -2.479   3.845   0.029  1.00  0.00     0.101 C 
ATOM     17  C   UNL     1      -1.521   4.862  -0.526  1.00  0.00     0.018 C 
BRANCH  10  18
ATOM     18  N   UNL     1       1.277   0.413   0.051  1.00  0.00    -0.345 N 
ATOM     19  H   UNL     1       1.921  -0.197  -0.452  1.00  0.00     0.345 HD
ATOM     20  H   UNL     1       0.578  -0.152   0.532  1.00  0.00     0.345 HD
ATOM     21  H   UNL     1       1.796   0.967   0.733  1.00  0.00     0.345 HD
ENDBRANCH  10  18
ENDBRANCH   7   9
ENDBRANCH   6   7
ENDBRANCH   5   6
ENDBRANCH   4   5
ENDBRANCH   3   4
ENDBRANCH   2   3
ENDBRANCH   1   2
BRANCH   1  22
ATOM     22  O   UNL     1       0.859   7.072   2.451  1.00  0.00    -0.376 OA
BRANCH  22  23
ATOM     23  C   UNL     1       1.718   8.031   3.055  1.00  0.00     0.202 C 
BRANCH  23  24
ATOM     24  C   UNL     1       2.754   7.614   4.115  1.00  0.00     0.261 C 
BRANCH  24  25
ATOM     25  O   UNL     1       3.505   6.425   3.832  1.00  0.00    -0.460 OA
BRANCH  25  26
ATOM     26  C   UNL     1       3.188   5.343   4.586  1.00  0.00     0.338 C 
ATOM     27  O   UNL     1       2.351   5.279   5.471  1.00  0.00    -0.246 OA
BRANCH  26  28
ATOM     28  C   UNL     1       3.882   4.155   4.051  1.00  0.00     0.060 A 
ATOM     29  C   UNL     1       3.107   3.105   3.535  1.00  0.00     0.016 A 
ATOM     30  C   UNL     1       5.272   4.054   4.096  1.00  0.00     0.016 A 
ATOM     31  C   UNL     1       3.720   1.943   3.073  1.00  0.00     0.010 A 
ATOM     32  C   UNL     1       5.883   2.875   3.659  1.00  0.00     0.010 A 
ATOM     33  C   UNL     1       5.108   1.806   3.172  1.00  0.00    -0.014 A 
BRANCH  33  34
ATOM     34  C   UNL     1       5.734   0.485   2.927  1.00  0.00     0.031 A 
ATOM     35  C   UNL     1       6.070  -0.383   4.109  1.00  0.00     0.074 A 
ATOM     36  C   UNL     1       6.010   0.070   1.679  1.00  0.00     0.049 A 
ATOM     37  N   UNL     1       6.666  -1.545   4.141  1.00  0.00    -0.248 NA
ATOM     38  C   UNL     1       5.681   0.133   5.432  1.00  0.00     0.031 C 
ATOM     39  C   UNL     1       5.725   0.816   0.455  1.00  0.00     0.029 A 
ATOM     40  N   UNL     1       6.629  -1.075   1.242  1.00  0.00    -0.354 N 
ATOM     41  C   UNL     1       6.753  -1.887   5.485  1.00  0.00     0.074 A 
ATOM     42  C   UNL     1       6.157  -0.805   6.238  1.00  0.00     0.031 C 
ATOM     43  C   UNL     1       6.211   0.129  -0.595  1.00  0.00     0.029 A 
ATOM     44  C   UNL     1       6.859  -1.090  -0.113  1.00  0.00     0.049 A 
ATOM     45  H   UNL     1       6.884  -1.814   1.841  1.00  0.00     0.167 HD
ATOM     46  C   UNL     1       7.271  -3.006   6.044  1.00  0.00     0.034 A 
ATOM     47  C   UNL     1       7.541  -1.973  -0.870  1.00  0.00     0.034 A 
ATOM     48  C   UNL     1       7.857  -4.084   5.294  1.00  0.00     0.049 A 
ATOM     49  C   UNL     1       8.141  -3.195  -0.222  1.00  0.00     0.074 A 
ATOM     50  C   UNL     1       8.368  -5.281   5.763  1.00  0.00     0.029 A 
ATOM     51  N   UNL     1       8.031  -4.087   3.919  1.00  0.00    -0.354 N 
ATOM     52  N   UNL     1       8.108  -3.566   1.035  1.00  0.00    -0.248 NA
ATOM     53  C   UNL     1       8.844  -4.139  -1.105  1.00  0.00     0.031 C 
ATOM     54  C   UNL     1       8.879  -5.994   4.674  1.00  0.00     0.029 A 
ATOM     55  C   UNL     1       8.653  -5.258   3.522  1.00  0.00     0.049 A 
ATOM     56  H   UNL     1       7.752  -3.362   3.313  1.00  0.00     0.167 HD
ATOM     57  C   UNL     1       8.748  -4.801   1.088  1.00  0.00     0.074 A 
ATOM     58  C   UNL     1       9.144  -5.123  -0.267  1.00  0.00     0.031 C 
ATOM     59  C   UNL     1       8.994  -5.592   2.163  1.00  0.00     0.034 A 
BRANCH  46  60
ATOM     60  C   UNL     1       7.210  -3.127   7.545  1.00  0.00     0.023 A 
ATOM     61  C   UNL     1       5.971  -3.352   8.178  1.00  0.00     0.012 A 
ATOM     62  C   UNL     1       8.382  -3.059   8.323  1.00  0.00     0.148 A 
ATOM     63  C   UNL     1       5.893  -3.468   9.565  1.00  0.00     0.002 A 
ATOM     64  C   UNL     1       8.302  -3.223   9.701  1.00  0.00     0.091 A 
ATOM     65  F   UNL     1       9.548  -2.821   7.706  1.00  0.00    -0.205 F 
ATOM     66  C   UNL     1       7.058  -3.414  10.325  1.00  0.00     0.022 A 
BRANCH  64  67
ATOM     67  S   UNL     1       9.754  -3.248  10.758  1.00  0.00     0.127 S 
ATOM     68  O   UNL     1       9.628  -1.974  11.464  1.00  0.00    -0.237 OA
ATOM     69  O   UNL     1       9.512  -4.430  11.585  1.00  0.00    -0.237 OA
ATOM     70  O   UNL     1      10.899  -3.357   9.864  1.00  0.00    -0.744 OA
ENDBRANCH  64  67
ENDBRANCH  46  60
BRANCH  47  71
ATOM     71  C   UNL     1       7.670  -1.748  -2.337  1.00  0.00     0.023 A 
ATOM     72  C   UNL     1       6.989  -2.595  -3.233  1.00  0.00     0.012 A 
ATOM     73  C   UNL     1       8.454  -0.695  -2.848  1.00  0.00     0.148 A 
ATOM     74  C   UNL     1       7.108  -2.415  -4.611  1.00  0.00     0.002 A 
ATOM     75  C   UNL     1       8.527  -0.489  -4.220  1.00  0.00     0.091 A 
ATOM     76  F   UNL     1       9.108   0.088  -1.978  1.00  0.00    -0.205 F 
ATOM     77  C   UNL     1       7.868  -1.357  -5.104  1.00  0.00     0.022 A 
BRANCH  75  78
ATOM     78  S   UNL     1       9.395   0.906  -4.945  1.00  0.00     0.127 S 
ATOM     79  O   UNL     1      10.508   0.245  -5.623  1.00  0.00    -0.237 OA
ATOM     80  O   UNL     1       8.377   1.463  -5.835  1.00  0.00    -0.237 OA
ATOM     81  O   UNL     1       9.761   1.768  -3.830  1.00  0.00    -0.744 OA
ENDBRANCH  75  78
ENDBRANCH  47  71
BRANCH  59  82
ATOM     82  C   UNL     1       9.684  -6.912   1.923  1.00  0.00     0.023 A 
ATOM     83  C   UNL     1      11.053  -6.943   1.591  1.00  0.00     0.012 A 
ATOM     84  C   UNL     1       8.992  -8.126   2.109  1.00  0.00     0.148 A 
ATOM     85  C   UNL     1      11.713  -8.160   1.415  1.00  0.00     0.002 A 
ATOM     86  C   UNL     1       9.667  -9.334   1.983  1.00  0.00     0.091 A 
ATOM     87  F   UNL     1       7.685  -8.077   2.410  1.00  0.00    -0.205 F 
ATOM     88  C   UNL     1      11.024  -9.353   1.623  1.00  0.00     0.022 A 
BRANCH  86  89
ATOM     89  S   UNL     1       8.888 -10.915   2.328  1.00  0.00     0.127 S 
ATOM     90  O   UNL     1       8.765 -11.486   0.988  1.00  0.00    -0.237 OA
ATOM     91  O   UNL     1       9.880 -11.570   3.181  1.00  0.00    -0.237 OA
ATOM     92  O   UNL     1       7.629 -10.607   2.993  1.00  0.00    -0.744 OA
ENDBRANCH  86  89
ENDBRANCH  59  82
ENDBRANCH  33  34
ENDBRANCH  26  28
ENDBRANCH  25  26
ENDBRANCH  24  25
ENDBRANCH  23  24
ENDBRANCH  22  23
ENDBRANCH   1  22
TORSDOF 21
