REMARK SMILES CC(C)N1C[C@@H](C(=O)N2CCC(C(=O)OCCOCCOCCOC(=O)c3ccc(-c4c5nc(c(-c6cccc(S(=O)(=O)[O-])c6F)c6ccc([nH]6)c(-c6cccc(S(=O)(=O)[O-])c6F)c6nc(c(-c7cccc(S(=O)(=O)[O-])c7F)c7ccc4[nH]7)C=C6)C=C5)cc3)CC2)CC1=O
REMARK SMILES IDX 20 1 19 2 18 3 17 4 16 5 15 6 13 7 14 8 12 9 7 10 8 11 9 12
REMARK SMILES IDX 10 13 91 14 11 15 90 16 6 17 4 18 5 19 93 20 92 21 94 22
REMARK SMILES IDX 2 23 1 24 3 25 21 26 22 27 23 28 24 29 25 30 26 31 27 32
REMARK SMILES IDX 28 33 89 34 29 35 88 36 30 37 31 38 32 39 82 40 33 41 87 42
REMARK SMILES IDX 81 43 83 44 34 45 86 46 80 47 79 48 35 50 67 51 47 52 66 53
REMARK SMILES IDX 48 54 51 55 65 56 84 57 49 58 50 59 64 61 85 62 52 63 36 64
REMARK SMILES IDX 37 65 45 66 38 67 40 68 46 69 39 70 41 71 42 72 43 73 44 74
REMARK SMILES IDX 68 75 69 76 77 77 70 78 72 79 78 80 71 81 73 82 74 83 75 84
REMARK SMILES IDX 76 85 53 86 54 87 62 88 55 89 57 90 63 91 56 92 58 93 59 94
REMARK SMILES IDX 60 95 61 96
REMARK H PARENT 83 49 51 60
REMARK Flexibility Score: inf
ROOT
ATOM      1  C   UNL     1      -8.085  -4.689   3.930  1.00  0.00     0.188 C 
ENDROOT
BRANCH   1   2
ATOM      2  C   UNL     1      -8.218  -3.466   4.836  1.00  0.00     0.188 C 
BRANCH   2   3
ATOM      3  O   UNL     1      -9.547  -3.046   5.119  1.00  0.00    -0.376 OA
BRANCH   3   4
ATOM      4  C   UNL     1     -10.387  -2.741   4.007  1.00  0.00     0.202 C 
BRANCH   4   5
ATOM      5  C   UNL     1      -9.915  -1.627   3.060  1.00  0.00     0.261 C 
BRANCH   5   6
ATOM      6  O   UNL     1      -8.604  -1.828   2.489  1.00  0.00    -0.463 OA
BRANCH   6   7
ATOM      7  C   UNL     1      -7.659  -0.937   2.880  1.00  0.00     0.309 C 
ATOM      8  O   UNL     1      -7.870   0.019   3.621  1.00  0.00    -0.252 OA
BRANCH   7   9
ATOM      9  C   UNL     1      -6.258  -1.237   2.371  1.00  0.00     0.103 C 
ATOM     10  C   UNL     1      -4.235  -1.095  -1.106  1.00  0.00     0.227 C 
ATOM     11  O   UNL     1      -4.941  -1.820  -1.816  1.00  0.00    -0.274 OA
ATOM     12  N   UNL     1      -4.264  -1.215   0.272  1.00  0.00    -0.342 N 
ATOM     13  C   UNL     1      -4.667  -2.493   0.856  1.00  0.00     0.120 C 
ATOM     14  C   UNL     1      -4.327  -0.102   1.206  1.00  0.00     0.120 C 
ATOM     15  C   UNL     1      -6.086  -2.439   1.429  1.00  0.00     0.037 C 
ATOM     16  C   UNL     1      -5.755   0.051   1.707  1.00  0.00     0.037 C 
BRANCH  10  17
ATOM     17  C   UNL     1      -3.155  -0.260  -1.787  1.00  0.00     0.107 C 
ATOM     18  N   UNL     1      -0.889   0.308  -1.587  1.00  0.00    -0.339 N 
ATOM     19  C   UNL     1      -1.789  -0.799  -1.387  1.00  0.00     0.133 C 
ATOM     20  C   UNL     1      -1.560   1.515  -1.690  1.00  0.00     0.223 C 
ATOM     21  C   UNL     1      -3.046   1.251  -1.645  1.00  0.00     0.115 C 
ATOM     22  O   UNL     1      -1.056   2.624  -1.772  1.00  0.00    -0.275 OA
BRANCH  18  23
ATOM     23  C   UNL     1       0.563   0.191  -1.454  1.00  0.00     0.078 C 
ATOM     24  C   UNL     1       0.961  -0.077  -0.002  1.00  0.00     0.031 C 
ATOM     25  C   UNL     1       1.138  -0.875  -2.385  1.00  0.00     0.031 C 
ENDBRANCH  18  23
ENDBRANCH  10  17
ENDBRANCH   7   9
ENDBRANCH   6   7
ENDBRANCH   5   6
ENDBRANCH   4   5
ENDBRANCH   3   4
ENDBRANCH   2   3
ENDBRANCH   1   2
BRANCH   1  26
ATOM     26  O   UNL     1      -8.932  -4.712   2.796  1.00  0.00    -0.376 OA
BRANCH  26  27
ATOM     27  C   UNL     1      -9.164  -5.970   2.163  1.00  0.00     0.202 C 
BRANCH  27  28
ATOM     28  C   UNL     1      -9.460  -7.220   3.029  1.00  0.00     0.261 C 
BRANCH  28  29
ATOM     29  O   UNL     1      -8.521  -7.554   4.075  1.00  0.00    -0.460 OA
BRANCH  29  30
ATOM     30  C   UNL     1      -7.205  -7.625   3.754  1.00  0.00     0.338 C 
ATOM     31  O   UNL     1      -6.749  -7.684   2.630  1.00  0.00    -0.246 OA
BRANCH  30  32
ATOM     32  C   UNL     1      -6.391  -7.324   4.976  1.00  0.00     0.060 A 
ATOM     33  C   UNL     1      -5.266  -6.498   4.824  1.00  0.00     0.016 A 
ATOM     34  C   UNL     1      -6.748  -7.761   6.256  1.00  0.00     0.016 A 
ATOM     35  C   UNL     1      -4.476  -6.149   5.926  1.00  0.00     0.010 A 
ATOM     36  C   UNL     1      -5.942  -7.428   7.359  1.00  0.00     0.010 A 
ATOM     37  C   UNL     1      -4.779  -6.651   7.197  1.00  0.00    -0.014 A 
BRANCH  37  38
ATOM     38  C   UNL     1      -3.777  -6.552   8.298  1.00  0.00     0.031 A 
ATOM     39  C   UNL     1      -2.912  -7.756   8.580  1.00  0.00     0.074 A 
ATOM     40  C   UNL     1      -3.610  -5.435   9.033  1.00  0.00     0.049 A 
ATOM     41  N   UNL     1      -2.016  -7.940   9.515  1.00  0.00    -0.248 NA
ATOM     42  C   UNL     1      -3.086  -8.909   7.681  1.00  0.00     0.031 C 
ATOM     43  C   UNL     1      -4.347  -4.185   8.862  1.00  0.00     0.029 A 
ATOM     44  N   UNL     1      -2.772  -5.186  10.097  1.00  0.00    -0.354 N 
ATOM     45  C   UNL     1      -1.541  -9.235   9.336  1.00  0.00     0.074 A 
ATOM     46  C   UNL     1      -2.258  -9.796   8.212  1.00  0.00     0.031 C 
ATOM     47  C   UNL     1      -3.954  -3.313   9.809  1.00  0.00     0.029 A 
ATOM     48  C   UNL     1      -2.960  -3.950  10.674  1.00  0.00     0.049 A 
ATOM     49  H   UNL     1      -2.101  -5.832  10.416  1.00  0.00     0.167 HD
ATOM     50  C   UNL     1      -0.584  -9.899  10.028  1.00  0.00     0.034 A 
ATOM     51  C   UNL     1      -2.417  -3.407  11.785  1.00  0.00     0.034 A 
ATOM     52  C   UNL     1       0.141  -9.350  11.142  1.00  0.00     0.049 A 
ATOM     53  C   UNL     1      -1.397  -4.191  12.579  1.00  0.00     0.074 A 
ATOM     54  C   UNL     1       1.143  -9.943  11.890  1.00  0.00     0.029 A 
ATOM     55  N   UNL     1      -0.064  -8.089  11.677  1.00  0.00    -0.354 N 
ATOM     56  N   UNL     1      -0.893  -5.377  12.340  1.00  0.00    -0.248 NA
ATOM     57  C   UNL     1      -0.849  -3.545  13.784  1.00  0.00     0.031 C 
ATOM     58  C   UNL     1       1.520  -9.053  12.900  1.00  0.00     0.029 A 
ATOM     59  C   UNL     1       0.785  -7.888  12.752  1.00  0.00     0.049 A 
ATOM     60  H   UNL     1      -0.717  -7.433  11.343  1.00  0.00     0.167 HD
ATOM     61  C   UNL     1       0.060  -5.597  13.333  1.00  0.00     0.074 A 
ATOM     62  C   UNL     1       0.076  -4.415  14.166  1.00  0.00     0.031 C 
ATOM     63  C   UNL     1       0.842  -6.685  13.541  1.00  0.00     0.034 A 
BRANCH  50  64
ATOM     64  C   UNL     1      -0.250 -11.300   9.585  1.00  0.00     0.023 A 
ATOM     65  C   UNL     1       0.446 -11.503   8.376  1.00  0.00     0.012 A 
ATOM     66  C   UNL     1      -0.577 -12.409  10.389  1.00  0.00     0.148 A 
ATOM     67  C   UNL     1       0.780 -12.790   7.956  1.00  0.00     0.002 A 
ATOM     68  C   UNL     1      -0.199 -13.685   9.988  1.00  0.00     0.091 A 
ATOM     69  F   UNL     1      -1.255 -12.197  11.526  1.00  0.00    -0.205 F 
ATOM     70  C   UNL     1       0.468 -13.878   8.767  1.00  0.00     0.022 A 
BRANCH  68  71
ATOM     71  S   UNL     1      -0.482 -15.144  10.996  1.00  0.00     0.127 S 
ATOM     72  O   UNL     1      -1.477 -15.863  10.199  1.00  0.00    -0.237 OA
ATOM     73  O   UNL     1       0.843 -15.762  11.018  1.00  0.00    -0.237 OA
ATOM     74  O   UNL     1      -0.952 -14.659  12.286  1.00  0.00    -0.744 OA
ENDBRANCH  68  71
ENDBRANCH  50  64
BRANCH  51  75
ATOM     75  C   UNL     1      -2.811  -2.037  12.232  1.00  0.00     0.023 A 
ATOM     76  C   UNL     1      -1.859  -0.996  12.217  1.00  0.00     0.012 A 
ATOM     77  C   UNL     1      -4.109  -1.768  12.707  1.00  0.00     0.148 A 
ATOM     78  C   UNL     1      -2.181   0.271  12.706  1.00  0.00     0.002 A 
ATOM     79  C   UNL     1      -4.440  -0.488  13.137  1.00  0.00     0.091 A 
ATOM     80  F   UNL     1      -4.994  -2.775  12.736  1.00  0.00    -0.205 F 
ATOM     81  C   UNL     1      -3.473   0.528  13.157  1.00  0.00     0.022 A 
BRANCH  79  82
ATOM     82  S   UNL     1      -6.108  -0.036  13.627  1.00  0.00     0.127 S 
ATOM     83  O   UNL     1      -5.948   0.187  15.061  1.00  0.00    -0.237 OA
ATOM     84  O   UNL     1      -6.334   1.174  12.835  1.00  0.00    -0.237 OA
ATOM     85  O   UNL     1      -6.947  -1.166  13.253  1.00  0.00    -0.744 OA
ENDBRANCH  79  82
ENDBRANCH  51  75
BRANCH  63  86
ATOM     86  C   UNL     1       1.837  -6.638  14.675  1.00  0.00     0.023 A 
ATOM     87  C   UNL     1       1.395  -6.691  16.012  1.00  0.00     0.012 A 
ATOM     88  C   UNL     1       3.222  -6.618  14.409  1.00  0.00     0.148 A 
ATOM     89  C   UNL     1       2.312  -6.686  17.064  1.00  0.00     0.002 A 
ATOM     90  C   UNL     1       4.130  -6.667  15.460  1.00  0.00     0.091 A 
ATOM     91  F   UNL     1       3.626  -6.554  13.132  1.00  0.00    -0.205 F 
ATOM     92  C   UNL     1       3.678  -6.686  16.789  1.00  0.00     0.022 A 
BRANCH  90  93
ATOM     93  S   UNL     1       5.905  -6.770  15.200  1.00  0.00     0.127 S 
ATOM     94  O   UNL     1       6.351  -5.456  15.660  1.00  0.00    -0.237 OA
ATOM     95  O   UNL     1       6.282  -7.882  16.074  1.00  0.00    -0.237 OA
ATOM     96  O   UNL     1       6.091  -7.027  13.778  1.00  0.00    -0.744 OA
ENDBRANCH  90  93
ENDBRANCH  63  86
ENDBRANCH  37  38
ENDBRANCH  30  32
ENDBRANCH  29  30
ENDBRANCH  28  29
ENDBRANCH  27  28
ENDBRANCH  26  27
ENDBRANCH   1  26
TORSDOF 22
