REMARK SMILES O=C(OCCOCCOCCOC(=O)[C@@]12C[C@H]3C[C@@H](C1)C[C@](n1cc([N+](=O)[O-])cn1)(C3)C2)c1ccc(-c2c3nc(c(-c4cccc(S(=O)(=O)[O-])c4F)c4ccc([nH]4)c(-c4cccc(S(=O)(=O)[O-])c4F)c4nc(c(-c5cccc(S(=O)(=O)[O-])c5F)c5ccc2[nH]5)C=C4)C=C3)cc1
REMARK SMILES IDX 7 1 6 2 5 3 4 4 3 5 2 6 1 7 33 8 34 9 95 10 35 11 94 12
REMARK SMILES IDX 36 13 37 14 38 15 88 16 39 17 93 18 87 19 89 20 40 21 92 22
REMARK SMILES IDX 86 23 85 24 41 26 73 27 53 28 72 29 54 30 57 31 71 32 90 33
REMARK SMILES IDX 55 34 56 35 70 37 91 38 58 39 42 40 43 41 51 42 44 43 46 44
REMARK SMILES IDX 52 45 45 46 47 47 48 48 49 49 50 50 74 51 75 52 83 53 76 54
REMARK SMILES IDX 78 55 84 56 77 57 79 58 80 59 81 60 82 61 59 62 60 63 68 64
REMARK SMILES IDX 61 65 63 66 69 67 62 68 64 69 65 70 66 71 67 72 8 73 9 74
REMARK SMILES IDX 10 75 11 76 12 77 13 78 14 79 15 80 16 81 20 82 32 83 17 84
REMARK SMILES IDX 19 85 22 86 18 87 31 88 21 89 23 90 24 91 30 92 25 93 29 94
REMARK SMILES IDX 26 95 27 96 28 97
REMARK H PARENT 89 25 57 36
REMARK Flexibility Score: inf
ROOT
ATOM      1  C   UNL     1       2.774  -1.222  -0.424  1.00  0.00     0.188 C 
ENDROOT
BRANCH   1   2
ATOM      2  O   UNL     1       4.140  -1.109  -0.756  1.00  0.00    -0.376 OA
BRANCH   2   3
ATOM      3  C   UNL     1       5.048  -0.608   0.231  1.00  0.00     0.202 C 
BRANCH   3   4
ATOM      4  C   UNL     1       4.716   0.357   1.403  1.00  0.00     0.261 C 
BRANCH   4   5
ATOM      5  O   UNL     1       3.392   0.466   1.948  1.00  0.00    -0.460 OA
BRANCH   5   6
ATOM      6  C   UNL     1       2.272   1.065   1.486  1.00  0.00     0.338 C 
ATOM      7  O   UNL     1       1.188   0.707   1.947  1.00  0.00    -0.246 OA
BRANCH   6   8
ATOM      8  C   UNL     1       2.260   2.104   0.426  1.00  0.00     0.060 A 
ATOM      9  C   UNL     1       3.369   2.863   0.064  1.00  0.00     0.016 A 
ATOM     10  C   UNL     1       0.989   2.456  -0.079  1.00  0.00     0.016 A 
ATOM     11  C   UNL     1       3.189   4.059  -0.602  1.00  0.00     0.010 A 
ATOM     12  C   UNL     1       0.804   3.654  -0.749  1.00  0.00     0.010 A 
ATOM     13  C   UNL     1       1.900   4.486  -0.914  1.00  0.00    -0.014 A 
BRANCH  13  14
ATOM     14  C   UNL     1       1.768   5.850  -1.385  1.00  0.00     0.031 A 
ATOM     15  C   UNL     1       2.335   6.092  -2.726  1.00  0.00     0.074 A 
ATOM     16  C   UNL     1       1.212   6.821  -0.637  1.00  0.00     0.049 A 
ATOM     17  N   UNL     1       3.440   6.698  -3.011  1.00  0.00    -0.248 NA
ATOM     18  C   UNL     1       1.683   5.445  -3.868  1.00  0.00     0.031 C 
ATOM     19  C   UNL     1       0.405   6.673   0.577  1.00  0.00     0.029 A 
ATOM     20  N   UNL     1       1.161   8.158  -0.885  1.00  0.00    -0.354 N 
ATOM     21  C   UNL     1       3.494   6.724  -4.401  1.00  0.00     0.074 A 
ATOM     22  C   UNL     1       2.511   5.776  -4.859  1.00  0.00     0.031 C 
ATOM     23  C   UNL     1      -0.258   7.830   0.805  1.00  0.00     0.029 A 
ATOM     24  C   UNL     1       0.188   8.826  -0.153  1.00  0.00     0.049 A 
ATOM     25  H   UNL     1       1.758   8.610  -1.524  1.00  0.00     0.167 HD
ATOM     26  C   UNL     1       4.158   7.711  -5.061  1.00  0.00     0.034 A 
ATOM     27  C   UNL     1      -0.270  10.080  -0.387  1.00  0.00     0.034 A 
ATOM     28  C   UNL     1       5.048   8.432  -4.187  1.00  0.00     0.049 A 
ATOM     29  C   UNL     1       0.760  10.791  -1.181  1.00  0.00     0.074 A 
ATOM     30  C   UNL     1       6.122   8.100  -3.386  1.00  0.00     0.029 A 
ATOM     31  N   UNL     1       4.642   9.680  -3.781  1.00  0.00    -0.354 N 
ATOM     32  N   UNL     1       1.923  11.138  -0.706  1.00  0.00    -0.248 NA
ATOM     33  C   UNL     1       0.660  10.759  -2.631  1.00  0.00     0.031 C 
ATOM     34  C   UNL     1       6.012   8.953  -2.250  1.00  0.00     0.029 A 
ATOM     35  C   UNL     1       4.911   9.789  -2.444  1.00  0.00     0.049 A 
ATOM     36  H   UNL     1       4.232  10.372  -4.349  1.00  0.00     0.167 HD
ATOM     37  C   UNL     1       2.803  10.916  -1.756  1.00  0.00     0.074 A 
ATOM     38  C   UNL     1       1.958  10.806  -2.942  1.00  0.00     0.031 C 
ATOM     39  C   UNL     1       4.098  10.550  -1.522  1.00  0.00     0.034 A 
BRANCH  26  40
ATOM     40  C   UNL     1       3.740   8.289  -6.394  1.00  0.00     0.023 A 
ATOM     41  C   UNL     1       4.620   9.213  -7.002  1.00  0.00     0.012 A 
ATOM     42  C   UNL     1       2.434   8.203  -6.928  1.00  0.00     0.148 A 
ATOM     43  C   UNL     1       4.202  10.052  -8.039  1.00  0.00     0.002 A 
ATOM     44  C   UNL     1       2.049   8.978  -8.014  1.00  0.00     0.091 A 
ATOM     45  F   UNL     1       1.501   7.474  -6.310  1.00  0.00    -0.205 F 
ATOM     46  C   UNL     1       2.917   9.931  -8.551  1.00  0.00     0.022 A 
BRANCH  44  47
ATOM     47  S   UNL     1       0.418   8.821  -8.751  1.00  0.00     0.127 S 
ATOM     48  O   UNL     1      -0.228  10.046  -8.297  1.00  0.00    -0.237 OA
ATOM     49  O   UNL     1       0.738   8.773 -10.176  1.00  0.00    -0.237 OA
ATOM     50  O   UNL     1      -0.129   7.573  -8.222  1.00  0.00    -0.744 OA
ENDBRANCH  44  47
ENDBRANCH  26  40
BRANCH  27  51
ATOM     51  C   UNL     1      -1.629  10.634  -0.195  1.00  0.00     0.023 A 
ATOM     52  C   UNL     1      -1.810  12.031  -0.150  1.00  0.00     0.012 A 
ATOM     53  C   UNL     1      -2.772   9.818  -0.342  1.00  0.00     0.148 A 
ATOM     54  C   UNL     1      -3.083  12.597  -0.283  1.00  0.00     0.002 A 
ATOM     55  C   UNL     1      -4.036  10.385  -0.465  1.00  0.00     0.091 A 
ATOM     56  F   UNL     1      -2.611   8.493  -0.460  1.00  0.00    -0.205 F 
ATOM     57  C   UNL     1      -4.195  11.776  -0.449  1.00  0.00     0.022 A 
BRANCH  55  58
ATOM     58  S   UNL     1      -5.510   9.385  -0.711  1.00  0.00     0.127 S 
ATOM     59  O   UNL     1      -6.441   9.973   0.253  1.00  0.00    -0.237 OA
ATOM     60  O   UNL     1      -5.827   9.654  -2.111  1.00  0.00    -0.237 OA
ATOM     61  O   UNL     1      -5.117   8.015  -0.403  1.00  0.00    -0.744 OA
ENDBRANCH  55  58
ENDBRANCH  27  51
BRANCH  39  62
ATOM     62  C   UNL     1       4.638  10.692  -0.122  1.00  0.00     0.023 A 
ATOM     63  C   UNL     1       4.098   9.985   0.972  1.00  0.00     0.012 A 
ATOM     64  C   UNL     1       5.826  11.421   0.058  1.00  0.00     0.148 A 
ATOM     65  C   UNL     1       4.717  10.027   2.224  1.00  0.00     0.002 A 
ATOM     66  C   UNL     1       6.466  11.418   1.290  1.00  0.00     0.091 A 
ATOM     67  F   UNL     1       6.329  12.087  -0.994  1.00  0.00    -0.205 F 
ATOM     68  C   UNL     1       5.909  10.731   2.380  1.00  0.00     0.022 A 
BRANCH  66  69
ATOM     69  S   UNL     1       8.071  12.189   1.508  1.00  0.00     0.127 S 
ATOM     70  O   UNL     1       7.722  13.438   2.182  1.00  0.00    -0.237 OA
ATOM     71  O   UNL     1       8.777  11.218   2.346  1.00  0.00    -0.237 OA
ATOM     72  O   UNL     1       8.629  12.329   0.168  1.00  0.00    -0.744 OA
ENDBRANCH  66  69
ENDBRANCH  39  62
ENDBRANCH  13  14
ENDBRANCH   6   8
ENDBRANCH   5   6
ENDBRANCH   4   5
ENDBRANCH   3   4
ENDBRANCH   2   3
ENDBRANCH   1   2
BRANCH   1  73
ATOM     73  C   UNL     1       2.066  -2.575  -0.413  1.00  0.00     0.188 C 
BRANCH  73  74
ATOM     74  O   UNL     1       2.675  -3.638   0.304  1.00  0.00    -0.376 OA
BRANCH  74  75
ATOM     75  C   UNL     1       3.946  -4.073  -0.154  1.00  0.00     0.202 C 
BRANCH  75  76
ATOM     76  C   UNL     1       4.023  -4.656  -1.570  1.00  0.00     0.261 C 
BRANCH  76  77
ATOM     77  O   UNL     1       3.540  -3.772  -2.594  1.00  0.00    -0.463 OA
BRANCH  77  78
ATOM     78  C   UNL     1       2.405  -4.124  -3.271  1.00  0.00     0.312 C 
ATOM     79  O   UNL     1       1.744  -5.128  -3.045  1.00  0.00    -0.252 OA
BRANCH  78  80
ATOM     80  C   UNL     1       2.040  -3.076  -4.340  1.00  0.00     0.071 C 
ATOM     81  C   UNL     1       1.467  -3.793  -5.577  1.00  0.00     0.022 C 
ATOM     82  C   UNL     1       1.017  -2.022  -3.858  1.00  0.00     0.022 C 
ATOM     83  C   UNL     1       3.304  -2.327  -4.753  1.00  0.00     0.049 C 
ATOM     84  C   UNL     1       1.177  -2.783  -6.700  1.00  0.00    -0.007 C 
ATOM     85  C   UNL     1       0.696  -1.014  -4.984  1.00  0.00    -0.007 C 
ATOM     86  C   UNL     1       3.058  -1.282  -5.865  1.00  0.00     0.065 C 
ATOM     87  C   UNL     1       0.138  -1.770  -6.197  1.00  0.00     0.007 C 
ATOM     88  C   UNL     1       2.481  -2.049  -7.089  1.00  0.00     0.034 C 
ATOM     89  C   UNL     1       1.982  -0.271  -5.399  1.00  0.00     0.034 C 
BRANCH  86  90
ATOM     90  N   UNL     1       4.372  -0.640  -6.095  1.00  0.00    -0.259 N 
ATOM     91  C   UNL     1       5.117  -0.112  -5.048  1.00  0.00     0.195 A 
ATOM     92  N   UNL     1       5.180  -1.113  -7.080  1.00  0.00    -0.173 NA
ATOM     93  C   UNL     1       6.362  -0.689  -5.186  1.00  0.00     0.307 A 
ATOM     94  C   UNL     1       6.383  -1.186  -6.497  1.00  0.00     0.220 A 
BRANCH  93  95
ATOM     95  N   UNL     1       7.349  -0.858  -4.168  1.00  0.00     0.066 N 
ATOM     96  O   UNL     1       8.470  -1.235  -4.534  1.00  0.00    -0.258 OA
ATOM     97  O   UNL     1       6.987  -0.700  -2.995  1.00  0.00    -0.258 OA
ENDBRANCH  93  95
ENDBRANCH  86  90
ENDBRANCH  78  80
ENDBRANCH  77  78
ENDBRANCH  76  77
ENDBRANCH  75  76
ENDBRANCH  74  75
ENDBRANCH  73  74
ENDBRANCH   1  73
TORSDOF 22
