REMARK SMILES COc1ccc(/C=C2/C(=O)N(c3ccccc3)C(=O)N=C2OCCOCCOCCOC(=O)c2ccc(-c3c4nc(c(-c5cccc(S(=O)(=O)[O-])c5F)c5ccc([nH]5)c(-c5cccc(S(=O)(=O)[O-])c5F)c5nc(c(-c6cccc(S(=O)(=O)[O-])c6F)c6ccc3[nH]6)C=C5)C=C4)cc2)cc1C(=O)[O-]
REMARK SMILES IDX 27 1 26 2 25 3 24 4 23 5 22 6 21 7 7 8 8 9 9 10 10 11 11 12
REMARK SMILES IDX 20 13 18 14 19 15 6 16 3 17 4 18 98 19 5 20 97 21 2 22 1 23
REMARK SMILES IDX 99 24 100 25 101 26 12 27 13 28 17 29 14 30 16 31 15 32
REMARK SMILES IDX 28 33 29 34 30 35 31 36 32 37 33 38 34 39 35 40 96 41 36 42
REMARK SMILES IDX 95 43 37 44 38 45 39 46 89 47 40 48 94 49 88 50 90 51 41 52
REMARK SMILES IDX 93 53 87 54 86 55 42 57 74 58 54 59 73 60 55 61 58 62 72 63
REMARK SMILES IDX 91 64 56 65 57 66 71 68 92 69 59 70 43 71 44 72 52 73 45 74
REMARK SMILES IDX 47 75 53 76 46 77 48 78 49 79 50 80 51 81 75 82 76 83 84 84
REMARK SMILES IDX 77 85 79 86 85 87 78 88 80 89 81 90 82 91 83 92 60 93 61 94
REMARK SMILES IDX 69 95 62 96 64 97 70 98 63 99 65 100 66 101 67 102 68 103
REMARK H PARENT 90 56 58 67
REMARK Flexibility Score: inf
ROOT
ATOM      1  C   UNL     1      -1.199  -3.955   5.710  1.00  0.00     0.188 C 
ENDROOT
BRANCH   1   2
ATOM      2  C   UNL     1      -1.936  -3.811   7.054  1.00  0.00     0.188 C 
BRANCH   2   3
ATOM      3  O   UNL     1      -3.062  -2.958   7.176  1.00  0.00    -0.376 OA
BRANCH   3   4
ATOM      4  C   UNL     1      -3.081  -1.685   6.554  1.00  0.00     0.201 C 
BRANCH   4   5
ATOM      5  C   UNL     1      -1.977  -0.678   6.886  1.00  0.00     0.260 C 
BRANCH   5   6
ATOM      6  O   UNL     1      -0.641  -1.123   6.574  1.00  0.00    -0.475 OA
BRANCH   6   7
ATOM      7  C   UNL     1       0.176  -1.496   7.580  1.00  0.00     0.231 C 
ATOM      8  C   UNL     1       2.151  -1.806   5.957  1.00  0.00     0.027 C 
ATOM      9  C   UNL     1       1.508  -1.958   7.144  1.00  0.00     0.103 C 
ATOM     10  C   UNL     1       2.220  -2.784   8.190  1.00  0.00     0.272 C 
ATOM     11  O   UNL     1       3.318  -3.288   7.949  1.00  0.00    -0.268 OA
ATOM     12  N   UNL     1       1.524  -2.952   9.381  1.00  0.00    -0.226 N 
ATOM     13  N   UNL     1      -0.283  -1.548   8.767  1.00  0.00    -0.156 NA
ATOM     14  C   UNL     1       0.391  -2.217   9.749  1.00  0.00     0.358 C 
ATOM     15  O   UNL     1      -0.033  -2.184  10.889  1.00  0.00    -0.245 OA
BRANCH   8  16
ATOM     16  C   UNL     1       1.844  -1.157   4.648  1.00  0.00    -0.024 A 
ATOM     17  C   UNL     1       1.412   0.017   2.060  1.00  0.00     0.127 A 
ATOM     18  C   UNL     1       0.626   0.355   3.165  1.00  0.00     0.048 A 
ATOM     19  C   UNL     1       2.477  -0.866   2.261  1.00  0.00     0.040 A 
ATOM     20  C   UNL     1       0.884  -0.173   4.439  1.00  0.00     0.012 A 
ATOM     21  C   UNL     1       2.647  -1.476   3.534  1.00  0.00     0.022 A 
BRANCH  17  22
ATOM     22  O   UNL     1       1.167   0.796   0.963  1.00  0.00    -0.496 OA
ATOM     23  C   UNL     1       0.884   0.113  -0.255  1.00  0.00     0.278 C 
ENDBRANCH  17  22
BRANCH  19  24
ATOM     24  C   UNL     1       3.603  -1.081   1.320  1.00  0.00     0.075 C 
ATOM     25  O   UNL     1       4.757  -1.278   1.660  1.00  0.00    -0.545 OA
ATOM     26  O   UNL     1       3.282  -1.103   0.020  1.00  0.00    -0.545 OA
ENDBRANCH  19  24
ENDBRANCH   8  16
BRANCH  12  27
ATOM     27  C   UNL     1       2.027  -3.861  10.355  1.00  0.00     0.054 A 
ATOM     28  C   UNL     1       1.343  -5.060  10.594  1.00  0.00     0.027 A 
ATOM     29  C   UNL     1       3.138  -3.528  11.134  1.00  0.00     0.027 A 
ATOM     30  C   UNL     1       1.782  -5.926  11.597  1.00  0.00     0.002 A 
ATOM     31  C   UNL     1       3.542  -4.378  12.166  1.00  0.00     0.002 A 
ATOM     32  C   UNL     1       2.865  -5.575  12.396  1.00  0.00     0.000 A 
ENDBRANCH  12  27
ENDBRANCH   6   7
ENDBRANCH   5   6
ENDBRANCH   4   5
ENDBRANCH   3   4
ENDBRANCH   2   3
ENDBRANCH   1   2
BRANCH   1  33
ATOM     33  O   UNL     1      -1.874  -3.381   4.605  1.00  0.00    -0.376 OA
BRANCH  33  34
ATOM     34  C   UNL     1      -2.422  -4.322   3.692  1.00  0.00     0.202 C 
BRANCH  34  35
ATOM     35  C   UNL     1      -3.636  -5.102   4.217  1.00  0.00     0.261 C 
BRANCH  35  36
ATOM     36  O   UNL     1      -3.439  -5.856   5.429  1.00  0.00    -0.460 OA
BRANCH  36  37
ATOM     37  C   UNL     1      -2.576  -6.899   5.412  1.00  0.00     0.338 C 
ATOM     38  O   UNL     1      -1.935  -7.288   4.452  1.00  0.00    -0.246 OA
BRANCH  37  39
ATOM     39  C   UNL     1      -2.374  -7.361   6.814  1.00  0.00     0.060 A 
ATOM     40  C   UNL     1      -1.067  -7.521   7.295  1.00  0.00     0.016 A 
ATOM     41  C   UNL     1      -3.459  -7.590   7.668  1.00  0.00     0.016 A 
ATOM     42  C   UNL     1      -0.849  -7.945   8.614  1.00  0.00     0.010 A 
ATOM     43  C   UNL     1      -3.239  -8.030   8.982  1.00  0.00     0.010 A 
ATOM     44  C   UNL     1      -1.934  -8.239   9.457  1.00  0.00    -0.014 A 
BRANCH  44  45
ATOM     45  C   UNL     1      -1.692  -8.954  10.741  1.00  0.00     0.031 A 
ATOM     46  C   UNL     1      -1.667 -10.462  10.723  1.00  0.00     0.074 A 
ATOM     47  C   UNL     1      -1.494  -8.306  11.905  1.00  0.00     0.049 A 
ATOM     48  N   UNL     1      -1.371 -11.301  11.681  1.00  0.00    -0.248 NA
ATOM     49  C   UNL     1      -2.045 -11.107   9.454  1.00  0.00     0.031 C 
ATOM     50  C   UNL     1      -1.560  -6.859  12.092  1.00  0.00     0.029 A 
ATOM     51  N   UNL     1      -1.172  -8.788  13.154  1.00  0.00    -0.354 N 
ATOM     52  C   UNL     1      -1.590 -12.569  11.155  1.00  0.00     0.074 A 
ATOM     53  C   UNL     1      -2.009 -12.390   9.781  1.00  0.00     0.031 C 
ATOM     54  C   UNL     1      -1.226  -6.566  13.363  1.00  0.00     0.029 A 
ATOM     55  C   UNL     1      -0.948  -7.803  14.092  1.00  0.00     0.049 A 
ATOM     56  H   UNL     1      -1.107  -9.749  13.358  1.00  0.00     0.167 HD
ATOM     57  C   UNL     1      -1.473 -13.774  11.760  1.00  0.00     0.034 A 
ATOM     58  C   UNL     1      -0.542  -7.893  15.377  1.00  0.00     0.034 A 
ATOM     59  C   UNL     1      -1.042 -13.967  13.117  1.00  0.00     0.049 A 
ATOM     60  C   UNL     1      -0.307  -9.257  15.991  1.00  0.00     0.074 A 
ATOM     61  C   UNL     1      -0.858 -15.158  13.798  1.00  0.00     0.029 A 
ATOM     62  N   UNL     1      -0.745 -12.949  14.007  1.00  0.00    -0.354 N 
ATOM     63  N   UNL     1      -0.366 -10.442  15.433  1.00  0.00    -0.248 NA
ATOM     64  C   UNL     1       0.070  -9.290  17.415  1.00  0.00     0.031 C 
ATOM     65  C   UNL     1      -0.477 -14.859  15.110  1.00  0.00     0.029 A 
ATOM     66  C   UNL     1      -0.386 -13.483  15.232  1.00  0.00     0.049 A 
ATOM     67  H   UNL     1      -0.782 -11.988  13.798  1.00  0.00     0.167 HD
ATOM     68  C   UNL     1      -0.021 -11.353  16.429  1.00  0.00     0.074 A 
ATOM     69  C   UNL     1       0.302 -10.580  17.609  1.00  0.00     0.031 C 
ATOM     70  C   UNL     1      -0.007 -12.709  16.384  1.00  0.00     0.034 A 
BRANCH  57  71
ATOM     71  C   UNL     1      -1.835 -14.996  10.960  1.00  0.00     0.023 A 
ATOM     72  C   UNL     1      -0.966 -15.470   9.959  1.00  0.00     0.012 A 
ATOM     73  C   UNL     1      -3.009 -15.716  11.259  1.00  0.00     0.148 A 
ATOM     74  C   UNL     1      -1.271 -16.631   9.250  1.00  0.00     0.002 A 
ATOM     75  C   UNL     1      -3.283 -16.896  10.581  1.00  0.00     0.091 A 
ATOM     76  F   UNL     1      -3.833 -15.232  12.200  1.00  0.00    -0.205 F 
ATOM     77  C   UNL     1      -2.421 -17.350   9.569  1.00  0.00     0.022 A 
BRANCH  75  78
ATOM     78  S   UNL     1      -4.693 -17.936  10.976  1.00  0.00     0.127 S 
ATOM     79  O   UNL     1      -5.508 -17.796   9.770  1.00  0.00    -0.237 OA
ATOM     80  O   UNL     1      -4.069 -19.248  11.142  1.00  0.00    -0.237 OA
ATOM     81  O   UNL     1      -5.278 -17.380  12.189  1.00  0.00    -0.744 OA
ENDBRANCH  75  78
ENDBRANCH  57  71
BRANCH  58  82
ATOM     82  C   UNL     1      -0.251  -6.665  16.182  1.00  0.00     0.023 A 
ATOM     83  C   UNL     1       1.069  -6.435  16.629  1.00  0.00     0.012 A 
ATOM     84  C   UNL     1      -1.258  -5.753  16.546  1.00  0.00     0.148 A 
ATOM     85  C   UNL     1       1.367  -5.353  17.459  1.00  0.00     0.002 A 
ATOM     86  C   UNL     1      -0.940  -4.639  17.319  1.00  0.00     0.091 A 
ATOM     87  F   UNL     1      -2.515  -6.000  16.152  1.00  0.00    -0.205 F 
ATOM     88  C   UNL     1       0.365  -4.449  17.795  1.00  0.00     0.022 A 
BRANCH  86  89
ATOM     89  S   UNL     1      -2.150  -3.361  17.680  1.00  0.00     0.127 S 
ATOM     90  O   UNL     1      -2.557  -3.708  19.038  1.00  0.00    -0.237 OA
ATOM     91  O   UNL     1      -1.354  -2.138  17.570  1.00  0.00    -0.237 OA
ATOM     92  O   UNL     1      -3.171  -3.503  16.650  1.00  0.00    -0.744 OA
ENDBRANCH  86  89
ENDBRANCH  58  82
BRANCH  70  93
ATOM     93  C   UNL     1       0.393 -13.456  17.634  1.00  0.00     0.023 A 
ATOM     94  C   UNL     1      -0.461 -13.459  18.755  1.00  0.00     0.012 A 
ATOM     95  C   UNL     1       1.582 -14.212  17.674  1.00  0.00     0.148 A 
ATOM     96  C   UNL     1      -0.118 -14.163  19.910  1.00  0.00     0.002 A 
ATOM     97  C   UNL     1       1.893 -14.953  18.810  1.00  0.00     0.091 A 
ATOM     98  F   UNL     1       2.393 -14.190  16.607  1.00  0.00    -0.205 F 
ATOM     99  C   UNL     1       1.052 -14.917  19.934  1.00  0.00     0.022 A 
BRANCH  97 100
ATOM    100  S   UNL     1       3.328 -16.031  18.886  1.00  0.00     0.127 S 
ATOM    101  O   UNL     1       4.255 -15.239  19.693  1.00  0.00    -0.237 OA
ATOM    102  O   UNL     1       2.796 -17.217  19.559  1.00  0.00    -0.237 OA
ATOM    103  O   UNL     1       3.730 -16.256  17.504  1.00  0.00    -0.744 OA
ENDBRANCH  97 100
ENDBRANCH  70  93
ENDBRANCH  44  45
ENDBRANCH  37  39
ENDBRANCH  36  37
ENDBRANCH  35  36
ENDBRANCH  34  35
ENDBRANCH  33  34
ENDBRANCH   1  33
TORSDOF 23
