REMARK SMILES O=C(OCCOCCOCCOC(=O)[C@]1(CCc2ccccc2)C[C@H]2CC[C@@H]1O2)c1ccc(-c2c3nc(c(-c4cccc(S(=O)(=O)[O-])c4F)c4ccc([nH]4)c(-c4cccc(S(=O)(=O)[O-])c4F)c4nc(c(-c5cccc(S(=O)(=O)[O-])c5F)c5ccc2[nH]5)C=C4)C=C3)cc1
REMARK SMILES IDX 7 1 6 2 5 3 4 4 3 5 2 6 1 7 30 8 31 9 92 10 32 11 91 12
REMARK SMILES IDX 33 13 34 14 35 15 85 16 36 17 90 18 84 19 86 20 37 21 89 22
REMARK SMILES IDX 83 23 82 24 38 26 70 27 50 28 69 29 51 30 54 31 68 32 87 33
REMARK SMILES IDX 52 34 53 35 67 37 88 38 55 39 39 40 40 41 48 42 41 43 43 44
REMARK SMILES IDX 49 45 42 46 44 47 45 48 46 49 47 50 71 51 72 52 80 53 73 54
REMARK SMILES IDX 75 55 81 56 74 57 76 58 77 59 78 60 79 61 56 62 57 63 65 64
REMARK SMILES IDX 58 65 60 66 66 67 59 68 61 69 62 70 63 71 64 72 8 73 9 74
REMARK SMILES IDX 10 75 11 76 12 77 13 78 14 79 15 80 24 81 28 82 25 83 27 84
REMARK SMILES IDX 29 85 26 86 16 87 17 88 18 89 19 90 23 91 20 92 22 93 21 94
REMARK H PARENT 86 25 54 36
REMARK Flexibility Score: inf
ROOT
ATOM      1  C   UNL     1       3.293  -0.646  -1.080  1.00  0.00     0.188 C 
ENDROOT
BRANCH   1   2
ATOM      2  O   UNL     1       4.654  -0.470  -0.733  1.00  0.00    -0.376 OA
BRANCH   2   3
ATOM      3  C   UNL     1       5.172  -1.345   0.252  1.00  0.00     0.202 C 
BRANCH   3   4
ATOM      4  C   UNL     1       4.686  -1.137   1.698  1.00  0.00     0.261 C 
BRANCH   4   5
ATOM      5  O   UNL     1       3.349  -0.635   1.894  1.00  0.00    -0.460 OA
BRANCH   5   6
ATOM      6  C   UNL     1       2.865   0.631   1.980  1.00  0.00     0.338 C 
ATOM      7  O   UNL     1       1.760   0.787   2.501  1.00  0.00    -0.246 OA
BRANCH   6   8
ATOM      8  C   UNL     1       3.511   1.829   1.351  1.00  0.00     0.060 A 
ATOM      9  C   UNL     1       4.819   1.871   0.876  1.00  0.00     0.016 A 
ATOM     10  C   UNL     1       2.731   3.000   1.221  1.00  0.00     0.016 A 
ATOM     11  C   UNL     1       5.334   3.001   0.250  1.00  0.00     0.010 A 
ATOM     12  C   UNL     1       3.259   4.165   0.648  1.00  0.00     0.010 A 
ATOM     13  C   UNL     1       4.578   4.166   0.182  1.00  0.00    -0.014 A 
BRANCH  13  14
ATOM     14  C   UNL     1       5.307   5.416  -0.102  1.00  0.00     0.031 A 
ATOM     15  C   UNL     1       5.898   6.136   1.067  1.00  0.00     0.074 A 
ATOM     16  C   UNL     1       5.580   5.801  -1.359  1.00  0.00     0.049 A 
ATOM     17  N   UNL     1       6.678   7.179   1.077  1.00  0.00    -0.248 NA
ATOM     18  C   UNL     1       5.646   5.553   2.398  1.00  0.00     0.031 C 
ATOM     19  C   UNL     1       5.231   5.040  -2.547  1.00  0.00     0.029 A 
ATOM     20  N   UNL     1       6.198   6.916  -1.855  1.00  0.00    -0.354 N 
ATOM     21  C   UNL     1       7.037   7.357   2.403  1.00  0.00     0.074 A 
ATOM     22  C   UNL     1       6.377   6.332   3.177  1.00  0.00     0.031 C 
ATOM     23  C   UNL     1       5.514   5.760  -3.644  1.00  0.00     0.029 A 
ATOM     24  C   UNL     1       6.099   7.023  -3.224  1.00  0.00     0.049 A 
ATOM     25  H   UNL     1       6.665   7.574  -1.291  1.00  0.00     0.167 HD
ATOM     26  C   UNL     1       7.865   8.290   2.919  1.00  0.00     0.034 A 
ATOM     27  C   UNL     1       6.431   8.044  -4.035  1.00  0.00     0.034 A 
ATOM     28  C   UNL     1       8.450   9.334   2.129  1.00  0.00     0.049 A 
ATOM     29  C   UNL     1       7.176   9.190  -3.413  1.00  0.00     0.074 A 
ATOM     30  C   UNL     1       9.237  10.390   2.539  1.00  0.00     0.029 A 
ATOM     31  N   UNL     1       8.273   9.466   0.757  1.00  0.00    -0.354 N 
ATOM     32  N   UNL     1       7.546   9.336  -2.161  1.00  0.00    -0.248 NA
ATOM     33  C   UNL     1       7.611  10.271  -4.302  1.00  0.00     0.031 C 
ATOM     34  C   UNL     1       9.497  11.189   1.419  1.00  0.00     0.029 A 
ATOM     35  C   UNL     1       8.909  10.606   0.304  1.00  0.00     0.049 A 
ATOM     36  H   UNL     1       7.768   8.839   0.190  1.00  0.00     0.167 HD
ATOM     37  C   UNL     1       8.307  10.493  -2.119  1.00  0.00     0.074 A 
ATOM     38  C   UNL     1       8.337  11.013  -3.475  1.00  0.00     0.031 C 
ATOM     39  C   UNL     1       8.933  11.068  -1.062  1.00  0.00     0.034 A 
BRANCH  26  40
ATOM     40  C   UNL     1       8.106   8.225   4.399  1.00  0.00     0.023 A 
ATOM     41  C   UNL     1       8.935   7.216   4.935  1.00  0.00     0.012 A 
ATOM     42  C   UNL     1       7.452   9.119   5.266  1.00  0.00     0.148 A 
ATOM     43  C   UNL     1       9.077   7.077   6.316  1.00  0.00     0.002 A 
ATOM     44  C   UNL     1       7.625   8.994   6.638  1.00  0.00     0.091 A 
ATOM     45  F   UNL     1       6.641  10.043   4.734  1.00  0.00    -0.205 F 
ATOM     46  C   UNL     1       8.426   7.967   7.166  1.00  0.00     0.022 A 
BRANCH  44  47
ATOM     47  S   UNL     1       6.854  10.107   7.816  1.00  0.00     0.127 S 
ATOM     48  O   UNL     1       5.931   9.210   8.508  1.00  0.00    -0.237 OA
ATOM     49  O   UNL     1       7.997  10.545   8.614  1.00  0.00    -0.237 OA
ATOM     50  O   UNL     1       6.221  11.156   7.024  1.00  0.00    -0.744 OA
ENDBRANCH  44  47
ENDBRANCH  26  40
BRANCH  27  51
ATOM     51  C   UNL     1       6.090   7.999  -5.486  1.00  0.00     0.023 A 
ATOM     52  C   UNL     1       7.104   7.867  -6.451  1.00  0.00     0.012 A 
ATOM     53  C   UNL     1       4.744   8.060  -5.911  1.00  0.00     0.148 A 
ATOM     54  C   UNL     1       6.790   7.828  -7.812  1.00  0.00     0.002 A 
ATOM     55  C   UNL     1       4.435   7.985  -7.265  1.00  0.00     0.091 A 
ATOM     56  F   UNL     1       3.790   8.186  -4.978  1.00  0.00    -0.205 F 
ATOM     57  C   UNL     1       5.459   7.883  -8.219  1.00  0.00     0.022 A 
BRANCH  55  58
ATOM     58  S   UNL     1       2.746   7.976  -7.882  1.00  0.00     0.127 S 
ATOM     59  O   UNL     1       2.708   9.204  -8.672  1.00  0.00    -0.237 OA
ATOM     60  O   UNL     1       2.716   6.739  -8.664  1.00  0.00    -0.237 OA
ATOM     61  O   UNL     1       1.886   7.965  -6.706  1.00  0.00    -0.744 OA
ENDBRANCH  55  58
ENDBRANCH  27  51
BRANCH  39  62
ATOM     62  C   UNL     1       9.731  12.309  -1.341  1.00  0.00     0.023 A 
ATOM     63  C   UNL     1       9.070  13.527  -1.585  1.00  0.00     0.012 A 
ATOM     64  C   UNL     1      11.136  12.275  -1.266  1.00  0.00     0.148 A 
ATOM     65  C   UNL     1       9.803  14.695  -1.779  1.00  0.00     0.002 A 
ATOM     66  C   UNL     1      11.855  13.452  -1.404  1.00  0.00     0.091 A 
ATOM     67  F   UNL     1      11.738  11.095  -1.054  1.00  0.00    -0.205 F 
ATOM     68  C   UNL     1      11.192  14.661  -1.673  1.00  0.00     0.022 A 
BRANCH  66  69
ATOM     69  S   UNL     1      13.633  13.516  -1.169  1.00  0.00     0.127 S 
ATOM     70  O   UNL     1      14.108  13.693  -2.539  1.00  0.00    -0.237 OA
ATOM     71  O   UNL     1      13.789  14.692  -0.311  1.00  0.00    -0.237 OA
ATOM     72  O   UNL     1      14.001  12.256  -0.536  1.00  0.00    -0.744 OA
ENDBRANCH  66  69
ENDBRANCH  39  62
ENDBRANCH  13  14
ENDBRANCH   6   8
ENDBRANCH   5   6
ENDBRANCH   4   5
ENDBRANCH   3   4
ENDBRANCH   2   3
ENDBRANCH   1   2
BRANCH   1  73
ATOM     73  C   UNL     1       2.919  -1.835  -1.963  1.00  0.00     0.188 C 
BRANCH  73  74
ATOM     74  O   UNL     1       3.919  -2.674  -2.505  1.00  0.00    -0.376 OA
BRANCH  74  75
ATOM     75  C   UNL     1       5.010  -2.067  -3.176  1.00  0.00     0.202 C 
BRANCH  75  76
ATOM     76  C   UNL     1       4.790  -0.963  -4.225  1.00  0.00     0.261 C 
BRANCH  76  77
ATOM     77  O   UNL     1       3.760   0.004  -3.954  1.00  0.00    -0.463 OA
BRANCH  77  78
ATOM     78  C   UNL     1       3.236   0.581  -5.081  1.00  0.00     0.314 C 
ATOM     79  O   UNL     1       3.573   0.251  -6.215  1.00  0.00    -0.252 OA
BRANCH  78  80
ATOM     80  C   UNL     1       2.186   1.674  -4.781  1.00  0.00     0.097 C 
ATOM     81  C   UNL     1       1.746   2.361  -6.101  1.00  0.00     0.053 C 
ATOM     82  C   UNL     1       2.966   2.837  -4.134  1.00  0.00     0.136 C 
ATOM     83  C   UNL     1       2.576   3.657  -6.104  1.00  0.00     0.120 C 
ATOM     84  C   UNL     1       2.129   4.092  -3.828  1.00  0.00     0.036 C 
ATOM     85  O   UNL     1       3.716   3.300  -5.285  1.00  0.00    -0.374 OA
ATOM     86  C   UNL     1       1.902   4.691  -5.215  1.00  0.00     0.035 C 
BRANCH  80  87
ATOM     87  C   UNL     1       1.012   1.178  -3.904  1.00  0.00     0.026 C 
BRANCH  87  88
ATOM     88  C   UNL     1      -0.045   0.266  -4.552  1.00  0.00     0.037 C 
BRANCH  88  89
ATOM     89  C   UNL     1       0.258  -1.209  -4.484  1.00  0.00    -0.048 A 
ATOM     90  C   UNL     1      -0.314  -2.012  -3.484  1.00  0.00     0.004 A 
ATOM     91  C   UNL     1       1.149  -1.795  -5.388  1.00  0.00     0.004 A 
ATOM     92  C   UNL     1       0.047  -3.357  -3.362  1.00  0.00     0.000 A 
ATOM     93  C   UNL     1       1.542  -3.125  -5.240  1.00  0.00     0.000 A 
ATOM     94  C   UNL     1       0.995  -3.905  -4.224  1.00  0.00     0.000 A 
ENDBRANCH  88  89
ENDBRANCH  87  88
ENDBRANCH  80  87
ENDBRANCH  78  80
ENDBRANCH  77  78
ENDBRANCH  76  77
ENDBRANCH  75  76
ENDBRANCH  74  75
ENDBRANCH  73  74
ENDBRANCH   1  73
TORSDOF 23
