REMARK SMILES COc1ccc(-c2cc([C@@H]3CC[N@@H+](CC(=O)OCCOCCOCCOC(=O)c4ccc(-c5c6nc(c(-c7cccc(S(=O)(=O)[O-])c7F)c7ccc([nH]7)c(-c7cccc(S(=O)(=O)[O-])c7F)c7nc(c(-c8cccc(S(=O)(=O)[O-])c8F)c8ccc5[nH]8)C=C7)C=C6)cc4)C3)ccn2)c2ccc(C)nc12
REMARK SMILES IDX 21 1 20 2 19 3 18 4 17 5 15 6 16 7 14 8 13 9 10 10 11 11
REMARK SMILES IDX 92 12 12 13 9 15 7 16 8 17 95 18 94 19 93 20 6 21 3 22 4 23
REMARK SMILES IDX 102 24 5 25 96 26 101 27 97 28 99 29 98 30 100 31 2 32 1 33
REMARK SMILES IDX 22 34 23 35 24 36 25 37 26 38 27 39 28 40 29 41 30 42 91 43
REMARK SMILES IDX 31 44 90 45 32 46 33 47 34 48 84 49 35 50 89 51 83 52 85 53
REMARK SMILES IDX 36 54 88 55 82 56 81 57 37 59 69 60 49 61 68 62 50 63 53 64
REMARK SMILES IDX 67 65 86 66 51 67 52 68 66 70 87 71 54 72 38 73 39 74 47 75
REMARK SMILES IDX 40 76 42 77 48 78 41 79 43 80 44 81 45 82 46 83 70 84 71 85
REMARK SMILES IDX 79 86 72 87 74 88 80 89 73 90 75 91 76 92 77 93 78 94 55 95
REMARK SMILES IDX 56 96 64 97 57 98 59 99 65 100 58 101 60 102 61 103 62 104
REMARK SMILES IDX 63 105
REMARK H PARENT 13 14 85 58 53 69
REMARK Flexibility Score: inf
ROOT
ATOM      1  C   UNL     1       4.450 -12.464  -4.856  1.00  0.00     0.188 C 
ENDROOT
BRANCH   1   2
ATOM      2  O   UNL     1       3.402 -13.423  -4.774  1.00  0.00    -0.376 OA
BRANCH   2   3
ATOM      3  C   UNL     1       2.176 -13.036  -4.163  1.00  0.00     0.202 C 
BRANCH   3   4
ATOM      4  C   UNL     1       2.268 -12.515  -2.727  1.00  0.00     0.261 C 
BRANCH   4   5
ATOM      5  O   UNL     1       3.098 -11.341  -2.600  1.00  0.00    -0.459 OA
BRANCH   5   6
ATOM      6  C   UNL     1       3.923 -11.292  -1.520  1.00  0.00     0.361 C 
ATOM      7  O   UNL     1       4.005 -12.190  -0.687  1.00  0.00    -0.245 OA
BRANCH   6   8
ATOM      8  C   UNL     1       4.822 -10.050  -1.474  1.00  0.00     0.386 C 
BRANCH   8   9
ATOM      9  N   UNL     1       4.224  -8.701  -1.576  1.00  0.00    -0.325 N 
ATOM     10  C   UNL     1       3.330  -7.825  -3.637  1.00  0.00     0.080 C 
ATOM     11  C   UNL     1       2.219  -8.481  -2.797  1.00  0.00     0.075 C 
ATOM     12  C   UNL     1       4.581  -7.887  -2.745  1.00  0.00     0.271 C 
ATOM     13  C   UNL     1       2.791  -8.577  -1.392  1.00  0.00     0.263 C 
ATOM     14  H   UNL     1       4.692  -8.328  -0.750  1.00  0.00     0.348 HD
BRANCH  10  15
ATOM     15  C   UNL     1       2.807  -6.503  -4.141  1.00  0.00    -0.035 A 
ATOM     16  C   UNL     1       1.674  -4.451  -3.646  1.00  0.00     0.071 A 
ATOM     17  C   UNL     1       2.428  -5.543  -3.225  1.00  0.00     0.033 A 
ATOM     18  N   UNL     1       1.269  -4.251  -4.916  1.00  0.00    -0.256 NA
ATOM     19  C   UNL     1       1.695  -5.161  -5.810  1.00  0.00     0.112 A 
ATOM     20  C   UNL     1       2.465  -6.268  -5.476  1.00  0.00     0.024 A 
BRANCH  16  21
ATOM     21  C   UNL     1       1.382  -3.424  -2.661  1.00  0.00     0.010 A 
ATOM     22  C   UNL     1       0.931  -1.812  -0.474  1.00  0.00     0.145 A 
ATOM     23  C   UNL     1      -0.137  -2.517  -1.040  1.00  0.00     0.049 A 
ATOM     24  C   UNL     1       2.256  -1.914  -0.944  1.00  0.00     0.113 A 
ATOM     25  C   UNL     1       0.088  -3.325  -2.139  1.00  0.00     0.015 A 
ATOM     26  C   UNL     1       2.463  -2.695  -2.088  1.00  0.00     0.013 A 
ATOM     27  N   UNL     1       3.303  -1.314  -0.319  1.00  0.00    -0.249 NA
ATOM     28  C   UNL     1       3.777  -2.763  -2.607  1.00  0.00     0.013 A 
ATOM     29  C   UNL     1       4.562  -1.465  -0.802  1.00  0.00     0.038 A 
ATOM     30  C   UNL     1       4.837  -2.163  -1.958  1.00  0.00     0.024 A 
ATOM     31  C   UNL     1       5.672  -0.814  -0.039  1.00  0.00     0.067 C 
BRANCH  22  32
ATOM     32  O   UNL     1       0.587  -1.024   0.605  1.00  0.00    -0.494 OA
ATOM     33  C   UNL     1       0.884   0.345   0.327  1.00  0.00     0.278 C 
ENDBRANCH  22  32
ENDBRANCH  16  21
ENDBRANCH  10  15
ENDBRANCH   8   9
ENDBRANCH   6   8
ENDBRANCH   5   6
ENDBRANCH   4   5
ENDBRANCH   3   4
ENDBRANCH   2   3
ENDBRANCH   1   2
BRANCH   1  34
ATOM     34  C   UNL     1       4.089 -11.061  -5.359  1.00  0.00     0.188 C 
BRANCH  34  35
ATOM     35  O   UNL     1       2.824 -11.038  -6.003  1.00  0.00    -0.376 OA
BRANCH  35  36
ATOM     36  C   UNL     1       2.401  -9.838  -6.621  1.00  0.00     0.202 C 
BRANCH  36  37
ATOM     37  C   UNL     1       2.998  -9.625  -8.010  1.00  0.00     0.261 C 
BRANCH  37  38
ATOM     38  O   UNL     1       4.428  -9.743  -8.069  1.00  0.00    -0.460 OA
BRANCH  38  39
ATOM     39  C   UNL     1       5.173  -8.756  -7.528  1.00  0.00     0.338 C 
ATOM     40  O   UNL     1       4.770  -7.694  -7.078  1.00  0.00    -0.246 OA
BRANCH  39  41
ATOM     41  C   UNL     1       6.552  -9.261  -7.356  1.00  0.00     0.060 A 
ATOM     42  C   UNL     1       7.192  -9.072  -6.122  1.00  0.00     0.016 A 
ATOM     43  C   UNL     1       7.181  -9.975  -8.377  1.00  0.00     0.016 A 
ATOM     44  C   UNL     1       8.479  -9.574  -5.918  1.00  0.00     0.010 A 
ATOM     45  C   UNL     1       8.467 -10.472  -8.172  1.00  0.00     0.010 A 
ATOM     46  C   UNL     1       9.135 -10.249  -6.955  1.00  0.00    -0.014 A 
BRANCH  46  47
ATOM     47  C   UNL     1      10.575 -10.588  -6.854  1.00  0.00     0.031 A 
ATOM     48  C   UNL     1      11.557  -9.742  -7.618  1.00  0.00     0.074 A 
ATOM     49  C   UNL     1      10.996 -11.656  -6.153  1.00  0.00     0.049 A 
ATOM     50  N   UNL     1      12.837  -9.919  -7.802  1.00  0.00    -0.248 NA
ATOM     51  C   UNL     1      11.017  -8.538  -8.276  1.00  0.00     0.031 C 
ATOM     52  C   UNL     1      10.142 -12.544  -5.364  1.00  0.00     0.029 A 
ATOM     53  N   UNL     1      12.252 -12.199  -6.027  1.00  0.00    -0.354 N 
ATOM     54  C   UNL     1      13.244  -8.890  -8.642  1.00  0.00     0.074 A 
ATOM     55  C   UNL     1      12.079  -8.082  -8.924  1.00  0.00     0.031 C 
ATOM     56  C   UNL     1      10.894 -13.542  -4.865  1.00  0.00     0.029 A 
ATOM     57  C   UNL     1      12.270 -13.387  -5.333  1.00  0.00     0.049 A 
ATOM     58  H   UNL     1      13.061 -11.778  -6.398  1.00  0.00     0.167 HD
ATOM     59  C   UNL     1      14.478  -8.641  -9.136  1.00  0.00     0.034 A 
ATOM     60  C   UNL     1      13.274 -14.266  -5.136  1.00  0.00     0.034 A 
ATOM     61  C   UNL     1      15.640  -9.428  -8.826  1.00  0.00     0.049 A 
ATOM     62  C   UNL     1      14.635 -13.966  -5.714  1.00  0.00     0.074 A 
ATOM     63  C   UNL     1      16.949  -9.212  -9.216  1.00  0.00     0.029 A 
ATOM     64  N   UNL     1      15.630 -10.590  -8.073  1.00  0.00    -0.354 N 
ATOM     65  N   UNL     1      15.032 -12.923  -6.402  1.00  0.00    -0.248 NA
ATOM     66  C   UNL     1      15.696 -14.955  -5.466  1.00  0.00     0.031 C 
ATOM     67  C   UNL     1      17.725 -10.271  -8.737  1.00  0.00     0.029 A 
ATOM     68  C   UNL     1      16.907 -11.116  -8.005  1.00  0.00     0.049 A 
ATOM     69  H   UNL     1      14.833 -10.982  -7.649  1.00  0.00     0.167 HD
ATOM     70  C   UNL     1      16.394 -13.107  -6.625  1.00  0.00     0.074 A 
ATOM     71  C   UNL     1      16.757 -14.352  -5.984  1.00  0.00     0.031 C 
ATOM     72  C   UNL     1      17.265 -12.324  -7.308  1.00  0.00     0.034 A 
BRANCH  59  73
ATOM     73  C   UNL     1      14.649  -7.475 -10.070  1.00  0.00     0.023 A 
ATOM     74  C   UNL     1      14.612  -6.157  -9.574  1.00  0.00     0.012 A 
ATOM     75  C   UNL     1      14.941  -7.697 -11.431  1.00  0.00     0.148 A 
ATOM     76  C   UNL     1      14.845  -5.075 -10.423  1.00  0.00     0.002 A 
ATOM     77  C   UNL     1      15.220  -6.618 -12.259  1.00  0.00     0.091 A 
ATOM     78  F   UNL     1      14.947  -8.958 -11.884  1.00  0.00    -0.205 F 
ATOM     79  C   UNL     1      15.162  -5.306 -11.760  1.00  0.00     0.022 A 
BRANCH  77  80
ATOM     80  S   UNL     1      15.722  -6.816 -13.972  1.00  0.00     0.127 S 
ATOM     81  O   UNL     1      14.597  -6.206 -14.680  1.00  0.00    -0.237 OA
ATOM     82  O   UNL     1      16.962  -6.042 -14.016  1.00  0.00    -0.237 OA
ATOM     83  O   UNL     1      15.884  -8.247 -14.184  1.00  0.00    -0.744 OA
ENDBRANCH  77  80
ENDBRANCH  59  73
BRANCH  60  84
ATOM     84  C   UNL     1      13.051 -15.518  -4.355  1.00  0.00     0.023 A 
ATOM     85  C   UNL     1      13.719 -15.700  -3.128  1.00  0.00     0.012 A 
ATOM     86  C   UNL     1      12.216 -16.544  -4.838  1.00  0.00     0.148 A 
ATOM     87  C   UNL     1      13.601 -16.899  -2.423  1.00  0.00     0.002 A 
ATOM     88  C   UNL     1      12.056 -17.712  -4.101  1.00  0.00     0.091 A 
ATOM     89  F   UNL     1      11.602 -16.363  -6.016  1.00  0.00    -0.205 F 
ATOM     90  C   UNL     1      12.765 -17.902  -2.905  1.00  0.00     0.022 A 
BRANCH  88  91
ATOM     91  S   UNL     1      10.908 -19.005  -4.586  1.00  0.00     0.127 S 
ATOM     92  O   UNL     1      11.815 -20.065  -5.018  1.00  0.00    -0.237 OA
ATOM     93  O   UNL     1      10.204 -19.269  -3.331  1.00  0.00    -0.237 OA
ATOM     94  O   UNL     1      10.076 -18.418  -5.628  1.00  0.00    -0.744 OA
ENDBRANCH  88  91
ENDBRANCH  60  84
BRANCH  72  95
ATOM     95  C   UNL     1      18.712 -12.741  -7.342  1.00  0.00     0.023 A 
ATOM     96  C   UNL     1      19.113 -13.859  -8.100  1.00  0.00     0.012 A 
ATOM     97  C   UNL     1      19.688 -11.969  -6.679  1.00  0.00     0.148 A 
ATOM     98  C   UNL     1      20.457 -14.224  -8.164  1.00  0.00     0.002 A 
ATOM     99  C   UNL     1      21.030 -12.305  -6.795  1.00  0.00     0.091 A 
ATOM    100  F   UNL     1      19.284 -10.917  -5.952  1.00  0.00    -0.205 F 
ATOM    101  C   UNL     1      21.416 -13.441  -7.524  1.00  0.00     0.022 A 
BRANCH  99 102
ATOM    102  S   UNL     1      22.340 -11.296  -6.093  1.00  0.00     0.127 S 
ATOM    103  O   UNL     1      22.825 -12.149  -5.010  1.00  0.00    -0.237 OA
ATOM    104  O   UNL     1      23.261 -11.158  -7.221  1.00  0.00    -0.237 OA
ATOM    105  O   UNL     1      21.709 -10.052  -5.672  1.00  0.00    -0.744 OA
ENDBRANCH  99 102
ENDBRANCH  72  95
ENDBRANCH  46  47
ENDBRANCH  39  41
ENDBRANCH  38  39
ENDBRANCH  37  38
ENDBRANCH  36  37
ENDBRANCH  35  36
ENDBRANCH  34  35
ENDBRANCH   1  34
TORSDOF 24
