REMARK SMILES Cc1cc(C(=O)OCCOCCOCCOC(=O)c2ccc(-c3c4nc(c(-c5cccc(S(=O)(=O)[O-])c5F)c5ccc([nH]5)c(-c5cccc(S(=O)(=O)[O-])c5F)c5nc(c(-c6cccc(S(=O)(=O)[O-])c6F)c6ccc3[nH]6)C=C5)C=C4)cc2)c(NC(=O)c2nc(C(C)(C)C)n[nH]2)s1
REMARK SMILES IDX 11 1 10 2 9 3 8 4 7 5 5 6 6 7 4 8 1 9 2 10 3 11 95 12 82 13
REMARK SMILES IDX 83 14 84 15 85 17 86 18 87 19 94 20 88 21 93 22 89 24 90 25
REMARK SMILES IDX 91 26 92 27 12 28 13 29 14 30 15 31 16 32 17 33 18 34 19 35
REMARK SMILES IDX 20 36 81 37 21 38 80 39 22 40 23 41 24 42 74 43 25 44 79 45
REMARK SMILES IDX 73 46 75 47 26 48 78 49 72 50 71 51 27 53 59 54 39 55 58 56
REMARK SMILES IDX 40 57 43 58 57 59 76 60 41 61 42 62 56 64 77 65 44 66 28 67
REMARK SMILES IDX 29 68 37 69 30 70 32 71 38 72 31 73 33 74 34 75 35 76 36 77
REMARK SMILES IDX 60 78 61 79 69 80 62 81 64 82 70 83 63 84 65 85 66 86 67 87
REMARK SMILES IDX 68 88 45 89 46 90 54 91 47 92 49 93 55 94 48 95 50 96 51 97
REMARK SMILES IDX 52 98 53 99
REMARK H PARENT 83 16 94 23 75 52 43 63
REMARK Flexibility Score: inf
ROOT
ATOM      1  C   UNL     1      -3.806  -2.453   1.381  1.00  0.00     0.188 C 
ENDROOT
BRANCH   1   2
ATOM      2  O   UNL     1      -4.607  -3.465   0.781  1.00  0.00    -0.376 OA
BRANCH   2   3
ATOM      3  C   UNL     1      -3.997  -4.513   0.042  1.00  0.00     0.202 C 
BRANCH   3   4
ATOM      4  C   UNL     1      -3.285  -4.122  -1.253  1.00  0.00     0.261 C 
BRANCH   4   5
ATOM      5  O   UNL     1      -2.091  -3.353  -1.020  1.00  0.00    -0.460 OA
BRANCH   5   6
ATOM      6  C   UNL     1      -2.119  -2.070  -1.479  1.00  0.00     0.341 C 
ATOM      7  O   UNL     1      -3.022  -1.584  -2.149  1.00  0.00    -0.246 OA
BRANCH   6   8
ATOM      8  C   UNL     1      -1.026  -1.259  -0.953  1.00  0.00     0.095 A 
ATOM      9  C   UNL     1       2.557  -0.693   0.169  1.00  0.00     0.056 C 
ATOM     10  C   UNL     1       1.107  -0.682  -0.174  1.00  0.00     0.004 A 
ATOM     11  C   UNL     1       0.325  -1.686  -0.705  1.00  0.00     0.033 A 
ATOM     12  S   UNL     1       0.193   0.726   0.108  1.00  0.00    -0.122 S 
ATOM     13  C   UNL     1      -1.210   0.064  -0.574  1.00  0.00     0.110 A 
BRANCH  13  14
ATOM     14  N   UNL     1      -2.411   0.753  -0.603  1.00  0.00    -0.310 N 
ATOM     15  C   UNL     1      -2.760   2.026  -0.204  1.00  0.00     0.293 C 
ATOM     16  H   UNL     1      -3.159   0.235  -0.980  1.00  0.00     0.171 HD
ATOM     17  O   UNL     1      -3.951   2.206   0.050  1.00  0.00    -0.265 OA
BRANCH  15  18
ATOM     18  C   UNL     1      -1.793   3.091  -0.193  1.00  0.00     0.214 A 
ATOM     19  N   UNL     1      -1.589   3.943   0.791  1.00  0.00    -0.207 NA
ATOM     20  N   UNL     1      -0.997   3.440  -1.242  1.00  0.00    -0.255 N 
ATOM     21  C   UNL     1      -0.618   4.782   0.300  1.00  0.00     0.156 A 
ATOM     22  N   UNL     1      -0.211   4.486  -0.945  1.00  0.00    -0.158 NA
ATOM     23  H   UNL     1      -0.998   2.980  -2.112  1.00  0.00     0.192 HD
BRANCH  21  24
ATOM     24  C   UNL     1      -0.104   5.961   1.088  1.00  0.00     0.024 C 
ATOM     25  C   UNL     1      -1.062   7.152   0.905  1.00  0.00     0.019 C 
ATOM     26  C   UNL     1      -0.022   5.613   2.588  1.00  0.00     0.019 C 
ATOM     27  C   UNL     1       1.305   6.380   0.621  1.00  0.00     0.019 C 
ENDBRANCH  21  24
ENDBRANCH  15  18
ENDBRANCH  13  14
ENDBRANCH   6   8
ENDBRANCH   5   6
ENDBRANCH   4   5
ENDBRANCH   3   4
ENDBRANCH   2   3
ENDBRANCH   1   2
BRANCH   1  28
ATOM     28  C   UNL     1      -2.503  -2.857   2.094  1.00  0.00     0.188 C 
BRANCH  28  29
ATOM     29  O   UNL     1      -2.466  -4.226   2.469  1.00  0.00    -0.376 OA
BRANCH  29  30
ATOM     30  C   UNL     1      -2.505  -4.500   3.860  1.00  0.00     0.202 C 
BRANCH  30  31
ATOM     31  C   UNL     1      -3.865  -4.276   4.528  1.00  0.00     0.261 C 
BRANCH  31  32
ATOM     32  O   UNL     1      -4.397  -2.948   4.420  1.00  0.00    -0.460 OA
BRANCH  32  33
ATOM     33  C   UNL     1      -3.750  -1.961   5.080  1.00  0.00     0.338 C 
ATOM     34  O   UNL     1      -2.728  -2.068   5.734  1.00  0.00    -0.246 OA
BRANCH  33  35
ATOM     35  C   UNL     1      -4.416  -0.684   4.742  1.00  0.00     0.060 A 
ATOM     36  C   UNL     1      -3.658   0.365   4.207  1.00  0.00     0.016 A 
ATOM     37  C   UNL     1      -5.790  -0.531   4.949  1.00  0.00     0.016 A 
ATOM     38  C   UNL     1      -4.274   1.584   3.904  1.00  0.00     0.010 A 
ATOM     39  C   UNL     1      -6.400   0.692   4.659  1.00  0.00     0.010 A 
ATOM     40  C   UNL     1      -5.641   1.765   4.163  1.00  0.00    -0.014 A 
BRANCH  40  41
ATOM     41  C   UNL     1      -6.257   3.112   4.062  1.00  0.00     0.031 A 
ATOM     42  C   UNL     1      -6.375   3.949   5.306  1.00  0.00     0.074 A 
ATOM     43  C   UNL     1      -6.745   3.571   2.896  1.00  0.00     0.049 A 
ATOM     44  N   UNL     1      -6.895   5.138   5.460  1.00  0.00    -0.248 NA
ATOM     45  C   UNL     1      -5.844   3.359   6.547  1.00  0.00     0.031 C 
ATOM     46  C   UNL     1      -6.708   2.852   1.627  1.00  0.00     0.029 A 
ATOM     47  N   UNL     1      -7.387   4.749   2.599  1.00  0.00    -0.354 N 
ATOM     48  C   UNL     1      -6.774   5.432   6.812  1.00  0.00     0.074 A 
ATOM     49  C   UNL     1      -6.144   4.291   7.440  1.00  0.00     0.031 C 
ATOM     50  C   UNL     1      -7.311   3.598   0.685  1.00  0.00     0.029 A 
ATOM     51  C   UNL     1      -7.793   4.838   1.288  1.00  0.00     0.049 A 
ATOM     52  H   UNL     1      -7.541   5.461   3.261  1.00  0.00     0.167 HD
ATOM     53  C   UNL     1      -7.139   6.556   7.471  1.00  0.00     0.034 A 
ATOM     54  C   UNL     1      -8.477   5.810   0.650  1.00  0.00     0.034 A 
ATOM     55  C   UNL     1      -7.749   7.699   6.847  1.00  0.00     0.049 A 
ATOM     56  C   UNL     1      -8.867   7.055   1.405  1.00  0.00     0.074 A 
ATOM     57  C   UNL     1      -8.113   8.902   7.424  1.00  0.00     0.029 A 
ATOM     58  N   UNL     1      -8.093   7.777   5.506  1.00  0.00    -0.354 N 
ATOM     59  N   UNL     1      -8.622   7.377   2.653  1.00  0.00    -0.248 NA
ATOM     60  C   UNL     1      -9.603   8.086   0.657  1.00  0.00     0.031 C 
ATOM     61  C   UNL     1      -8.693   9.703   6.435  1.00  0.00     0.029 A 
ATOM     62  C   UNL     1      -8.676   9.003   5.239  1.00  0.00     0.049 A 
ATOM     63  H   UNL     1      -7.945   7.065   4.843  1.00  0.00     0.167 HD
ATOM     64  C   UNL     1      -9.143   8.654   2.830  1.00  0.00     0.074 A 
ATOM     65  C   UNL     1      -9.700   9.057   1.555  1.00  0.00     0.031 C 
ATOM     66  C   UNL     1      -9.175   9.416   3.951  1.00  0.00     0.034 A 
BRANCH  53  67
ATOM     67  C   UNL     1      -6.850   6.617   8.946  1.00  0.00     0.023 A 
ATOM     68  C   UNL     1      -5.526   6.822   9.382  1.00  0.00     0.012 A 
ATOM     69  C   UNL     1      -7.884   6.511   9.896  1.00  0.00     0.148 A 
ATOM     70  C   UNL     1      -5.230   6.893  10.742  1.00  0.00     0.002 A 
ATOM     71  C   UNL     1      -7.587   6.619  11.249  1.00  0.00     0.091 A 
ATOM     72  F   UNL     1      -9.133   6.287   9.462  1.00  0.00    -0.205 F 
ATOM     73  C   UNL     1      -6.260   6.801  11.675  1.00  0.00     0.022 A 
BRANCH  71  74
ATOM     74  S   UNL     1      -8.856   6.577  12.519  1.00  0.00     0.127 S 
ATOM     75  O   UNL     1      -8.689   5.231  13.062  1.00  0.00    -0.237 OA
ATOM     76  O   UNL     1      -8.434   7.653  13.418  1.00  0.00    -0.237 OA
ATOM     77  O   UNL     1     -10.115   6.827  11.831  1.00  0.00    -0.744 OA
ENDBRANCH  71  74
ENDBRANCH  53  67
BRANCH  54  78
ATOM     78  C   UNL     1      -8.783   5.672  -0.803  1.00  0.00     0.023 A 
ATOM     79  C   UNL     1      -8.117   6.498  -1.729  1.00  0.00     0.012 A 
ATOM     80  C   UNL     1      -9.707   4.719  -1.275  1.00  0.00     0.148 A 
ATOM     81  C   UNL     1      -8.383   6.396  -3.095  1.00  0.00     0.002 A 
ATOM     82  C   UNL     1      -9.930   4.588  -2.642  1.00  0.00     0.091 A 
ATOM     83  F   UNL     1     -10.351   3.958  -0.379  1.00  0.00    -0.205 F 
ATOM     84  C   UNL     1      -9.280   5.435  -3.552  1.00  0.00     0.022 A 
BRANCH  82  85
ATOM     85  S   UNL     1     -10.979   3.300  -3.327  1.00  0.00     0.127 S 
ATOM     86  O   UNL     1     -12.156   4.059  -3.740  1.00  0.00    -0.237 OA
ATOM     87  O   UNL     1     -10.159   2.791  -4.428  1.00  0.00    -0.237 OA
ATOM     88  O   UNL     1     -11.187   2.346  -2.246  1.00  0.00    -0.744 OA
ENDBRANCH  82  85
ENDBRANCH  54  78
BRANCH  66  89
ATOM     89  C   UNL     1      -9.816  10.777   3.860  1.00  0.00     0.023 A 
ATOM     90  C   UNL     1     -11.219  10.879   3.794  1.00  0.00     0.012 A 
ATOM     91  C   UNL     1      -9.040  11.951   3.935  1.00  0.00     0.148 A 
ATOM     92  C   UNL     1     -11.840  12.127   3.779  1.00  0.00     0.002 A 
ATOM     93  C   UNL     1      -9.668  13.191   3.963  1.00  0.00     0.091 A 
ATOM     94  F   UNL     1      -7.705  11.835   3.979  1.00  0.00    -0.205 F 
ATOM     95  C   UNL     1     -11.066  13.282   3.876  1.00  0.00     0.022 A 
BRANCH  93  96
ATOM     96  S   UNL     1      -8.754  14.724   4.179  1.00  0.00     0.127 S 
ATOM     97  O   UNL     1      -8.757  15.268   2.823  1.00  0.00    -0.237 OA
ATOM     98  O   UNL     1      -9.591  15.457   5.131  1.00  0.00    -0.237 OA
ATOM     99  O   UNL     1      -7.449  14.339   4.700  1.00  0.00    -0.744 OA
ENDBRANCH  93  96
ENDBRANCH  66  89
ENDBRANCH  40  41
ENDBRANCH  33  35
ENDBRANCH  32  33
ENDBRANCH  31  32
ENDBRANCH  30  31
ENDBRANCH  29  30
ENDBRANCH  28  29
ENDBRANCH   1  28
TORSDOF 23
