REMARK SMILES CC(C)(Br)[C@H](Br)C(=O)OCCOCCOCCOC(=O)c1ccc(-c2c3nc(c(-c4cccc(S(=O)(=O)[O-])c4F)c4ccc([nH]4)c(-c4cccc(S(=O)(=O)[O-])c4F)c4nc(c(-c5cccc(S(=O)(=O)[O-])c5F)c5ccc2[nH]5)C=C4)C=C3)cc1
REMARK SMILES IDX 14 1 13 2 12 3 11 4 10 5 9 6 7 7 8 8 5 9 6 10 2 11 1 12 3 13
REMARK SMILES IDX 4 14 15 15 16 16 17 17 18 18 19 19 20 20 21 21 22 22 83 23
REMARK SMILES IDX 23 24 82 25 24 26 25 27 26 28 76 29 27 30 81 31 75 32 77 33
REMARK SMILES IDX 28 34 80 35 74 36 73 37 29 39 61 40 41 41 60 42 42 43 45 44
REMARK SMILES IDX 59 45 78 46 43 47 44 48 58 50 79 51 46 52 30 53 31 54 39 55
REMARK SMILES IDX 32 56 34 57 40 58 33 59 35 60 36 61 37 62 38 63 62 64 63 65
REMARK SMILES IDX 71 66 64 67 66 68 72 69 65 70 67 71 68 72 69 73 70 74 47 75
REMARK SMILES IDX 48 76 56 77 49 78 51 79 57 80 50 81 52 82 53 83 54 84 55 85
REMARK H PARENT 77 38 45 49
REMARK Flexibility Score: inf
ROOT
ATOM      1  C   UNL     1       3.272   1.740   1.940  1.00  0.00     0.188 C 
ENDROOT
BRANCH   1   2
ATOM      2  C   UNL     1       3.886   1.116   3.203  1.00  0.00     0.188 C 
BRANCH   2   3
ATOM      3  O   UNL     1       5.233   0.668   3.147  1.00  0.00    -0.376 OA
BRANCH   3   4
ATOM      4  C   UNL     1       5.615  -0.220   2.101  1.00  0.00     0.202 C 
BRANCH   4   5
ATOM      5  C   UNL     1       4.757  -1.470   1.853  1.00  0.00     0.261 C 
BRANCH   5   6
ATOM      6  O   UNL     1       3.410  -1.189   1.424  1.00  0.00    -0.462 OA
BRANCH   6   7
ATOM      7  C   UNL     1       2.388  -1.641   2.202  1.00  0.00     0.321 C 
ATOM      8  O   UNL     1       2.566  -2.215   3.271  1.00  0.00    -0.251 OA
BRANCH   7   9
ATOM      9  C   UNL     1       0.990  -1.273   1.688  1.00  0.00     0.183 C 
ATOM     10  Br  UNL     1       1.089  -0.665  -0.191  1.00  0.00    -0.075 Br
BRANCH   9  11
ATOM     11  C   UNL     1      -0.088  -2.368   1.890  1.00  0.00     0.043 C 
ATOM     12  C   UNL     1      -1.367  -2.187   1.050  1.00  0.00     0.025 C 
ATOM     13  C   UNL     1      -0.526  -2.446   3.365  1.00  0.00     0.025 C 
ATOM     14  Br  UNL     1       0.628  -4.149   1.374  1.00  0.00    -0.084 Br
ENDBRANCH   9  11
ENDBRANCH   7   9
ENDBRANCH   6   7
ENDBRANCH   5   6
ENDBRANCH   4   5
ENDBRANCH   3   4
ENDBRANCH   2   3
ENDBRANCH   1   2
BRANCH   1  15
ATOM     15  O   UNL     1       4.064   1.587   0.778  1.00  0.00    -0.376 OA
BRANCH  15  16
ATOM     16  C   UNL     1       4.199   2.718  -0.073  1.00  0.00     0.202 C 
BRANCH  16  17
ATOM     17  C   UNL     1       5.034   3.880   0.502  1.00  0.00     0.261 C 
BRANCH  17  18
ATOM     18  O   UNL     1       4.545   4.453   1.730  1.00  0.00    -0.460 OA
BRANCH  18  19
ATOM     19  C   UNL     1       3.333   5.057   1.681  1.00  0.00     0.338 C 
ATOM     20  O   UNL     1       2.664   5.259   0.678  1.00  0.00    -0.246 OA
BRANCH  19  21
ATOM     21  C   UNL     1       2.817   5.172   3.068  1.00  0.00     0.060 A 
ATOM     22  C   UNL     1       1.548   4.643   3.350  1.00  0.00     0.016 A 
ATOM     23  C   UNL     1       3.579   5.744   4.089  1.00  0.00     0.016 A 
ATOM     24  C   UNL     1       1.021   4.726   4.640  1.00  0.00     0.010 A 
ATOM     25  C   UNL     1       3.041   5.843   5.379  1.00  0.00     0.010 A 
ATOM     26  C   UNL     1       1.743   5.371   5.653  1.00  0.00    -0.014 A 
BRANCH  26  27
ATOM     27  C   UNL     1       1.059   5.729   6.925  1.00  0.00     0.031 A 
ATOM     28  C   UNL     1       0.557   7.140   7.095  1.00  0.00     0.074 A 
ATOM     29  C   UNL     1       0.851   4.826   7.901  1.00  0.00     0.049 A 
ATOM     30  N   UNL     1      -0.068   7.685   8.106  1.00  0.00    -0.248 NA
ATOM     31  C   UNL     1       0.793   8.061   5.969  1.00  0.00     0.031 C 
ATOM     32  C   UNL     1       1.281   3.430   7.873  1.00  0.00     0.029 A 
ATOM     33  N   UNL     1       0.238   4.964   9.124  1.00  0.00    -0.354 N 
ATOM     34  C   UNL     1      -0.286   9.010   7.748  1.00  0.00     0.074 A 
ATOM     35  C   UNL     1       0.298   9.196   6.438  1.00  0.00     0.031 C 
ATOM     36  C   UNL     1       0.947   2.847   9.039  1.00  0.00     0.029 A 
ATOM     37  C   UNL     1       0.297   3.832   9.903  1.00  0.00     0.049 A 
ATOM     38  H   UNL     1      -0.201   5.796   9.415  1.00  0.00     0.167 HD
ATOM     39  C   UNL     1      -0.934   9.983   8.431  1.00  0.00     0.034 A 
ATOM     40  C   UNL     1      -0.104   3.622  11.174  1.00  0.00     0.034 A 
ATOM     41  C   UNL     1      -1.521   9.808   9.732  1.00  0.00     0.049 A 
ATOM     42  C   UNL     1      -0.792   4.733  11.930  1.00  0.00     0.074 A 
ATOM     43  C   UNL     1      -2.215  10.731  10.493  1.00  0.00     0.029 A 
ATOM     44  N   UNL     1      -1.475   8.636  10.470  1.00  0.00    -0.354 N 
ATOM     45  N   UNL     1      -1.086   5.948  11.534  1.00  0.00    -0.248 NA
ATOM     46  C   UNL     1      -1.241   4.428  13.298  1.00  0.00     0.031 C 
ATOM     47  C   UNL     1      -2.565  10.126  11.705  1.00  0.00     0.029 A 
ATOM     48  C   UNL     1      -2.125   8.813  11.680  1.00  0.00     0.049 A 
ATOM     49  H   UNL     1      -1.045   7.801  10.177  1.00  0.00     0.167 HD
ATOM     50  C   UNL     1      -1.784   6.536  12.585  1.00  0.00     0.074 A 
ATOM     51  C   UNL     1      -1.894   5.535  13.624  1.00  0.00     0.031 C 
ATOM     52  C   UNL     1      -2.277   7.796  12.688  1.00  0.00     0.034 A 
BRANCH  39  53
ATOM     53  C   UNL     1      -1.070  11.328   7.764  1.00  0.00     0.023 A 
ATOM     54  C   UNL     1      -1.942  11.473   6.665  1.00  0.00     0.012 A 
ATOM     55  C   UNL     1      -0.382  12.455   8.255  1.00  0.00     0.148 A 
ATOM     56  C   UNL     1      -2.103  12.711   6.044  1.00  0.00     0.002 A 
ATOM     57  C   UNL     1      -0.584  13.695   7.660  1.00  0.00     0.091 A 
ATOM     58  F   UNL     1       0.457  12.292   9.287  1.00  0.00    -0.205 F 
ATOM     59  C   UNL     1      -1.433  13.822   6.549  1.00  0.00     0.022 A 
BRANCH  57  60
ATOM     60  S   UNL     1       0.168  15.203   8.281  1.00  0.00     0.127 S 
ATOM     61  O   UNL     1       1.089  15.541   7.196  1.00  0.00    -0.237 OA
ATOM     62  O   UNL     1      -0.987  16.093   8.400  1.00  0.00    -0.237 OA
ATOM     63  O   UNL     1       0.799  14.849   9.545  1.00  0.00    -0.744 OA
ENDBRANCH  57  60
ENDBRANCH  39  53
BRANCH  40  64
ATOM     64  C   UNL     1       0.121   2.299  11.826  1.00  0.00     0.023 A 
ATOM     65  C   UNL     1      -0.977   1.485  12.169  1.00  0.00     0.012 A 
ATOM     66  C   UNL     1       1.423   1.856  12.132  1.00  0.00     0.148 A 
ATOM     67  C   UNL     1      -0.785   0.277  12.842  1.00  0.00     0.002 A 
ATOM     68  C   UNL     1       1.610   0.624  12.747  1.00  0.00     0.091 A 
ATOM     69  F   UNL     1       2.454   2.653  11.818  1.00  0.00    -0.205 F 
ATOM     70  C   UNL     1       0.507  -0.158  13.123  1.00  0.00     0.022 A 
BRANCH  68  71
ATOM     71  S   UNL     1       3.241  -0.069  13.033  1.00  0.00     0.127 S 
ATOM     72  O   UNL     1       3.351   0.013  14.487  1.00  0.00    -0.237 OA
ATOM     73  O   UNL     1       3.089  -1.424  12.501  1.00  0.00    -0.237 OA
ATOM     74  O   UNL     1       4.162   0.771  12.280  1.00  0.00    -0.744 OA
ENDBRANCH  68  71
ENDBRANCH  40  64
BRANCH  52  75
ATOM     75  C   UNL     1      -3.030   8.156  13.946  1.00  0.00     0.023 A 
ATOM     76  C   UNL     1      -2.344   8.288  15.170  1.00  0.00     0.012 A 
ATOM     77  C   UNL     1      -4.415   8.415  13.902  1.00  0.00     0.148 A 
ATOM     78  C   UNL     1      -3.031   8.623  16.337  1.00  0.00     0.002 A 
ATOM     79  C   UNL     1      -5.084   8.801  15.058  1.00  0.00     0.091 A 
ATOM     80  F   UNL     1      -5.057   8.272  12.733  1.00  0.00    -0.205 F 
ATOM     81  C   UNL     1      -4.397   8.889  16.280  1.00  0.00     0.022 A 
BRANCH  79  82
ATOM     82  S   UNL     1      -6.822   9.257  15.060  1.00  0.00     0.127 S 
ATOM     83  O   UNL     1      -7.429   8.112  15.738  1.00  0.00    -0.237 OA
ATOM     84  O   UNL     1      -6.817  10.495  15.841  1.00  0.00    -0.237 OA
ATOM     85  O   UNL     1      -7.194   9.426  13.662  1.00  0.00    -0.744 OA
ENDBRANCH  79  82
ENDBRANCH  52  75
ENDBRANCH  26  27
ENDBRANCH  19  21
ENDBRANCH  18  19
ENDBRANCH  17  18
ENDBRANCH  16  17
ENDBRANCH  15  16
ENDBRANCH   1  15
TORSDOF 21
