REMARK SMILES C[C@@H](C(=O)OCCOCCOCCOC(=O)c1ccc(-c2c3nc(c(-c4cccc(S(=O)(=O)[O-])c4F)c4ccc([nH]4)c(-c4cccc(S(=O)(=O)[O-])c4F)c4nc(c(-c5cccc(S(=O)(=O)[O-])c5F)c5ccc2[nH]5)C=C4)C=C3)cc1)[C@@H](C)C(=O)c1cccc(Cl)c1
REMARK SMILES IDX 9 1 8 2 7 3 6 4 5 5 3 6 4 7 2 8 1 9 80 10 81 11 82 12 83 13
REMARK SMILES IDX 84 14 85 15 90 16 86 17 88 18 87 19 89 20 10 21 11 22 12 23
REMARK SMILES IDX 13 24 14 25 15 26 16 27 17 28 18 29 79 30 19 31 78 32 20 33
REMARK SMILES IDX 21 34 22 35 72 36 23 37 77 38 71 39 73 40 24 41 76 42 70 43
REMARK SMILES IDX 69 44 25 46 57 47 37 48 56 49 38 50 41 51 55 52 74 53 39 54
REMARK SMILES IDX 40 55 54 57 75 58 42 59 26 60 27 61 35 62 28 63 30 64 36 65
REMARK SMILES IDX 29 66 31 67 32 68 33 69 34 70 58 71 59 72 67 73 60 74 62 75
REMARK SMILES IDX 68 76 61 77 63 78 64 79 65 80 66 81 43 82 44 83 52 84 45 85
REMARK SMILES IDX 47 86 53 87 46 88 48 89 49 90 50 91 51 92
REMARK H PARENT 73 45 41 56
REMARK Flexibility Score: inf
ROOT
ATOM      1  C   UNL     1       0.462  -2.890  -2.606  1.00  0.00     0.188 C 
ENDROOT
BRANCH   1   2
ATOM      2  O   UNL     1       1.318  -3.465  -3.567  1.00  0.00    -0.376 OA
BRANCH   2   3
ATOM      3  C   UNL     1       2.571  -2.861  -3.848  1.00  0.00     0.202 C 
BRANCH   3   4
ATOM      4  C   UNL     1       2.828  -1.347  -3.750  1.00  0.00     0.261 C 
BRANCH   4   5
ATOM      5  O   UNL     1       2.409  -0.689  -2.535  1.00  0.00    -0.463 OA
BRANCH   5   6
ATOM      6  C   UNL     1       1.471   0.270  -2.704  1.00  0.00     0.309 C 
ATOM      7  O   UNL     1       1.057   0.588  -3.814  1.00  0.00    -0.252 OA
BRANCH   6   8
ATOM      8  C   UNL     1       0.955   0.961  -1.425  1.00  0.00     0.106 C 
ATOM      9  C   UNL     1       1.534   0.503  -0.078  1.00  0.00     0.021 C 
BRANCH   8  10
ATOM     10  C   UNL     1      -0.596   0.960  -1.445  1.00  0.00     0.072 C 
ATOM     11  C   UNL     1      -1.253   1.709  -0.283  1.00  0.00     0.017 C 
BRANCH  10  12
ATOM     12  C   UNL     1      -1.310   1.394  -2.740  1.00  0.00     0.166 C 
ATOM     13  O   UNL     1      -2.228   0.690  -3.171  1.00  0.00    -0.294 OA
BRANCH  12  14
ATOM     14  C   UNL     1      -1.056   2.710  -3.423  1.00  0.00     0.019 A 
ATOM     15  C   UNL     1      -2.137   3.311  -4.084  1.00  0.00     0.012 A 
ATOM     16  C   UNL     1       0.194   3.330  -3.514  1.00  0.00     0.032 A 
ATOM     17  C   UNL     1      -1.969   4.508  -4.790  1.00  0.00     0.002 A 
ATOM     18  C   UNL     1       0.362   4.516  -4.224  1.00  0.00     0.041 A 
ATOM     19  C   UNL     1      -0.716   5.115  -4.857  1.00  0.00     0.020 A 
ATOM     20  Cl  UNL     1       1.933   5.217  -4.332  1.00  0.00    -0.084 Cl
ENDBRANCH  12  14
ENDBRANCH  10  12
ENDBRANCH   8  10
ENDBRANCH   6   8
ENDBRANCH   5   6
ENDBRANCH   4   5
ENDBRANCH   3   4
ENDBRANCH   2   3
ENDBRANCH   1   2
BRANCH   1  21
ATOM     21  C   UNL     1       0.990  -2.709  -1.183  1.00  0.00     0.188 C 
BRANCH  21  22
ATOM     22  O   UNL     1       2.358  -2.874  -0.912  1.00  0.00    -0.376 OA
BRANCH  22  23
ATOM     23  C   UNL     1       2.911  -4.156  -0.675  1.00  0.00     0.202 C 
BRANCH  23  24
ATOM     24  C   UNL     1       2.126  -5.477  -0.544  1.00  0.00     0.261 C 
BRANCH  24  25
ATOM     25  O   UNL     1       0.700  -5.438  -0.586  1.00  0.00    -0.460 OA
BRANCH  25  26
ATOM     26  C   UNL     1       0.071  -5.220   0.596  1.00  0.00     0.338 C 
ATOM     27  O   UNL     1       0.596  -5.060   1.687  1.00  0.00    -0.246 OA
BRANCH  26  28
ATOM     28  C   UNL     1      -1.351  -4.939   0.295  1.00  0.00     0.060 A 
ATOM     29  C   UNL     1      -1.878  -3.684   0.643  1.00  0.00     0.016 A 
ATOM     30  C   UNL     1      -2.141  -5.879  -0.366  1.00  0.00     0.016 A 
ATOM     31  C   UNL     1      -3.204  -3.374   0.347  1.00  0.00     0.010 A 
ATOM     32  C   UNL     1      -3.480  -5.579  -0.629  1.00  0.00     0.010 A 
ATOM     33  C   UNL     1      -4.025  -4.339  -0.247  1.00  0.00    -0.014 A 
BRANCH  33  34
ATOM     34  C   UNL     1      -5.494  -4.143  -0.273  1.00  0.00     0.031 A 
ATOM     35  C   UNL     1      -6.312  -4.799   0.806  1.00  0.00     0.074 A 
ATOM     36  C   UNL     1      -6.097  -3.418  -1.231  1.00  0.00     0.049 A 
ATOM     37  N   UNL     1      -7.609  -4.850   0.952  1.00  0.00    -0.248 NA
ATOM     38  C   UNL     1      -5.558  -5.497   1.863  1.00  0.00     0.031 C 
ATOM     39  C   UNL     1      -5.419  -2.711  -2.315  1.00  0.00     0.029 A 
ATOM     40  N   UNL     1      -7.432  -3.189  -1.459  1.00  0.00    -0.354 N 
ATOM     41  C   UNL     1      -7.830  -5.611   2.093  1.00  0.00     0.074 A 
ATOM     42  C   UNL     1      -6.534  -6.010   2.596  1.00  0.00     0.031 C 
ATOM     43  C   UNL     1      -6.346  -2.163  -3.121  1.00  0.00     0.029 A 
ATOM     44  C   UNL     1      -7.679  -2.505  -2.626  1.00  0.00     0.049 A 
ATOM     45  H   UNL     1      -8.143  -3.486  -0.846  1.00  0.00     0.167 HD
ATOM     46  C   UNL     1      -9.005  -5.941   2.678  1.00  0.00     0.034 A 
ATOM     47  C   UNL     1      -8.846  -2.220  -3.239  1.00  0.00     0.034 A 
ATOM     48  C   UNL     1     -10.292  -5.540   2.182  1.00  0.00     0.049 A 
ATOM     49  C   UNL     1     -10.145  -2.637  -2.592  1.00  0.00     0.074 A 
ATOM     50  C   UNL     1     -11.539  -5.795   2.724  1.00  0.00     0.029 A 
ATOM     51  N   UNL     1     -10.502  -4.815   1.019  1.00  0.00    -0.354 N 
ATOM     52  N   UNL     1     -10.342  -3.269  -1.460  1.00  0.00    -0.248 NA
ATOM     53  C   UNL     1     -11.385  -2.272  -3.294  1.00  0.00     0.031 C 
ATOM     54  C   UNL     1     -12.505  -5.256   1.869  1.00  0.00     0.029 A 
ATOM     55  C   UNL     1     -11.858  -4.626   0.818  1.00  0.00     0.049 A 
ATOM     56  H   UNL     1      -9.791  -4.484   0.424  1.00  0.00     0.167 HD
ATOM     57  C   UNL     1     -11.722  -3.340  -1.294  1.00  0.00     0.074 A 
ATOM     58  C   UNL     1     -12.313  -2.672  -2.435  1.00  0.00     0.031 C 
ATOM     59  C   UNL     1     -12.436  -3.914  -0.294  1.00  0.00     0.034 A 
BRANCH  46  60
ATOM     60  C   UNL     1      -8.947  -6.775   3.931  1.00  0.00     0.023 A 
ATOM     61  C   UNL     1      -8.472  -6.207   5.130  1.00  0.00     0.012 A 
ATOM     62  C   UNL     1      -9.401  -8.108   3.929  1.00  0.00     0.148 A 
ATOM     63  C   UNL     1      -8.416  -6.963   6.300  1.00  0.00     0.002 A 
ATOM     64  C   UNL     1      -9.388  -8.840   5.110  1.00  0.00     0.091 A 
ATOM     65  F   UNL     1      -9.827  -8.637   2.773  1.00  0.00    -0.205 F 
ATOM     66  C   UNL     1      -8.883  -8.274   6.292  1.00  0.00     0.022 A 
BRANCH  64  67
ATOM     67  S   UNL     1     -10.043 -10.508   5.222  1.00  0.00     0.127 S 
ATOM     68  O   UNL     1      -8.825 -11.290   5.430  1.00  0.00    -0.237 OA
ATOM     69  O   UNL     1     -10.916 -10.415   6.393  1.00  0.00    -0.237 OA
ATOM     70  O   UNL     1     -10.736 -10.755   3.966  1.00  0.00    -0.744 OA
ENDBRANCH  64  67
ENDBRANCH  46  60
BRANCH  47  71
ATOM     71  C   UNL     1      -8.848  -1.488  -4.537  1.00  0.00     0.023 A 
ATOM     72  C   UNL     1      -9.353  -0.174  -4.597  1.00  0.00     0.012 A 
ATOM     73  C   UNL     1      -8.356  -2.088  -5.713  1.00  0.00     0.148 A 
ATOM     74  C   UNL     1      -9.399   0.516  -5.809  1.00  0.00     0.002 A 
ATOM     75  C   UNL     1      -8.354  -1.376  -6.906  1.00  0.00     0.091 A 
ATOM     76  F   UNL     1      -7.898  -3.346  -5.639  1.00  0.00    -0.205 F 
ATOM     77  C   UNL     1      -8.892  -0.080  -6.960  1.00  0.00     0.022 A 
BRANCH  75  78
ATOM     78  S   UNL     1      -7.627  -2.018  -8.417  1.00  0.00     0.127 S 
ATOM     79  O   UNL     1      -8.804  -2.187  -9.267  1.00  0.00    -0.237 OA
ATOM     80  O   UNL     1      -6.737  -0.925  -8.810  1.00  0.00    -0.237 OA
ATOM     81  O   UNL     1      -6.945  -3.248  -8.038  1.00  0.00    -0.744 OA
ENDBRANCH  75  78
ENDBRANCH  47  71
BRANCH  59  82
ATOM     82  C   UNL     1     -13.940  -3.808  -0.346  1.00  0.00     0.023 A 
ATOM     83  C   UNL     1     -14.670  -4.545  -1.299  1.00  0.00     0.012 A 
ATOM     84  C   UNL     1     -14.635  -3.035   0.608  1.00  0.00     0.148 A 
ATOM     85  C   UNL     1     -16.064  -4.487  -1.325  1.00  0.00     0.002 A 
ATOM     86  C   UNL     1     -16.024  -3.024   0.610  1.00  0.00     0.091 A 
ATOM     87  F   UNL     1     -13.923  -2.329   1.499  1.00  0.00    -0.205 F 
ATOM     88  C   UNL     1     -16.741  -3.737  -0.365  1.00  0.00     0.022 A 
BRANCH  86  89
ATOM     89  S   UNL     1     -16.982  -2.168   1.866  1.00  0.00     0.127 S 
ATOM     90  O   UNL     1     -17.560  -1.065   1.101  1.00  0.00    -0.237 OA
ATOM     91  O   UNL     1     -17.942  -3.195   2.276  1.00  0.00    -0.237 OA
ATOM     92  O   UNL     1     -16.034  -1.779   2.901  1.00  0.00    -0.744 OA
ENDBRANCH  86  89
ENDBRANCH  59  82
ENDBRANCH  33  34
ENDBRANCH  26  28
ENDBRANCH  25  26
ENDBRANCH  24  25
ENDBRANCH  23  24
ENDBRANCH  22  23
ENDBRANCH  21  22
ENDBRANCH   1  21
TORSDOF 23
