REMARK SMILES O=C(OCCOCCOCCOC(=O)[C@@H]1CCCC[C@@H]1NS(=O)(=O)c1ccc2ccccc2c1)c1ccc(-c2c3nc(c(-c4cccc(S(=O)(=O)[O-])c4F)c4ccc([nH]4)c(-c4cccc(S(=O)(=O)[O-])c4F)c4nc(c(-c5cccc(S(=O)(=O)[O-])c5F)c5ccc2[nH]5)C=C4)C=C3)cc1
REMARK SMILES IDX 7 1 6 2 5 3 4 4 3 5 2 6 1 7 35 8 36 9 97 10 37 11 96 12
REMARK SMILES IDX 38 13 39 14 40 15 90 16 41 17 95 18 89 19 91 20 42 21 94 22
REMARK SMILES IDX 88 23 87 24 43 26 75 27 55 28 74 29 56 30 59 31 73 32 92 33
REMARK SMILES IDX 57 34 58 35 72 37 93 38 60 39 44 40 45 41 53 42 46 43 48 44
REMARK SMILES IDX 54 45 47 46 49 47 50 48 51 49 52 50 76 51 77 52 85 53 78 54
REMARK SMILES IDX 80 55 86 56 79 57 81 58 82 59 83 60 84 61 61 62 62 63 70 64
REMARK SMILES IDX 63 65 65 66 71 67 64 68 66 69 67 70 68 71 69 72 8 73 9 74
REMARK SMILES IDX 10 75 11 76 12 77 13 78 14 79 15 80 16 81 20 82 17 83 19 84
REMARK SMILES IDX 18 85 21 86 22 88 23 89 24 90 25 91 26 92 34 93 27 94 33 95
REMARK SMILES IDX 28 96 32 97 29 98 31 99 30 100
REMARK H PARENT 91 25 59 36 21 87
REMARK Flexibility Score: inf
ROOT
ATOM      1  C   UNL     1       1.886   1.488  -1.419  1.00  0.00     0.188 C 
ENDROOT
BRANCH   1   2
ATOM      2  O   UNL     1       3.101   1.406  -0.708  1.00  0.00    -0.376 OA
BRANCH   2   3
ATOM      3  C   UNL     1       3.883   0.265  -0.975  1.00  0.00     0.202 C 
BRANCH   3   4
ATOM      4  C   UNL     1       3.237  -1.046  -0.547  1.00  0.00     0.261 C 
BRANCH   4   5
ATOM      5  O   UNL     1       2.062  -1.036   0.338  1.00  0.00    -0.460 OA
BRANCH   5   6
ATOM      6  C   UNL     1       1.607  -0.879   1.600  1.00  0.00     0.338 C 
ATOM      7  O   UNL     1       0.542  -1.435   1.879  1.00  0.00    -0.246 OA
BRANCH   6   8
ATOM      8  C   UNL     1       2.193  -0.043   2.695  1.00  0.00     0.060 A 
ATOM      9  C   UNL     1       3.064   0.978   2.456  1.00  0.00     0.016 A 
ATOM     10  C   UNL     1       1.815  -0.192   4.048  1.00  0.00     0.016 A 
ATOM     11  C   UNL     1       3.646   1.707   3.521  1.00  0.00     0.010 A 
ATOM     12  C   UNL     1       2.418   0.564   5.117  1.00  0.00     0.010 A 
ATOM     13  C   UNL     1       3.442   1.490   4.881  1.00  0.00    -0.014 A 
BRANCH  13  14
ATOM     14  C   UNL     1       4.486   2.031   5.902  1.00  0.00     0.031 A 
ATOM     15  C   UNL     1       5.211   1.060   6.823  1.00  0.00     0.074 A 
ATOM     16  C   UNL     1       5.076   3.262   5.861  1.00  0.00     0.049 A 
ATOM     17  N   UNL     1       6.186   1.287   7.673  1.00  0.00    -0.248 NA
ATOM     18  C   UNL     1       4.876  -0.361   6.694  1.00  0.00     0.031 C 
ATOM     19  C   UNL     1       4.791   4.273   4.872  1.00  0.00     0.029 A 
ATOM     20  N   UNL     1       6.076   3.884   6.598  1.00  0.00    -0.354 N 
ATOM     21  C   UNL     1       6.589   0.042   8.140  1.00  0.00     0.074 A 
ATOM     22  C   UNL     1       5.754  -0.938   7.493  1.00  0.00     0.031 C 
ATOM     23  C   UNL     1       5.577   5.341   4.996  1.00  0.00     0.029 A 
ATOM     24  C   UNL     1       6.359   5.182   6.191  1.00  0.00     0.049 A 
ATOM     25  H   UNL     1       6.544   3.443   7.344  1.00  0.00     0.167 HD
ATOM     26  C   UNL     1       7.579  -0.289   9.000  1.00  0.00     0.034 A 
ATOM     27  C   UNL     1       7.107   6.191   6.683  1.00  0.00     0.034 A 
ATOM     28  C   UNL     1       8.449   0.643   9.649  1.00  0.00     0.049 A 
ATOM     29  C   UNL     1       7.977   5.883   7.848  1.00  0.00     0.074 A 
ATOM     30  C   UNL     1       9.383   0.401  10.640  1.00  0.00     0.029 A 
ATOM     31  N   UNL     1       8.502   1.996   9.365  1.00  0.00    -0.354 N 
ATOM     32  N   UNL     1       8.228   4.707   8.361  1.00  0.00    -0.248 NA
ATOM     33  C   UNL     1       8.691   6.997   8.481  1.00  0.00     0.031 C 
ATOM     34  C   UNL     1       9.967   1.621  10.992  1.00  0.00     0.029 A 
ATOM     35  C   UNL     1       9.419   2.614  10.196  1.00  0.00     0.049 A 
ATOM     36  H   UNL     1       7.968   2.451   8.675  1.00  0.00     0.167 HD
ATOM     37  C   UNL     1       9.153   4.928   9.361  1.00  0.00     0.074 A 
ATOM     38  C   UNL     1       9.435   6.351   9.369  1.00  0.00     0.031 C 
ATOM     39  C   UNL     1       9.704   4.023  10.199  1.00  0.00     0.034 A 
BRANCH  26  40
ATOM     40  C   UNL     1       7.714  -1.750   9.325  1.00  0.00     0.023 A 
ATOM     41  C   UNL     1       8.368  -2.619   8.430  1.00  0.00     0.012 A 
ATOM     42  C   UNL     1       7.123  -2.264  10.494  1.00  0.00     0.148 A 
ATOM     43  C   UNL     1       8.395  -3.992   8.677  1.00  0.00     0.002 A 
ATOM     44  C   UNL     1       7.181  -3.627  10.748  1.00  0.00     0.091 A 
ATOM     45  F   UNL     1       6.481  -1.416  11.309  1.00  0.00    -0.205 F 
ATOM     46  C   UNL     1       7.806  -4.494   9.836  1.00  0.00     0.022 A 
BRANCH  44  47
ATOM     47  S   UNL     1       6.467  -4.361  12.221  1.00  0.00     0.127 S 
ATOM     48  O   UNL     1       5.370  -5.145  11.656  1.00  0.00    -0.237 OA
ATOM     49  O   UNL     1       7.582  -5.153  12.739  1.00  0.00    -0.237 OA
ATOM     50  O   UNL     1       6.061  -3.249  13.070  1.00  0.00    -0.744 OA
ENDBRANCH  44  47
ENDBRANCH  26  40
BRANCH  27  51
ATOM     51  C   UNL     1       7.041   7.572   6.085  1.00  0.00     0.023 A 
ATOM     52  C   UNL     1       8.182   8.174   5.522  1.00  0.00     0.012 A 
ATOM     53  C   UNL     1       5.817   8.281   6.038  1.00  0.00     0.148 A 
ATOM     54  C   UNL     1       8.110   9.447   4.942  1.00  0.00     0.002 A 
ATOM     55  C   UNL     1       5.737   9.514   5.397  1.00  0.00     0.091 A 
ATOM     56  F   UNL     1       4.738   7.727   6.609  1.00  0.00    -0.205 F 
ATOM     57  C   UNL     1       6.886  10.109   4.863  1.00  0.00     0.022 A 
BRANCH  55  58
ATOM     58  S   UNL     1       4.161  10.335   5.113  1.00  0.00     0.127 S 
ATOM     59  O   UNL     1       4.165  11.363   6.150  1.00  0.00    -0.237 OA
ATOM     60  O   UNL     1       4.315  10.837   3.746  1.00  0.00    -0.237 OA
ATOM     61  O   UNL     1       3.155   9.290   5.247  1.00  0.00    -0.744 OA
ENDBRANCH  55  58
ENDBRANCH  27  51
BRANCH  39  62
ATOM     62  C   UNL     1      10.666   4.542  11.215  1.00  0.00     0.023 A 
ATOM     63  C   UNL     1      10.184   5.290  12.306  1.00  0.00     0.012 A 
ATOM     64  C   UNL     1      12.032   4.231  11.121  1.00  0.00     0.148 A 
ATOM     65  C   UNL     1      11.063   5.748  13.282  1.00  0.00     0.002 A 
ATOM     66  C   UNL     1      12.891   4.638  12.129  1.00  0.00     0.091 A 
ATOM     67  F   UNL     1      12.462   3.543  10.053  1.00  0.00    -0.205 F 
ATOM     68  C   UNL     1      12.412   5.408  13.201  1.00  0.00     0.022 A 
BRANCH  66  69
ATOM     69  S   UNL     1      14.613   4.140  12.163  1.00  0.00     0.127 S 
ATOM     70  O   UNL     1      15.288   5.383  11.794  1.00  0.00    -0.237 OA
ATOM     71  O   UNL     1      14.790   3.737  13.558  1.00  0.00    -0.237 OA
ATOM     72  O   UNL     1      14.733   3.051  11.203  1.00  0.00    -0.744 OA
ENDBRANCH  66  69
ENDBRANCH  39  62
ENDBRANCH  13  14
ENDBRANCH   6   8
ENDBRANCH   5   6
ENDBRANCH   4   5
ENDBRANCH   3   4
ENDBRANCH   2   3
ENDBRANCH   1   2
BRANCH   1  73
ATOM     73  C   UNL     1       2.051   2.200  -2.755  1.00  0.00     0.188 C 
BRANCH  73  74
ATOM     74  O   UNL     1       3.195   1.733  -3.478  1.00  0.00    -0.376 OA
BRANCH  74  75
ATOM     75  C   UNL     1       4.035   2.789  -3.957  1.00  0.00     0.202 C 
BRANCH  75  76
ATOM     76  C   UNL     1       5.093   3.287  -2.961  1.00  0.00     0.261 C 
BRANCH  76  77
ATOM     77  O   UNL     1       4.580   3.594  -1.665  1.00  0.00    -0.463 OA
BRANCH  77  78
ATOM     78  C   UNL     1       3.983   4.787  -1.533  1.00  0.00     0.310 C 
ATOM     79  O   UNL     1       3.744   5.543  -2.470  1.00  0.00    -0.252 OA
BRANCH  78  80
ATOM     80  C   UNL     1       3.483   5.019  -0.136  1.00  0.00     0.117 C 
ATOM     81  C   UNL     1       3.553   6.522   0.221  1.00  0.00     0.017 C 
ATOM     82  C   UNL     1       3.787   3.988   0.997  1.00  0.00     0.084 C 
ATOM     83  C   UNL     1       2.732   6.894   1.453  1.00  0.00     0.001 C 
ATOM     84  C   UNL     1       2.800   4.496   2.119  1.00  0.00     0.021 C 
ATOM     85  C   UNL     1       3.068   5.939   2.571  1.00  0.00     0.002 C 
BRANCH  82  86
ATOM     86  N   UNL     1       5.203   3.713   1.543  1.00  0.00    -0.207 NA
ATOM     87  H   UNL     1       5.034   3.553   2.536  1.00  0.00     0.141 HD
BRANCH  86  88
ATOM     88  S   UNL     1       6.482   2.553   1.174  1.00  0.00     0.240 S 
ATOM     89  O   UNL     1       6.631   2.496  -0.268  1.00  0.00    -0.207 OA
ATOM     90  O   UNL     1       7.585   3.034   1.976  1.00  0.00    -0.207 OA
BRANCH  88  91
ATOM     91  C   UNL     1       6.326   0.776   1.716  1.00  0.00     0.083 A 
ATOM     92  C   UNL     1       6.058   0.421   3.021  1.00  0.00     0.022 A 
ATOM     93  C   UNL     1       6.594  -0.321   0.856  1.00  0.00     0.030 A 
ATOM     94  C   UNL     1       5.510  -0.853   3.292  1.00  0.00     0.010 A 
ATOM     95  C   UNL     1       6.164  -1.671   1.162  1.00  0.00    -0.017 A 
ATOM     96  C   UNL     1       5.452  -1.871   2.348  1.00  0.00    -0.018 A 
ATOM     97  C   UNL     1       6.304  -2.815   0.331  1.00  0.00     0.009 A 
ATOM     98  C   UNL     1       4.714  -3.057   2.587  1.00  0.00     0.009 A 
ATOM     99  C   UNL     1       5.615  -4.020   0.595  1.00  0.00     0.001 A 
ATOM    100  C   UNL     1       4.771  -4.120   1.694  1.00  0.00     0.001 A 
ENDBRANCH  88  91
ENDBRANCH  86  88
ENDBRANCH  82  86
ENDBRANCH  78  80
ENDBRANCH  77  78
ENDBRANCH  76  77
ENDBRANCH  75  76
ENDBRANCH  74  75
ENDBRANCH  73  74
ENDBRANCH   1  73
TORSDOF 23
