REMARK SMILES O=C(CC[NH+]1CCC([N@H+]2CCC[C@H](C(=O)NCc3cccnc3)C2)CC1)OCCOCCOCCOC(=O)c1ccc(-c2c3nc(c(-c4cccc(S(=O)(=O)[O-])c4F)c4ccc([nH]4)c(-c4cccc(S(=O)(=O)[O-])c4F)c4nc(c(-c5cccc(S(=O)(=O)[O-])c5F)c5ccc2[nH]5)C=C4)C=C3)cc1
REMARK SMILES IDX 30 1 29 2 28 3 27 4 2 5 1 6 3 7 4 8 5 9 6 10 26 11 7 13
REMARK SMILES IDX 25 14 8 15 9 16 10 17 24 18 11 20 13 21 12 22 14 23 15 24
REMARK SMILES IDX 16 25 17 27 18 28 19 29 23 30 20 31 22 32 21 33 31 34 32 35
REMARK SMILES IDX 33 36 34 37 35 38 36 39 37 40 38 41 39 42 40 43 101 44 41 45
REMARK SMILES IDX 100 46 42 47 43 48 44 49 94 50 45 51 99 52 93 53 95 54 46 55
REMARK SMILES IDX 98 56 92 57 91 58 47 60 79 61 59 62 78 63 60 64 63 65 77 66
REMARK SMILES IDX 96 67 61 68 62 69 76 71 97 72 64 73 48 74 49 75 57 76 50 77
REMARK SMILES IDX 52 78 58 79 51 80 53 81 54 82 55 83 56 84 80 85 81 86 89 87
REMARK SMILES IDX 82 88 84 89 90 90 83 91 85 92 86 93 87 94 88 95 65 96 66 97
REMARK SMILES IDX 74 98 67 99 69 100 75 101 68 102 70 103 71 104 72 105 73 106
REMARK H PARENT 5 12 9 19 16 26 95 59 63 70
REMARK Flexibility Score: inf
ROOT
ATOM      1  O   UNL     1       3.955   2.229  -0.120  1.00  0.00    -0.376 OA
ENDROOT
BRANCH   1   2
ATOM      2  C   UNL     1       4.416   1.253  -1.029  1.00  0.00     0.202 C 
BRANCH   2   3
ATOM      3  C   UNL     1       3.518   0.063  -1.404  1.00  0.00     0.261 C 
BRANCH   3   4
ATOM      4  O   UNL     1       2.289  -0.143  -0.691  1.00  0.00    -0.463 OA
BRANCH   4   5
ATOM      5  C   UNL     1       2.200  -1.025   0.335  1.00  0.00     0.311 C 
ATOM      6  O   UNL     1       1.365  -1.924   0.314  1.00  0.00    -0.252 OA
BRANCH   5   7
ATOM      7  C   UNL     1       3.011  -0.704   1.562  1.00  0.00     0.184 C 
BRANCH   7   8
ATOM      8  C   UNL     1       3.834  -1.887   2.099  1.00  0.00     0.274 C 
BRANCH   8   9
ATOM      9  N   UNL     1       4.969  -2.392   1.294  1.00  0.00    -0.334 N 
ATOM     10  C   UNL     1       4.563  -3.336   0.261  1.00  0.00     0.268 C 
ATOM     11  C   UNL     1       5.896  -1.337   0.916  1.00  0.00     0.268 C 
ATOM     12  H   UNL     1       5.545  -2.982   1.893  1.00  0.00     0.348 HD
ATOM     13  C   UNL     1       5.722  -3.775  -0.638  1.00  0.00     0.126 C 
ATOM     14  C   UNL     1       6.846  -1.588  -0.255  1.00  0.00     0.126 C 
ATOM     15  C   UNL     1       6.307  -2.542  -1.333  1.00  0.00     0.195 C 
BRANCH  15  16
ATOM     16  N   UNL     1       7.294  -2.755  -2.415  1.00  0.00    -0.331 N 
ATOM     17  C   UNL     1       8.561  -3.327  -1.965  1.00  0.00     0.262 C 
ATOM     18  C   UNL     1       6.718  -3.435  -3.586  1.00  0.00     0.275 C 
ATOM     19  H   UNL     1       7.546  -1.820  -2.736  1.00  0.00     0.348 HD
ATOM     20  C   UNL     1       9.582  -3.393  -3.092  1.00  0.00     0.062 C 
ATOM     21  C   UNL     1       7.684  -3.676  -4.750  1.00  0.00     0.133 C 
ATOM     22  C   UNL     1       9.065  -4.148  -4.299  1.00  0.00     0.025 C 
BRANCH  21  23
ATOM     23  C   UNL     1       7.722  -2.660  -5.897  1.00  0.00     0.229 C 
ATOM     24  O   UNL     1       7.519  -3.065  -7.052  1.00  0.00    -0.275 OA
ATOM     25  N   UNL     1       8.037  -1.349  -5.797  1.00  0.00    -0.352 N 
ATOM     26  H   UNL     1       8.227  -0.925  -6.665  1.00  0.00     0.163 HD
BRANCH  25  27
ATOM     27  C   UNL     1       8.153  -0.443  -4.677  1.00  0.00     0.153 C 
BRANCH  27  28
ATOM     28  C   UNL     1       9.475   0.274  -4.598  1.00  0.00    -0.010 A 
ATOM     29  C   UNL     1       9.547   1.582  -4.104  1.00  0.00     0.009 A 
ATOM     30  C   UNL     1      10.685  -0.359  -4.866  1.00  0.00     0.116 A 
ATOM     31  C   UNL     1      10.787   2.175  -3.876  1.00  0.00     0.020 A 
ATOM     32  N   UNL     1      11.904   0.188  -4.650  1.00  0.00    -0.264 NA
ATOM     33  C   UNL     1      11.926   1.438  -4.144  1.00  0.00     0.111 A 
ENDBRANCH  27  28
ENDBRANCH  25  27
ENDBRANCH  21  23
ENDBRANCH  15  16
ENDBRANCH   8   9
ENDBRANCH   7   8
ENDBRANCH   5   7
ENDBRANCH   4   5
ENDBRANCH   3   4
ENDBRANCH   2   3
ENDBRANCH   1   2
BRANCH   1  34
ATOM     34  C   UNL     1       2.567   2.513  -0.082  1.00  0.00     0.188 C 
BRANCH  34  35
ATOM     35  C   UNL     1       1.875   2.894  -1.400  1.00  0.00     0.188 C 
BRANCH  35  36
ATOM     36  O   UNL     1       2.701   2.749  -2.537  1.00  0.00    -0.376 OA
BRANCH  36  37
ATOM     37  C   UNL     1       3.499   3.835  -2.980  1.00  0.00     0.202 C 
BRANCH  37  38
ATOM     38  C   UNL     1       4.151   4.910  -2.080  1.00  0.00     0.261 C 
BRANCH  38  39
ATOM     39  O   UNL     1       3.726   5.053  -0.725  1.00  0.00    -0.460 OA
BRANCH  39  40
ATOM     40  C   UNL     1       2.679   5.875  -0.495  1.00  0.00     0.338 C 
ATOM     41  O   UNL     1       2.015   6.457  -1.339  1.00  0.00    -0.246 OA
BRANCH  40  42
ATOM     42  C   UNL     1       2.320   5.791   0.938  1.00  0.00     0.060 A 
ATOM     43  C   UNL     1       1.049   5.299   1.267  1.00  0.00     0.016 A 
ATOM     44  C   UNL     1       3.223   6.147   1.944  1.00  0.00     0.016 A 
ATOM     45  C   UNL     1       0.663   5.194   2.600  1.00  0.00     0.010 A 
ATOM     46  C   UNL     1       2.816   6.089   3.283  1.00  0.00     0.010 A 
ATOM     47  C   UNL     1       1.518   5.654   3.609  1.00  0.00    -0.014 A 
BRANCH  47  48
ATOM     48  C   UNL     1       0.922   5.946   4.935  1.00  0.00     0.031 A 
ATOM     49  C   UNL     1       0.416   7.344   5.175  1.00  0.00     0.074 A 
ATOM     50  C   UNL     1       0.744   4.989   5.863  1.00  0.00     0.049 A 
ATOM     51  N   UNL     1      -0.197   7.840   6.216  1.00  0.00    -0.248 NA
ATOM     52  C   UNL     1       0.623   8.313   4.082  1.00  0.00     0.031 C 
ATOM     53  C   UNL     1       1.162   3.595   5.738  1.00  0.00     0.029 A 
ATOM     54  N   UNL     1       0.165   5.058   7.106  1.00  0.00    -0.354 N 
ATOM     55  C   UNL     1      -0.441   9.173   5.909  1.00  0.00     0.074 A 
ATOM     56  C   UNL     1       0.113   9.419   4.598  1.00  0.00     0.031 C 
ATOM     57  C   UNL     1       0.853   2.945   6.875  1.00  0.00     0.029 A 
ATOM     58  C   UNL     1       0.231   3.880   7.811  1.00  0.00     0.049 A 
ATOM     59  H   UNL     1      -0.258   5.874   7.459  1.00  0.00     0.167 HD
ATOM     60  C   UNL     1      -1.089  10.108   6.642  1.00  0.00     0.034 A 
ATOM     61  C   UNL     1      -0.149   3.601   9.075  1.00  0.00     0.034 A 
ATOM     62  C   UNL     1      -1.639   9.865   7.946  1.00  0.00     0.049 A 
ATOM     63  C   UNL     1      -0.822   4.676   9.893  1.00  0.00     0.074 A 
ATOM     64  C   UNL     1      -2.316  10.744   8.771  1.00  0.00     0.029 A 
ATOM     65  N   UNL     1      -1.565   8.656   8.620  1.00  0.00    -0.354 N 
ATOM     66  N   UNL     1      -1.125   5.907   9.556  1.00  0.00    -0.248 NA
ATOM     67  C   UNL     1      -1.242   4.310  11.255  1.00  0.00     0.031 C 
ATOM     68  C   UNL     1      -2.626  10.074   9.959  1.00  0.00     0.029 A 
ATOM     69  C   UNL     1      -2.179   8.766   9.855  1.00  0.00     0.049 A 
ATOM     70  H   UNL     1      -1.138   7.840   8.272  1.00  0.00     0.167 HD
ATOM     71  C   UNL     1      -1.803   6.447  10.645  1.00  0.00     0.074 A 
ATOM     72  C   UNL     1      -1.889   5.400  11.642  1.00  0.00     0.031 C 
ATOM     73  C   UNL     1      -2.299   7.699  10.814  1.00  0.00     0.034 A 
BRANCH  60  74
ATOM     74  C   UNL     1      -1.251  11.476   6.035  1.00  0.00     0.023 A 
ATOM     75  C   UNL     1      -2.143  11.662   4.958  1.00  0.00     0.012 A 
ATOM     76  C   UNL     1      -0.552  12.583   6.553  1.00  0.00     0.148 A 
ATOM     77  C   UNL     1      -2.314  12.922   4.387  1.00  0.00     0.002 A 
ATOM     78  C   UNL     1      -0.764  13.845   6.010  1.00  0.00     0.091 A 
ATOM     79  F   UNL     1       0.310  12.380   7.558  1.00  0.00    -0.205 F 
ATOM     80  C   UNL     1      -1.634  14.014   4.920  1.00  0.00     0.022 A 
BRANCH  78  81
ATOM     81  S   UNL     1       0.005  15.327   6.671  1.00  0.00     0.127 S 
ATOM     82  O   UNL     1       0.896  15.710   5.576  1.00  0.00    -0.237 OA
ATOM     83  O   UNL     1      -1.147  16.210   6.857  1.00  0.00    -0.237 OA
ATOM     84  O   UNL     1       0.670  14.922   7.901  1.00  0.00    -0.744 OA
ENDBRANCH  78  81
ENDBRANCH  60  74
BRANCH  61  85
ATOM     85  C   UNL     1       0.092   2.247   9.652  1.00  0.00     0.023 A 
ATOM     86  C   UNL     1      -0.993   1.415   9.987  1.00  0.00     0.012 A 
ATOM     87  C   UNL     1       1.404   1.791   9.891  1.00  0.00     0.148 A 
ATOM     88  C   UNL     1      -0.779   0.173  10.588  1.00  0.00     0.002 A 
ATOM     89  C   UNL     1       1.612   0.528  10.432  1.00  0.00     0.091 A 
ATOM     90  F   UNL     1       2.424   2.605   9.586  1.00  0.00    -0.205 F 
ATOM     91  C   UNL     1       0.522  -0.274  10.802  1.00  0.00     0.022 A 
BRANCH  89  92
ATOM     92  S   UNL     1       3.253  -0.176  10.620  1.00  0.00     0.127 S 
ATOM     93  O   UNL     1       3.422  -0.160  12.070  1.00  0.00    -0.237 OA
ATOM     94  O   UNL     1       3.079  -1.504  10.032  1.00  0.00    -0.237 OA
ATOM     95  O   UNL     1       4.144   0.699   9.868  1.00  0.00    -0.744 OA
ENDBRANCH  89  92
ENDBRANCH  61  85
BRANCH  73  96
ATOM     96  C   UNL     1      -3.024   7.996  12.103  1.00  0.00     0.023 A 
ATOM     97  C   UNL     1      -2.308   8.083  13.314  1.00  0.00     0.012 A 
ATOM     98  C   UNL     1      -4.411   8.245  12.101  1.00  0.00     0.148 A 
ATOM     99  C   UNL     1      -2.969   8.366  14.509  1.00  0.00     0.002 A 
ATOM    100  C   UNL     1      -5.053   8.581  13.287  1.00  0.00     0.091 A 
ATOM    101  F   UNL     1      -5.078   8.145  10.942  1.00  0.00    -0.205 F 
ATOM    102  C   UNL     1      -4.337   8.625  14.494  1.00  0.00     0.022 A 
BRANCH 100 103
ATOM    103  S   UNL     1      -6.792   9.029  13.347  1.00  0.00     0.127 S 
ATOM    104  O   UNL     1      -7.378   7.859  13.999  1.00  0.00    -0.237 OA
ATOM    105  O   UNL     1      -6.771  10.240  14.168  1.00  0.00    -0.237 OA
ATOM    106  O   UNL     1      -7.199   9.243  11.965  1.00  0.00    -0.744 OA
ENDBRANCH 100 103
ENDBRANCH  73  96
ENDBRANCH  47  48
ENDBRANCH  40  42
ENDBRANCH  39  40
ENDBRANCH  38  39
ENDBRANCH  37  38
ENDBRANCH  36  37
ENDBRANCH  35  36
ENDBRANCH  34  35
ENDBRANCH   1  34
TORSDOF 26
