REMARK SMILES Cc1cccc(-n2c(C)cc(/C=N\c3ccc(O)c(C(=O)OCCOCCOCCOC(=O)c4ccc(-c5c6nc(c(-c7cccc(S(=O)(=O)[O-])c7F)c7ccc([nH]7)c(-c7cccc(S(=O)(=O)[O-])c7F)c7nc(c(-c8cccc(S(=O)(=O)[O-])c8F)c8ccc5[nH]8)C=C7)C=C6)cc4)c3)c2C)c1
REMARK SMILES IDX 26 1 25 2 24 3 23 4 22 5 20 6 21 7 19 8 14 9 15 10 97 11
REMARK SMILES IDX 16 12 17 13 13 14 12 15 11 16 7 17 8 18 98 19 9 20 10 21
REMARK SMILES IDX 99 22 6 23 1 24 2 25 3 26 100 27 4 28 5 29 18 30 27 32 28 33
REMARK SMILES IDX 29 34 30 35 31 36 32 37 33 38 34 39 35 40 96 41 36 42 95 43
REMARK SMILES IDX 37 44 38 45 39 46 89 47 40 48 94 49 88 50 90 51 41 52 93 53
REMARK SMILES IDX 87 54 86 55 42 57 74 58 54 59 73 60 55 61 58 62 72 63 91 64
REMARK SMILES IDX 56 65 57 66 71 68 92 69 59 70 43 71 44 72 52 73 45 74 47 75
REMARK SMILES IDX 53 76 46 77 48 78 49 79 50 80 51 81 75 82 76 83 84 84 77 85
REMARK SMILES IDX 79 86 85 87 78 88 80 89 81 90 82 91 83 92 60 93 61 94 69 95
REMARK SMILES IDX 62 96 64 97 70 98 63 99 65 100 66 101 67 102 68 103
REMARK H PARENT 18 31 90 56 58 67
REMARK Flexibility Score: inf
ROOT
ATOM      1  C   UNL     1      -6.545  -1.343   8.045  1.00  0.00     0.188 C 
ENDROOT
BRANCH   1   2
ATOM      2  O   UNL     1      -6.602  -2.748   7.873  1.00  0.00    -0.376 OA
BRANCH   2   3
ATOM      3  C   UNL     1      -6.019  -3.189   6.636  1.00  0.00     0.202 C 
BRANCH   3   4
ATOM      4  C   UNL     1      -4.508  -2.873   6.315  1.00  0.00     0.261 C 
BRANCH   4   5
ATOM      5  O   UNL     1      -4.146  -1.502   5.877  1.00  0.00    -0.460 OA
BRANCH   5   6
ATOM      6  C   UNL     1      -2.826  -1.174   5.591  1.00  0.00     0.342 C 
ATOM      7  O   UNL     1      -1.936  -1.992   5.812  1.00  0.00    -0.246 OA
BRANCH   6   8
ATOM      8  C   UNL     1      -2.370   0.320   5.117  1.00  0.00     0.103 A 
ATOM      9  C   UNL     1      -2.481   2.563   3.840  1.00  0.00     0.064 A 
ATOM     10  C   UNL     1      -1.220   2.857   4.310  1.00  0.00     0.032 A 
ATOM     11  C   UNL     1      -3.040   1.346   4.331  1.00  0.00     0.048 A 
ATOM     12  C   UNL     1      -0.541   1.943   5.138  1.00  0.00     0.049 A 
ATOM     13  C   UNL     1      -1.087   0.694   5.497  1.00  0.00     0.130 A 
BRANCH   9  14
ATOM     14  N   UNL     1      -3.273   3.541   3.192  1.00  0.00    -0.256 NA
ATOM     15  C   UNL     1      -3.281   3.999   1.964  1.00  0.00     0.121 C 
BRANCH  15  16
ATOM     16  C   UNL     1      -2.550   3.594   0.757  1.00  0.00     0.014 A 
ATOM     17  N   UNL     1      -1.540   2.264  -0.775  1.00  0.00    -0.318 N 
ATOM     18  C   UNL     1      -1.385   3.561  -1.227  1.00  0.00     0.021 A 
ATOM     19  C   UNL     1      -2.417   2.304   0.291  1.00  0.00     0.029 A 
ATOM     20  C   UNL     1      -0.679   3.861  -2.503  1.00  0.00     0.065 C 
ATOM     21  C   UNL     1      -2.036   4.393  -0.318  1.00  0.00     0.033 A 
ATOM     22  C   UNL     1      -2.969   1.092   0.883  1.00  0.00     0.065 C 
BRANCH  17  23
ATOM     23  C   UNL     1      -0.736   1.126  -1.069  1.00  0.00     0.046 A 
ATOM     24  C   UNL     1       2.721  -0.002   0.047  1.00  0.00     0.044 C 
ATOM     25  C   UNL     1       1.313  -0.017  -0.463  1.00  0.00    -0.049 A 
ATOM     26  C   UNL     1       0.664  -1.246  -0.656  1.00  0.00     0.003 A 
ATOM     27  C   UNL     1       0.608   1.176  -0.679  1.00  0.00     0.030 A 
ATOM     28  C   UNL     1      -0.648  -1.289  -1.124  1.00  0.00     0.002 A 
ATOM     29  C   UNL     1      -1.343  -0.104  -1.353  1.00  0.00     0.026 A 
ENDBRANCH  17  23
ENDBRANCH  15  16
ENDBRANCH   9  14
BRANCH  13  30
ATOM     30  O   UNL     1      -0.282  -0.110   6.261  1.00  0.00    -0.507 OA
ATOM     31  H   UNL     1       0.578   0.177   6.497  1.00  0.00     0.293 HD
ENDBRANCH  13  30
ENDBRANCH   6   8
ENDBRANCH   5   6
ENDBRANCH   4   5
ENDBRANCH   3   4
ENDBRANCH   2   3
ENDBRANCH   1   2
BRANCH   1  32
ATOM     32  C   UNL     1      -5.492  -1.075   9.115  1.00  0.00     0.188 C 
BRANCH  32  33
ATOM     33  O   UNL     1      -5.915  -1.253  10.468  1.00  0.00    -0.376 OA
BRANCH  33  34
ATOM     34  C   UNL     1      -7.215  -0.767  10.789  1.00  0.00     0.202 C 
BRANCH  34  35
ATOM     35  C   UNL     1      -7.542   0.744  10.552  1.00  0.00     0.261 C 
BRANCH  35  36
ATOM     36  O   UNL     1      -6.514   1.449   9.824  1.00  0.00    -0.460 OA
BRANCH  36  37
ATOM     37  C   UNL     1      -6.801   2.651   9.206  1.00  0.00     0.338 C 
ATOM     38  O   UNL     1      -7.465   3.531   9.665  1.00  0.00    -0.246 OA
BRANCH  37  39
ATOM     39  C   UNL     1      -6.277   2.517   7.790  1.00  0.00     0.060 A 
ATOM     40  C   UNL     1      -7.007   2.788   6.639  1.00  0.00     0.016 A 
ATOM     41  C   UNL     1      -5.114   1.837   7.598  1.00  0.00     0.016 A 
ATOM     42  C   UNL     1      -6.752   2.079   5.409  1.00  0.00     0.010 A 
ATOM     43  C   UNL     1      -5.005   1.024   6.458  1.00  0.00     0.010 A 
ATOM     44  C   UNL     1      -5.879   0.983   5.348  1.00  0.00    -0.014 A 
BRANCH  44  45
ATOM     45  C   UNL     1      -6.107  -0.273   4.368  1.00  0.00     0.031 A 
ATOM     46  C   UNL     1      -5.162  -1.244   3.505  1.00  0.00     0.074 A 
ATOM     47  C   UNL     1      -7.373  -0.768   4.439  1.00  0.00     0.049 A 
ATOM     48  N   UNL     1      -5.439  -2.501   3.245  1.00  0.00    -0.248 NA
ATOM     49  C   UNL     1      -3.860  -1.000   2.887  1.00  0.00     0.031 C 
ATOM     50  C   UNL     1      -7.914  -2.055   3.987  1.00  0.00     0.029 A 
ATOM     51  N   UNL     1      -8.514  -0.190   4.951  1.00  0.00    -0.354 N 
ATOM     52  C   UNL     1      -4.407  -3.129   2.567  1.00  0.00     0.074 A 
ATOM     53  C   UNL     1      -3.390  -2.157   2.421  1.00  0.00     0.031 C 
ATOM     54  C   UNL     1      -9.249  -2.049   4.047  1.00  0.00     0.029 A 
ATOM     55  C   UNL     1      -9.635  -0.689   4.291  1.00  0.00     0.049 A 
ATOM     56  H   UNL     1      -8.534   0.477   5.675  1.00  0.00     0.167 HD
ATOM     57  C   UNL     1      -4.522  -4.352   1.989  1.00  0.00     0.034 A 
ATOM     58  C   UNL     1     -10.267   0.098   3.366  1.00  0.00     0.034 A 
ATOM     59  C   UNL     1      -5.899  -4.515   1.534  1.00  0.00     0.049 A 
ATOM     60  C   UNL     1      -9.925  -0.318   1.919  1.00  0.00     0.074 A 
ATOM     61  C   UNL     1      -7.064  -5.094   1.986  1.00  0.00     0.029 A 
ATOM     62  N   UNL     1      -6.274  -3.679   0.495  1.00  0.00    -0.354 N 
ATOM     63  N   UNL     1      -9.451  -1.490   1.552  1.00  0.00    -0.248 NA
ATOM     64  C   UNL     1     -10.022   0.591   0.777  1.00  0.00     0.031 C 
ATOM     65  C   UNL     1      -8.154  -4.408   1.336  1.00  0.00     0.029 A 
ATOM     66  C   UNL     1      -7.639  -3.455   0.464  1.00  0.00     0.049 A 
ATOM     67  H   UNL     1      -5.641  -3.288  -0.150  1.00  0.00     0.167 HD
ATOM     68  C   UNL     1      -8.962  -1.409   0.268  1.00  0.00     0.074 A 
ATOM     69  C   UNL     1      -9.412  -0.107  -0.195  1.00  0.00     0.031 C 
ATOM     70  C   UNL     1      -8.146  -2.333  -0.340  1.00  0.00     0.034 A 
BRANCH  57  71
ATOM     71  C   UNL     1      -3.372  -5.303   1.666  1.00  0.00     0.023 A 
ATOM     72  C   UNL     1      -3.709  -6.536   1.064  1.00  0.00     0.012 A 
ATOM     73  C   UNL     1      -2.009  -5.157   2.059  1.00  0.00     0.148 A 
ATOM     74  C   UNL     1      -2.773  -7.564   0.873  1.00  0.00     0.002 A 
ATOM     75  C   UNL     1      -1.062  -6.166   1.821  1.00  0.00     0.091 A 
ATOM     76  F   UNL     1      -1.627  -4.072   2.743  1.00  0.00    -0.205 F 
ATOM     77  C   UNL     1      -1.449  -7.378   1.243  1.00  0.00     0.022 A 
BRANCH  75  78
ATOM     78  S   UNL     1       0.687  -6.019   2.255  1.00  0.00     0.127 S 
ATOM     79  O   UNL     1       0.828  -7.027   3.306  1.00  0.00    -0.237 OA
ATOM     80  O   UNL     1       1.354  -6.362   0.998  1.00  0.00    -0.237 OA
ATOM     81  O   UNL     1       0.887  -4.641   2.685  1.00  0.00    -0.744 OA
ENDBRANCH  75  78
ENDBRANCH  57  71
BRANCH  58  82
ATOM     82  C   UNL     1     -10.507   1.463   3.954  1.00  0.00     0.023 A 
ATOM     83  C   UNL     1     -11.151   1.456   5.228  1.00  0.00     0.012 A 
ATOM     84  C   UNL     1      -9.860   2.645   3.561  1.00  0.00     0.148 A 
ATOM     85  C   UNL     1     -11.001   2.502   6.137  1.00  0.00     0.002 A 
ATOM     86  C   UNL     1      -9.776   3.723   4.452  1.00  0.00     0.091 A 
ATOM     87  F   UNL     1      -9.236   2.691   2.379  1.00  0.00    -0.205 F 
ATOM     88  C   UNL     1     -10.304   3.635   5.751  1.00  0.00     0.022 A 
BRANCH  86  89
ATOM     89  S   UNL     1      -8.828   5.200   4.033  1.00  0.00     0.127 S 
ATOM     90  O   UNL     1      -9.846   6.021   3.386  1.00  0.00    -0.237 OA
ATOM     91  O   UNL     1      -8.387   5.683   5.341  1.00  0.00    -0.237 OA
ATOM     92  O   UNL     1      -7.752   4.712   3.182  1.00  0.00    -0.744 OA
ENDBRANCH  86  89
ENDBRANCH  58  82
BRANCH  70  93
ATOM     93  C   UNL     1      -7.768  -2.184  -1.812  1.00  0.00     0.023 A 
ATOM     94  C   UNL     1      -8.774  -1.881  -2.754  1.00  0.00     0.012 A 
ATOM     95  C   UNL     1      -6.485  -2.478  -2.333  1.00  0.00     0.148 A 
ATOM     96  C   UNL     1      -8.515  -1.837  -4.129  1.00  0.00     0.002 A 
ATOM     97  C   UNL     1      -6.267  -2.572  -3.706  1.00  0.00     0.091 A 
ATOM     98  F   UNL     1      -5.442  -2.599  -1.502  1.00  0.00    -0.205 F 
ATOM     99  C   UNL     1      -7.270  -2.218  -4.609  1.00  0.00     0.022 A 
BRANCH  97 100
ATOM    100  S   UNL     1      -4.772  -3.312  -4.383  1.00  0.00     0.127 S 
ATOM    101  O   UNL     1      -5.324  -4.287  -5.327  1.00  0.00    -0.237 OA
ATOM    102  O   UNL     1      -4.119  -2.162  -5.000  1.00  0.00    -0.237 OA
ATOM    103  O   UNL     1      -4.085  -3.901  -3.242  1.00  0.00    -0.744 OA
ENDBRANCH  97 100
ENDBRANCH  70  93
ENDBRANCH  44  45
ENDBRANCH  37  39
ENDBRANCH  36  37
ENDBRANCH  35  36
ENDBRANCH  34  35
ENDBRANCH  33  34
ENDBRANCH  32  33
ENDBRANCH   1  32
TORSDOF 24
