REMARK SMILES CCc1nsc(NC[C@H](CC(C)C)C(=O)OCCOCCOCCOC(=O)c2ccc(-c3c4nc(c(-c5cccc(S(=O)(=O)[O-])c5F)c5ccc([nH]5)c(-c5cccc(S(=O)(=O)[O-])c5F)c5nc(c(-c6cccc(S(=O)(=O)[O-])c6F)c6ccc3[nH]6)C=C5)C=C4)cc2)n1
REMARK SMILES IDX 20 1 19 2 18 3 17 4 16 5 14 6 15 7 9 8 8 9 7 10 6 12 3 13
REMARK SMILES IDX 4 14 91 15 5 16 2 17 1 18 10 19 11 20 12 21 13 22 21 23
REMARK SMILES IDX 22 24 23 25 24 26 25 27 26 28 27 29 28 30 29 31 90 32 30 33
REMARK SMILES IDX 89 34 31 35 32 36 33 37 83 38 34 39 88 40 82 41 84 42 35 43
REMARK SMILES IDX 87 44 81 45 80 46 36 48 68 49 48 50 67 51 49 52 52 53 66 54
REMARK SMILES IDX 85 55 50 56 51 57 65 59 86 60 53 61 37 62 38 63 46 64 39 65
REMARK SMILES IDX 41 66 47 67 40 68 42 69 43 70 44 71 45 72 69 73 70 74 78 75
REMARK SMILES IDX 71 76 73 77 79 78 72 79 74 80 75 81 76 82 77 83 54 84 55 85
REMARK SMILES IDX 63 86 56 87 58 88 64 89 57 90 59 91 60 92 61 93 62 94
REMARK H PARENT 7 11 84 47 52 58
REMARK Flexibility Score: inf
ROOT
ATOM      1  C   UNL     1       5.568  -1.620   9.435  1.00  0.00     0.188 C 
ENDROOT
BRANCH   1   2
ATOM      2  O   UNL     1       5.463  -1.236  10.799  1.00  0.00    -0.376 OA
BRANCH   2   3
ATOM      3  C   UNL     1       4.479  -0.247  11.115  1.00  0.00     0.202 C 
BRANCH   3   4
ATOM      4  C   UNL     1       4.588   1.086  10.364  1.00  0.00     0.261 C 
BRANCH   4   5
ATOM      5  O   UNL     1       3.796   1.075   9.149  1.00  0.00    -0.463 OA
BRANCH   5   6
ATOM      6  C   UNL     1       4.454   1.293   7.997  1.00  0.00     0.310 C 
ATOM      7  O   UNL     1       5.663   1.506   7.936  1.00  0.00    -0.252 OA
BRANCH   6   8
ATOM      8  C   UNL     1       3.606   1.348   6.745  1.00  0.00     0.118 C 
BRANCH   8   9
ATOM      9  C   UNL     1       3.717   2.821   6.294  1.00  0.00     0.130 C 
BRANCH   9  10
ATOM     10  N   UNL     1       3.626   2.927   4.856  1.00  0.00    -0.359 N 
ATOM     11  H   UNL     1       4.283   2.422   4.324  1.00  0.00     0.162 HD
BRANCH  10  12
ATOM     12  C   UNL     1       2.719   3.659   4.183  1.00  0.00     0.202 A 
ATOM     13  C   UNL     1       1.823   4.724   2.476  1.00  0.00     0.144 A 
ATOM     14  N   UNL     1       0.817   4.997   3.310  1.00  0.00    -0.174 NA
ATOM     15  N   UNL     1       2.902   3.981   2.925  1.00  0.00    -0.204 NA
ATOM     16  S   UNL     1       1.214   4.279   4.764  1.00  0.00     0.004 S 
BRANCH  13  17
ATOM     17  C   UNL     1       1.812   5.247   1.081  1.00  0.00     0.075 C 
ATOM     18  C   UNL     1       2.648   4.414   0.120  1.00  0.00     0.012 C 
ENDBRANCH  13  17
ENDBRANCH  10  12
ENDBRANCH   9  10
ENDBRANCH   8   9
BRANCH   8  19
ATOM     19  C   UNL     1       2.129   0.900   6.619  1.00  0.00     0.020 C 
BRANCH  19  20
ATOM     20  C   UNL     1       1.548  -0.292   7.401  1.00  0.00    -0.017 C 
ATOM     21  C   UNL     1       0.992   0.122   8.769  1.00  0.00     0.007 C 
ATOM     22  C   UNL     1       0.370  -0.891   6.607  1.00  0.00     0.007 C 
ENDBRANCH  19  20
ENDBRANCH   8  19
ENDBRANCH   6   8
ENDBRANCH   5   6
ENDBRANCH   4   5
ENDBRANCH   3   4
ENDBRANCH   2   3
ENDBRANCH   1   2
BRANCH   1  23
ATOM     23  C   UNL     1       4.511  -2.602   8.934  1.00  0.00     0.188 C 
BRANCH  23  24
ATOM     24  O   UNL     1       3.191  -2.369   9.429  1.00  0.00    -0.376 OA
BRANCH  24  25
ATOM     25  C   UNL     1       2.815  -3.282  10.465  1.00  0.00     0.202 C 
BRANCH  25  26
ATOM     26  C   UNL     1       2.116  -4.538   9.927  1.00  0.00     0.261 C 
BRANCH  26  27
ATOM     27  O   UNL     1       2.897  -5.157   8.895  1.00  0.00    -0.460 OA
BRANCH  27  28
ATOM     28  C   UNL     1       2.537  -4.820   7.626  1.00  0.00     0.338 C 
ATOM     29  O   UNL     1       1.508  -4.278   7.279  1.00  0.00    -0.246 OA
BRANCH  28  30
ATOM     30  C   UNL     1       3.692  -5.048   6.719  1.00  0.00     0.060 A 
ATOM     31  C   UNL     1       3.839  -4.189   5.620  1.00  0.00     0.016 A 
ATOM     32  C   UNL     1       4.648  -6.038   6.966  1.00  0.00     0.016 A 
ATOM     33  C   UNL     1       4.927  -4.332   4.755  1.00  0.00     0.010 A 
ATOM     34  C   UNL     1       5.736  -6.179   6.102  1.00  0.00     0.010 A 
ATOM     35  C   UNL     1       5.866  -5.346   4.977  1.00  0.00    -0.014 A 
BRANCH  35  36
ATOM     36  C   UNL     1       6.902  -5.656   3.963  1.00  0.00     0.031 A 
ATOM     37  C   UNL     1       6.674  -6.828   3.049  1.00  0.00     0.074 A 
ATOM     38  C   UNL     1       8.047  -4.953   3.894  1.00  0.00     0.049 A 
ATOM     39  N   UNL     1       7.473  -7.352   2.159  1.00  0.00    -0.248 NA
ATOM     40  C   UNL     1       5.373  -7.509   3.167  1.00  0.00     0.031 C 
ATOM     41  C   UNL     1       8.390  -3.807   4.733  1.00  0.00     0.029 A 
ATOM     42  N   UNL     1       9.155  -5.135   3.102  1.00  0.00    -0.354 N 
ATOM     43  C   UNL     1       6.792  -8.446   1.639  1.00  0.00     0.074 A 
ATOM     44  C   UNL     1       5.516  -8.514   2.317  1.00  0.00     0.031 C 
ATOM     45  C   UNL     1       9.642  -3.413   4.441  1.00  0.00     0.029 A 
ATOM     46  C   UNL     1      10.197  -4.294   3.415  1.00  0.00     0.049 A 
ATOM     47  H   UNL     1       9.198  -5.803   2.380  1.00  0.00     0.167 HD
ATOM     48  C   UNL     1       7.188  -9.311   0.677  1.00  0.00     0.034 A 
ATOM     49  C   UNL     1      11.463  -4.263   2.948  1.00  0.00     0.034 A 
ATOM     50  C   UNL     1       8.446  -9.227  -0.012  1.00  0.00     0.049 A 
ATOM     51  C   UNL     1      11.882  -5.244   1.881  1.00  0.00     0.074 A 
ATOM     52  C   UNL     1       8.906 -10.012  -1.054  1.00  0.00     0.029 A 
ATOM     53  N   UNL     1       9.450  -8.320   0.282  1.00  0.00    -0.354 N 
ATOM     54  N   UNL     1      11.175  -6.181   1.296  1.00  0.00    -0.248 NA
ATOM     55  C   UNL     1      13.265  -5.145   1.389  1.00  0.00     0.031 C 
ATOM     56  C   UNL     1      10.205  -9.599  -1.368  1.00  0.00     0.029 A 
ATOM     57  C   UNL     1      10.538  -8.536  -0.544  1.00  0.00     0.049 A 
ATOM     58  H   UNL     1       9.397  -7.623   0.976  1.00  0.00     0.167 HD
ATOM     59  C   UNL     1      12.014  -6.758   0.347  1.00  0.00     0.074 A 
ATOM     60  C   UNL     1      13.275  -6.051   0.420  1.00  0.00     0.031 C 
ATOM     61  C   UNL     1      11.769  -7.789  -0.499  1.00  0.00     0.034 A 
BRANCH  48  62
ATOM     62  C   UNL     1       6.241 -10.416   0.298  1.00  0.00     0.023 A 
ATOM     63  C   UNL     1       5.085 -10.121  -0.451  1.00  0.00     0.012 A 
ATOM     64  C   UNL     1       6.528 -11.753   0.634  1.00  0.00     0.148 A 
ATOM     65  C   UNL     1       4.213 -11.137  -0.838  1.00  0.00     0.002 A 
ATOM     66  C   UNL     1       5.677 -12.765   0.207  1.00  0.00     0.091 A 
ATOM     67  F   UNL     1       7.619 -12.008   1.369  1.00  0.00    -0.205 F 
ATOM     68  C   UNL     1       4.515 -12.459  -0.519  1.00  0.00     0.022 A 
BRANCH  66  69
ATOM     69  S   UNL     1       6.018 -14.504   0.500  1.00  0.00     0.127 S 
ATOM     70  O   UNL     1       4.974 -14.850   1.464  1.00  0.00    -0.237 OA
ATOM     71  O   UNL     1       5.834 -15.081  -0.831  1.00  0.00    -0.237 OA
ATOM     72  O   UNL     1       7.381 -14.568   1.008  1.00  0.00    -0.744 OA
ENDBRANCH  66  69
ENDBRANCH  48  62
BRANCH  49  73
ATOM     73  C   UNL     1      12.430  -3.256   3.473  1.00  0.00     0.023 A 
ATOM     74  C   UNL     1      12.880  -2.219   2.633  1.00  0.00     0.012 A 
ATOM     75  C   UNL     1      12.906  -3.322   4.797  1.00  0.00     0.148 A 
ATOM     76  C   UNL     1      13.813  -1.287   3.091  1.00  0.00     0.002 A 
ATOM     77  C   UNL     1      13.792  -2.358   5.264  1.00  0.00     0.091 A 
ATOM     78  F   UNL     1      12.481  -4.328   5.575  1.00  0.00    -0.205 F 
ATOM     79  C   UNL     1      14.261  -1.350   4.408  1.00  0.00     0.022 A 
BRANCH  77  80
ATOM     80  S   UNL     1      14.327  -2.291   6.978  1.00  0.00     0.127 S 
ATOM     81  O   UNL     1      15.724  -2.701   6.872  1.00  0.00    -0.237 OA
ATOM     82  O   UNL     1      14.121  -0.879   7.303  1.00  0.00    -0.237 OA
ATOM     83  O   UNL     1      13.451  -3.205   7.698  1.00  0.00    -0.744 OA
ENDBRANCH  77  80
ENDBRANCH  49  73
BRANCH  61  84
ATOM     84  C   UNL     1      12.865  -8.204  -1.447  1.00  0.00     0.023 A 
ATOM     85  C   UNL     1      13.990  -8.895  -0.958  1.00  0.00     0.012 A 
ATOM     86  C   UNL     1      12.732  -7.993  -2.834  1.00  0.00     0.148 A 
ATOM     87  C   UNL     1      14.980  -9.346  -1.831  1.00  0.00     0.002 A 
ATOM     88  C   UNL     1      13.697  -8.488  -3.703  1.00  0.00     0.091 A 
ATOM     89  F   UNL     1      11.661  -7.320  -3.278  1.00  0.00    -0.205 F 
ATOM     90  C   UNL     1      14.827  -9.154  -3.203  1.00  0.00     0.022 A 
BRANCH  88  91
ATOM     91  S   UNL     1      13.535  -8.377  -5.489  1.00  0.00     0.127 S 
ATOM     92  O   UNL     1      14.562  -7.390  -5.820  1.00  0.00    -0.237 OA
ATOM     93  O   UNL     1      13.843  -9.743  -5.914  1.00  0.00    -0.237 OA
ATOM     94  O   UNL     1      12.163  -7.959  -5.744  1.00  0.00    -0.744 OA
ENDBRANCH  88  91
ENDBRANCH  61  84
ENDBRANCH  35  36
ENDBRANCH  28  30
ENDBRANCH  27  28
ENDBRANCH  26  27
ENDBRANCH  25  26
ENDBRANCH  24  25
ENDBRANCH  23  24
ENDBRANCH   1  23
TORSDOF 26
