REMARK SMILES CS(=O)(=O)c1ccc(/C=C(/C(=O)OCCOCCOCCOC(=O)c2ccc(-c3c4nc(c(-c5cccc(S(=O)(=O)[O-])c5F)c5ccc([nH]5)c(-c5cccc(S(=O)(=O)[O-])c5F)c5nc(c(-c6cccc(S(=O)(=O)[O-])c6F)c6ccc3[nH]6)C=C5)C=C4)cc2)c2ccc(-c3ccc(S(C)(=O)=O)cc3)cc2)cc1
REMARK SMILES IDX 17 1 16 2 15 3 14 4 13 5 11 6 12 7 10 8 9 9 8 10 5 11 6 12
REMARK SMILES IDX 105 13 7 14 104 15 2 16 1 17 3 18 4 19 88 20 89 21 103 22
REMARK SMILES IDX 90 23 102 24 91 25 92 26 93 27 101 28 94 29 100 30 95 31
REMARK SMILES IDX 96 32 97 33 98 34 99 35 18 36 19 37 20 38 21 39 22 40 23 41
REMARK SMILES IDX 24 42 25 43 26 44 87 45 27 46 86 47 28 48 29 49 30 50 80 51
REMARK SMILES IDX 31 52 85 53 79 54 81 55 32 56 84 57 78 58 77 59 33 61 65 62
REMARK SMILES IDX 45 63 64 64 46 65 49 66 63 67 82 68 47 69 48 70 62 72 83 73
REMARK SMILES IDX 50 74 34 75 35 76 43 77 36 78 38 79 44 80 37 81 39 82 40 83
REMARK SMILES IDX 41 84 42 85 66 86 67 87 75 88 68 89 70 90 76 91 69 92 71 93
REMARK SMILES IDX 72 94 73 95 74 96 51 97 52 98 60 99 53 100 55 101 61 102
REMARK SMILES IDX 54 103 56 104 57 105 58 106 59 107
REMARK H PARENT 81 60 49 71
REMARK Flexibility Score: inf
ROOT
ATOM      1  C   UNL     1       2.734 -10.455  -3.135  1.00  0.00     0.188 C 
ENDROOT
BRANCH   1   2
ATOM      2  O   UNL     1       3.248 -10.991  -4.335  1.00  0.00    -0.376 OA
BRANCH   2   3
ATOM      3  C   UNL     1       2.612 -10.614  -5.542  1.00  0.00     0.202 C 
BRANCH   3   4
ATOM      4  C   UNL     1       2.295  -9.135  -5.855  1.00  0.00     0.261 C 
BRANCH   4   5
ATOM      5  O   UNL     1       2.093  -8.249  -4.742  1.00  0.00    -0.460 OA
BRANCH   5   6
ATOM      6  C   UNL     1       0.815  -7.995  -4.360  1.00  0.00     0.338 C 
ATOM      7  O   UNL     1      -0.181  -8.449  -4.900  1.00  0.00    -0.246 OA
BRANCH   6   8
ATOM      8  C   UNL     1       0.777  -7.151  -3.113  1.00  0.00     0.067 C 
ATOM      9  C   UNL     1       1.638  -6.108  -2.989  1.00  0.00     0.024 C 
BRANCH   9  10
ATOM     10  C   UNL     1       1.657  -5.046  -1.949  1.00  0.00    -0.025 A 
ATOM     11  C   UNL     1       1.153  -2.847  -0.276  1.00  0.00     0.067 A 
ATOM     12  C   UNL     1       0.967  -4.143   0.203  1.00  0.00     0.021 A 
ATOM     13  C   UNL     1       1.741  -2.641  -1.522  1.00  0.00     0.021 A 
ATOM     14  C   UNL     1       1.265  -5.234  -0.618  1.00  0.00     0.009 A 
ATOM     15  C   UNL     1       1.988  -3.743  -2.353  1.00  0.00     0.009 A 
BRANCH  11  16
ATOM     16  S   UNL     1       0.512  -1.517   0.710  1.00  0.00     0.175 S 
ATOM     17  C   UNL     1       1.080  -0.003  -0.003  1.00  0.00     0.163 C 
ATOM     18  O   UNL     1       1.127  -1.627   2.019  1.00  0.00    -0.224 OA
ATOM     19  O   UNL     1      -0.928  -1.547   0.545  1.00  0.00    -0.224 OA
ENDBRANCH  11  16
ENDBRANCH   9  10
BRANCH   8  20
ATOM     20  C   UNL     1      -0.211  -7.509  -2.073  1.00  0.00    -0.011 A 
ATOM     21  C   UNL     1       0.043  -8.613  -1.247  1.00  0.00     0.009 A 
ATOM     22  C   UNL     1      -1.321  -6.708  -1.793  1.00  0.00     0.009 A 
ATOM     23  C   UNL     1      -0.771  -8.890  -0.147  1.00  0.00     0.009 A 
ATOM     24  C   UNL     1      -2.126  -6.984  -0.677  1.00  0.00     0.009 A 
ATOM     25  C   UNL     1      -1.861  -8.075   0.170  1.00  0.00    -0.018 A 
BRANCH  25  26
ATOM     26  C   UNL     1      -2.687  -8.355   1.358  1.00  0.00    -0.018 A 
ATOM     27  C   UNL     1      -2.106  -8.588   2.621  1.00  0.00     0.010 A 
ATOM     28  C   UNL     1      -4.087  -8.389   1.262  1.00  0.00     0.010 A 
ATOM     29  C   UNL     1      -2.895  -8.805   3.757  1.00  0.00     0.021 A 
ATOM     30  C   UNL     1      -4.883  -8.607   2.389  1.00  0.00     0.021 A 
ATOM     31  C   UNL     1      -4.283  -8.797   3.635  1.00  0.00     0.067 A 
BRANCH  31  32
ATOM     32  S   UNL     1      -5.305  -8.922   5.086  1.00  0.00     0.175 S 
ATOM     33  C   UNL     1      -4.804 -10.411   5.900  1.00  0.00     0.163 C 
ATOM     34  O   UNL     1      -4.966  -7.786   5.920  1.00  0.00    -0.224 OA
ATOM     35  O   UNL     1      -6.669  -9.120   4.623  1.00  0.00    -0.224 OA
ENDBRANCH  31  32
ENDBRANCH  25  26
ENDBRANCH   8  20
ENDBRANCH   6   8
ENDBRANCH   5   6
ENDBRANCH   4   5
ENDBRANCH   3   4
ENDBRANCH   2   3
ENDBRANCH   1   2
BRANCH   1  36
ATOM     36  C   UNL     1       3.632  -9.342  -2.551  1.00  0.00     0.188 C 
BRANCH  36  37
ATOM     37  O   UNL     1       4.870  -9.017  -3.172  1.00  0.00    -0.376 OA
BRANCH  37  38
ATOM     38  C   UNL     1       5.714 -10.067  -3.620  1.00  0.00     0.202 C 
BRANCH  38  39
ATOM     39  C   UNL     1       6.085 -11.234  -2.684  1.00  0.00     0.261 C 
BRANCH  39  40
ATOM     40  O   UNL     1       5.054 -11.717  -1.809  1.00  0.00    -0.460 OA
BRANCH  40  41
ATOM     41  C   UNL     1       5.161 -11.325  -0.511  1.00  0.00     0.338 C 
ATOM     42  O   UNL     1       6.032 -10.631  -0.027  1.00  0.00    -0.246 OA
BRANCH  41  43
ATOM     43  C   UNL     1       3.933 -11.708   0.225  1.00  0.00     0.060 A 
ATOM     44  C   UNL     1       3.181 -10.691   0.833  1.00  0.00     0.016 A 
ATOM     45  C   UNL     1       3.556 -13.043   0.372  1.00  0.00     0.016 A 
ATOM     46  C   UNL     1       2.067 -11.008   1.609  1.00  0.00     0.010 A 
ATOM     47  C   UNL     1       2.451 -13.361   1.173  1.00  0.00     0.010 A 
ATOM     48  C   UNL     1       1.720 -12.347   1.819  1.00  0.00    -0.014 A 
BRANCH  48  49
ATOM     49  C   UNL     1       0.728 -12.685   2.872  1.00  0.00     0.031 A 
ATOM     50  C   UNL     1       1.236 -13.003   4.253  1.00  0.00     0.074 A 
ATOM     51  C   UNL     1      -0.593 -12.702   2.618  1.00  0.00     0.049 A 
ATOM     52  N   UNL     1       0.565 -13.312   5.331  1.00  0.00    -0.248 NA
ATOM     53  C   UNL     1       2.696 -12.967   4.440  1.00  0.00     0.031 C 
ATOM     54  C   UNL     1      -1.207 -12.411   1.325  1.00  0.00     0.029 A 
ATOM     55  N   UNL     1      -1.657 -12.997   3.436  1.00  0.00    -0.354 N 
ATOM     56  C   UNL     1       1.520 -13.541   6.316  1.00  0.00     0.074 A 
ATOM     57  C   UNL     1       2.816 -13.335   5.707  1.00  0.00     0.031 C 
ATOM     58  C   UNL     1      -2.540 -12.550   1.433  1.00  0.00     0.029 A 
ATOM     59  C   UNL     1      -2.870 -12.990   2.787  1.00  0.00     0.049 A 
ATOM     60  H   UNL     1      -1.560 -13.195   4.396  1.00  0.00     0.167 HD
ATOM     61  C   UNL     1       1.336 -13.886   7.612  1.00  0.00     0.034 A 
ATOM     62  C   UNL     1      -4.100 -13.333   3.225  1.00  0.00     0.034 A 
ATOM     63  C   UNL     1       0.047 -14.094   8.213  1.00  0.00     0.049 A 
ATOM     64  C   UNL     1      -4.270 -13.767   4.660  1.00  0.00     0.074 A 
ATOM     65  C   UNL     1      -0.247 -14.401   9.529  1.00  0.00     0.029 A 
ATOM     66  N   UNL     1      -1.160 -14.046   7.533  1.00  0.00    -0.354 N 
ATOM     67  N   UNL     1      -3.377 -13.812   5.621  1.00  0.00    -0.248 NA
ATOM     68  C   UNL     1      -5.629 -14.128   5.092  1.00  0.00     0.031 C 
ATOM     69  C   UNL     1      -1.631 -14.575   9.636  1.00  0.00     0.029 A 
ATOM     70  C   UNL     1      -2.203 -14.330   8.397  1.00  0.00     0.049 A 
ATOM     71  H   UNL     1      -1.261 -13.840   6.575  1.00  0.00     0.167 HD
ATOM     72  C   UNL     1      -4.071 -14.166   6.775  1.00  0.00     0.074 A 
ATOM     73  C   UNL     1      -5.464 -14.289   6.398  1.00  0.00     0.031 C 
ATOM     74  C   UNL     1      -3.597 -14.374   8.030  1.00  0.00     0.034 A 
BRANCH  61  75
ATOM     75  C   UNL     1       2.564 -14.060   8.468  1.00  0.00     0.023 A 
ATOM     76  C   UNL     1       3.322 -12.933   8.849  1.00  0.00     0.012 A 
ATOM     77  C   UNL     1       2.945 -15.335   8.928  1.00  0.00     0.148 A 
ATOM     78  C   UNL     1       4.459 -13.078   9.644  1.00  0.00     0.002 A 
ATOM     79  C   UNL     1       4.052 -15.466   9.758  1.00  0.00     0.091 A 
ATOM     80  F   UNL     1       2.225 -16.396   8.535  1.00  0.00    -0.205 F 
ATOM     81  C   UNL     1       4.817 -14.342  10.106  1.00  0.00     0.022 A 
BRANCH  79  82
ATOM     82  S   UNL     1       4.551 -17.039  10.467  1.00  0.00     0.127 S 
ATOM     83  O   UNL     1       5.807 -17.294   9.764  1.00  0.00    -0.237 OA
ATOM     84  O   UNL     1       4.701 -16.703  11.882  1.00  0.00    -0.237 OA
ATOM     85  O   UNL     1       3.473 -17.973  10.173  1.00  0.00    -0.744 OA
ENDBRANCH  79  82
ENDBRANCH  61  75
BRANCH  62  86
ATOM     86  C   UNL     1      -5.279 -13.249   2.312  1.00  0.00     0.023 A 
ATOM     87  C   UNL     1      -6.289 -12.296   2.547  1.00  0.00     0.012 A 
ATOM     88  C   UNL     1      -5.407 -14.116   1.210  1.00  0.00     0.148 A 
ATOM     89  C   UNL     1      -7.412 -12.220   1.722  1.00  0.00     0.002 A 
ATOM     90  C   UNL     1      -6.505 -14.005   0.363  1.00  0.00     0.091 A 
ATOM     91  F   UNL     1      -4.449 -15.032   1.011  1.00  0.00    -0.205 F 
ATOM     92  C   UNL     1      -7.516 -13.068   0.625  1.00  0.00     0.022 A 
BRANCH  90  93
ATOM     93  S   UNL     1      -6.676 -14.989  -1.129  1.00  0.00     0.127 S 
ATOM     94  O   UNL     1      -7.823 -15.831  -0.800  1.00  0.00    -0.237 OA
ATOM     95  O   UNL     1      -6.932 -13.961  -2.137  1.00  0.00    -0.237 OA
ATOM     96  O   UNL     1      -5.407 -15.687  -1.287  1.00  0.00    -0.744 OA
ENDBRANCH  90  93
ENDBRANCH  62  86
BRANCH  74  97
ATOM     97  C   UNL     1      -4.593 -14.681   9.122  1.00  0.00     0.023 A 
ATOM     98  C   UNL     1      -5.274 -15.914   9.143  1.00  0.00     0.012 A 
ATOM     99  C   UNL     1      -4.792 -13.768  10.180  1.00  0.00     0.148 A 
ATOM    100  C   UNL     1      -6.165 -16.216  10.173  1.00  0.00     0.002 A 
ATOM    101  C   UNL     1      -5.634 -14.102  11.234  1.00  0.00     0.091 A 
ATOM    102  F   UNL     1      -4.151 -12.591  10.136  1.00  0.00    -0.205 F 
ATOM    103  C   UNL     1      -6.335 -15.318  11.223  1.00  0.00     0.022 A 
BRANCH 101 104
ATOM    104  S   UNL     1      -5.822 -13.059  12.684  1.00  0.00     0.127 S 
ATOM    105  O   UNL     1      -7.172 -12.531  12.497  1.00  0.00    -0.237 OA
ATOM    106  O   UNL     1      -5.689 -14.022  13.778  1.00  0.00    -0.237 OA
ATOM    107  O   UNL     1      -4.749 -12.076  12.611  1.00  0.00    -0.744 OA
ENDBRANCH 101 104
ENDBRANCH  74  97
ENDBRANCH  48  49
ENDBRANCH  41  43
ENDBRANCH  40  41
ENDBRANCH  39  40
ENDBRANCH  38  39
ENDBRANCH  37  38
ENDBRANCH  36  37
ENDBRANCH   1  36
TORSDOF 25
