REMARK SMILES O=C(Cn1nc(C(=O)OCCOCCOCCOC(=O)c2ccc(-c3c4nc(c(-c5cccc(S(=O)(=O)[O-])c5F)c5ccc([nH]5)c(-c5cccc(S(=O)(=O)[O-])c5F)c5nc(c(-c6cccc(S(=O)(=O)[O-])c6F)c6ccc3[nH]6)C=C5)C=C4)cc2)c2ccccc2c1=O)Nc1ccc2c(c1)C(=O)c1ccccc1C2=O
REMARK SMILES IDX 13 1 12 2 11 3 10 4 9 5 7 6 8 7 6 8 4 9 5 10 90 11 89 12
REMARK SMILES IDX 91 13 84 14 88 15 85 16 87 17 86 18 3 19 2 20 1 21 92 22
REMARK SMILES IDX 93 24 94 25 98 26 95 27 97 28 96 29 99 30 107 31 100 32
REMARK SMILES IDX 101 33 106 34 108 35 102 36 105 37 103 38 104 39 14 40 15 41
REMARK SMILES IDX 16 42 17 43 18 44 19 45 20 46 21 47 22 48 83 49 23 50 82 51
REMARK SMILES IDX 24 52 25 53 26 54 76 55 27 56 81 57 75 58 77 59 28 60 80 61
REMARK SMILES IDX 74 62 73 63 29 65 61 66 41 67 60 68 42 69 45 70 59 71 78 72
REMARK SMILES IDX 43 73 44 74 58 76 79 77 46 78 30 79 31 80 39 81 32 82 34 83
REMARK SMILES IDX 40 84 33 85 35 86 36 87 37 88 38 89 62 90 63 91 71 92 64 93
REMARK SMILES IDX 66 94 72 95 65 96 67 97 68 98 69 99 70 100 47 101 48 102
REMARK SMILES IDX 56 103 49 104 51 105 57 106 50 107 52 108 53 109 54 110
REMARK SMILES IDX 55 111
REMARK H PARENT 92 23 77 64 45 75
REMARK Flexibility Score: inf
ROOT
ATOM      1  C   UNL     1       4.996  -4.433  -5.581  1.00  0.00     0.188 C 
ENDROOT
BRANCH   1   2
ATOM      2  O   UNL     1       5.409  -5.776  -5.345  1.00  0.00    -0.376 OA
BRANCH   2   3
ATOM      3  C   UNL     1       6.557  -5.933  -4.521  1.00  0.00     0.202 C 
BRANCH   3   4
ATOM      4  C   UNL     1       6.220  -5.836  -3.034  1.00  0.00     0.261 C 
BRANCH   4   5
ATOM      5  O   UNL     1       5.690  -4.551  -2.679  1.00  0.00    -0.458 OA
BRANCH   5   6
ATOM      6  C   UNL     1       6.578  -3.565  -2.465  1.00  0.00     0.359 C 
ATOM      7  O   UNL     1       7.790  -3.636  -2.521  1.00  0.00    -0.244 OA
BRANCH   6   8
ATOM      8  C   UNL     1       5.825  -2.267  -2.197  1.00  0.00     0.176 A 
ATOM      9  N   UNL     1       4.281  -1.107  -0.924  1.00  0.00    -0.219 N 
ATOM     10  N   UNL     1       4.956  -2.276  -1.225  1.00  0.00    -0.161 NA
ATOM     11  C   UNL     1       4.660   0.132  -1.441  1.00  0.00     0.275 A 
ATOM     12  C   UNL     1       5.483   0.102  -2.661  1.00  0.00     0.051 A 
ATOM     13  O   UNL     1       4.335   1.212  -0.956  1.00  0.00    -0.267 OA
ATOM     14  C   UNL     1       6.090  -1.090  -3.043  1.00  0.00     0.022 A 
ATOM     15  C   UNL     1       5.643   1.261  -3.430  1.00  0.00     0.014 A 
ATOM     16  C   UNL     1       6.888  -1.121  -4.194  1.00  0.00     0.011 A 
ATOM     17  C   UNL     1       6.421   1.224  -4.585  1.00  0.00     0.001 A 
ATOM     18  C   UNL     1       7.049   0.038  -4.961  1.00  0.00     0.001 A 
BRANCH   9  19
ATOM     19  C   UNL     1       3.381  -1.159   0.231  1.00  0.00     0.248 C 
BRANCH  19  20
ATOM     20  C   UNL     1       2.114  -0.312   0.015  1.00  0.00     0.246 C 
ATOM     21  O   UNL     1       1.365  -0.483  -0.943  1.00  0.00    -0.273 OA
ATOM     22  N   UNL     1       1.980   0.697   0.966  1.00  0.00    -0.324 N 
ATOM     23  H   UNL     1       2.174   0.468   1.904  1.00  0.00     0.169 HD
BRANCH  22  24
ATOM     24  C   UNL     1       1.585   2.027   0.687  1.00  0.00     0.042 A 
ATOM     25  C   UNL     1       1.759   2.969   1.717  1.00  0.00     0.027 A 
ATOM     26  C   UNL     1       1.302   2.464  -0.608  1.00  0.00     0.039 A 
ATOM     27  C   UNL     1       1.837   4.334   1.427  1.00  0.00     0.015 A 
ATOM     28  C   UNL     1       1.448   3.819  -0.903  1.00  0.00     0.036 A 
ATOM     29  C   UNL     1       1.779   4.735   0.094  1.00  0.00     0.034 A 
ATOM     30  C   UNL     1       1.550   4.232  -2.315  1.00  0.00     0.194 C 
ATOM     31  C   UNL     1       2.357   6.039  -0.299  1.00  0.00     0.194 C 
ATOM     32  O   UNL     1       0.849   3.748  -3.183  1.00  0.00    -0.289 OA
ATOM     33  C   UNL     1       2.641   5.180  -2.608  1.00  0.00     0.034 A 
ATOM     34  C   UNL     1       3.060   6.055  -1.603  1.00  0.00     0.034 A 
ATOM     35  O   UNL     1       2.373   6.992   0.465  1.00  0.00    -0.289 OA
ATOM     36  C   UNL     1       3.348   5.075  -3.806  1.00  0.00     0.013 A 
ATOM     37  C   UNL     1       4.217   6.815  -1.774  1.00  0.00     0.013 A 
ATOM     38  C   UNL     1       4.522   5.811  -3.964  1.00  0.00     0.001 A 
ATOM     39  C   UNL     1       4.959   6.670  -2.949  1.00  0.00     0.001 A 
ENDBRANCH  22  24
ENDBRANCH  19  20
ENDBRANCH   9  19
ENDBRANCH   6   8
ENDBRANCH   5   6
ENDBRANCH   4   5
ENDBRANCH   3   4
ENDBRANCH   2   3
ENDBRANCH   1   2
BRANCH   1  40
ATOM     40  C   UNL     1       3.653  -4.059  -4.922  1.00  0.00     0.188 C 
BRANCH  40  41
ATOM     41  O   UNL     1       2.728  -5.097  -4.617  1.00  0.00    -0.376 OA
BRANCH  41  42
ATOM     42  C   UNL     1       2.480  -6.102  -5.592  1.00  0.00     0.202 C 
BRANCH  42  43
ATOM     43  C   UNL     1       1.814  -5.649  -6.892  1.00  0.00     0.261 C 
BRANCH  43  44
ATOM     44  O   UNL     1       2.673  -4.803  -7.675  1.00  0.00    -0.460 OA
BRANCH  44  45
ATOM     45  C   UNL     1       2.195  -3.559  -7.930  1.00  0.00     0.338 C 
ATOM     46  O   UNL     1       1.104  -3.112  -7.624  1.00  0.00    -0.246 OA
BRANCH  45  47
ATOM     47  C   UNL     1       3.280  -2.734  -8.501  1.00  0.00     0.060 A 
ATOM     48  C   UNL     1       3.997  -3.153  -9.625  1.00  0.00     0.016 A 
ATOM     49  C   UNL     1       3.562  -1.502  -7.898  1.00  0.00     0.016 A 
ATOM     50  C   UNL     1       4.982  -2.318 -10.163  1.00  0.00     0.010 A 
ATOM     51  C   UNL     1       4.559  -0.679  -8.426  1.00  0.00     0.010 A 
ATOM     52  C   UNL     1       5.263  -1.075  -9.572  1.00  0.00    -0.014 A 
BRANCH  52  53
ATOM     53  C   UNL     1       6.205  -0.136 -10.227  1.00  0.00     0.031 A 
ATOM     54  C   UNL     1       7.648  -0.071  -9.830  1.00  0.00     0.074 A 
ATOM     55  C   UNL     1       5.732   0.691 -11.179  1.00  0.00     0.049 A 
ATOM     56  N   UNL     1       8.606   0.655 -10.346  1.00  0.00    -0.248 NA
ATOM     57  C   UNL     1       8.073  -0.919  -8.707  1.00  0.00     0.031 C 
ATOM     58  C   UNL     1       4.335   0.760 -11.612  1.00  0.00     0.029 A 
ATOM     59  N   UNL     1       6.368   1.635 -11.943  1.00  0.00    -0.354 N 
ATOM     60  C   UNL     1       9.747   0.359  -9.614  1.00  0.00     0.074 A 
ATOM     61  C   UNL     1       9.358  -0.600  -8.600  1.00  0.00     0.031 C 
ATOM     62  C   UNL     1       4.219   1.700 -12.563  1.00  0.00     0.029 A 
ATOM     63  C   UNL     1       5.530   2.296 -12.809  1.00  0.00     0.049 A 
ATOM     64  H   UNL     1       7.332   1.822 -11.877  1.00  0.00     0.167 HD
ATOM     65  C   UNL     1      11.006   0.825  -9.793  1.00  0.00     0.034 A 
ATOM     66  C   UNL     1       5.788   3.262 -13.711  1.00  0.00     0.034 A 
ATOM     67  C   UNL     1      11.398   1.748 -10.825  1.00  0.00     0.049 A 
ATOM     68  C   UNL     1       7.199   3.738 -13.906  1.00  0.00     0.074 A 
ATOM     69  C   UNL     1      12.670   2.201 -11.131  1.00  0.00     0.029 A 
ATOM     70  N   UNL     1      10.531   2.364 -11.713  1.00  0.00    -0.354 N 
ATOM     71  N   UNL     1       8.291   3.332 -13.308  1.00  0.00    -0.248 NA
ATOM     72  C   UNL     1       7.418   4.779 -14.921  1.00  0.00     0.031 C 
ATOM     73  C   UNL     1      12.572   3.095 -12.202  1.00  0.00     0.029 A 
ATOM     74  C   UNL     1      11.239   3.200 -12.560  1.00  0.00     0.049 A 
ATOM     75  H   UNL     1       9.557   2.228 -11.737  1.00  0.00     0.167 HD
ATOM     76  C   UNL     1       9.329   4.054 -13.883  1.00  0.00     0.074 A 
ATOM     77  C   UNL     1       8.739   4.910 -14.891  1.00  0.00     0.031 C 
ATOM     78  C   UNL     1      10.651   4.021 -13.586  1.00  0.00     0.034 A 
BRANCH  65  79
ATOM     79  C   UNL     1      12.091   0.288  -8.904  1.00  0.00     0.023 A 
ATOM     80  C   UNL     1      12.668  -0.959  -9.216  1.00  0.00     0.012 A 
ATOM     81  C   UNL     1      12.626   1.060  -7.856  1.00  0.00     0.148 A 
ATOM     82  C   UNL     1      13.763  -1.433  -8.496  1.00  0.00     0.002 A 
ATOM     83  C   UNL     1      13.733   0.593  -7.158  1.00  0.00     0.091 A 
ATOM     84  F   UNL     1      12.049   2.237  -7.572  1.00  0.00    -0.205 F 
ATOM     85  C   UNL     1      14.302  -0.653  -7.475  1.00  0.00     0.022 A 
BRANCH  83  86
ATOM     86  S   UNL     1      14.537   1.538  -5.858  1.00  0.00     0.127 S 
ATOM     87  O   UNL     1      14.279   0.700  -4.687  1.00  0.00    -0.237 OA
ATOM     88  O   UNL     1      15.929   1.552  -6.305  1.00  0.00    -0.237 OA
ATOM     89  O   UNL     1      13.882   2.838  -5.843  1.00  0.00    -0.744 OA
ENDBRANCH  83  86
ENDBRANCH  65  79
BRANCH  66  90
ATOM     90  C   UNL     1       4.681   3.776 -14.557  1.00  0.00     0.023 A 
ATOM     91  C   UNL     1       4.574   3.332 -15.889  1.00  0.00     0.012 A 
ATOM     92  C   UNL     1       3.700   4.637 -14.031  1.00  0.00     0.148 A 
ATOM     93  C   UNL     1       3.509   3.744 -16.688  1.00  0.00     0.002 A 
ATOM     94  C   UNL     1       2.622   5.015 -14.821  1.00  0.00     0.091 A 
ATOM     95  F   UNL     1       3.834   5.049 -12.763  1.00  0.00    -0.205 F 
ATOM     96  C   UNL     1       2.528   4.576 -16.152  1.00  0.00     0.022 A 
BRANCH  94  97
ATOM     97  S   UNL     1       1.260   6.002 -14.193  1.00  0.00     0.127 S 
ATOM     98  O   UNL     1       1.416   7.240 -14.952  1.00  0.00    -0.237 OA
ATOM     99  O   UNL     1       0.103   5.189 -14.568  1.00  0.00    -0.237 OA
ATOM    100  O   UNL     1       1.483   6.113 -12.758  1.00  0.00    -0.744 OA
ENDBRANCH  94  97
ENDBRANCH  66  90
BRANCH  78 101
ATOM    101  C   UNL     1      11.564   4.944 -14.344  1.00  0.00     0.023 A 
ATOM    102  C   UNL     1      11.625   6.301 -13.973  1.00  0.00     0.012 A 
ATOM    103  C   UNL     1      12.425   4.457 -15.347  1.00  0.00     0.148 A 
ATOM    104  C   UNL     1      12.524   7.165 -14.595  1.00  0.00     0.002 A 
ATOM    105  C   UNL     1      13.340   5.318 -15.943  1.00  0.00     0.091 A 
ATOM    106  F   UNL     1      12.337   3.165 -15.693  1.00  0.00    -0.205 F 
ATOM    107  C   UNL     1      13.388   6.673 -15.571  1.00  0.00     0.022 A 
BRANCH 105 108
ATOM    108  S   UNL     1      14.540   4.763 -17.159  1.00  0.00     0.127 S 
ATOM    109  O   UNL     1      14.025   5.370 -18.385  1.00  0.00    -0.237 OA
ATOM    110  O   UNL     1      15.783   5.353 -16.661  1.00  0.00    -0.237 OA
ATOM    111  O   UNL     1      14.505   3.307 -17.121  1.00  0.00    -0.744 OA
ENDBRANCH 105 108
ENDBRANCH  78 101
ENDBRANCH  52  53
ENDBRANCH  45  47
ENDBRANCH  44  45
ENDBRANCH  43  44
ENDBRANCH  42  43
ENDBRANCH  41  42
ENDBRANCH  40  41
ENDBRANCH   1  40
TORSDOF 23
