REMARK SMILES O=C(OCCOCCOCCOC(=O)c1cn(C2CN(C(=O)Nc3ccsc3)C2)nn1)c1ccc(-c2c3nc(c(-c4cccc(S(=O)(=O)[O-])c4F)c4ccc([nH]4)c(-c4cccc(S(=O)(=O)[O-])c4F)c4nc(c(-c5cccc(S(=O)(=O)[O-])c5F)c5ccc2[nH]5)C=C4)C=C3)cc1
REMARK SMILES IDX 7 1 6 2 5 3 4 4 3 5 2 6 1 7 32 8 33 9 94 10 34 11 93 12
REMARK SMILES IDX 35 13 36 14 37 15 87 16 38 17 92 18 86 19 88 20 39 21 91 22
REMARK SMILES IDX 85 23 84 24 40 26 72 27 52 28 71 29 53 30 56 31 70 32 89 33
REMARK SMILES IDX 54 34 55 35 69 37 90 38 57 39 41 40 42 41 50 42 43 43 45 44
REMARK SMILES IDX 51 45 44 46 46 47 47 48 48 49 49 50 73 51 74 52 82 53 75 54
REMARK SMILES IDX 77 55 83 56 76 57 78 58 79 59 80 60 81 61 58 62 59 63 67 64
REMARK SMILES IDX 60 65 62 66 68 67 61 68 63 69 64 70 65 71 66 72 8 73 9 74
REMARK SMILES IDX 10 75 11 76 12 77 13 78 14 79 15 80 16 81 31 82 17 83 30 84
REMARK SMILES IDX 18 85 19 86 29 87 20 88 21 89 22 90 23 91 24 93 25 94 28 95
REMARK SMILES IDX 26 96 27 97
REMARK H PARENT 88 25 56 36 23 92
REMARK Flexibility Score: inf
ROOT
ATOM      1  C   UNL     1       3.349  -0.835  -1.436  1.00  0.00     0.188 C 
ENDROOT
BRANCH   1   2
ATOM      2  O   UNL     1       4.687  -1.155  -1.110  1.00  0.00    -0.376 OA
BRANCH   2   3
ATOM      3  C   UNL     1       5.347  -0.415  -0.100  1.00  0.00     0.202 C 
BRANCH   3   4
ATOM      4  C   UNL     1       4.752  -0.378   1.315  1.00  0.00     0.261 C 
BRANCH   4   5
ATOM      5  O   UNL     1       3.351  -0.654   1.415  1.00  0.00    -0.460 OA
BRANCH   5   6
ATOM      6  C   UNL     1       2.276   0.158   1.417  1.00  0.00     0.338 C 
ATOM      7  O   UNL     1       1.194  -0.320   1.754  1.00  0.00    -0.246 OA
BRANCH   6   8
ATOM      8  C   UNL     1       2.293   1.574   0.948  1.00  0.00     0.060 A 
ATOM      9  C   UNL     1       3.420   2.383   0.784  1.00  0.00     0.016 A 
ATOM     10  C   UNL     1       1.021   2.128   0.699  1.00  0.00     0.016 A 
ATOM     11  C   UNL     1       3.273   3.749   0.608  1.00  0.00     0.010 A 
ATOM     12  C   UNL     1       0.867   3.486   0.498  1.00  0.00     0.010 A 
ATOM     13  C   UNL     1       1.992   4.293   0.561  1.00  0.00    -0.014 A 
BRANCH  13  14
ATOM     14  C   UNL     1       1.866   5.736   0.581  1.00  0.00     0.031 A 
ATOM     15  C   UNL     1       2.314   6.400  -0.665  1.00  0.00     0.074 A 
ATOM     16  C   UNL     1       1.326   6.362   1.647  1.00  0.00     0.049 A 
ATOM     17  N   UNL     1       3.346   7.162  -0.826  1.00  0.00    -0.248 NA
ATOM     18  C   UNL     1       1.641   6.032  -1.919  1.00  0.00     0.031 C 
ATOM     19  C   UNL     1       0.633   5.750   2.787  1.00  0.00     0.029 A 
ATOM     20  N   UNL     1       1.151   7.692   1.867  1.00  0.00    -0.354 N 
ATOM     21  C   UNL     1       3.292   7.578  -2.155  1.00  0.00     0.074 A 
ATOM     22  C   UNL     1       2.375   6.690  -2.817  1.00  0.00     0.031 C 
ATOM     23  C   UNL     1      -0.115   6.690   3.406  1.00  0.00     0.029 A 
ATOM     24  C   UNL     1       0.152   7.979   2.795  1.00  0.00     0.049 A 
ATOM     25  H   UNL     1       1.680   8.388   1.414  1.00  0.00     0.167 HD
ATOM     26  C   UNL     1       3.786   8.789  -2.534  1.00  0.00     0.034 A 
ATOM     27  C   UNL     1      -0.476   9.171   2.964  1.00  0.00     0.034 A 
ATOM     28  C   UNL     1       4.653   9.339  -1.524  1.00  0.00     0.049 A 
ATOM     29  C   UNL     1       0.384  10.210   2.350  1.00  0.00     0.074 A 
ATOM     30  C   UNL     1       5.827   8.942  -0.918  1.00  0.00     0.029 A 
ATOM     31  N   UNL     1       4.117  10.314  -0.719  1.00  0.00    -0.354 N 
ATOM     32  N   UNL     1       1.556  10.536   2.817  1.00  0.00    -0.248 NA
ATOM     33  C   UNL     1       0.145  10.551   0.956  1.00  0.00     0.031 C 
ATOM     34  C   UNL     1       5.695   9.354   0.439  1.00  0.00     0.029 A 
ATOM     35  C   UNL     1       4.487  10.042   0.569  1.00  0.00     0.049 A 
ATOM     36  H   UNL     1       3.566  11.074  -1.016  1.00  0.00     0.167 HD
ATOM     37  C   UNL     1       2.347  10.672   1.683  1.00  0.00     0.074 A 
ATOM     38  C   UNL     1       1.405  10.775   0.570  1.00  0.00     0.031 C 
ATOM     39  C   UNL     1       3.681  10.380   1.720  1.00  0.00     0.034 A 
BRANCH  26  40
ATOM     40  C   UNL     1       3.187   9.672  -3.608  1.00  0.00     0.023 A 
ATOM     41  C   UNL     1       3.900  10.845  -3.945  1.00  0.00     0.012 A 
ATOM     42  C   UNL     1       1.856   9.577  -4.076  1.00  0.00     0.148 A 
ATOM     43  C   UNL     1       3.298  11.896  -4.644  1.00  0.00     0.002 A 
ATOM     44  C   UNL     1       1.286  10.591  -4.836  1.00  0.00     0.091 A 
ATOM     45  F   UNL     1       1.076   8.568  -3.683  1.00  0.00    -0.205 F 
ATOM     46  C   UNL     1       1.990  11.769  -5.093  1.00  0.00     0.022 A 
BRANCH  44  47
ATOM     47  S   UNL     1      -0.388  10.463  -5.479  1.00  0.00     0.127 S 
ATOM     48  O   UNL     1      -1.090  11.449  -4.662  1.00  0.00    -0.237 OA
ATOM     49  O   UNL     1      -0.196  10.839  -6.879  1.00  0.00    -0.237 OA
ATOM     50  O   UNL     1      -0.781   9.074  -5.282  1.00  0.00    -0.744 OA
ENDBRANCH  44  47
ENDBRANCH  26  40
BRANCH  27  51
ATOM     51  C   UNL     1      -1.891   9.441   3.322  1.00  0.00     0.023 A 
ATOM     52  C   UNL     1      -2.264  10.716   3.792  1.00  0.00     0.012 A 
ATOM     53  C   UNL     1      -2.918   8.549   2.940  1.00  0.00     0.148 A 
ATOM     54  C   UNL     1      -3.611  11.100   3.852  1.00  0.00     0.002 A 
ATOM     55  C   UNL     1      -4.255   8.930   3.008  1.00  0.00     0.091 A 
ATOM     56  F   UNL     1      -2.582   7.362   2.418  1.00  0.00    -0.205 F 
ATOM     57  C   UNL     1      -4.605  10.210   3.453  1.00  0.00     0.022 A 
BRANCH  55  58
ATOM     58  S   UNL     1      -5.588   7.845   2.480  1.00  0.00     0.127 S 
ATOM     59  O   UNL     1      -6.508   7.922   3.615  1.00  0.00    -0.237 OA
ATOM     60  O   UNL     1      -6.055   8.510   1.267  1.00  0.00    -0.237 OA
ATOM     61  O   UNL     1      -4.981   6.534   2.289  1.00  0.00    -0.744 OA
ENDBRANCH  55  58
ENDBRANCH  27  51
BRANCH  39  62
ATOM     62  C   UNL     1       4.322  10.158   3.065  1.00  0.00     0.023 A 
ATOM     63  C   UNL     1       3.976   9.079   3.907  1.00  0.00     0.012 A 
ATOM     64  C   UNL     1       5.428  10.954   3.400  1.00  0.00     0.148 A 
ATOM     65  C   UNL     1       4.709   8.816   5.068  1.00  0.00     0.002 A 
ATOM     66  C   UNL     1       6.183  10.660   4.527  1.00  0.00     0.091 A 
ATOM     67  F   UNL     1       5.745  11.971   2.584  1.00  0.00    -0.205 F 
ATOM     68  C   UNL     1       5.822   9.598   5.370  1.00  0.00     0.022 A 
BRANCH  66  69
ATOM     69  S   UNL     1       7.698  11.547   4.890  1.00  0.00     0.127 S 
ATOM     70  O   UNL     1       7.292  12.401   6.003  1.00  0.00    -0.237 OA
ATOM     71  O   UNL     1       8.616  10.465   5.250  1.00  0.00    -0.237 OA
ATOM     72  O   UNL     1       8.058  12.245   3.661  1.00  0.00    -0.744 OA
ENDBRANCH  66  69
ENDBRANCH  39  62
ENDBRANCH  13  14
ENDBRANCH   6   8
ENDBRANCH   5   6
ENDBRANCH   4   5
ENDBRANCH   3   4
ENDBRANCH   2   3
ENDBRANCH   1   2
BRANCH   1  73
ATOM     73  C   UNL     1       2.351  -2.011  -1.266  1.00  0.00     0.188 C 
BRANCH  73  74
ATOM     74  O   UNL     1       2.759  -3.300  -0.806  1.00  0.00    -0.376 OA
BRANCH  74  75
ATOM     75  C   UNL     1       4.088  -3.751  -0.993  1.00  0.00     0.202 C 
BRANCH  75  76
ATOM     76  C   UNL     1       4.587  -3.950  -2.433  1.00  0.00     0.261 C 
BRANCH  76  77
ATOM     77  O   UNL     1       4.308  -2.858  -3.318  1.00  0.00    -0.458 OA
BRANCH  77  78
ATOM     78  C   UNL     1       3.316  -3.052  -4.235  1.00  0.00     0.360 C 
ATOM     79  O   UNL     1       2.771  -4.115  -4.475  1.00  0.00    -0.244 OA
BRANCH  78  80
ATOM     80  C   UNL     1       2.949  -1.804  -4.877  1.00  0.00     0.190 A 
ATOM     81  C   UNL     1       3.537  -1.181  -5.957  1.00  0.00     0.147 A 
ATOM     82  N   UNL     1       1.895  -1.040  -4.441  1.00  0.00    -0.123 NA
ATOM     83  N   UNL     1       2.780  -0.054  -6.136  1.00  0.00    -0.245 N 
ATOM     84  N   UNL     1       1.837   0.051  -5.184  1.00  0.00    -0.066 NA
BRANCH  83  85
ATOM     85  C   UNL     1       2.716   0.789  -7.286  1.00  0.00     0.148 C 
ATOM     86  C   UNL     1       3.970   0.992  -8.140  1.00  0.00     0.150 C 
ATOM     87  C   UNL     1       2.164  -0.040  -8.464  1.00  0.00     0.150 C 
ATOM     88  N   UNL     1       3.112   0.675  -9.287  1.00  0.00    -0.320 N 
ATOM     89  C   UNL     1       3.475   0.652 -10.593  1.00  0.00     0.322 C 
ATOM     90  O   UNL     1       4.569   1.098 -10.954  1.00  0.00    -0.248 OA
ATOM     91  N   UNL     1       2.722   0.000 -11.519  1.00  0.00    -0.307 N 
ATOM     92  H   UNL     1       3.204  -0.217 -12.349  1.00  0.00     0.171 HD
BRANCH  91  93
ATOM     93  C   UNL     1       1.402  -0.413 -11.508  1.00  0.00     0.053 A 
ATOM     94  C   UNL     1       0.290   0.202 -10.863  1.00  0.00     0.038 A 
ATOM     95  C   UNL     1       0.994  -1.507 -12.244  1.00  0.00     0.091 A 
ATOM     96  C   UNL     1      -0.857  -0.558 -10.945  1.00  0.00     0.067 A 
ATOM     97  S   UNL     1      -0.640  -1.925 -11.946  1.00  0.00    -0.150 S 
ENDBRANCH  91  93
ENDBRANCH  83  85
ENDBRANCH  78  80
ENDBRANCH  77  78
ENDBRANCH  76  77
ENDBRANCH  75  76
ENDBRANCH  74  75
ENDBRANCH  73  74
ENDBRANCH   1  73
TORSDOF 22
