REMARK SMILES O=C(OCCOCCOCCOC(=O)[C@@H]1CN(c2nccc(N3CCC(O)CC3)n2)CC[NH2+]1)c1ccc(-c2c3nc(c(-c4cccc(S(=O)(=O)[O-])c4F)c4ccc([nH]4)c(-c4cccc(S(=O)(=O)[O-])c4F)c4nc(c(-c5cccc(S(=O)(=O)[O-])c5F)c5ccc2[nH]5)C=C4)C=C3)cc1
REMARK SMILES IDX 7 1 6 2 5 3 4 4 3 5 2 6 1 7 34 8 35 9 96 10 36 11 95 12
REMARK SMILES IDX 37 13 38 14 39 15 89 16 40 17 94 18 88 19 90 20 41 21 93 22
REMARK SMILES IDX 87 23 86 24 42 26 74 27 54 28 73 29 55 30 58 31 72 32 91 33
REMARK SMILES IDX 56 34 57 35 71 37 92 38 59 39 43 40 44 41 52 42 45 43 47 44
REMARK SMILES IDX 53 45 46 46 48 47 49 48 50 49 51 50 75 51 76 52 84 53 77 54
REMARK SMILES IDX 79 55 85 56 78 57 80 58 81 59 82 60 83 61 60 62 61 63 69 64
REMARK SMILES IDX 62 65 64 66 70 67 63 68 65 69 66 70 67 71 68 72 8 73 9 74
REMARK SMILES IDX 10 75 11 76 12 77 13 78 14 79 15 80 16 81 33 82 17 83 32 84
REMARK SMILES IDX 31 87 18 88 19 89 30 90 20 91 22 92 21 93 23 94 24 95 29 96
REMARK SMILES IDX 25 97 28 98 26 99 27 100
REMARK H PARENT 90 25 58 36 33 85 33 86 27 101
REMARK Flexibility Score: inf
ROOT
ATOM      1  C   UNL     1       2.566   1.738   1.312  1.00  0.00     0.188 C 
ENDROOT
BRANCH   1   2
ATOM      2  O   UNL     1       3.865   1.130   1.383  1.00  0.00    -0.376 OA
BRANCH   2   3
ATOM      3  C   UNL     1       4.779   1.649   0.409  1.00  0.00     0.202 C 
BRANCH   3   4
ATOM      4  C   UNL     1       4.581   1.135  -1.028  1.00  0.00     0.261 C 
BRANCH   4   5
ATOM      5  O   UNL     1       3.227   0.756  -1.316  1.00  0.00    -0.460 OA
BRANCH   5   6
ATOM      6  C   UNL     1       2.652  -0.470  -1.235  1.00  0.00     0.338 C 
ATOM      7  O   UNL     1       1.491  -0.585  -1.626  1.00  0.00    -0.246 OA
BRANCH   6   8
ATOM      8  C   UNL     1       3.340  -1.696  -0.711  1.00  0.00     0.060 A 
ATOM      9  C   UNL     1       4.494  -1.714   0.074  1.00  0.00     0.016 A 
ATOM     10  C   UNL     1       2.746  -2.934  -1.016  1.00  0.00     0.016 A 
ATOM     11  C   UNL     1       5.123  -2.909   0.425  1.00  0.00     0.010 A 
ATOM     12  C   UNL     1       3.336  -4.139  -0.614  1.00  0.00     0.010 A 
ATOM     13  C   UNL     1       4.564  -4.131   0.061  1.00  0.00    -0.014 A 
BRANCH  13  14
ATOM     14  C   UNL     1       5.343  -5.378   0.249  1.00  0.00     0.031 A 
ATOM     15  C   UNL     1       5.928  -6.031  -0.968  1.00  0.00     0.074 A 
ATOM     16  C   UNL     1       5.572  -5.884   1.476  1.00  0.00     0.049 A 
ATOM     17  N   UNL     1       6.629  -7.127  -1.055  1.00  0.00    -0.248 NA
ATOM     18  C   UNL     1       5.726  -5.342  -2.257  1.00  0.00     0.031 C 
ATOM     19  C   UNL     1       5.150  -5.264   2.725  1.00  0.00     0.029 A 
ATOM     20  N   UNL     1       6.191  -7.037   1.886  1.00  0.00    -0.354 N 
ATOM     21  C   UNL     1       6.945  -7.264  -2.399  1.00  0.00     0.074 A 
ATOM     22  C   UNL     1       6.338  -6.157  -3.101  1.00  0.00     0.031 C 
ATOM     23  C   UNL     1       5.435  -6.075   3.757  1.00  0.00     0.029 A 
ATOM     24  C   UNL     1       6.071  -7.271   3.241  1.00  0.00     0.049 A 
ATOM     25  H   UNL     1       6.673  -7.638   1.274  1.00  0.00     0.167 HD
ATOM     26  C   UNL     1       7.702  -8.218  -2.987  1.00  0.00     0.034 A 
ATOM     27  C   UNL     1       6.424  -8.343   3.973  1.00  0.00     0.034 A 
ATOM     28  C   UNL     1       8.295  -9.308  -2.266  1.00  0.00     0.049 A 
ATOM     29  C   UNL     1       7.181  -9.431   3.278  1.00  0.00     0.074 A 
ATOM     30  C   UNL     1       9.093 -10.329  -2.747  1.00  0.00     0.029 A 
ATOM     31  N   UNL     1       8.137  -9.525  -0.904  1.00  0.00    -0.354 N 
ATOM     32  N   UNL     1       7.503  -9.524   2.010  1.00  0.00    -0.248 NA
ATOM     33  C   UNL     1       7.698 -10.512   4.124  1.00  0.00     0.031 C 
ATOM     34  C   UNL     1       9.394 -11.180  -1.678  1.00  0.00     0.029 A 
ATOM     35  C   UNL     1       8.810 -10.671  -0.527  1.00  0.00     0.049 A 
ATOM     36  H   UNL     1       7.622  -8.947  -0.296  1.00  0.00     0.167 HD
ATOM     37  C   UNL     1       8.284 -10.662   1.907  1.00  0.00     0.074 A 
ATOM     38  C   UNL     1       8.391 -11.218   3.243  1.00  0.00     0.031 C 
ATOM     39  C   UNL     1       8.874 -11.196   0.811  1.00  0.00     0.034 A 
BRANCH  26  40
ATOM     40  C   UNL     1       7.919  -8.106  -4.470  1.00  0.00     0.023 A 
ATOM     41  C   UNL     1       8.784  -7.116  -4.980  1.00  0.00     0.012 A 
ATOM     42  C   UNL     1       7.264  -8.978  -5.358  1.00  0.00     0.148 A 
ATOM     43  C   UNL     1       8.969  -6.976  -6.355  1.00  0.00     0.002 A 
ATOM     44  C   UNL     1       7.483  -8.857  -6.725  1.00  0.00     0.091 A 
ATOM     45  F   UNL     1       6.422  -9.890  -4.853  1.00  0.00    -0.205 F 
ATOM     46  C   UNL     1       8.325  -7.851  -7.226  1.00  0.00     0.022 A 
BRANCH  44  47
ATOM     47  S   UNL     1       6.740  -9.967  -7.925  1.00  0.00     0.127 S 
ATOM     48  O   UNL     1       5.803  -9.076  -8.609  1.00  0.00    -0.237 OA
ATOM     49  O   UNL     1       7.897 -10.367  -8.727  1.00  0.00    -0.237 OA
ATOM     50  O   UNL     1       6.129 -11.042  -7.157  1.00  0.00    -0.744 OA
ENDBRANCH  44  47
ENDBRANCH  26  40
BRANCH  27  51
ATOM     51  C   UNL     1       6.157  -8.435   5.435  1.00  0.00     0.023 A 
ATOM     52  C   UNL     1       7.059  -7.847   6.341  1.00  0.00     0.012 A 
ATOM     53  C   UNL     1       5.069  -9.177   5.935  1.00  0.00     0.148 A 
ATOM     54  C   UNL     1       6.889  -8.006   7.718  1.00  0.00     0.002 A 
ATOM     55  C   UNL     1       4.902  -9.327   7.310  1.00  0.00     0.091 A 
ATOM     56  F   UNL     1       4.236  -9.760   5.061  1.00  0.00    -0.205 F 
ATOM     57  C   UNL     1       5.813  -8.744   8.204  1.00  0.00     0.022 A 
BRANCH  55  58
ATOM     58  S   UNL     1       3.500 -10.209   8.013  1.00  0.00     0.127 S 
ATOM     59  O   UNL     1       4.041 -11.541   8.219  1.00  0.00    -0.237 OA
ATOM     60  O   UNL     1       3.235  -9.444   9.236  1.00  0.00    -0.237 OA
ATOM     61  O   UNL     1       2.441 -10.081   7.014  1.00  0.00    -0.744 OA
ENDBRANCH  55  58
ENDBRANCH  27  51
BRANCH  39  62
ATOM     62  C   UNL     1       9.672 -12.444   1.032  1.00  0.00     0.023 A 
ATOM     63  C   UNL     1       9.008 -13.666   1.251  1.00  0.00     0.012 A 
ATOM     64  C   UNL     1      11.076 -12.403   0.996  1.00  0.00     0.148 A 
ATOM     65  C   UNL     1       9.738 -14.831   1.464  1.00  0.00     0.002 A 
ATOM     66  C   UNL     1      11.796 -13.576   1.160  1.00  0.00     0.091 A 
ATOM     67  F   UNL     1      11.679 -11.218   0.816  1.00  0.00    -0.205 F 
ATOM     68  C   UNL     1      11.130 -14.789   1.407  1.00  0.00     0.022 A 
BRANCH  66  69
ATOM     69  S   UNL     1      13.583 -13.626   1.015  1.00  0.00     0.127 S 
ATOM     70  O   UNL     1      13.992 -13.805   2.407  1.00  0.00    -0.237 OA
ATOM     71  O   UNL     1      13.791 -14.796   0.161  1.00  0.00    -0.237 OA
ATOM     72  O   UNL     1      13.972 -12.360   0.407  1.00  0.00    -0.744 OA
ENDBRANCH  66  69
ENDBRANCH  39  62
ENDBRANCH  13  14
ENDBRANCH   6   8
ENDBRANCH   5   6
ENDBRANCH   4   5
ENDBRANCH   3   4
ENDBRANCH   2   3
ENDBRANCH   1   2
BRANCH   1  73
ATOM     73  C   UNL     1       1.896   1.914   2.678  1.00  0.00     0.188 C 
BRANCH  73  74
ATOM     74  O   UNL     1       2.518   2.805   3.601  1.00  0.00    -0.376 OA
BRANCH  74  75
ATOM     75  C   UNL     1       3.885   2.575   3.915  1.00  0.00     0.202 C 
BRANCH  75  76
ATOM     76  C   UNL     1       4.270   1.296   4.674  1.00  0.00     0.261 C 
BRANCH  76  77
ATOM     77  O   UNL     1       3.579   0.105   4.283  1.00  0.00    -0.459 OA
BRANCH  77  78
ATOM     78  C   UNL     1       2.584  -0.301   5.132  1.00  0.00     0.366 C 
ATOM     79  O   UNL     1       2.196   0.342   6.101  1.00  0.00    -0.245 OA
BRANCH  78  80
ATOM     80  C   UNL     1       2.011  -1.654   4.721  1.00  0.00     0.313 C 
ATOM     81  C   UNL     1       3.172  -2.616   4.439  1.00  0.00     0.197 C 
ATOM     82  N   UNL     1       1.100  -1.562   3.522  1.00  0.00    -0.332 N 
ATOM     83  N   UNL     1       2.634  -3.935   4.145  1.00  0.00    -0.328 N 
ATOM     84  C   UNL     1       0.574  -2.933   3.245  1.00  0.00     0.283 C 
ATOM     85  H   UNL     1       1.622  -1.221   2.715  1.00  0.00     0.347 HD
ATOM     86  H   UNL     1       0.334  -0.915   3.705  1.00  0.00     0.347 HD
ATOM     87  C   UNL     1       1.666  -4.021   3.058  1.00  0.00     0.181 C 
BRANCH  83  88
ATOM     88  C   UNL     1       2.525  -4.823   5.191  1.00  0.00     0.227 A 
ATOM     89  N   UNL     1       2.261  -6.103   4.920  1.00  0.00    -0.221 NA
ATOM     90  N   UNL     1       2.748  -4.363   6.428  1.00  0.00    -0.196 NA
ATOM     91  C   UNL     1       2.311  -6.963   5.951  1.00  0.00     0.119 A 
ATOM     92  C   UNL     1       2.719  -5.228   7.449  1.00  0.00     0.134 A 
ATOM     93  C   UNL     1       2.544  -6.574   7.246  1.00  0.00     0.067 A 
BRANCH  92  94
ATOM     94  N   UNL     1       2.709  -4.660   8.709  1.00  0.00    -0.356 N 
ATOM     95  C   UNL     1       3.851  -4.850   9.582  1.00  0.00     0.121 C 
ATOM     96  C   UNL     1       1.394  -4.657   9.330  1.00  0.00     0.121 C 
ATOM     97  C   UNL     1       3.860  -3.704  10.601  1.00  0.00     0.053 C 
ATOM     98  C   UNL     1       1.329  -3.488  10.302  1.00  0.00     0.053 C 
ATOM     99  C   UNL     1       2.501  -3.502  11.282  1.00  0.00     0.118 C 
BRANCH  99 100
ATOM    100  O   UNL     1       2.293  -4.493  12.289  1.00  0.00    -0.393 OA
ATOM    101  H   UNL     1       2.264  -5.371  11.878  1.00  0.00     0.210 HD
ENDBRANCH  99 100
ENDBRANCH  92  94
ENDBRANCH  83  88
ENDBRANCH  78  80
ENDBRANCH  77  78
ENDBRANCH  76  77
ENDBRANCH  75  76
ENDBRANCH  74  75
ENDBRANCH  73  74
ENDBRANCH   1  73
TORSDOF 23
