REMARK SMILES O=C(N[C@@H](CS)C(=O)N[C@@H](CO)C(=O)OCCOCCOCCOC(=O)c1ccc(-c2c3nc(c(-c4cccc(S(=O)(=O)[O-])c4F)c4ccc([nH]4)c(-c4cccc(S(=O)(=O)[O-])c4F)c4nc(c(-c5cccc(S(=O)(=O)[O-])c5F)c5ccc2[nH]5)C=C4)C=C3)cc1)c1ccc(F)cc1
REMARK SMILES IDX 19 1 18 2 17 3 16 4 15 5 13 6 14 7 10 8 9 9 7 10 8 11 4 13
REMARK SMILES IDX 3 14 1 15 2 16 90 18 91 19 96 20 92 21 95 22 93 23 94 24
REMARK SMILES IDX 5 25 6 26 11 28 12 29 20 31 21 32 22 33 23 34 24 35 25 36
REMARK SMILES IDX 26 37 27 38 28 39 89 40 29 41 88 42 30 43 31 44 32 45 82 46
REMARK SMILES IDX 33 47 87 48 81 49 83 50 34 51 86 52 80 53 79 54 35 56 67 57
REMARK SMILES IDX 47 58 66 59 48 60 51 61 65 62 84 63 49 64 50 65 64 67 85 68
REMARK SMILES IDX 52 69 36 70 37 71 45 72 38 73 40 74 46 75 39 76 41 77 42 78
REMARK SMILES IDX 43 79 44 80 68 81 69 82 77 83 70 84 72 85 78 86 71 87 73 88
REMARK SMILES IDX 74 89 75 90 76 91 53 92 54 93 62 94 55 95 57 96 63 97 56 98
REMARK SMILES IDX 58 99 59 100 60 101 61 102
REMARK H PARENT 9 12 3 17 6 27 12 30 83 55 51 66
REMARK Flexibility Score: inf
ROOT
ATOM      1  C   UNL     1       6.577   2.753   5.010  1.00  0.00     0.188 C 
ENDROOT
BRANCH   1   2
ATOM      2  O   UNL     1       6.894   3.128   6.339  1.00  0.00    -0.376 OA
BRANCH   2   3
ATOM      3  C   UNL     1       6.348   2.360   7.406  1.00  0.00     0.202 C 
BRANCH   3   4
ATOM      4  C   UNL     1       4.851   2.053   7.360  1.00  0.00     0.261 C 
BRANCH   4   5
ATOM      5  O   UNL     1       4.514   1.139   6.295  1.00  0.00    -0.462 OA
BRANCH   5   6
ATOM      6  C   UNL     1       3.199   1.169   5.934  1.00  0.00     0.331 C 
ATOM      7  O   UNL     1       2.350   1.852   6.498  1.00  0.00    -0.250 OA
BRANCH   6   8
ATOM      8  C   UNL     1       2.865   0.243   4.745  1.00  0.00     0.218 C 
BRANCH   8   9
ATOM      9  N   UNL     1       3.989  -0.499   4.159  1.00  0.00    -0.339 N 
ATOM     10  C   UNL     1       4.405  -0.714   2.887  1.00  0.00     0.244 C 
ATOM     11  O   UNL     1       5.333  -1.524   2.757  1.00  0.00    -0.273 OA
ATOM     12  H   UNL     1       4.561  -0.932   4.833  1.00  0.00     0.164 HD
BRANCH  10  13
ATOM     13  C   UNL     1       3.859  -0.003   1.627  1.00  0.00     0.181 C 
BRANCH  13  14
ATOM     14  N   UNL     1       2.472  -0.295   1.278  1.00  0.00    -0.339 N 
ATOM     15  O   UNL     1       0.713  -0.540  -0.105  1.00  0.00    -0.269 OA
ATOM     16  C   UNL     1       1.932  -0.480   0.024  1.00  0.00     0.251 C 
ATOM     17  H   UNL     1       1.844  -0.368   2.033  1.00  0.00     0.164 HD
BRANCH  16  18
ATOM     18  C   UNL     1       2.797  -0.583  -1.180  1.00  0.00     0.040 A 
ATOM     19  C   UNL     1       3.807  -1.551  -1.273  1.00  0.00     0.017 A 
ATOM     20  C   UNL     1       2.547   0.268  -2.266  1.00  0.00     0.017 A 
ATOM     21  C   UNL     1       4.608  -1.617  -2.416  1.00  0.00     0.040 A 
ATOM     22  C   UNL     1       3.341   0.188  -3.414  1.00  0.00     0.040 A 
ATOM     23  C   UNL     1       4.370  -0.746  -3.474  1.00  0.00     0.123 A 
ATOM     24  F   UNL     1       5.136  -0.821  -4.570  1.00  0.00    -0.207 F 
ENDBRANCH  16  18
ENDBRANCH  13  14
BRANCH  13  25
ATOM     25  C   UNL     1       4.255   1.475   1.493  1.00  0.00     0.101 C 
BRANCH  25  26
ATOM     26  S   UNL     1       3.212   2.723   2.294  1.00  0.00    -0.177 SA
ATOM     27  H   UNL     1       1.982   2.726   1.714  1.00  0.00     0.102 HD
ENDBRANCH  25  26
ENDBRANCH  13  25
ENDBRANCH  10  13
ENDBRANCH   8   9
BRANCH   8  28
ATOM     28  C   UNL     1       1.786  -0.741   5.212  1.00  0.00     0.193 C 
BRANCH  28  29
ATOM     29  O   UNL     1       2.342  -1.763   6.042  1.00  0.00    -0.394 OA
ATOM     30  H   UNL     1       3.004  -2.263   5.539  1.00  0.00     0.210 HD
ENDBRANCH  28  29
ENDBRANCH   8  28
ENDBRANCH   6   8
ENDBRANCH   5   6
ENDBRANCH   4   5
ENDBRANCH   3   4
ENDBRANCH   2   3
ENDBRANCH   1   2
BRANCH   1  31
ATOM     31  C   UNL     1       6.967   1.345   4.527  1.00  0.00     0.188 C 
BRANCH  31  32
ATOM     32  O   UNL     1       7.710   0.465   5.352  1.00  0.00    -0.376 OA
BRANCH  32  33
ATOM     33  C   UNL     1       8.983   0.905   5.812  1.00  0.00     0.202 C 
BRANCH  33  34
ATOM     34  C   UNL     1      10.032   1.320   4.776  1.00  0.00     0.261 C 
BRANCH  34  35
ATOM     35  O   UNL     1       9.559   2.330   3.872  1.00  0.00    -0.460 OA
BRANCH  35  36
ATOM     36  C   UNL     1       9.877   2.122   2.569  1.00  0.00     0.338 C 
ATOM     37  O   UNL     1      10.583   1.246   2.106  1.00  0.00    -0.246 OA
BRANCH  36  38
ATOM     38  C   UNL     1       9.103   3.057   1.735  1.00  0.00     0.060 A 
ATOM     39  C   UNL     1       7.899   2.616   1.176  1.00  0.00     0.016 A 
ATOM     40  C   UNL     1       9.595   4.328   1.449  1.00  0.00     0.016 A 
ATOM     41  C   UNL     1       7.152   3.469   0.364  1.00  0.00     0.010 A 
ATOM     42  C   UNL     1       8.861   5.170   0.607  1.00  0.00     0.010 A 
ATOM     43  C   UNL     1       7.635   4.747   0.065  1.00  0.00    -0.014 A 
BRANCH  43  44
ATOM     44  C   UNL     1       6.915   5.597  -0.910  1.00  0.00     0.031 A 
ATOM     45  C   UNL     1       7.353   5.587  -2.345  1.00  0.00     0.074 A 
ATOM     46  C   UNL     1       5.877   6.363  -0.526  1.00  0.00     0.049 A 
ATOM     47  N   UNL     1       6.986   6.368  -3.325  1.00  0.00    -0.248 NA
ATOM     48  C   UNL     1       8.319   4.545  -2.728  1.00  0.00     0.031 C 
ATOM     49  C   UNL     1       5.291   6.384   0.813  1.00  0.00     0.029 A 
ATOM     50  N   UNL     1       5.150   7.293  -1.228  1.00  0.00    -0.354 N 
ATOM     51  C   UNL     1       7.706   5.942  -4.433  1.00  0.00     0.074 A 
ATOM     52  C   UNL     1       8.510   4.815  -4.011  1.00  0.00     0.031 C 
ATOM     53  C   UNL     1       4.318   7.312   0.847  1.00  0.00     0.029 A 
ATOM     54  C   UNL     1       4.256   7.989  -0.448  1.00  0.00     0.049 A 
ATOM     55  H   UNL     1       5.258   7.446  -2.195  1.00  0.00     0.167 HD
ATOM     56  C   UNL     1       7.701   6.450  -5.687  1.00  0.00     0.034 A 
ATOM     57  C   UNL     1       3.521   9.084  -0.730  1.00  0.00     0.034 A 
ATOM     58  C   UNL     1       6.898   7.566  -6.103  1.00  0.00     0.049 A 
ATOM     59  C   UNL     1       3.627   9.706  -2.101  1.00  0.00     0.074 A 
ATOM     60  C   UNL     1       6.836   8.163  -7.350  1.00  0.00     0.029 A 
ATOM     61  N   UNL     1       6.027   8.262  -5.281  1.00  0.00    -0.354 N 
ATOM     62  N   UNL     1       4.281   9.280  -3.155  1.00  0.00    -0.248 NA
ATOM     63  C   UNL     1       2.895  10.964  -2.320  1.00  0.00     0.031 C 
ATOM     64  C   UNL     1       5.942   9.236  -7.274  1.00  0.00     0.029 A 
ATOM     65  C   UNL     1       5.436   9.295  -5.986  1.00  0.00     0.049 A 
ATOM     66  H   UNL     1       5.855   8.053  -4.334  1.00  0.00     0.167 HD
ATOM     67  C   UNL     1       4.027  10.205  -4.162  1.00  0.00     0.074 A 
ATOM     68  C   UNL     1       3.133  11.198  -3.603  1.00  0.00     0.031 C 
ATOM     69  C   UNL     1       4.509  10.246  -5.429  1.00  0.00     0.034 A 
BRANCH  56  70
ATOM     70  C   UNL     1       8.604   5.806  -6.700  1.00  0.00     0.023 A 
ATOM     71  C   UNL     1       8.229   4.585  -7.293  1.00  0.00     0.012 A 
ATOM     72  C   UNL     1       9.797   6.437  -7.098  1.00  0.00     0.148 A 
ATOM     73  C   UNL     1       9.040   3.992  -8.259  1.00  0.00     0.002 A 
ATOM     74  C   UNL     1      10.583   5.857  -8.086  1.00  0.00     0.091 A 
ATOM     75  F   UNL     1      10.145   7.584  -6.497  1.00  0.00    -0.205 F 
ATOM     76  C   UNL     1      10.210   4.632  -8.662  1.00  0.00     0.022 A 
BRANCH  74  77
ATOM     77  S   UNL     1      12.076   6.633  -8.713  1.00  0.00     0.127 S 
ATOM     78  O   UNL     1      13.112   5.745  -8.188  1.00  0.00    -0.237 OA
ATOM     79  O   UNL     1      11.879   6.552 -10.161  1.00  0.00    -0.237 OA
ATOM     80  O   UNL     1      12.083   7.986  -8.175  1.00  0.00    -0.744 OA
ENDBRANCH  74  77
ENDBRANCH  56  70
BRANCH  57  81
ATOM     81  C   UNL     1       2.647   9.698   0.310  1.00  0.00     0.023 A 
ATOM     82  C   UNL     1       1.250   9.707   0.130  1.00  0.00     0.012 A 
ATOM     83  C   UNL     1       3.190  10.293   1.466  1.00  0.00     0.148 A 
ATOM     84  C   UNL     1       0.415  10.319   1.066  1.00  0.00     0.002 A 
ATOM     85  C   UNL     1       2.349  10.850   2.423  1.00  0.00     0.091 A 
ATOM     86  F   UNL     1       4.524  10.313   1.606  1.00  0.00    -0.205 F 
ATOM     87  C   UNL     1       0.962  10.879   2.218  1.00  0.00     0.022 A 
BRANCH  85  88
ATOM     88  S   UNL     1       2.970  11.478   3.987  1.00  0.00     0.127 S 
ATOM     89  O   UNL     1       2.910  12.922   3.775  1.00  0.00    -0.237 OA
ATOM     90  O   UNL     1       1.989  10.953   4.939  1.00  0.00    -0.237 OA
ATOM     91  O   UNL     1       4.303  10.908   4.131  1.00  0.00    -0.744 OA
ENDBRANCH  85  88
ENDBRANCH  57  81
BRANCH  69  92
ATOM     92  C   UNL     1       4.081  11.391  -6.309  1.00  0.00     0.023 A 
ATOM     93  C   UNL     1       4.638  12.669  -6.101  1.00  0.00     0.012 A 
ATOM     94  C   UNL     1       3.209  11.184  -7.396  1.00  0.00     0.148 A 
ATOM     95  C   UNL     1       4.317  13.727  -6.950  1.00  0.00     0.002 A 
ATOM     96  C   UNL     1       2.929  12.233  -8.264  1.00  0.00     0.091 A 
ATOM     97  F   UNL     1       2.680   9.963  -7.566  1.00  0.00    -0.205 F 
ATOM     98  C   UNL     1       3.475  13.507  -8.037  1.00  0.00     0.022 A 
BRANCH  96  99
ATOM     99  S   UNL     1       1.928  12.025  -9.741  1.00  0.00     0.127 S 
ATOM    100  O   UNL     1       0.726  12.783  -9.396  1.00  0.00    -0.237 OA
ATOM    101  O   UNL     1       2.764  12.644 -10.771  1.00  0.00    -0.237 OA
ATOM    102  O   UNL     1       1.735  10.590  -9.899  1.00  0.00    -0.744 OA
ENDBRANCH  96  99
ENDBRANCH  69  92
ENDBRANCH  43  44
ENDBRANCH  36  38
ENDBRANCH  35  36
ENDBRANCH  34  35
ENDBRANCH  33  34
ENDBRANCH  32  33
ENDBRANCH  31  32
ENDBRANCH   1  31
TORSDOF 28
