REMARK SMILES O=C(OCCOCCOCCOC(=O)[C@H]1CC=CC[C@H]1C(=O)Nc1ccc(S(=O)(=O)N2CCc3ccccc32)cc1)c1ccc(-c2c3nc(c(-c4cccc(S(=O)(=O)[O-])c4F)c4ccc([nH]4)c(-c4cccc(S(=O)(=O)[O-])c4F)c4nc(c(-c5cccc(S(=O)(=O)[O-])c5F)c5ccc2[nH]5)C=C4)C=C3)cc1
REMARK SMILES IDX 8 1 7 2 6 3 5 4 4 5 3 6 2 7 1 8 42 9 43 10 104 11 44 12
REMARK SMILES IDX 103 13 45 14 46 15 47 16 97 17 48 18 102 19 96 20 98 21
REMARK SMILES IDX 49 22 101 23 95 24 94 25 50 27 82 28 62 29 81 30 63 31 66 32
REMARK SMILES IDX 80 33 99 34 64 35 65 36 79 38 100 39 67 40 51 41 52 42 60 43
REMARK SMILES IDX 53 44 55 45 61 46 54 47 56 48 57 49 58 50 59 51 83 52 84 53
REMARK SMILES IDX 92 54 85 55 87 56 93 57 86 58 88 59 89 60 90 61 91 62 68 63
REMARK SMILES IDX 69 64 77 65 70 66 72 67 78 68 71 69 73 70 74 71 75 72 76 73
REMARK SMILES IDX 9 74 10 75 11 76 12 77 13 78 14 79 15 80 16 81 20 82 17 83
REMARK SMILES IDX 19 84 18 85 21 86 22 87 23 88 24 90 25 91 41 92 26 93 40 94
REMARK SMILES IDX 27 95 28 96 29 97 30 98 31 99 32 100 39 101 33 102 34 103
REMARK SMILES IDX 38 104 35 105 37 106 36 107
REMARK H PARENT 98 26 66 37 23 89
REMARK Flexibility Score: inf
ROOT
ATOM      1  C   UNL     1       1.656   1.502  -2.186  1.00  0.00     0.188 C 
ENDROOT
BRANCH   1   2
ATOM      2  C   UNL     1       1.897  -0.005  -1.249  1.00  0.00     0.188 C 
BRANCH   2   3
ATOM      3  O   UNL     1       2.871  -0.206  -0.205  1.00  0.00    -0.376 OA
BRANCH   3   4
ATOM      4  C   UNL     1       4.071  -0.952  -0.430  1.00  0.00     0.202 C 
BRANCH   4   5
ATOM      5  C   UNL     1       4.079  -2.472  -0.285  1.00  0.00     0.261 C 
BRANCH   5   6
ATOM      6  O   UNL     1       3.756  -3.080   0.968  1.00  0.00    -0.460 OA
BRANCH   6   7
ATOM      7  C   UNL     1       2.854  -2.461   1.760  1.00  0.00     0.338 C 
ATOM      8  O   UNL     1       1.695  -2.828   1.859  1.00  0.00    -0.246 OA
BRANCH   7   9
ATOM      9  C   UNL     1       3.478  -1.391   2.586  1.00  0.00     0.060 A 
ATOM     10  C   UNL     1       4.855  -1.117   2.521  1.00  0.00     0.016 A 
ATOM     11  C   UNL     1       2.650  -0.613   3.397  1.00  0.00     0.016 A 
ATOM     12  C   UNL     1       5.378   0.009   3.138  1.00  0.00     0.010 A 
ATOM     13  C   UNL     1       3.203   0.425   4.148  1.00  0.00     0.010 A 
ATOM     14  C   UNL     1       4.568   0.742   4.011  1.00  0.00    -0.014 A 
BRANCH  14  15
ATOM     15  C   UNL     1       5.287   1.442   5.094  1.00  0.00     0.031 A 
ATOM     16  C   UNL     1       5.824   0.507   6.139  1.00  0.00     0.074 A 
ATOM     17  C   UNL     1       5.568   2.756   5.104  1.00  0.00     0.049 A 
ATOM     18  N   UNL     1       6.736   0.715   7.042  1.00  0.00    -0.248 NA
ATOM     19  C   UNL     1       5.332  -0.888   6.090  1.00  0.00     0.031 C 
ATOM     20  C   UNL     1       5.172   3.735   4.101  1.00  0.00     0.029 A 
ATOM     21  N   UNL     1       6.274   3.501   6.013  1.00  0.00    -0.354 N 
ATOM     22  C   UNL     1       6.949  -0.524   7.629  1.00  0.00     0.074 A 
ATOM     23  C   UNL     1       6.094  -1.484   6.983  1.00  0.00     0.031 C 
ATOM     24  C   UNL     1       5.575   4.962   4.472  1.00  0.00     0.029 A 
ATOM     25  C   UNL     1       6.297   4.848   5.730  1.00  0.00     0.049 A 
ATOM     26  H   UNL     1       6.723   3.109   6.796  1.00  0.00     0.167 HD
ATOM     27  C   UNL     1       7.779  -0.836   8.642  1.00  0.00     0.034 A 
ATOM     28  C   UNL     1       6.854   5.864   6.415  1.00  0.00     0.034 A 
ATOM     29  C   UNL     1       8.503   0.156   9.368  1.00  0.00     0.049 A 
ATOM     30  C   UNL     1       7.657   5.509   7.639  1.00  0.00     0.074 A 
ATOM     31  C   UNL     1       9.307  -0.004  10.476  1.00  0.00     0.029 A 
ATOM     32  N   UNL     1       8.445   1.515   9.091  1.00  0.00    -0.354 N 
ATOM     33  N   UNL     1       7.941   4.321   8.121  1.00  0.00    -0.248 NA
ATOM     34  C   UNL     1       8.254   6.621   8.386  1.00  0.00     0.031 C 
ATOM     35  C   UNL     1       9.691   1.270  10.904  1.00  0.00     0.029 A 
ATOM     36  C   UNL     1       9.179   2.214  10.024  1.00  0.00     0.049 A 
ATOM     37  H   UNL     1       7.952   1.919   8.340  1.00  0.00     0.167 HD
ATOM     38  C   UNL     1       8.789   4.538   9.199  1.00  0.00     0.074 A 
ATOM     39  C   UNL     1       8.979   5.974   9.288  1.00  0.00     0.031 C 
ATOM     40  C   UNL     1       9.361   3.643  10.042  1.00  0.00     0.034 A 
BRANCH  27  41
ATOM     41  C   UNL     1       7.820  -2.278   9.046  1.00  0.00     0.023 A 
ATOM     42  C   UNL     1       8.435  -3.230   8.205  1.00  0.00     0.012 A 
ATOM     43  C   UNL     1       7.158  -2.702  10.211  1.00  0.00     0.148 A 
ATOM     44  C   UNL     1       8.356  -4.590   8.502  1.00  0.00     0.002 A 
ATOM     45  C   UNL     1       7.126  -4.053  10.525  1.00  0.00     0.091 A 
ATOM     46  F   UNL     1       6.530  -1.784  10.958  1.00  0.00    -0.205 F 
ATOM     47  C   UNL     1       7.709  -5.000   9.665  1.00  0.00     0.022 A 
BRANCH  45  48
ATOM     48  S   UNL     1       6.368  -4.673  12.027  1.00  0.00     0.127 S 
ATOM     49  O   UNL     1       5.250  -5.451  11.496  1.00  0.00    -0.237 OA
ATOM     50  O   UNL     1       7.450  -5.472  12.602  1.00  0.00    -0.237 OA
ATOM     51  O   UNL     1       5.994  -3.501  12.806  1.00  0.00    -0.744 OA
ENDBRANCH  45  48
ENDBRANCH  27  41
BRANCH  28  52
ATOM     52  C   UNL     1       6.722   7.277   5.951  1.00  0.00     0.023 A 
ATOM     53  C   UNL     1       7.862   7.987   5.524  1.00  0.00     0.012 A 
ATOM     54  C   UNL     1       5.473   7.931   5.947  1.00  0.00     0.148 A 
ATOM     55  C   UNL     1       7.769   9.329   5.148  1.00  0.00     0.002 A 
ATOM     56  C   UNL     1       5.379   9.254   5.525  1.00  0.00     0.091 A 
ATOM     57  F   UNL     1       4.397   7.247   6.361  1.00  0.00    -0.205 F 
ATOM     58  C   UNL     1       6.529   9.961   5.144  1.00  0.00     0.022 A 
BRANCH  56  59
ATOM     59  S   UNL     1       3.811  10.120   5.384  1.00  0.00     0.127 S 
ATOM     60  O   UNL     1       3.937  11.140   6.422  1.00  0.00    -0.237 OA
ATOM     61  O   UNL     1       3.870  10.624   4.012  1.00  0.00    -0.237 OA
ATOM     62  O   UNL     1       2.782   9.114   5.611  1.00  0.00    -0.744 OA
ENDBRANCH  56  59
ENDBRANCH  28  52
BRANCH  40  63
ATOM     63  C   UNL     1      10.281   4.183  11.097  1.00  0.00     0.023 A 
ATOM     64  C   UNL     1       9.762   4.893  12.195  1.00  0.00     0.012 A 
ATOM     65  C   UNL     1      11.656   3.885  11.041  1.00  0.00     0.148 A 
ATOM     66  C   UNL     1      10.609   5.330  13.211  1.00  0.00     0.002 A 
ATOM     67  C   UNL     1      12.481   4.266  12.087  1.00  0.00     0.091 A 
ATOM     68  F   UNL     1      12.125   3.220   9.974  1.00  0.00    -0.205 F 
ATOM     69  C   UNL     1      11.963   5.003  13.164  1.00  0.00     0.022 A 
BRANCH  67  70
ATOM     70  S   UNL     1      14.206   3.778  12.166  1.00  0.00     0.127 S 
ATOM     71  O   UNL     1      14.885   5.042  11.889  1.00  0.00    -0.237 OA
ATOM     72  O   UNL     1      14.330   3.306  13.545  1.00  0.00    -0.237 OA
ATOM     73  O   UNL     1      14.378   2.741  11.157  1.00  0.00    -0.744 OA
ENDBRANCH  67  70
ENDBRANCH  40  63
ENDBRANCH  14  15
ENDBRANCH   7   9
ENDBRANCH   6   7
ENDBRANCH   5   6
ENDBRANCH   4   5
ENDBRANCH   3   4
ENDBRANCH   2   3
ENDBRANCH   1   2
BRANCH   1  74
ATOM     74  O   UNL     1       2.977   2.827  -2.951  1.00  0.00    -0.376 OA
BRANCH  74  75
ATOM     75  C   UNL     1       4.474   3.370  -2.818  1.00  0.00     0.202 C 
BRANCH  75  76
ATOM     76  C   UNL     1       4.682   4.777  -2.215  1.00  0.00     0.261 C 
BRANCH  76  77
ATOM     77  O   UNL     1       4.297   4.865  -0.821  1.00  0.00    -0.463 OA
BRANCH  77  78
ATOM     78  C   UNL     1       3.442   5.880  -0.536  1.00  0.00     0.310 C 
ATOM     79  O   UNL     1       3.291   6.834  -1.295  1.00  0.00    -0.252 OA
BRANCH  78  80
ATOM     80  C   UNL     1       2.682   5.728   0.798  1.00  0.00     0.116 C 
ATOM     81  C   UNL     1       1.522   6.768   0.805  1.00  0.00     0.043 C 
ATOM     82  C   UNL     1       2.130   4.368   1.337  1.00  0.00     0.097 C 
ATOM     83  C   UNL     1       0.235   6.271   0.197  1.00  0.00    -0.030 C 
ATOM     84  C   UNL     1       0.623   4.008   1.132  1.00  0.00     0.041 C 
ATOM     85  C   UNL     1      -0.192   5.016   0.381  1.00  0.00    -0.030 C 
BRANCH  82  86
ATOM     86  C   UNL     1       2.929   3.069   1.307  1.00  0.00     0.228 C 
ATOM     87  O   UNL     1       2.954   2.441   2.370  1.00  0.00    -0.274 OA
ATOM     88  N   UNL     1       3.486   2.412   0.266  1.00  0.00    -0.326 N 
ATOM     89  H   UNL     1       4.251   1.832   0.485  1.00  0.00     0.169 HD
BRANCH  88  90
ATOM     90  C   UNL     1       3.121   2.447  -1.070  1.00  0.00     0.041 A 
ATOM     91  C   UNL     1       3.710   1.195  -2.305  1.00  0.00     0.027 A 
ATOM     92  C   UNL     1       1.881   3.639  -1.590  1.00  0.00     0.027 A 
ATOM     93  C   UNL     1       2.953   1.161  -3.942  1.00  0.00     0.024 A 
ATOM     94  C   UNL     1       1.171   3.587  -3.184  1.00  0.00     0.024 A 
ATOM     95  C   UNL     1       1.704   2.385  -4.330  1.00  0.00     0.088 A 
BRANCH  95  96
ATOM     96  S   UNL     1       1.294   2.682  -5.978  1.00  0.00     0.264 S 
ATOM     97  O   UNL     1       1.199   1.357  -6.551  1.00  0.00    -0.201 OA
ATOM     98  O   UNL     1       0.172   3.599  -6.024  1.00  0.00    -0.201 OA
BRANCH  96  99
ATOM     99  N   UNL     1       2.808   3.553  -6.401  1.00  0.00    -0.266 N 
ATOM    100  C   UNL     1       2.550   5.046  -6.527  1.00  0.00     0.140 C 
ATOM    101  C   UNL     1       3.187   3.123  -7.707  1.00  0.00     0.055 A 
ATOM    102  C   UNL     1       2.331   5.296  -8.039  1.00  0.00     0.060 C 
ATOM    103  C   UNL     1       2.507   3.923  -8.611  1.00  0.00    -0.022 A 
ATOM    104  C   UNL     1       3.576   1.819  -7.952  1.00  0.00     0.027 A 
ATOM    105  C   UNL     1       1.873   3.301  -9.665  1.00  0.00     0.006 A 
ATOM    106  C   UNL     1       2.968   1.197  -9.030  1.00  0.00     0.002 A 
ATOM    107  C   UNL     1       2.065   1.918  -9.833  1.00  0.00     0.000 A 
ENDBRANCH  96  99
ENDBRANCH  95  96
ENDBRANCH  88  90
ENDBRANCH  82  86
ENDBRANCH  78  80
ENDBRANCH  77  78
ENDBRANCH  76  77
ENDBRANCH  75  76
ENDBRANCH  74  75
ENDBRANCH   1  74
TORSDOF 24
