REMARK SMILES CC(C)(C[N@H+]1C[C@@H]2C[NH2+]C[C@H]2C1(C)C)C(=O)OCCOCCOCCOC(=O)c1ccc(-c2c3nc(c(-c4cccc(S(=O)(=O)[O-])c4F)c4ccc([nH]4)c(-c4cccc(S(=O)(=O)[O-])c4F)c4nc(c(-c5cccc(S(=O)(=O)[O-])c5F)c5ccc2[nH]5)C=C4)C=C3)cc1
REMARK SMILES IDX 22 1 21 2 20 3 19 4 18 5 17 6 15 7 16 8 2 9 1 10 3 11 4 12
REMARK SMILES IDX 5 13 6 14 12 15 7 17 11 18 13 19 14 20 8 21 10 22 9 23 23 26
REMARK SMILES IDX 24 27 25 28 26 29 27 30 28 31 29 32 30 33 91 34 31 35 90 36
REMARK SMILES IDX 32 37 33 38 34 39 84 40 35 41 89 42 83 43 85 44 36 45 88 46
REMARK SMILES IDX 82 47 81 48 37 50 69 51 49 52 68 53 50 54 53 55 67 56 86 57
REMARK SMILES IDX 51 58 52 59 66 61 87 62 54 63 38 64 39 65 47 66 40 67 42 68
REMARK SMILES IDX 48 69 41 70 43 71 44 72 45 73 46 74 70 75 71 76 79 77 72 78
REMARK SMILES IDX 74 79 80 80 73 81 75 82 76 83 77 84 78 85 55 86 56 87 64 88
REMARK SMILES IDX 57 89 59 90 65 91 58 92 60 93 61 94 62 95 63 96
REMARK H PARENT 5 16 9 24 9 25 85 49 53 60
REMARK Flexibility Score: inf
ROOT
ATOM      1  C   UNL     1       0.310   4.267  -1.948  1.00  0.00     0.188 C 
ENDROOT
BRANCH   1   2
ATOM      2  C   UNL     1       1.706   3.967  -1.394  1.00  0.00     0.188 C 
BRANCH   2   3
ATOM      3  O   UNL     1       2.785   3.876  -2.321  1.00  0.00    -0.376 OA
BRANCH   3   4
ATOM      4  C   UNL     1       2.492   3.577  -3.676  1.00  0.00     0.202 C 
BRANCH   4   5
ATOM      5  C   UNL     1       2.251   2.099  -3.997  1.00  0.00     0.261 C 
BRANCH   5   6
ATOM      6  O   UNL     1       1.159   1.483  -3.281  1.00  0.00    -0.463 OA
BRANCH   6   7
ATOM      7  C   UNL     1       1.526   0.749  -2.195  1.00  0.00     0.317 C 
ATOM      8  O   UNL     1       2.680   0.697  -1.781  1.00  0.00    -0.251 OA
BRANCH   7   9
ATOM      9  C   UNL     1       0.404  -0.126  -1.609  1.00  0.00     0.111 C 
ATOM     10  C   UNL     1       0.653  -0.224  -0.089  1.00  0.00     0.029 C 
ATOM     11  C   UNL     1       0.679  -1.522  -2.219  1.00  0.00     0.029 C 
BRANCH   9  12
ATOM     12  C   UNL     1      -1.071   0.293  -1.978  1.00  0.00     0.280 C 
BRANCH  12  13
ATOM     13  N   UNL     1      -2.034   0.517  -0.863  1.00  0.00    -0.329 N 
ATOM     14  C   UNL     1      -1.873   1.883  -0.281  1.00  0.00     0.272 C 
ATOM     15  C   UNL     1      -3.511   0.403  -1.205  1.00  0.00     0.101 C 
ATOM     16  H   UNL     1      -1.795  -0.239  -0.222  1.00  0.00     0.348 HD
ATOM     17  C   UNL     1      -2.847   2.690  -1.089  1.00  0.00     0.114 C 
ATOM     18  C   UNL     1      -4.070   1.819  -1.008  1.00  0.00     0.119 C 
ATOM     19  C   UNL     1      -3.893  -0.189  -2.564  1.00  0.00     0.079 C 
ATOM     20  C   UNL     1      -4.121  -0.502  -0.107  1.00  0.00     0.079 C 
ATOM     21  C   UNL     1      -3.472   4.003  -0.708  1.00  0.00     0.270 C 
ATOM     22  C   UNL     1      -5.006   2.599  -1.905  1.00  0.00     0.271 C 
ATOM     23  N   UNL     1      -4.640   4.018  -1.630  1.00  0.00    -0.345 N 
ATOM     24  H   UNL     1      -4.392   4.490  -2.499  1.00  0.00     0.346 HD
ATOM     25  H   UNL     1      -5.424   4.518  -1.211  1.00  0.00     0.346 HD
ENDBRANCH  12  13
ENDBRANCH   9  12
ENDBRANCH   7   9
ENDBRANCH   6   7
ENDBRANCH   5   6
ENDBRANCH   4   5
ENDBRANCH   3   4
ENDBRANCH   2   3
ENDBRANCH   1   2
BRANCH   1  26
ATOM     26  O   UNL     1       0.304   5.495  -2.675  1.00  0.00    -0.376 OA
BRANCH  26  27
ATOM     27  C   UNL     1      -0.744   6.377  -2.286  1.00  0.00     0.202 C 
BRANCH  27  28
ATOM     28  C   UNL     1      -0.379   7.155  -1.020  1.00  0.00     0.261 C 
BRANCH  28  29
ATOM     29  O   UNL     1      -0.116   6.297   0.112  1.00  0.00    -0.460 OA
BRANCH  29  30
ATOM     30  C   UNL     1      -1.080   6.228   1.056  1.00  0.00     0.338 C 
ATOM     31  O   UNL     1      -2.190   6.722   1.007  1.00  0.00    -0.246 OA
BRANCH  30  32
ATOM     32  C   UNL     1      -0.574   5.479   2.225  1.00  0.00     0.060 A 
ATOM     33  C   UNL     1      -0.299   4.111   2.152  1.00  0.00     0.016 A 
ATOM     34  C   UNL     1      -0.454   6.147   3.441  1.00  0.00     0.016 A 
ATOM     35  C   UNL     1       0.032   3.393   3.308  1.00  0.00     0.010 A 
ATOM     36  C   UNL     1      -0.054   5.444   4.579  1.00  0.00     0.010 A 
ATOM     37  C   UNL     1       0.163   4.054   4.537  1.00  0.00    -0.014 A 
BRANCH  37  38
ATOM     38  C   UNL     1       0.510   3.346   5.803  1.00  0.00     0.031 A 
ATOM     39  C   UNL     1      -0.430   3.424   6.980  1.00  0.00     0.074 A 
ATOM     40  C   UNL     1       1.705   2.739   5.949  1.00  0.00     0.049 A 
ATOM     41  N   UNL     1      -0.206   3.173   8.243  1.00  0.00    -0.248 NA
ATOM     42  C   UNL     1      -1.804   3.867   6.691  1.00  0.00     0.031 C 
ATOM     43  C   UNL     1       2.704   2.565   4.896  1.00  0.00     0.029 A 
ATOM     44  N   UNL     1       2.303   2.204   7.067  1.00  0.00    -0.354 N 
ATOM     45  C   UNL     1      -1.381   3.501   8.912  1.00  0.00     0.074 A 
ATOM     46  C   UNL     1      -2.323   3.951   7.908  1.00  0.00     0.031 C 
ATOM     47  C   UNL     1       3.802   1.998   5.420  1.00  0.00     0.029 A 
ATOM     48  C   UNL     1       3.612   1.833   6.857  1.00  0.00     0.049 A 
ATOM     49  H   UNL     1       1.841   2.098   7.930  1.00  0.00     0.167 HD
ATOM     50  C   UNL     1      -1.651   3.435  10.238  1.00  0.00     0.034 A 
ATOM     51  C   UNL     1       4.572   1.458   7.727  1.00  0.00     0.034 A 
ATOM     52  C   UNL     1      -0.729   2.936  11.225  1.00  0.00     0.049 A 
ATOM     53  C   UNL     1       4.252   1.392   9.196  1.00  0.00     0.074 A 
ATOM     54  C   UNL     1      -0.919   2.792  12.589  1.00  0.00     0.029 A 
ATOM     55  N   UNL     1       0.555   2.490  10.954  1.00  0.00    -0.354 N 
ATOM     56  N   UNL     1       3.124   1.661   9.808  1.00  0.00    -0.248 NA
ATOM     57  C   UNL     1       5.332   0.954  10.091  1.00  0.00     0.031 C 
ATOM     58  C   UNL     1       0.255   2.270  13.143  1.00  0.00     0.029 A 
ATOM     59  C   UNL     1       1.169   2.070  12.122  1.00  0.00     0.049 A 
ATOM     60  H   UNL     1       0.971   2.475  10.061  1.00  0.00     0.167 HD
ATOM     61  C   UNL     1       3.349   1.397  11.155  1.00  0.00     0.074 A 
ATOM     62  C   UNL     1       4.715   0.925  11.265  1.00  0.00     0.031 C 
ATOM     63  C   UNL     1       2.509   1.549  12.208  1.00  0.00     0.034 A 
BRANCH  50  64
ATOM     64  C   UNL     1      -3.009   3.897  10.704  1.00  0.00     0.023 A 
ATOM     65  C   UNL     1      -4.143   3.098  10.456  1.00  0.00     0.012 A 
ATOM     66  C   UNL     1      -3.155   5.093  11.437  1.00  0.00     0.148 A 
ATOM     67  C   UNL     1      -5.404   3.497  10.899  1.00  0.00     0.002 A 
ATOM     68  C   UNL     1      -4.409   5.464  11.910  1.00  0.00     0.091 A 
ATOM     69  F   UNL     1      -2.069   5.851  11.647  1.00  0.00    -0.205 F 
ATOM     70  C   UNL     1      -5.535   4.673  11.634  1.00  0.00     0.022 A 
BRANCH  68  71
ATOM     71  S   UNL     1      -4.667   6.923  12.928  1.00  0.00     0.127 S 
ATOM     72  O   UNL     1      -5.326   7.826  11.986  1.00  0.00    -0.237 OA
ATOM     73  O   UNL     1      -5.535   6.411  13.989  1.00  0.00    -0.237 OA
ATOM     74  O   UNL     1      -3.345   7.337  13.375  1.00  0.00    -0.744 OA
ENDBRANCH  68  71
ENDBRANCH  50  64
BRANCH  51  75
ATOM     75  C   UNL     1       5.930   1.104   7.222  1.00  0.00     0.023 A 
ATOM     76  C   UNL     1       6.349  -0.240   7.263  1.00  0.00     0.012 A 
ATOM     77  C   UNL     1       6.787   2.074   6.665  1.00  0.00     0.148 A 
ATOM     78  C   UNL     1       7.603  -0.609   6.776  1.00  0.00     0.002 A 
ATOM     79  C   UNL     1       8.011   1.690   6.128  1.00  0.00     0.091 A 
ATOM     80  F   UNL     1       6.381   3.351   6.657  1.00  0.00    -0.205 F 
ATOM     81  C   UNL     1       8.427   0.352   6.196  1.00  0.00     0.022 A 
BRANCH  79  82
ATOM     82  S   UNL     1       9.072   2.837   5.242  1.00  0.00     0.127 S 
ATOM     83  O   UNL     1      10.151   3.050   6.203  1.00  0.00    -0.237 OA
ATOM     84  O   UNL     1       9.445   2.058   4.061  1.00  0.00    -0.237 OA
ATOM     85  O   UNL     1       8.239   3.997   4.955  1.00  0.00    -0.744 OA
ENDBRANCH  79  82
ENDBRANCH  51  75
BRANCH  63  86
ATOM     86  C   UNL     1       3.026   1.164  13.570  1.00  0.00     0.023 A 
ATOM     87  C   UNL     1       3.957   1.994  14.225  1.00  0.00     0.012 A 
ATOM     88  C   UNL     1       2.547   0.012  14.223  1.00  0.00     0.148 A 
ATOM     89  C   UNL     1       4.429   1.664  15.496  1.00  0.00     0.002 A 
ATOM     90  C   UNL     1       2.988  -0.287  15.507  1.00  0.00     0.091 A 
ATOM     91  F   UNL     1       1.678  -0.778  13.575  1.00  0.00    -0.205 F 
ATOM     92  C   UNL     1       3.937   0.531  16.140  1.00  0.00     0.022 A 
BRANCH  90  93
ATOM     93  S   UNL     1       2.338  -1.677  16.441  1.00  0.00     0.127 S 
ATOM     94  O   UNL     1       3.416  -2.655  16.311  1.00  0.00    -0.237 OA
ATOM     95  O   UNL     1       2.187  -1.112  17.783  1.00  0.00    -0.237 OA
ATOM     96  O   UNL     1       1.082  -2.035  15.796  1.00  0.00    -0.744 OA
ENDBRANCH  90  93
ENDBRANCH  63  86
ENDBRANCH  37  38
ENDBRANCH  30  32
ENDBRANCH  29  30
ENDBRANCH  28  29
ENDBRANCH  27  28
ENDBRANCH  26  27
ENDBRANCH   1  26
TORSDOF 22
