REMARK SMILES C[C@H](Nc1ccc2c(c1)Cc1ccccc1-2)[C@@H](C)C(=O)OCCOCCOCCOC(=O)c1ccc(-c2c3nc(c(-c4cccc(S(=O)(=O)[O-])c4F)c4ccc([nH]4)c(-c4cccc(S(=O)(=O)[O-])c4F)c4nc(c(-c5cccc(S(=O)(=O)[O-])c5F)c5ccc2[nH]5)C=C4)C=C3)cc1
REMARK SMILES IDX 25 1 24 2 23 3 22 4 21 5 19 6 20 7 17 8 18 9 2 10 1 11 3 12
REMARK SMILES IDX 4 14 5 15 9 16 6 17 8 18 7 19 10 20 16 21 11 22 15 23 12 24
REMARK SMILES IDX 14 25 13 26 26 27 27 28 28 29 29 30 30 31 31 32 32 33 33 34
REMARK SMILES IDX 34 35 95 36 35 37 94 38 36 39 37 40 38 41 88 42 39 43 93 44
REMARK SMILES IDX 87 45 89 46 40 47 92 48 86 49 85 50 41 52 73 53 53 54 72 55
REMARK SMILES IDX 54 56 57 57 71 58 90 59 55 60 56 61 70 63 91 64 58 65 42 66
REMARK SMILES IDX 43 67 51 68 44 69 46 70 52 71 45 72 47 73 48 74 49 75 50 76
REMARK SMILES IDX 74 77 75 78 83 79 76 80 78 81 84 82 77 83 79 84 80 85 81 86
REMARK SMILES IDX 82 87 59 88 60 89 68 90 61 91 63 92 69 93 62 94 64 95 65 96
REMARK SMILES IDX 66 97 67 98
REMARK H PARENT 3 13 89 51 57 62
REMARK Flexibility Score: inf
ROOT
ATOM      1  C   UNL     1      -1.561  -4.237  -2.710  1.00  0.00     0.188 C 
ENDROOT
BRANCH   1   2
ATOM      2  O   UNL     1      -2.597  -3.912  -3.630  1.00  0.00    -0.376 OA
BRANCH   2   3
ATOM      3  C   UNL     1      -2.330  -2.957  -4.642  1.00  0.00     0.202 C 
BRANCH   3   4
ATOM      4  C   UNL     1      -2.364  -1.480  -4.217  1.00  0.00     0.261 C 
BRANCH   4   5
ATOM      5  O   UNL     1      -1.396  -1.034  -3.227  1.00  0.00    -0.463 OA
BRANCH   5   6
ATOM      6  C   UNL     1      -1.860  -0.965  -1.948  1.00  0.00     0.310 C 
ATOM      7  O   UNL     1      -2.960  -1.388  -1.607  1.00  0.00    -0.252 OA
BRANCH   6   8
ATOM      8  C   UNL     1      -0.999  -0.148  -0.977  1.00  0.00     0.118 C 
ATOM      9  C   UNL     1      -1.392   1.316  -1.203  1.00  0.00     0.022 C 
BRANCH   8  10
ATOM     10  C   UNL     1       0.544  -0.369  -0.930  1.00  0.00     0.090 C 
ATOM     11  C   UNL     1       0.887  -1.850  -0.748  1.00  0.00     0.031 C 
BRANCH  10  12
ATOM     12  N   UNL     1       1.138   0.481   0.142  1.00  0.00    -0.382 N 
ATOM     13  H   UNL     1       0.892   1.434   0.137  1.00  0.00     0.160 HD
BRANCH  12  14
ATOM     14  C   UNL     1       2.003   0.064   1.147  1.00  0.00     0.035 A 
ATOM     15  C   UNL     1       3.248  -0.539   0.874  1.00  0.00     0.026 A 
ATOM     16  C   UNL     1       1.579   0.149   2.483  1.00  0.00     0.030 A 
ATOM     17  C   UNL     1       4.049  -1.089   1.891  1.00  0.00     0.011 A 
ATOM     18  C   UNL     1       2.376  -0.389   3.487  1.00  0.00    -0.034 A 
ATOM     19  C   UNL     1       3.599  -1.024   3.198  1.00  0.00    -0.014 A 
ATOM     20  C   UNL     1       2.100  -0.429   4.978  1.00  0.00     0.072 C 
ATOM     21  C   UNL     1       4.174  -1.514   4.437  1.00  0.00    -0.015 A 
ATOM     22  C   UNL     1       3.322  -1.151   5.504  1.00  0.00    -0.036 A 
ATOM     23  C   UNL     1       5.328  -2.239   4.684  1.00  0.00     0.009 A 
ATOM     24  C   UNL     1       3.625  -1.470   6.819  1.00  0.00     0.005 A 
ATOM     25  C   UNL     1       5.637  -2.573   6.009  1.00  0.00     0.001 A 
ATOM     26  C   UNL     1       4.798  -2.183   7.067  1.00  0.00     0.000 A 
ENDBRANCH  12  14
ENDBRANCH  10  12
ENDBRANCH   8  10
ENDBRANCH   6   8
ENDBRANCH   5   6
ENDBRANCH   4   5
ENDBRANCH   3   4
ENDBRANCH   2   3
ENDBRANCH   1   2
BRANCH   1  27
ATOM     27  C   UNL     1      -0.130  -3.845  -3.068  1.00  0.00     0.188 C 
BRANCH  27  28
ATOM     28  O   UNL     1       0.271  -4.370  -4.328  1.00  0.00    -0.376 OA
BRANCH  28  29
ATOM     29  C   UNL     1       1.643  -4.742  -4.357  1.00  0.00     0.202 C 
BRANCH  29  30
ATOM     30  C   UNL     1       1.748  -6.231  -4.018  1.00  0.00     0.261 C 
BRANCH  30  31
ATOM     31  O   UNL     1       1.203  -6.582  -2.729  1.00  0.00    -0.460 OA
BRANCH  31  32
ATOM     32  C   UNL     1       1.871  -6.120  -1.650  1.00  0.00     0.338 C 
ATOM     33  O   UNL     1       2.902  -5.452  -1.673  1.00  0.00    -0.246 OA
BRANCH  32  34
ATOM     34  C   UNL     1       1.081  -6.372  -0.425  1.00  0.00     0.060 A 
ATOM     35  C   UNL     1       0.963  -5.343   0.517  1.00  0.00     0.016 A 
ATOM     36  C   UNL     1       0.506  -7.620  -0.169  1.00  0.00     0.016 A 
ATOM     37  C   UNL     1       0.325  -5.569   1.737  1.00  0.00     0.010 A 
ATOM     38  C   UNL     1      -0.119  -7.852   1.062  1.00  0.00     0.010 A 
ATOM     39  C   UNL     1      -0.171  -6.842   2.041  1.00  0.00    -0.014 A 
BRANCH  39  40
ATOM     40  C   UNL     1      -0.545  -7.166   3.443  1.00  0.00     0.031 A 
ATOM     41  C   UNL     1       0.435  -7.941   4.287  1.00  0.00     0.074 A 
ATOM     42  C   UNL     1      -1.711  -6.758   3.976  1.00  0.00     0.049 A 
ATOM     43  N   UNL     1       0.321  -8.360   5.521  1.00  0.00    -0.248 NA
ATOM     44  C   UNL     1       1.715  -8.293   3.651  1.00  0.00     0.031 C 
ATOM     45  C   UNL     1      -2.737  -5.985   3.280  1.00  0.00     0.029 A 
ATOM     46  N   UNL     1      -2.233  -6.956   5.232  1.00  0.00    -0.354 N 
ATOM     47  C   UNL     1       1.494  -9.054   5.796  1.00  0.00     0.074 A 
ATOM     48  C   UNL     1       2.301  -9.011   4.596  1.00  0.00     0.031 C 
ATOM     49  C   UNL     1      -3.776  -5.791   4.111  1.00  0.00     0.029 A 
ATOM     50  C   UNL     1      -3.501  -6.449   5.388  1.00  0.00     0.049 A 
ATOM     51  H   UNL     1      -1.745  -7.418   5.952  1.00  0.00     0.167 HD
ATOM     52  C   UNL     1       1.877  -9.660   6.945  1.00  0.00     0.034 A 
ATOM     53  C   UNL     1      -4.350  -6.525   6.433  1.00  0.00     0.034 A 
ATOM     54  C   UNL     1       1.090  -9.680   8.148  1.00  0.00     0.049 A 
ATOM     55  C   UNL     1      -3.909  -7.222   7.696  1.00  0.00     0.074 A 
ATOM     56  C   UNL     1       1.407 -10.238   9.374  1.00  0.00     0.029 A 
ATOM     57  N   UNL     1      -0.173  -9.124   8.277  1.00  0.00    -0.354 N 
ATOM     58  N   UNL     1      -2.760  -7.793   7.970  1.00  0.00    -0.248 NA
ATOM     59  C   UNL     1      -4.871  -7.254   8.808  1.00  0.00     0.031 C 
ATOM     60  C   UNL     1       0.322 -10.046  10.236  1.00  0.00     0.029 A 
ATOM     61  C   UNL     1      -0.654  -9.333   9.559  1.00  0.00     0.049 A 
ATOM     62  H   UNL     1      -0.657  -8.650   7.562  1.00  0.00     0.167 HD
ATOM     63  C   UNL     1      -2.848  -8.214   9.294  1.00  0.00     0.074 A 
ATOM     64  C   UNL     1      -4.154  -7.814   9.773  1.00  0.00     0.031 C 
ATOM     65  C   UNL     1      -1.935  -8.883  10.042  1.00  0.00     0.034 A 
BRANCH  52  66
ATOM     66  C   UNL     1       3.218 -10.348   6.957  1.00  0.00     0.023 A 
ATOM     67  C   UNL     1       4.402  -9.582   6.946  1.00  0.00     0.012 A 
ATOM     68  C   UNL     1       3.305 -11.752   7.023  1.00  0.00     0.148 A 
ATOM     69  C   UNL     1       5.650 -10.204   6.961  1.00  0.00     0.002 A 
ATOM     70  C   UNL     1       4.552 -12.363   7.086  1.00  0.00     0.091 A 
ATOM     71  F   UNL     1       2.169 -12.464   7.011  1.00  0.00    -0.205 F 
ATOM     72  C   UNL     1       5.724 -11.591   7.041  1.00  0.00     0.022 A 
BRANCH  70  73
ATOM     73  S   UNL     1       4.753 -14.138   7.272  1.00  0.00     0.127 S 
ATOM     74  O   UNL     1       5.296 -14.511   5.966  1.00  0.00    -0.237 OA
ATOM     75  O   UNL     1       5.709 -14.224   8.376  1.00  0.00    -0.237 OA
ATOM     76  O   UNL     1       3.429 -14.665   7.571  1.00  0.00    -0.744 OA
ENDBRANCH  70  73
ENDBRANCH  52  66
BRANCH  53  77
ATOM     77  C   UNL     1      -5.703  -5.902   6.347  1.00  0.00     0.023 A 
ATOM     78  C   UNL     1      -6.010  -4.785   7.149  1.00  0.00     0.012 A 
ATOM     79  C   UNL     1      -6.687  -6.414   5.479  1.00  0.00     0.148 A 
ATOM     80  C   UNL     1      -7.282  -4.211   7.113  1.00  0.00     0.002 A 
ATOM     81  C   UNL     1      -7.933  -5.803   5.407  1.00  0.00     0.091 A 
ATOM     82  F   UNL     1      -6.383  -7.490   4.740  1.00  0.00    -0.205 F 
ATOM     83  C   UNL     1      -8.239  -4.713   6.236  1.00  0.00     0.022 A 
BRANCH  81  84
ATOM     84  S   UNL     1      -9.187  -6.305   4.223  1.00  0.00     0.127 S 
ATOM     85  O   UNL     1     -10.206  -6.884   5.095  1.00  0.00    -0.237 OA
ATOM     86  O   UNL     1      -9.552  -5.027   3.612  1.00  0.00    -0.237 OA
ATOM     87  O   UNL     1      -8.526  -7.237   3.320  1.00  0.00    -0.744 OA
ENDBRANCH  81  84
ENDBRANCH  53  77
BRANCH  65  88
ATOM     88  C   UNL     1      -2.287  -9.183  11.478  1.00  0.00     0.023 A 
ATOM     89  C   UNL     1      -3.273 -10.143  11.780  1.00  0.00     0.012 A 
ATOM     90  C   UNL     1      -1.596  -8.550  12.531  1.00  0.00     0.148 A 
ATOM     91  C   UNL     1      -3.598 -10.435  13.105  1.00  0.00     0.002 A 
ATOM     92  C   UNL     1      -1.887  -8.886  13.849  1.00  0.00     0.091 A 
ATOM     93  F   UNL     1      -0.672  -7.627  12.228  1.00  0.00    -0.205 F 
ATOM     94  C   UNL     1      -2.898  -9.816  14.138  1.00  0.00     0.022 A 
BRANCH  92  95
ATOM     95  S   UNL     1      -0.967  -8.212  15.237  1.00  0.00     0.127 S 
ATOM     96  O   UNL     1      -1.925  -7.261  15.797  1.00  0.00    -0.237 OA
ATOM     97  O   UNL     1      -0.733  -9.398  16.061  1.00  0.00    -0.237 OA
ATOM     98  O   UNL     1       0.240  -7.625  14.670  1.00  0.00    -0.744 OA
ENDBRANCH  92  95
ENDBRANCH  65  88
ENDBRANCH  39  40
ENDBRANCH  32  34
ENDBRANCH  31  32
ENDBRANCH  30  31
ENDBRANCH  29  30
ENDBRANCH  28  29
ENDBRANCH  27  28
ENDBRANCH   1  27
TORSDOF 23
