REMARK SMILES CC1=C2C(=O)N(C[C@H]3CCCO3)C(=O)N=C2S[C@@H]1C(=O)OCCOCCOCCOC(=O)c1ccc(-c2c3nc(c(-c4cccc(S(=O)(=O)[O-])c4F)c4ccc([nH]4)c(-c4cccc(S(=O)(=O)[O-])c4F)c4nc(c(-c5cccc(S(=O)(=O)[O-])c5F)c5ccc2[nH]5)C=C4)C=C3)cc1
REMARK SMILES IDX 26 1 25 2 24 3 23 4 22 5 21 6 19 7 20 8 18 9 1 10 2 11 3 12
REMARK SMILES IDX 4 13 16 14 17 15 5 16 6 17 15 18 13 19 14 20 7 21 8 22 9 23
REMARK SMILES IDX 12 24 10 25 11 26 27 27 28 28 29 29 30 30 31 31 32 32 33 33
REMARK SMILES IDX 34 34 95 35 35 36 94 37 36 38 37 39 38 40 88 41 39 42 93 43
REMARK SMILES IDX 87 44 89 45 40 46 92 47 86 48 85 49 41 51 73 52 53 53 72 54
REMARK SMILES IDX 54 55 57 56 71 57 90 58 55 59 56 60 70 62 91 63 58 64 42 65
REMARK SMILES IDX 43 66 51 67 44 68 46 69 52 70 45 71 47 72 48 73 49 74 50 75
REMARK SMILES IDX 74 76 75 77 83 78 76 79 78 80 84 81 77 82 79 83 80 84 81 85
REMARK SMILES IDX 82 86 59 87 60 88 68 89 61 90 63 91 69 92 62 93 64 94 65 95
REMARK SMILES IDX 66 96 67 97
REMARK H PARENT 89 50 57 61
REMARK Flexibility Score: inf
ROOT
ATOM      1  C   UNL     1      -6.933  -4.504   6.801  1.00  0.00     0.188 C 
ENDROOT
BRANCH   1   2
ATOM      2  C   UNL     1      -6.096  -4.239   8.059  1.00  0.00     0.188 C 
BRANCH   2   3
ATOM      3  O   UNL     1      -6.000  -2.923   8.589  1.00  0.00    -0.376 OA
BRANCH   3   4
ATOM      4  C   UNL     1      -5.965  -1.793   7.730  1.00  0.00     0.202 C 
BRANCH   4   5
ATOM      5  C   UNL     1      -4.801  -1.679   6.747  1.00  0.00     0.261 C 
BRANCH   5   6
ATOM      6  O   UNL     1      -4.831  -2.663   5.699  1.00  0.00    -0.462 OA
BRANCH   6   7
ATOM      7  C   UNL     1      -3.792  -3.533   5.674  1.00  0.00     0.323 C 
ATOM      8  O   UNL     1      -2.867  -3.518   6.482  1.00  0.00    -0.251 OA
BRANCH   7   9
ATOM      9  C   UNL     1      -3.820  -4.545   4.530  1.00  0.00     0.189 C 
ATOM     10  C   UNL     1      -1.317  -4.083   4.023  1.00  0.00     0.042 C 
ATOM     11  C   UNL     1      -2.723  -4.258   3.537  1.00  0.00    -0.033 C 
ATOM     12  C   UNL     1      -3.101  -4.268   2.254  1.00  0.00     0.073 C 
ATOM     13  C   UNL     1      -2.329  -4.064   1.044  1.00  0.00     0.264 C 
ATOM     14  C   UNL     1      -4.459  -4.707   2.041  1.00  0.00     0.116 C 
ATOM     15  S   UNL     1      -5.355  -4.595   3.511  1.00  0.00    -0.086 SA
ATOM     16  O   UNL     1      -1.546  -3.134   0.929  1.00  0.00    -0.268 OA
ATOM     17  N   UNL     1      -2.667  -4.994   0.095  1.00  0.00    -0.256 N 
ATOM     18  N   UNL     1      -4.914  -5.163   0.933  1.00  0.00    -0.186 NA
ATOM     19  C   UNL     1      -4.002  -5.388  -0.081  1.00  0.00     0.351 C 
ATOM     20  O   UNL     1      -4.359  -5.953  -1.113  1.00  0.00    -0.246 OA
BRANCH  17  21
ATOM     21  C   UNL     1      -1.625  -5.665  -0.681  1.00  0.00     0.163 C 
BRANCH  21  22
ATOM     22  C   UNL     1      -0.332  -4.906  -1.031  1.00  0.00     0.138 C 
ATOM     23  C   UNL     1       0.645  -4.647   0.115  1.00  0.00     0.036 C 
ATOM     24  O   UNL     1       0.402  -5.734  -1.970  1.00  0.00    -0.376 OA
ATOM     25  C   UNL     1       1.592  -5.810   0.071  1.00  0.00     0.031 C 
ATOM     26  C   UNL     1       1.672  -6.089  -1.405  1.00  0.00     0.160 C 
ENDBRANCH  21  22
ENDBRANCH  17  21
ENDBRANCH   7   9
ENDBRANCH   6   7
ENDBRANCH   5   6
ENDBRANCH   4   5
ENDBRANCH   3   4
ENDBRANCH   2   3
ENDBRANCH   1   2
BRANCH   1  27
ATOM     27  O   UNL     1      -7.835  -3.470   6.452  1.00  0.00    -0.376 OA
BRANCH  27  28
ATOM     28  C   UNL     1      -9.204  -3.846   6.378  1.00  0.00     0.202 C 
BRANCH  28  29
ATOM     29  C   UNL     1      -9.822  -4.080   7.762  1.00  0.00     0.261 C 
BRANCH  29  30
ATOM     30  O   UNL     1      -9.275  -5.215   8.457  1.00  0.00    -0.460 OA
BRANCH  30  31
ATOM     31  C   UNL     1      -9.479  -6.424   7.880  1.00  0.00     0.338 C 
ATOM     32  O   UNL     1     -10.152  -6.659   6.893  1.00  0.00    -0.246 OA
BRANCH  31  33
ATOM     33  C   UNL     1      -8.551  -7.388   8.508  1.00  0.00     0.060 A 
ATOM     34  C   UNL     1      -7.718  -8.155   7.681  1.00  0.00     0.016 A 
ATOM     35  C   UNL     1      -8.486  -7.520   9.897  1.00  0.00     0.016 A 
ATOM     36  C   UNL     1      -6.842  -9.085   8.244  1.00  0.00     0.010 A 
ATOM     37  C   UNL     1      -7.622  -8.463  10.457  1.00  0.00     0.010 A 
ATOM     38  C   UNL     1      -6.819  -9.271   9.633  1.00  0.00    -0.014 A 
BRANCH  38  39
ATOM     39  C   UNL     1      -6.105 -10.432  10.216  1.00  0.00     0.031 A 
ATOM     40  C   UNL     1      -6.885 -11.695  10.466  1.00  0.00     0.074 A 
ATOM     41  C   UNL     1      -4.802 -10.366  10.542  1.00  0.00     0.049 A 
ATOM     42  N   UNL     1      -6.488 -12.822  10.994  1.00  0.00    -0.248 NA
ATOM     43  C   UNL     1      -8.304 -11.681  10.069  1.00  0.00     0.031 C 
ATOM     44  C   UNL     1      -3.938  -9.202  10.358  1.00  0.00     0.029 A 
ATOM     45  N   UNL     1      -3.986 -11.303  11.127  1.00  0.00    -0.354 N 
ATOM     46  C   UNL     1      -7.606 -13.646  11.009  1.00  0.00     0.074 A 
ATOM     47  C   UNL     1      -8.703 -12.886  10.450  1.00  0.00     0.031 C 
ATOM     48  C   UNL     1      -2.718  -9.484  10.851  1.00  0.00     0.029 A 
ATOM     49  C   UNL     1      -2.720 -10.840  11.398  1.00  0.00     0.049 A 
ATOM     50  H   UNL     1      -4.280 -12.220  11.334  1.00  0.00     0.167 HD
ATOM     51  C   UNL     1      -7.711 -14.927  11.430  1.00  0.00     0.034 A 
ATOM     52  C   UNL     1      -1.690 -11.439  12.030  1.00  0.00     0.034 A 
ATOM     53  C   UNL     1      -6.625 -15.691  11.979  1.00  0.00     0.049 A 
ATOM     54  C   UNL     1      -1.844 -12.858  12.519  1.00  0.00     0.074 A 
ATOM     55  C   UNL     1      -6.629 -17.008  12.403  1.00  0.00     0.029 A 
ATOM     56  N   UNL     1      -5.346 -15.206  12.190  1.00  0.00    -0.354 N 
ATOM     57  N   UNL     1      -2.868 -13.669  12.400  1.00  0.00    -0.248 NA
ATOM     58  C   UNL     1      -0.685 -13.457  13.202  1.00  0.00     0.031 C 
ATOM     59  C   UNL     1      -5.353 -17.315  12.885  1.00  0.00     0.029 A 
ATOM     60  C   UNL     1      -4.551 -16.194  12.745  1.00  0.00     0.049 A 
ATOM     61  H   UNL     1      -5.045 -14.293  11.977  1.00  0.00     0.167 HD
ATOM     62  C   UNL     1      -2.465 -14.879  12.957  1.00  0.00     0.074 A 
ATOM     63  C   UNL     1      -1.095 -14.703  13.393  1.00  0.00     0.031 C 
ATOM     64  C   UNL     1      -3.169 -16.027  13.113  1.00  0.00     0.034 A 
BRANCH  51  65
ATOM     65  C   UNL     1      -9.046 -15.601  11.274  1.00  0.00     0.023 A 
ATOM     66  C   UNL     1      -9.455 -16.027   9.994  1.00  0.00     0.012 A 
ATOM     67  C   UNL     1      -9.863 -15.865  12.388  1.00  0.00     0.148 A 
ATOM     68  C   UNL     1     -10.670 -16.688   9.822  1.00  0.00     0.002 A 
ATOM     69  C   UNL     1     -11.056 -16.556  12.215  1.00  0.00     0.091 A 
ATOM     70  F   UNL     1      -9.466 -15.425  13.591  1.00  0.00    -0.205 F 
ATOM     71  C   UNL     1     -11.464 -16.962  10.933  1.00  0.00     0.022 A 
BRANCH  69  72
ATOM     72  S   UNL     1     -12.117 -17.016  13.589  1.00  0.00     0.127 S 
ATOM     73  O   UNL     1     -13.261 -16.128  13.387  1.00  0.00    -0.237 OA
ATOM     74  O   UNL     1     -12.385 -18.427  13.312  1.00  0.00    -0.237 OA
ATOM     75  O   UNL     1     -11.340 -16.770  14.796  1.00  0.00    -0.744 OA
ENDBRANCH  69  72
ENDBRANCH  51  65
BRANCH  52  76
ATOM     76  C   UNL     1      -0.395 -10.721  12.208  1.00  0.00     0.023 A 
ATOM     77  C   UNL     1       0.743 -11.162  11.505  1.00  0.00     0.012 A 
ATOM     78  C   UNL     1      -0.279  -9.620  13.078  1.00  0.00     0.148 A 
ATOM     79  C   UNL     1       1.980 -10.545  11.692  1.00  0.00     0.002 A 
ATOM     80  C   UNL     1       0.946  -8.976  13.220  1.00  0.00     0.091 A 
ATOM     81  F   UNL     1      -1.365  -9.230  13.760  1.00  0.00    -0.205 F 
ATOM     82  C   UNL     1       2.080  -9.446  12.541  1.00  0.00     0.022 A 
BRANCH  80  83
ATOM     83  S   UNL     1       1.130  -7.482  14.201  1.00  0.00     0.127 S 
ATOM     84  O   UNL     1       1.776  -7.993  15.406  1.00  0.00    -0.237 OA
ATOM     85  O   UNL     1       1.985  -6.658  13.345  1.00  0.00    -0.237 OA
ATOM     86  O   UNL     1      -0.221  -6.964  14.370  1.00  0.00    -0.744 OA
ENDBRANCH  80  83
ENDBRANCH  52  76
BRANCH  64  87
ATOM     87  C   UNL     1      -2.471 -17.202  13.747  1.00  0.00     0.023 A 
ATOM     88  C   UNL     1      -2.219 -17.198  15.133  1.00  0.00     0.012 A 
ATOM     89  C   UNL     1      -2.138 -18.341  12.987  1.00  0.00     0.148 A 
ATOM     90  C   UNL     1      -1.618 -18.297  15.748  1.00  0.00     0.002 A 
ATOM     91  C   UNL     1      -1.580 -19.450  13.614  1.00  0.00     0.091 A 
ATOM     92  F   UNL     1      -2.368 -18.320  11.666  1.00  0.00    -0.205 F 
ATOM     93  C   UNL     1      -1.310 -19.426  14.992  1.00  0.00     0.022 A 
BRANCH  91  94
ATOM     94  S   UNL     1      -1.240 -20.977  12.731  1.00  0.00     0.127 S 
ATOM     95  O   UNL     1       0.208 -20.898  12.543  1.00  0.00    -0.237 OA
ATOM     96  O   UNL     1      -1.675 -21.998  13.686  1.00  0.00    -0.237 OA
ATOM     97  O   UNL     1      -2.038 -20.917  11.513  1.00  0.00    -0.744 OA
ENDBRANCH  91  94
ENDBRANCH  64  87
ENDBRANCH  38  39
ENDBRANCH  31  33
ENDBRANCH  30  31
ENDBRANCH  29  30
ENDBRANCH  28  29
ENDBRANCH  27  28
ENDBRANCH   1  27
TORSDOF 22
