REMARK SMILES COc1ccc(C)cc1Nc1nc(OCC(=O)OCCOCCOCCOC(=O)c2ccc(-c3c4nc(c(-c5cccc(S(=O)(=O)[O-])c5F)c5ccc([nH]5)c(-c5cccc(S(=O)(=O)[O-])c5F)c5nc(c(-c6cccc(S(=O)(=O)[O-])c6F)c6ccc3[nH]6)C=C5)C=C4)cc2)cc(C(C)(C)C)n1
REMARK SMILES IDX 22 1 21 2 20 3 19 4 18 5 16 6 17 7 15 8 14 9 13 10 11 11
REMARK SMILES IDX 12 12 99 13 94 14 93 15 10 16 9 18 3 19 4 20 5 21 8 22 6 23
REMARK SMILES IDX 7 24 2 25 1 26 95 27 96 28 97 29 98 30 23 31 24 32 25 33
REMARK SMILES IDX 26 34 27 35 28 36 29 37 30 38 31 39 92 40 32 41 91 42 33 43
REMARK SMILES IDX 34 44 35 45 85 46 36 47 90 48 84 49 86 50 37 51 89 52 83 53
REMARK SMILES IDX 82 54 38 56 70 57 50 58 69 59 51 60 54 61 68 62 87 63 52 64
REMARK SMILES IDX 53 65 67 67 88 68 55 69 39 70 40 71 48 72 41 73 43 74 49 75
REMARK SMILES IDX 42 76 44 77 45 78 46 79 47 80 71 81 72 82 80 83 73 84 75 85
REMARK SMILES IDX 81 86 74 87 76 88 77 89 78 90 79 91 56 92 57 93 65 94 58 95
REMARK SMILES IDX 60 96 66 97 59 98 61 99 62 100 63 101 64 102
REMARK H PARENT 10 17 86 55 54 66
REMARK Flexibility Score: inf
ROOT
ATOM      1  C   UNL     1      -3.483  -1.429 -10.369  1.00  0.00     0.188 C 
ENDROOT
BRANCH   1   2
ATOM      2  O   UNL     1      -4.269  -0.236 -10.275  1.00  0.00    -0.376 OA
BRANCH   2   3
ATOM      3  C   UNL     1      -3.632   0.976 -10.678  1.00  0.00     0.202 C 
BRANCH   3   4
ATOM      4  C   UNL     1      -3.976   2.220  -9.815  1.00  0.00     0.261 C 
BRANCH   4   5
ATOM      5  O   UNL     1      -3.645   2.149  -8.376  1.00  0.00    -0.461 OA
BRANCH   5   6
ATOM      6  C   UNL     1      -4.764   1.974  -7.624  1.00  0.00     0.344 C 
ATOM      7  O   UNL     1      -5.844   1.926  -8.201  1.00  0.00    -0.248 OA
BRANCH   6   8
ATOM      8  C   UNL     1      -4.675   1.742  -6.030  1.00  0.00     0.353 C 
BRANCH   8   9
ATOM      9  O   UNL     1      -3.900   0.848  -5.285  1.00  0.00    -0.466 OA
BRANCH   9  10
ATOM     10  C   UNL     1      -4.130  -0.491  -4.891  1.00  0.00     0.218 A 
ATOM     11  C   UNL     1      -2.432  -1.762  -2.848  1.00  0.00     0.230 A 
ATOM     12  N   UNL     1      -3.235  -0.409  -3.411  1.00  0.00    -0.177 NA
ATOM     13  N   UNL     1      -2.476  -3.327  -3.566  1.00  0.00    -0.217 NA
ATOM     14  C   UNL     1      -3.286  -3.646  -5.061  1.00  0.00     0.055 A 
ATOM     15  C   UNL     1      -4.173  -2.282  -5.850  1.00  0.00     0.093 A 
BRANCH  11  16
ATOM     16  N   UNL     1      -1.334  -1.425  -2.004  1.00  0.00    -0.321 N 
ATOM     17  H   UNL     1      -1.509  -1.472  -1.037  1.00  0.00     0.170 HD
BRANCH  16  18
ATOM     18  C   UNL     1      -0.013  -1.028  -2.376  1.00  0.00     0.084 A 
ATOM     19  C   UNL     1       1.040  -1.153  -1.459  1.00  0.00     0.142 A 
ATOM     20  C   UNL     1       2.390  -1.047  -1.829  1.00  0.00     0.049 A 
ATOM     21  C   UNL     1       2.725  -0.747  -3.135  1.00  0.00     0.007 A 
ATOM     22  C   UNL     1       0.358  -0.481  -3.612  1.00  0.00     0.033 A 
ATOM     23  C   UNL     1       1.714  -0.436  -4.032  1.00  0.00    -0.049 A 
ATOM     24  C   UNL     1       2.103  -0.250  -5.465  1.00  0.00     0.044 C 
BRANCH  19  25
ATOM     25  O   UNL     1       0.745  -1.317  -0.125  1.00  0.00    -0.495 OA
ATOM     26  C   UNL     1       0.937  -0.038   0.496  1.00  0.00     0.278 C 
ENDBRANCH  19  25
ENDBRANCH  16  18
ENDBRANCH  11  16
BRANCH  14  27
ATOM     27  C   UNL     1      -2.951  -4.948  -5.798  1.00  0.00     0.004 C 
ATOM     28  C   UNL     1      -1.926  -4.795  -6.947  1.00  0.00     0.017 C 
ATOM     29  C   UNL     1      -2.434  -6.042  -4.851  1.00  0.00     0.017 C 
ATOM     30  C   UNL     1      -4.238  -5.444  -6.409  1.00  0.00     0.017 C 
ENDBRANCH  14  27
ENDBRANCH   9  10
ENDBRANCH   8   9
ENDBRANCH   6   8
ENDBRANCH   5   6
ENDBRANCH   4   5
ENDBRANCH   3   4
ENDBRANCH   2   3
ENDBRANCH   1   2
BRANCH   1  31
ATOM     31  C   UNL     1      -2.409  -1.520  -9.291  1.00  0.00     0.188 C 
BRANCH  31  32
ATOM     32  O   UNL     1      -2.007  -0.198  -8.969  1.00  0.00    -0.376 OA
BRANCH  32  33
ATOM     33  C   UNL     1      -0.796   0.102  -8.326  1.00  0.00     0.202 C 
BRANCH  33  34
ATOM     34  C   UNL     1      -0.054  -1.073  -7.737  1.00  0.00     0.261 C 
BRANCH  34  35
ATOM     35  O   UNL     1      -0.412  -1.757  -6.464  1.00  0.00    -0.460 OA
BRANCH  35  36
ATOM     36  C   UNL     1      -1.061  -2.199  -5.354  1.00  0.00     0.338 C 
ATOM     37  O   UNL     1      -0.420  -3.038  -4.729  1.00  0.00    -0.246 OA
BRANCH  36  38
ATOM     38  C   UNL     1      -2.593  -1.646  -5.030  1.00  0.00     0.060 A 
ATOM     39  C   UNL     1      -4.275  -2.145  -3.994  1.00  0.00     0.016 A 
ATOM     40  C   UNL     1      -2.860  -0.803  -6.551  1.00  0.00     0.016 A 
ATOM     41  C   UNL     1      -5.904  -1.728  -4.739  1.00  0.00     0.010 A 
ATOM     42  C   UNL     1      -4.504  -0.571  -7.152  1.00  0.00     0.010 A 
ATOM     43  C   UNL     1      -5.996  -0.932  -6.310  1.00  0.00    -0.014 A 
BRANCH  43  44
ATOM     44  C   UNL     1      -7.226  -0.390  -7.176  1.00  0.00     0.031 A 
ATOM     45  C   UNL     1      -8.058   1.005  -6.912  1.00  0.00     0.074 A 
ATOM     46  C   UNL     1      -7.255  -0.801  -8.493  1.00  0.00     0.049 A 
ATOM     47  N   UNL     1      -9.251   1.348  -7.356  1.00  0.00    -0.248 NA
ATOM     48  C   UNL     1      -7.533   2.183  -6.171  1.00  0.00     0.031 C 
ATOM     49  C   UNL     1      -7.520   0.131  -9.598  1.00  0.00     0.029 A 
ATOM     50  N   UNL     1      -6.836  -1.938  -9.208  1.00  0.00    -0.354 N 
ATOM     51  C   UNL     1      -9.388   2.755  -7.136  1.00  0.00     0.074 A 
ATOM     52  C   UNL     1      -8.522   3.066  -6.047  1.00  0.00     0.031 C 
ATOM     53  C   UNL     1      -7.296  -0.447 -10.784  1.00  0.00     0.029 A 
ATOM     54  C   UNL     1      -7.186  -1.864 -10.573  1.00  0.00     0.049 A 
ATOM     55  H   UNL     1      -6.356  -2.697  -8.803  1.00  0.00     0.167 HD
ATOM     56  C   UNL     1      -9.705   3.686  -8.106  1.00  0.00     0.034 A 
ATOM     57  C   UNL     1      -7.887  -2.762 -11.344  1.00  0.00     0.034 A 
ATOM     58  C   UNL     1      -9.822   3.028  -9.404  1.00  0.00     0.049 A 
ATOM     59  C   UNL     1      -9.270  -2.237 -11.713  1.00  0.00     0.074 A 
ATOM     60  C   UNL     1      -9.140   3.114 -10.607  1.00  0.00     0.029 A 
ATOM     61  N   UNL     1     -10.641   1.928  -9.503  1.00  0.00    -0.354 N 
ATOM     62  N   UNL     1      -9.576  -0.970 -11.747  1.00  0.00    -0.248 NA
ATOM     63  C   UNL     1     -10.445  -3.071 -11.992  1.00  0.00     0.031 C 
ATOM     64  C   UNL     1      -9.621   2.075 -11.452  1.00  0.00     0.029 A 
ATOM     65  C   UNL     1     -10.593   1.372 -10.762  1.00  0.00     0.049 A 
ATOM     66  H   UNL     1     -11.194   1.581  -8.766  1.00  0.00     0.167 HD
ATOM     67  C   UNL     1     -10.931  -0.849 -11.591  1.00  0.00     0.074 A 
ATOM     68  C   UNL     1     -11.433  -2.160 -11.950  1.00  0.00     0.031 C 
ATOM     69  C   UNL     1     -11.498   0.270 -11.044  1.00  0.00     0.034 A 
BRANCH  56  70
ATOM     70  C   UNL     1      -9.636   5.264  -8.027  1.00  0.00     0.023 A 
ATOM     71  C   UNL     1      -9.889   5.966  -9.238  1.00  0.00     0.012 A 
ATOM     72  C   UNL     1      -9.391   6.120  -6.910  1.00  0.00     0.148 A 
ATOM     73  C   UNL     1      -9.826   7.365  -9.366  1.00  0.00     0.002 A 
ATOM     74  C   UNL     1      -9.267   7.522  -7.050  1.00  0.00     0.091 A 
ATOM     75  F   UNL     1      -9.363   5.624  -5.668  1.00  0.00    -0.205 F 
ATOM     76  C   UNL     1      -9.489   8.145  -8.277  1.00  0.00     0.022 A 
BRANCH  74  77
ATOM     77  S   UNL     1      -8.749   8.608  -5.695  1.00  0.00     0.127 S 
ATOM     78  O   UNL     1      -7.835   9.541  -6.363  1.00  0.00    -0.237 OA
ATOM     79  O   UNL     1     -10.008   9.210  -5.263  1.00  0.00    -0.237 OA
ATOM     80  O   UNL     1      -8.088   7.740  -4.727  1.00  0.00    -0.744 OA
ENDBRANCH  74  77
ENDBRANCH  56  70
BRANCH  57  81
ATOM     81  C   UNL     1      -7.560  -4.182 -11.094  1.00  0.00     0.023 A 
ATOM     82  C   UNL     1      -6.315  -4.612 -11.607  1.00  0.00     0.012 A 
ATOM     83  C   UNL     1      -8.071  -4.725  -9.918  1.00  0.00     0.148 A 
ATOM     84  C   UNL     1      -5.462  -5.351 -10.796  1.00  0.00     0.002 A 
ATOM     85  C   UNL     1      -7.182  -5.348  -9.071  1.00  0.00     0.091 A 
ATOM     86  F   UNL     1      -9.322  -4.415  -9.558  1.00  0.00    -0.205 F 
ATOM     87  C   UNL     1      -5.877  -5.659  -9.502  1.00  0.00     0.022 A 
BRANCH  85  88
ATOM     88  S   UNL     1      -7.560  -5.394  -7.317  1.00  0.00     0.127 S 
ATOM     89  O   UNL     1      -6.943  -6.656  -6.916  1.00  0.00    -0.237 OA
ATOM     90  O   UNL     1      -6.874  -4.186  -6.862  1.00  0.00    -0.237 OA
ATOM     91  O   UNL     1      -9.011  -5.377  -7.221  1.00  0.00    -0.744 OA
ENDBRANCH  85  88
ENDBRANCH  57  81
BRANCH  69  92
ATOM     92  C   UNL     1     -12.957   0.423 -10.644  1.00  0.00     0.023 A 
ATOM     93  C   UNL     1     -13.791  -0.681 -10.408  1.00  0.00     0.012 A 
ATOM     94  C   UNL     1     -13.517   1.708 -10.390  1.00  0.00     0.148 A 
ATOM     95  C   UNL     1     -15.144  -0.525 -10.095  1.00  0.00     0.002 A 
ATOM     96  C   UNL     1     -14.820   1.849  -9.930  1.00  0.00     0.091 A 
ATOM     97  F   UNL     1     -12.800   2.817 -10.624  1.00  0.00    -0.205 F 
ATOM     98  C   UNL     1     -15.658   0.739  -9.847  1.00  0.00     0.022 A 
BRANCH  96  99
ATOM     99  S   UNL     1     -15.435   3.419  -9.307  1.00  0.00     0.127 S 
ATOM    100  O   UNL     1     -16.172   3.930 -10.461  1.00  0.00    -0.237 OA
ATOM    101  O   UNL     1     -16.276   2.998  -8.185  1.00  0.00    -0.237 OA
ATOM    102  O   UNL     1     -14.251   4.172  -8.917  1.00  0.00    -0.744 OA
ENDBRANCH  96  99
ENDBRANCH  69  92
ENDBRANCH  43  44
ENDBRANCH  36  38
ENDBRANCH  35  36
ENDBRANCH  34  35
ENDBRANCH  33  34
ENDBRANCH  32  33
ENDBRANCH  31  32
ENDBRANCH   1  31
TORSDOF 26
