REMARK SMILES O=C(CCCc1nc(-c2ccc(Cl)c(Cl)c2)c(-c2ccccc2)o1)OCCOCCOCCOC(=O)c1ccc(-c2c3nc(c(-c4cccc(S(=O)(=O)[O-])c4F)c4ccc([nH]4)c(-c4cccc(S(=O)(=O)[O-])c4F)c4nc(c(-c5cccc(S(=O)(=O)[O-])c5F)c5ccc2[nH]5)C=C4)C=C3)cc1
REMARK SMILES IDX 29 1 28 2 27 3 26 4 25 5 2 6 1 7 3 8 4 9 5 10 6 11 7 12
REMARK SMILES IDX 24 13 8 14 17 15 9 16 10 17 16 18 11 19 14 20 12 21 15 22
REMARK SMILES IDX 13 23 18 24 19 25 23 26 20 27 22 28 21 29 30 30 31 31 32 32
REMARK SMILES IDX 33 33 34 34 35 35 36 36 37 37 38 38 99 39 39 40 98 41 40 42
REMARK SMILES IDX 41 43 42 44 92 45 43 46 97 47 91 48 93 49 44 50 96 51 90 52
REMARK SMILES IDX 89 53 45 55 77 56 57 57 76 58 58 59 61 60 75 61 94 62 59 63
REMARK SMILES IDX 60 64 74 66 95 67 62 68 46 69 47 70 55 71 48 72 50 73 56 74
REMARK SMILES IDX 49 75 51 76 52 77 53 78 54 79 78 80 79 81 87 82 80 83 82 84
REMARK SMILES IDX 88 85 81 86 83 87 84 88 85 89 86 90 63 91 64 92 72 93 65 94
REMARK SMILES IDX 67 95 73 96 66 97 68 98 69 99 70 100 71 101
REMARK H PARENT 93 54 61 65
REMARK Flexibility Score: inf
ROOT
ATOM      1  C   UNL     1       1.491   0.708   1.479  1.00  0.00     0.188 C 
ENDROOT
BRANCH   1   2
ATOM      2  O   UNL     1       2.755   0.069   1.604  1.00  0.00    -0.376 OA
BRANCH   2   3
ATOM      3  C   UNL     1       3.852   0.692   0.948  1.00  0.00     0.202 C 
BRANCH   3   4
ATOM      4  C   UNL     1       3.649   1.076  -0.512  1.00  0.00     0.261 C 
BRANCH   4   5
ATOM      5  O   UNL     1       3.087   0.112  -1.430  1.00  0.00    -0.463 OA
BRANCH   5   6
ATOM      6  C   UNL     1       2.785  -1.183  -1.220  1.00  0.00     0.305 C 
ATOM      7  O   UNL     1       1.785  -1.657  -1.757  1.00  0.00    -0.252 OA
BRANCH   6   8
ATOM      8  C   UNL     1       3.766  -2.064  -0.485  1.00  0.00     0.123 C 
BRANCH   8   9
ATOM      9  C   UNL     1       5.039  -2.393  -1.262  1.00  0.00     0.021 C 
BRANCH   9  10
ATOM     10  C   UNL     1       6.057  -1.264  -1.478  1.00  0.00     0.098 C 
BRANCH  10  11
ATOM     11  C   UNL     1       6.766  -0.813  -0.246  1.00  0.00     0.195 A 
ATOM     12  N   UNL     1       7.258  -1.540   0.737  1.00  0.00    -0.213 NA
ATOM     13  O   UNL     1       6.944   0.546  -0.089  1.00  0.00    -0.440 OA
ATOM     14  C   UNL     1       7.749  -0.611   1.620  1.00  0.00     0.117 A 
ATOM     15  C   UNL     1       7.591   0.667   1.119  1.00  0.00     0.162 A 
BRANCH  14  16
ATOM     16  C   UNL     1       8.353  -0.945   2.889  1.00  0.00     0.006 A 
ATOM     17  C   UNL     1       9.555  -1.657   2.911  1.00  0.00     0.012 A 
ATOM     18  C   UNL     1       7.784  -0.501   4.091  1.00  0.00     0.032 A 
ATOM     19  C   UNL     1      10.208  -1.891   4.123  1.00  0.00     0.023 A 
ATOM     20  C   UNL     1       8.435  -0.741   5.306  1.00  0.00     0.060 A 
ATOM     21  C   UNL     1       9.655  -1.427   5.321  1.00  0.00     0.059 A 
ATOM     22  Cl  UNL     1       7.694  -0.134   6.745  1.00  0.00    -0.083 Cl
ATOM     23  Cl  UNL     1      10.542  -1.713   6.776  1.00  0.00    -0.083 Cl
ENDBRANCH  14  16
BRANCH  15  24
ATOM     24  C   UNL     1       7.923   2.005   1.598  1.00  0.00     0.020 A 
ATOM     25  C   UNL     1       6.997   3.052   1.533  1.00  0.00     0.012 A 
ATOM     26  C   UNL     1       9.144   2.238   2.251  1.00  0.00     0.012 A 
ATOM     27  C   UNL     1       7.246   4.268   2.182  1.00  0.00     0.001 A 
ATOM     28  C   UNL     1       9.402   3.456   2.886  1.00  0.00     0.001 A 
ATOM     29  C   UNL     1       8.442   4.463   2.870  1.00  0.00     0.000 A 
ENDBRANCH  15  24
ENDBRANCH  10  11
ENDBRANCH   9  10
ENDBRANCH   8   9
ENDBRANCH   6   8
ENDBRANCH   5   6
ENDBRANCH   4   5
ENDBRANCH   3   4
ENDBRANCH   2   3
ENDBRANCH   1   2
BRANCH   1  30
ATOM     30  C   UNL     1       1.355   2.021   2.253  1.00  0.00     0.188 C 
BRANCH  30  31
ATOM     31  O   UNL     1       2.446   2.917   2.022  1.00  0.00    -0.376 OA
BRANCH  31  32
ATOM     32  C   UNL     1       2.952   3.506   3.228  1.00  0.00     0.202 C 
BRANCH  32  33
ATOM     33  C   UNL     1       4.033   2.670   3.945  1.00  0.00     0.261 C 
BRANCH  33  34
ATOM     34  O   UNL     1       3.656   1.325   4.275  1.00  0.00    -0.460 OA
BRANCH  34  35
ATOM     35  C   UNL     1       2.758   1.209   5.272  1.00  0.00     0.338 C 
ATOM     36  O   UNL     1       2.226   2.128   5.884  1.00  0.00    -0.246 OA
BRANCH  35  37
ATOM     37  C   UNL     1       2.394  -0.204   5.446  1.00  0.00     0.060 A 
ATOM     38  C   UNL     1       1.089  -0.597   5.133  1.00  0.00     0.016 A 
ATOM     39  C   UNL     1       3.287  -1.096   6.045  1.00  0.00     0.016 A 
ATOM     40  C   UNL     1       0.647  -1.869   5.483  1.00  0.00     0.010 A 
ATOM     41  C   UNL     1       2.839  -2.371   6.405  1.00  0.00     0.010 A 
ATOM     42  C   UNL     1       1.500  -2.736   6.178  1.00  0.00    -0.014 A 
BRANCH  42  43
ATOM     43  C   UNL     1       0.902  -3.896   6.881  1.00  0.00     0.031 A 
ATOM     44  C   UNL     1       0.497  -3.719   8.322  1.00  0.00     0.074 A 
ATOM     45  C   UNL     1       0.674  -5.058   6.246  1.00  0.00     0.049 A 
ATOM     46  N   UNL     1      -0.133  -4.544   9.114  1.00  0.00    -0.248 NA
ATOM     47  C   UNL     1       0.845  -2.432   8.950  1.00  0.00     0.031 C 
ATOM     48  C   UNL     1       1.019  -5.343   4.855  1.00  0.00     0.029 A 
ATOM     49  N   UNL     1       0.098  -6.218   6.697  1.00  0.00    -0.354 N 
ATOM     50  C   UNL     1      -0.239  -3.889  10.336  1.00  0.00     0.074 A 
ATOM     51  C   UNL     1       0.404  -2.603  10.187  1.00  0.00     0.031 C 
ATOM     52  C   UNL     1       0.657  -6.607   4.568  1.00  0.00     0.029 A 
ATOM     53  C   UNL     1       0.063  -7.219   5.756  1.00  0.00     0.049 A 
ATOM     54  H   UNL     1      -0.257  -6.324   7.610  1.00  0.00     0.167 HD
ATOM     55  C   UNL     1      -0.833  -4.310  11.477  1.00  0.00     0.034 A 
ATOM     56  C   UNL     1      -0.402  -8.481   5.847  1.00  0.00     0.034 A 
ATOM     57  C   UNL     1      -1.480  -5.585  11.618  1.00  0.00     0.049 A 
ATOM     58  C   UNL     1      -1.054  -8.929   7.131  1.00  0.00     0.074 A 
ATOM     59  C   UNL     1      -2.147  -6.097  12.715  1.00  0.00     0.029 A 
ATOM     60  N   UNL     1      -1.525  -6.557  10.630  1.00  0.00    -0.354 N 
ATOM     61  N   UNL     1      -1.266  -8.249   8.233  1.00  0.00    -0.248 NA
ATOM     62  C   UNL     1      -1.573 -10.304   7.168  1.00  0.00     0.031 C 
ATOM     63  C   UNL     1      -2.572  -7.392  12.400  1.00  0.00     0.029 A 
ATOM     64  C   UNL     1      -2.200  -7.672  11.095  1.00  0.00     0.049 A 
ATOM     65  H   UNL     1      -1.135  -6.468   9.731  1.00  0.00     0.167 HD
ATOM     66  C   UNL     1      -1.985  -9.095   9.073  1.00  0.00     0.074 A 
ATOM     67  C   UNL     1      -2.181 -10.333   8.347  1.00  0.00     0.031 C 
ATOM     68  C   UNL     1      -2.438  -8.871  10.332  1.00  0.00     0.034 A 
BRANCH  55  69
ATOM     69  C   UNL     1      -0.817  -3.373  12.656  1.00  0.00     0.023 A 
ATOM     70  C   UNL     1      -1.626  -2.217  12.645  1.00  0.00     0.012 A 
ATOM     71  C   UNL     1      -0.023  -3.649  13.786  1.00  0.00     0.148 A 
ATOM     72  C   UNL     1      -1.615  -1.333  13.723  1.00  0.00     0.002 A 
ATOM     73  C   UNL     1      -0.052  -2.786  14.875  1.00  0.00     0.091 A 
ATOM     74  F   UNL     1       0.759  -4.737  13.767  1.00  0.00    -0.205 F 
ATOM     75  C   UNL     1      -0.836  -1.621  14.840  1.00  0.00     0.022 A 
BRANCH  73  76
ATOM     76  S   UNL     1       0.858  -3.111  16.388  1.00  0.00     0.127 S 
ATOM     77  O   UNL     1       1.929  -2.119  16.309  1.00  0.00    -0.237 OA
ATOM     78  O   UNL     1      -0.147  -2.842  17.417  1.00  0.00    -0.237 OA
ATOM     79  O   UNL     1       1.284  -4.502  16.309  1.00  0.00    -0.744 OA
ENDBRANCH  73  76
ENDBRANCH  55  69
BRANCH  56  80
ATOM     80  C   UNL     1      -0.335  -9.390   4.667  1.00  0.00     0.023 A 
ATOM     81  C   UNL     1      -1.523  -9.764   4.010  1.00  0.00     0.012 A 
ATOM     82  C   UNL     1       0.897  -9.874   4.185  1.00  0.00     0.148 A 
ATOM     83  C   UNL     1      -1.490 -10.629   2.915  1.00  0.00     0.002 A 
ATOM     84  C   UNL     1       0.928 -10.694   3.063  1.00  0.00     0.091 A 
ATOM     85  F   UNL     1       2.015  -9.521   4.834  1.00  0.00    -0.205 F 
ATOM     86  C   UNL     1      -0.265 -11.085   2.436  1.00  0.00     0.022 A 
BRANCH  84  87
ATOM     87  S   UNL     1       2.464 -11.238   2.306  1.00  0.00     0.127 S 
ATOM     88  O   UNL     1       2.458 -12.666   2.609  1.00  0.00    -0.237 OA
ATOM     89  O   UNL     1       2.241 -10.906   0.898  1.00  0.00    -0.237 OA
ATOM     90  O   UNL     1       3.516 -10.460   2.947  1.00  0.00    -0.744 OA
ENDBRANCH  84  87
ENDBRANCH  56  80
BRANCH  68  91
ATOM     91  C   UNL     1      -3.241  -9.962  10.993  1.00  0.00     0.023 A 
ATOM     92  C   UNL     1      -2.606 -11.140  11.432  1.00  0.00     0.012 A 
ATOM     93  C   UNL     1      -4.616  -9.783  11.245  1.00  0.00     0.148 A 
ATOM     94  C   UNL     1      -3.335 -12.139  12.078  1.00  0.00     0.002 A 
ATOM     95  C   UNL     1      -5.324 -10.759  11.934  1.00  0.00     0.091 A 
ATOM     96  F   UNL     1      -5.208  -8.664  10.802  1.00  0.00    -0.205 F 
ATOM     97  C   UNL     1      -4.690 -11.944  12.340  1.00  0.00     0.022 A 
BRANCH  95  98
ATOM     98  S   UNL     1      -7.045 -10.537  12.402  1.00  0.00     0.127 S 
ATOM     99  O   UNL     1      -7.733 -11.359  11.409  1.00  0.00    -0.237 OA
ATOM    100  O   UNL     1      -7.072 -11.075  13.763  1.00  0.00    -0.237 OA
ATOM    101  O   UNL     1      -7.297  -9.104  12.320  1.00  0.00    -0.744 OA
ENDBRANCH  95  98
ENDBRANCH  68  91
ENDBRANCH  42  43
ENDBRANCH  35  37
ENDBRANCH  34  35
ENDBRANCH  33  34
ENDBRANCH  32  33
ENDBRANCH  31  32
ENDBRANCH  30  31
ENDBRANCH   1  30
TORSDOF 25
