REMARK SMILES C[N@H+]1CC[C@H]2CN(C(=O)c3csc(-c4ccncc4)n3)C[C@@]2(C(=O)OCCOCCOCCOC(=O)c2ccc(-c3c4nc(c(-c5cccc(S(=O)(=O)[O-])c5F)c5ccc([nH]5)c(-c5cccc(S(=O)(=O)[O-])c5F)c5nc(c(-c6cccc(S(=O)(=O)[O-])c6F)c6ccc3[nH]6)C=C5)C=C4)cc2)C1
REMARK SMILES IDX 29 1 28 2 27 3 26 4 25 5 23 6 24 7 22 8 1 9 2 10 3 11 100 12
REMARK SMILES IDX 4 14 5 15 21 16 6 17 7 18 8 19 9 20 10 21 11 22 20 23 12 24
REMARK SMILES IDX 13 25 14 26 15 27 19 28 16 29 18 30 17 31 30 32 31 33 32 34
REMARK SMILES IDX 33 35 34 36 35 37 36 38 37 39 38 40 99 41 39 42 98 43 40 44
REMARK SMILES IDX 41 45 42 46 92 47 43 48 97 49 91 50 93 51 44 52 96 53 90 54
REMARK SMILES IDX 89 55 45 57 77 58 57 59 76 60 58 61 61 62 75 63 94 64 59 65
REMARK SMILES IDX 60 66 74 68 95 69 62 70 46 71 47 72 55 73 48 74 50 75 56 76
REMARK SMILES IDX 49 77 51 78 52 79 53 80 54 81 78 82 79 83 87 84 80 85 82 86
REMARK SMILES IDX 88 87 81 88 83 89 84 90 85 91 86 92 63 93 64 94 72 95 65 96
REMARK SMILES IDX 67 97 73 98 66 99 68 100 69 101 70 102 71 103
REMARK H PARENT 2 13 93 56 61 67
REMARK Flexibility Score: inf
ROOT
ATOM      1  C   UNL     1       1.158   0.935   2.908  1.00  0.00     0.188 C 
ENDROOT
BRANCH   1   2
ATOM      2  O   UNL     1       2.527   1.235   3.206  1.00  0.00    -0.376 OA
BRANCH   2   3
ATOM      3  C   UNL     1       3.471   0.741   2.247  1.00  0.00     0.202 C 
BRANCH   3   4
ATOM      4  C   UNL     1       4.132   1.888   1.446  1.00  0.00     0.261 C 
BRANCH   4   5
ATOM      5  O   UNL     1       3.124   2.727   0.845  1.00  0.00    -0.463 OA
BRANCH   5   6
ATOM      6  C   UNL     1       2.987   2.931  -0.524  1.00  0.00     0.320 C 
ATOM      7  O   UNL     1       3.838   2.691  -1.358  1.00  0.00    -0.251 OA
BRANCH   6   8
ATOM      8  C   UNL     1       1.520   3.403  -0.725  1.00  0.00     0.139 C 
ATOM      9  C   UNL     1       0.623  -0.220  -1.113  1.00  0.00     0.332 C 
ATOM     10  N   UNL     1       0.678   1.198  -1.433  1.00  0.00    -0.336 N 
ATOM     11  C   UNL     1      -0.363   1.590  -2.369  1.00  0.00     0.262 C 
ATOM     12  C   UNL     1       0.772   2.113  -0.282  1.00  0.00     0.283 C 
ATOM     13  H   UNL     1       1.579   1.309  -1.900  1.00  0.00     0.347 HD
ATOM     14  C   UNL     1      -0.510   3.099  -2.354  1.00  0.00     0.068 C 
ATOM     15  C   UNL     1       0.821   3.843  -2.067  1.00  0.00     0.039 C 
ATOM     16  C   UNL     1       1.543   4.731   0.094  1.00  0.00     0.145 C 
ATOM     17  C   UNL     1       0.392   5.298  -1.879  1.00  0.00     0.125 C 
ATOM     18  N   UNL     1       1.271   5.788  -0.879  1.00  0.00    -0.336 N 
BRANCH  18  19
ATOM     19  C   UNL     1       1.646   7.116  -0.921  1.00  0.00     0.273 C 
ATOM     20  O   UNL     1       0.926   7.964  -1.452  1.00  0.00    -0.267 OA
BRANCH  19  21
ATOM     21  C   UNL     1       2.975   7.489  -0.434  1.00  0.00     0.139 A 
ATOM     22  C   UNL     1       3.268   8.770   0.002  1.00  0.00     0.101 A 
ATOM     23  N   UNL     1       4.091   6.660  -0.568  1.00  0.00    -0.231 NA
ATOM     24  S   UNL     1       4.947   8.945   0.268  1.00  0.00    -0.122 S 
ATOM     25  C   UNL     1       5.186   7.328  -0.272  1.00  0.00     0.124 A 
BRANCH  25  26
ATOM     26  C   UNL     1       6.549   6.820  -0.405  1.00  0.00     0.013 A 
ATOM     27  C   UNL     1       7.094   6.580  -1.669  1.00  0.00     0.031 A 
ATOM     28  C   UNL     1       7.325   6.566   0.726  1.00  0.00     0.031 A 
ATOM     29  C   UNL     1       8.397   6.117  -1.744  1.00  0.00     0.111 A 
ATOM     30  C   UNL     1       8.615   6.098   0.546  1.00  0.00     0.111 A 
ATOM     31  N   UNL     1       9.174   5.881  -0.663  1.00  0.00    -0.265 NA
ENDBRANCH  25  26
ENDBRANCH  19  21
ENDBRANCH  18  19
ENDBRANCH   6   8
ENDBRANCH   5   6
ENDBRANCH   4   5
ENDBRANCH   3   4
ENDBRANCH   2   3
ENDBRANCH   1   2
BRANCH   1  32
ATOM     32  C   UNL     1       0.329   2.223   3.044  1.00  0.00     0.188 C 
BRANCH  32  33
ATOM     33  O   UNL     1       0.118   2.733   4.361  1.00  0.00    -0.376 OA
BRANCH  33  34
ATOM     34  C   UNL     1       0.098   1.777   5.412  1.00  0.00     0.202 C 
BRANCH  34  35
ATOM     35  C   UNL     1      -1.162   0.900   5.508  1.00  0.00     0.261 C 
BRANCH  35  36
ATOM     36  O   UNL     1      -1.604   0.319   4.263  1.00  0.00    -0.460 OA
BRANCH  36  37
ATOM     37  C   UNL     1      -2.665   0.943   3.686  1.00  0.00     0.338 C 
ATOM     38  O   UNL     1      -3.227   1.947   4.089  1.00  0.00    -0.246 OA
BRANCH  37  39
ATOM     39  C   UNL     1      -3.018   0.309   2.393  1.00  0.00     0.060 A 
ATOM     40  C   UNL     1      -3.114   1.125   1.256  1.00  0.00     0.016 A 
ATOM     41  C   UNL     1      -3.391  -1.034   2.320  1.00  0.00     0.016 A 
ATOM     42  C   UNL     1      -3.618   0.611   0.055  1.00  0.00     0.010 A 
ATOM     43  C   UNL     1      -3.911  -1.542   1.120  1.00  0.00     0.010 A 
ATOM     44  C   UNL     1      -4.061  -0.716  -0.011  1.00  0.00    -0.014 A 
BRANCH  44  45
ATOM     45  C   UNL     1      -4.842  -1.206  -1.182  1.00  0.00     0.031 A 
ATOM     46  C   UNL     1      -6.346  -1.206  -1.103  1.00  0.00     0.074 A 
ATOM     47  C   UNL     1      -4.243  -1.690  -2.286  1.00  0.00     0.049 A 
ATOM     48  N   UNL     1      -7.221  -1.707  -1.935  1.00  0.00    -0.248 NA
ATOM     49  C   UNL     1      -6.939  -0.556   0.077  1.00  0.00     0.031 C 
ATOM     50  C   UNL     1      -2.804  -1.724  -2.519  1.00  0.00     0.029 A 
ATOM     51  N   UNL     1      -4.779  -2.282  -3.407  1.00  0.00    -0.354 N 
ATOM     52  C   UNL     1      -8.466  -1.472  -1.364  1.00  0.00     0.074 A 
ATOM     53  C   UNL     1      -8.232  -0.776  -0.117  1.00  0.00     0.031 C 
ATOM     54  C   UNL     1      -2.564  -2.340  -3.691  1.00  0.00     0.029 A 
ATOM     55  C   UNL     1      -3.832  -2.784  -4.270  1.00  0.00     0.049 A 
ATOM     56  H   UNL     1      -5.747  -2.341  -3.575  1.00  0.00     0.167 HD
ATOM     57  C   UNL     1      -9.695  -1.802  -1.830  1.00  0.00     0.034 A 
ATOM     58  C   UNL     1      -3.967  -3.549  -5.374  1.00  0.00     0.034 A 
ATOM     59  C   UNL     1      -9.940  -2.491  -3.068  1.00  0.00     0.049 A 
ATOM     60  C   UNL     1      -5.343  -3.960  -5.841  1.00  0.00     0.074 A 
ATOM     61  C   UNL     1     -11.156  -2.842  -3.629  1.00  0.00     0.029 A 
ATOM     62  N   UNL     1      -8.957  -2.953  -3.928  1.00  0.00    -0.354 N 
ATOM     63  N   UNL     1      -6.513  -3.652  -5.339  1.00  0.00    -0.248 NA
ATOM     64  C   UNL     1      -5.417  -4.809  -7.043  1.00  0.00     0.031 C 
ATOM     65  C   UNL     1     -10.908  -3.548  -4.810  1.00  0.00     0.029 A 
ATOM     66  C   UNL     1      -9.537  -3.597  -5.007  1.00  0.00     0.049 A 
ATOM     67  H   UNL     1      -7.989  -2.839  -3.792  1.00  0.00     0.167 HD
ATOM     68  C   UNL     1      -7.458  -4.226  -6.186  1.00  0.00     0.074 A 
ATOM     69  C   UNL     1      -6.726  -4.896  -7.238  1.00  0.00     0.031 C 
ATOM     70  C   UNL     1      -8.810  -4.205  -6.092  1.00  0.00     0.034 A 
BRANCH  57  71
ATOM     71  C   UNL     1     -10.883  -1.421  -0.988  1.00  0.00     0.023 A 
ATOM     72  C   UNL     1     -11.277  -0.071  -0.901  1.00  0.00     0.012 A 
ATOM     73  C   UNL     1     -11.638  -2.407  -0.322  1.00  0.00     0.148 A 
ATOM     74  C   UNL     1     -12.382   0.297  -0.135  1.00  0.00     0.002 A 
ATOM     75  C   UNL     1     -12.764  -2.038   0.402  1.00  0.00     0.091 A 
ATOM     76  F   UNL     1     -11.235  -3.683  -0.402  1.00  0.00    -0.205 F 
ATOM     77  C   UNL     1     -13.130  -0.686   0.508  1.00  0.00     0.022 A 
BRANCH  75  78
ATOM     78  S   UNL     1     -13.836  -3.238   1.199  1.00  0.00     0.127 S 
ATOM     79  O   UNL     1     -13.543  -3.003   2.612  1.00  0.00    -0.237 OA
ATOM     80  O   UNL     1     -15.164  -2.798   0.771  1.00  0.00    -0.237 OA
ATOM     81  O   UNL     1     -13.434  -4.540   0.686  1.00  0.00    -0.744 OA
ENDBRANCH  75  78
ENDBRANCH  57  71
BRANCH  58  82
ATOM     82  C   UNL     1      -2.760  -3.988  -6.135  1.00  0.00     0.023 A 
ATOM     83  C   UNL     1      -2.539  -3.492  -7.435  1.00  0.00     0.012 A 
ATOM     84  C   UNL     1      -1.841  -4.903  -5.585  1.00  0.00     0.148 A 
ATOM     85  C   UNL     1      -1.445  -3.925  -8.185  1.00  0.00     0.002 A 
ATOM     86  C   UNL     1      -0.724  -5.287  -6.316  1.00  0.00     0.091 A 
ATOM     87  F   UNL     1      -2.079  -5.378  -4.354  1.00  0.00    -0.205 F 
ATOM     88  C   UNL     1      -0.533  -4.815  -7.624  1.00  0.00     0.022 A 
BRANCH  86  89
ATOM     89  S   UNL     1       0.565  -6.335  -5.632  1.00  0.00     0.127 S 
ATOM     90  O   UNL     1       0.425  -7.546  -6.436  1.00  0.00    -0.237 OA
ATOM     91  O   UNL     1       1.767  -5.547  -5.904  1.00  0.00    -0.237 OA
ATOM     92  O   UNL     1       0.247  -6.478  -4.217  1.00  0.00    -0.744 OA
ENDBRANCH  86  89
ENDBRANCH  58  82
BRANCH  70  93
ATOM     93  C   UNL     1      -9.619  -4.860  -7.185  1.00  0.00     0.023 A 
ATOM     94  C   UNL     1      -9.690  -6.264  -7.271  1.00  0.00     0.012 A 
ATOM     95  C   UNL     1     -10.402  -4.075  -8.057  1.00  0.00     0.148 A 
ATOM     96  C   UNL     1     -10.512  -6.875  -8.220  1.00  0.00     0.002 A 
ATOM     97  C   UNL     1     -11.255  -4.690  -8.965  1.00  0.00     0.091 A 
ATOM     98  F   UNL     1     -10.308  -2.740  -7.970  1.00  0.00    -0.205 F 
ATOM     99  C   UNL     1     -11.304  -6.090  -9.056  1.00  0.00     0.022 A 
BRANCH  97 100
ATOM    100  S   UNL     1     -12.387  -3.764 -10.010  1.00  0.00     0.127 S 
ATOM    101  O   UNL     1     -11.822  -3.995 -11.339  1.00  0.00    -0.237 OA
ATOM    102  O   UNL     1     -13.660  -4.441  -9.763  1.00  0.00    -0.237 OA
ATOM    103  O   UNL     1     -12.332  -2.385  -9.543  1.00  0.00    -0.744 OA
ENDBRANCH  97 100
ENDBRANCH  70  93
ENDBRANCH  44  45
ENDBRANCH  37  39
ENDBRANCH  36  37
ENDBRANCH  35  36
ENDBRANCH  34  35
ENDBRANCH  33  34
ENDBRANCH  32  33
ENDBRANCH   1  32
TORSDOF 23
