REMARK SMILES O=C(OCCOCCOCCOC(=O)c1nnn(-c2cccc(C(F)(F)F)c2)c1[C@H]1COc2ccccc2O1)c1ccc(-c2c3nc(c(-c4cccc(S(=O)(=O)[O-])c4F)c4ccc([nH]4)c(-c4cccc(S(=O)(=O)[O-])c4F)c4nc(c(-c5cccc(S(=O)(=O)[O-])c5F)c5ccc2[nH]5)C=C4)C=C3)cc1
REMARK SMILES IDX 7 1 6 2 5 3 4 4 3 5 2 6 1 7 40 8 41 9 102 10 42 11 101 12
REMARK SMILES IDX 43 13 44 14 45 15 95 16 46 17 100 18 94 19 96 20 47 21 99 22
REMARK SMILES IDX 93 23 92 24 48 26 80 27 60 28 79 29 61 30 64 31 78 32 97 33
REMARK SMILES IDX 62 34 63 35 77 37 98 38 65 39 49 40 50 41 58 42 51 43 53 44
REMARK SMILES IDX 59 45 52 46 54 47 55 48 56 49 57 50 81 51 82 52 90 53 83 54
REMARK SMILES IDX 85 55 91 56 84 57 86 58 87 59 88 60 89 61 66 62 67 63 75 64
REMARK SMILES IDX 68 65 70 66 76 67 69 68 71 69 72 70 73 71 74 72 8 73 9 74
REMARK SMILES IDX 10 75 11 76 12 77 13 78 14 79 15 80 16 81 29 82 17 83 18 84
REMARK SMILES IDX 30 85 31 86 39 87 32 88 38 89 33 90 37 91 34 92 36 93 35 94
REMARK SMILES IDX 19 95 20 96 28 97 21 98 23 99 22 100 24 101 25 102 26 103
REMARK SMILES IDX 27 104
REMARK H PARENT 96 25 64 36
REMARK Flexibility Score: inf
ROOT
ATOM      1  C   UNL     1       8.028   0.975  -3.400  1.00  0.00     0.188 C 
ENDROOT
BRANCH   1   2
ATOM      2  O   UNL     1       7.963   2.378  -3.180  1.00  0.00    -0.376 OA
BRANCH   2   3
ATOM      3  C   UNL     1       8.251   2.795  -1.854  1.00  0.00     0.202 C 
BRANCH   3   4
ATOM      4  C   UNL     1       9.743   2.812  -1.506  1.00  0.00     0.261 C 
BRANCH   4   5
ATOM      5  O   UNL     1      10.511   1.689  -1.974  1.00  0.00    -0.460 OA
BRANCH   5   6
ATOM      6  C   UNL     1      10.738   0.460  -1.475  1.00  0.00     0.338 C 
ATOM      7  O   UNL     1      11.662  -0.203  -1.945  1.00  0.00    -0.246 OA
BRANCH   6   8
ATOM      8  C   UNL     1       9.857  -0.195  -0.474  1.00  0.00     0.060 A 
ATOM      9  C   UNL     1       9.073   0.475   0.464  1.00  0.00     0.016 A 
ATOM     10  C   UNL     1       9.895  -1.605  -0.451  1.00  0.00     0.016 A 
ATOM     11  C   UNL     1       8.410  -0.233   1.455  1.00  0.00     0.010 A 
ATOM     12  C   UNL     1       9.248  -2.317   0.548  1.00  0.00     0.010 A 
ATOM     13  C   UNL     1       8.559  -1.616   1.531  1.00  0.00    -0.014 A 
BRANCH  13  14
ATOM     14  C   UNL     1       8.012  -2.275   2.706  1.00  0.00     0.031 A 
ATOM     15  C   UNL     1       6.534  -2.352   2.786  1.00  0.00     0.074 A 
ATOM     16  C   UNL     1       8.819  -2.823   3.636  1.00  0.00     0.049 A 
ATOM     17  N   UNL     1       5.756  -1.843   3.687  1.00  0.00    -0.248 NA
ATOM     18  C   UNL     1       5.826  -2.992   1.669  1.00  0.00     0.031 C 
ATOM     19  C   UNL     1      10.266  -3.038   3.527  1.00  0.00     0.029 A 
ATOM     20  N   UNL     1       8.497  -3.439   4.811  1.00  0.00    -0.354 N 
ATOM     21  C   UNL     1       4.481  -2.317   3.382  1.00  0.00     0.074 A 
ATOM     22  C   UNL     1       4.556  -2.857   2.050  1.00  0.00     0.031 C 
ATOM     23  C   UNL     1      10.643  -3.952   4.444  1.00  0.00     0.029 A 
ATOM     24  C   UNL     1       9.500  -4.282   5.275  1.00  0.00     0.049 A 
ATOM     25  H   UNL     1       7.643  -3.300   5.280  1.00  0.00     0.167 HD
ATOM     26  C   UNL     1       3.534  -2.478   4.347  1.00  0.00     0.034 A 
ATOM     27  C   UNL     1       9.376  -5.254   6.209  1.00  0.00     0.034 A 
ATOM     28  C   UNL     1       3.819  -1.689   5.519  1.00  0.00     0.049 A 
ATOM     29  C   UNL     1       8.162  -4.970   7.003  1.00  0.00     0.074 A 
ATOM     30  C   UNL     1       4.039  -0.352   5.778  1.00  0.00     0.029 A 
ATOM     31  N   UNL     1       4.219  -2.361   6.647  1.00  0.00    -0.354 N 
ATOM     32  N   UNL     1       8.050  -3.972   7.834  1.00  0.00    -0.248 NA
ATOM     33  C   UNL     1       6.913  -5.604   6.615  1.00  0.00     0.031 C 
ATOM     34  C   UNL     1       4.970  -0.328   6.858  1.00  0.00     0.029 A 
ATOM     35  C   UNL     1       5.239  -1.651   7.214  1.00  0.00     0.049 A 
ATOM     36  H   UNL     1       3.838  -3.203   6.987  1.00  0.00     0.167 HD
ATOM     37  C   UNL     1       6.725  -3.574   7.721  1.00  0.00     0.074 A 
ATOM     38  C   UNL     1       6.050  -4.697   7.079  1.00  0.00     0.031 C 
ATOM     39  C   UNL     1       6.366  -2.265   7.883  1.00  0.00     0.034 A 
BRANCH  26  40
ATOM     40  C   UNL     1       2.564  -3.644   4.401  1.00  0.00     0.023 A 
ATOM     41  C   UNL     1       1.580  -3.623   5.417  1.00  0.00     0.012 A 
ATOM     42  C   UNL     1       2.752  -4.873   3.726  1.00  0.00     0.148 A 
ATOM     43  C   UNL     1       0.888  -4.778   5.798  1.00  0.00     0.002 A 
ATOM     44  C   UNL     1       2.000  -5.997   4.051  1.00  0.00     0.091 A 
ATOM     45  F   UNL     1       3.752  -5.020   2.854  1.00  0.00    -0.205 F 
ATOM     46  C   UNL     1       1.096  -5.967   5.112  1.00  0.00     0.022 A 
BRANCH  44  47
ATOM     47  S   UNL     1       2.189  -7.536   3.142  1.00  0.00     0.127 S 
ATOM     48  O   UNL     1       3.017  -8.314   4.057  1.00  0.00    -0.237 OA
ATOM     49  O   UNL     1       0.801  -7.986   3.022  1.00  0.00    -0.237 OA
ATOM     50  O   UNL     1       2.800  -7.158   1.874  1.00  0.00    -0.744 OA
ENDBRANCH  44  47
ENDBRANCH  26  40
BRANCH  27  51
ATOM     51  C   UNL     1      10.117  -6.530   6.330  1.00  0.00     0.023 A 
ATOM     52  C   UNL     1      10.147  -7.200   7.568  1.00  0.00     0.012 A 
ATOM     53  C   UNL     1      10.587  -7.219   5.188  1.00  0.00     0.148 A 
ATOM     54  C   UNL     1      10.607  -8.519   7.662  1.00  0.00     0.002 A 
ATOM     55  C   UNL     1      11.064  -8.521   5.290  1.00  0.00     0.091 A 
ATOM     56  F   UNL     1      10.479  -6.635   3.987  1.00  0.00    -0.205 F 
ATOM     57  C   UNL     1      11.063  -9.180   6.525  1.00  0.00     0.022 A 
BRANCH  55  58
ATOM     58  S   UNL     1      11.674  -9.424   3.860  1.00  0.00     0.127 S 
ATOM     59  O   UNL     1      12.877 -10.067   4.394  1.00  0.00    -0.237 OA
ATOM     60  O   UNL     1      10.568 -10.335   3.581  1.00  0.00    -0.237 OA
ATOM     61  O   UNL     1      11.943  -8.414   2.844  1.00  0.00    -0.744 OA
ENDBRANCH  55  58
ENDBRANCH  27  51
BRANCH  39  62
ATOM     62  C   UNL     1       7.354  -1.323   8.522  1.00  0.00     0.023 A 
ATOM     63  C   UNL     1       8.622  -1.072   7.958  1.00  0.00     0.012 A 
ATOM     64  C   UNL     1       6.934  -0.544   9.616  1.00  0.00     0.148 A 
ATOM     65  C   UNL     1       9.464  -0.094   8.492  1.00  0.00     0.002 A 
ATOM     66  C   UNL     1       7.753   0.463  10.112  1.00  0.00     0.091 A 
ATOM     67  F   UNL     1       5.723  -0.786  10.143  1.00  0.00    -0.205 F 
ATOM     68  C   UNL     1       9.024   0.684   9.561  1.00  0.00     0.022 A 
BRANCH  66  69
ATOM     69  S   UNL     1       7.178   1.587  11.389  1.00  0.00     0.127 S 
ATOM     70  O   UNL     1       7.769   1.013  12.595  1.00  0.00    -0.237 OA
ATOM     71  O   UNL     1       7.756   2.866  10.973  1.00  0.00    -0.237 OA
ATOM     72  O   UNL     1       5.722   1.549  11.317  1.00  0.00    -0.744 OA
ENDBRANCH  66  69
ENDBRANCH  39  62
ENDBRANCH  13  14
ENDBRANCH   6   8
ENDBRANCH   5   6
ENDBRANCH   4   5
ENDBRANCH   3   4
ENDBRANCH   2   3
ENDBRANCH   1   2
BRANCH   1  73
ATOM     73  C   UNL     1       9.085   0.504  -4.428  1.00  0.00     0.188 C 
BRANCH  73  74
ATOM     74  O   UNL     1       9.815   1.401  -5.259  1.00  0.00    -0.376 OA
BRANCH  74  75
ATOM     75  C   UNL     1       9.326   2.696  -5.543  1.00  0.00     0.202 C 
BRANCH  75  76
ATOM     76  C   UNL     1       8.067   2.784  -6.405  1.00  0.00     0.261 C 
BRANCH  76  77
ATOM     77  O   UNL     1       6.992   1.942  -5.979  1.00  0.00    -0.458 OA
BRANCH  77  78
ATOM     78  C   UNL     1       6.869   0.752  -6.631  1.00  0.00     0.361 C 
ATOM     79  O   UNL     1       7.605   0.363  -7.541  1.00  0.00    -0.244 OA
BRANCH  78  80
ATOM     80  C   UNL     1       5.746  -0.022  -6.143  1.00  0.00     0.198 A 
ATOM     81  N   UNL     1       5.859  -1.241  -5.520  1.00  0.00    -0.122 NA
ATOM     82  C   UNL     1       4.407   0.318  -6.220  1.00  0.00     0.123 A 
ATOM     83  N   UNL     1       4.635  -1.674  -5.229  1.00  0.00    -0.061 NA
ATOM     84  N   UNL     1       3.763  -0.825  -5.800  1.00  0.00    -0.213 N 
BRANCH  82  85
ATOM     85  C   UNL     1       3.704   1.554  -6.663  1.00  0.00     0.262 C 
ATOM     86  C   UNL     1       3.273   2.409  -5.465  1.00  0.00     0.281 C 
ATOM     87  O   UNL     1       4.621   2.221  -7.532  1.00  0.00    -0.477 OA
ATOM     88  O   UNL     1       2.700   3.646  -5.911  1.00  0.00    -0.485 OA
ATOM     89  C   UNL     1       4.516   3.580  -7.516  1.00  0.00     0.162 A 
ATOM     90  C   UNL     1       3.578   4.275  -6.754  1.00  0.00     0.161 A 
ATOM     91  C   UNL     1       5.436   4.269  -8.301  1.00  0.00     0.050 A 
ATOM     92  C   UNL     1       3.519   5.663  -6.823  1.00  0.00     0.050 A 
ATOM     93  C   UNL     1       5.414   5.661  -8.331  1.00  0.00     0.004 A 
ATOM     94  C   UNL     1       4.447   6.357  -7.603  1.00  0.00     0.004 A 
ENDBRANCH  82  85
BRANCH  84  95
ATOM     95  C   UNL     1       2.468  -1.218  -6.173  1.00  0.00     0.067 A 
ATOM     96  C   UNL     1       1.521  -1.570  -5.218  1.00  0.00     0.028 A 
ATOM     97  C   UNL     1       2.134  -1.121  -7.531  1.00  0.00     0.041 A 
ATOM     98  C   UNL     1       0.196  -1.726  -5.630  1.00  0.00     0.003 A 
ATOM     99  C   UNL     1       0.813  -1.283  -7.949  1.00  0.00     0.058 A 
ATOM    100  C   UNL     1      -0.158  -1.568  -6.979  1.00  0.00     0.013 A 
BRANCH  99 101
ATOM    101  C   UNL     1       0.455  -1.088  -9.400  1.00  0.00     0.416 C 
ATOM    102  F   UNL     1      -0.264  -2.118  -9.918  1.00  0.00    -0.166 F 
ATOM    103  F   UNL     1      -0.292   0.034  -9.598  1.00  0.00    -0.166 F 
ATOM    104  F   UNL     1       1.544  -0.948 -10.210  1.00  0.00    -0.166 F 
ENDBRANCH  99 101
ENDBRANCH  84  95
ENDBRANCH  78  80
ENDBRANCH  77  78
ENDBRANCH  76  77
ENDBRANCH  75  76
ENDBRANCH  74  75
ENDBRANCH  73  74
ENDBRANCH   1  73
TORSDOF 23
