REMARK SMILES O=C(OCCOCCOCCOC(=O)c1ccc(-c2c3nc(c(-c4cccc(S(=O)(=O)[O-])c4F)c4ccc([nH]4)c(-c4cccc(S(=O)(=O)[O-])c4F)c4nc(c(-c5cccc(S(=O)(=O)[O-])c5F)c5ccc2[nH]5)C=C4)C=C3)cc1)C1=Cc2cc(S(F)(F)(F)(F)F)ccc2O[C@@H]1C(F)(F)F
REMARK SMILES IDX 8 1 7 2 6 3 5 4 4 5 3 6 2 7 1 8 78 9 79 10 93 11 80 12 92 13
REMARK SMILES IDX 81 14 91 15 82 16 90 17 89 18 94 19 95 20 96 21 97 22 83 23
REMARK SMILES IDX 84 24 85 25 86 26 87 27 88 28 9 29 10 30 11 31 12 32 13 33
REMARK SMILES IDX 14 34 15 35 16 36 77 37 17 38 76 39 18 40 19 41 20 42 70 43
REMARK SMILES IDX 21 44 75 45 69 46 71 47 22 48 74 49 68 50 67 51 23 53 55 54
REMARK SMILES IDX 35 55 54 56 36 57 39 58 53 59 72 60 37 61 38 62 52 64 73 65
REMARK SMILES IDX 40 66 24 67 25 68 33 69 26 70 28 71 34 72 27 73 29 74 30 75
REMARK SMILES IDX 31 76 32 77 56 78 57 79 65 80 58 81 60 82 66 83 59 84 61 85
REMARK SMILES IDX 62 86 63 87 64 88 41 89 42 90 50 91 43 92 45 93 51 94 44 95
REMARK SMILES IDX 46 96 47 97 48 98 49 99
REMARK H PARENT 71 52 39 63
REMARK Flexibility Score: inf
ROOT
ATOM      1  C   UNL     1       2.480   1.066  -2.264  1.00  0.00     0.188 C 
ENDROOT
BRANCH   1   2
ATOM      2  C   UNL     1       2.987   1.302  -0.850  1.00  0.00     0.188 C 
BRANCH   2   3
ATOM      3  O   UNL     1       4.407   1.302  -0.850  1.00  0.00    -0.376 OA
BRANCH   3   4
ATOM      4  C   UNL     1       4.880   0.048  -1.320  1.00  0.00     0.202 C 
BRANCH   4   5
ATOM      5  C   UNL     1       4.373  -1.058  -0.408  1.00  0.00     0.261 C 
BRANCH   5   6
ATOM      6  O   UNL     1       2.953  -1.058  -0.408  1.00  0.00    -0.460 OA
BRANCH   6   7
ATOM      7  C   UNL     1       2.243   0.093   0.023  1.00  0.00     0.338 C 
ATOM      8  O   UNL     1       0.972   0.093   0.023  1.00  0.00    -0.246 OA
BRANCH   7   9
ATOM      9  C   UNL     1       3.003   1.326   0.484  1.00  0.00     0.087 C 
ATOM     10  C   UNL     1       4.364   1.326   0.484  1.00  0.00     0.027 C 
ATOM     11  C   UNL     1       2.243   2.559   0.946  1.00  0.00     0.316 C 
ATOM     12  C   UNL     1       5.124   0.093   0.023  1.00  0.00     0.019 A 
ATOM     13  O   UNL     1       3.608  -0.211  -1.783  1.00  0.00    -0.475 OA
ATOM     14  C   UNL     1       6.175  -0.326   0.822  1.00  0.00     0.036 A 
ATOM     15  C   UNL     1       4.786  -0.571  -1.076  1.00  0.00     0.128 A 
ATOM     16  C   UNL     1       7.001  -1.302   0.217  1.00  0.00     0.107 A 
ATOM     17  C   UNL     1       5.566  -1.605  -1.536  1.00  0.00     0.048 A 
ATOM     18  C   UNL     1       6.655  -2.033  -0.827  1.00  0.00     0.028 A 
BRANCH  11  19
ATOM     19  C   UNL     1       2.611   3.741   0.062  1.00  0.00     0.430 C 
ATOM     20  F   UNL     1       2.289   3.468  -1.199  1.00  0.00    -0.167 F 
ATOM     21  F   UNL     1       1.946   4.819   0.466  1.00  0.00    -0.167 F 
ATOM     22  F   UNL     1       3.918   3.968   0.148  1.00  0.00    -0.167 F 
ENDBRANCH  11  19
BRANCH  16  23
ATOM     23  S   UNL     1       8.645  -1.569   0.923  1.00  0.00     0.310 S 
ATOM     24  F   UNL     1       8.077  -1.529   2.404  1.00  0.00    -0.094 F 
ATOM     25  F   UNL     1       8.827  -0.007   1.024  1.00  0.00    -0.094 F 
ATOM     26  F   UNL     1      10.056  -1.800   1.536  1.00  0.00    -0.094 F 
ATOM     27  F   UNL     1       8.389  -3.127   0.945  1.00  0.00    -0.094 F 
ATOM     28  F   UNL     1       7.168  -1.348   0.406  1.00  0.00    -0.094 F 
ENDBRANCH  16  23
ENDBRANCH   7   9
ENDBRANCH   6   7
ENDBRANCH   5   6
ENDBRANCH   4   5
ENDBRANCH   3   4
ENDBRANCH   2   3
ENDBRANCH   1   2
BRANCH   1  29
ATOM     29  O   UNL     1       2.953  -0.188  -2.733  1.00  0.00    -0.376 OA
BRANCH  29  30
ATOM     30  C   UNL     1       4.373  -0.188  -2.733  1.00  0.00     0.202 C 
BRANCH  30  31
ATOM     31  C   UNL     1       4.880   0.918  -3.644  1.00  0.00     0.261 C 
BRANCH  31  32
ATOM     32  O   UNL     1       4.407   2.172  -3.175  1.00  0.00    -0.460 OA
BRANCH  32  33
ATOM     33  C   UNL     1       3.010   2.415  -3.084  1.00  0.00     0.338 C 
ATOM     34  O   UNL     1       2.185   1.510  -3.423  1.00  0.00    -0.246 OA
BRANCH  33  35
ATOM     35  C   UNL     1       2.504   3.757  -2.582  1.00  0.00     0.060 A 
ATOM     36  C   UNL     1       1.411   3.748  -1.731  1.00  0.00     0.016 A 
ATOM     37  C   UNL     1       3.032   4.896  -3.013  1.00  0.00     0.016 A 
ATOM     38  C   UNL     1       0.761   5.001  -1.619  1.00  0.00     0.010 A 
ATOM     39  C   UNL     1       2.416   6.096  -2.752  1.00  0.00     0.010 A 
ATOM     40  C   UNL     1       1.298   6.156  -1.966  1.00  0.00    -0.014 A 
BRANCH  40  41
ATOM     41  C   UNL     1       0.705   7.482  -1.518  1.00  0.00     0.031 A 
ATOM     42  C   UNL     1       0.260   8.423  -2.448  1.00  0.00     0.074 A 
ATOM     43  C   UNL     1       0.596   7.637  -0.146  1.00  0.00     0.049 A 
ATOM     44  N   UNL     1      -0.356   9.580  -2.203  1.00  0.00    -0.248 NA
ATOM     45  C   UNL     1       0.406   8.276  -3.903  1.00  0.00     0.031 C 
ATOM     46  C   UNL     1       1.034   6.688   0.798  1.00  0.00     0.029 A 
ATOM     47  N   UNL     1       0.062   8.703   0.544  1.00  0.00    -0.354 N 
ATOM     48  C   UNL     1      -0.645  10.200  -3.349  1.00  0.00     0.074 A 
ATOM     49  C   UNL     1      -0.153   9.373  -4.459  1.00  0.00     0.031 C 
ATOM     50  C   UNL     1       0.779   7.180   2.039  1.00  0.00     0.029 A 
ATOM     51  C   UNL     1       0.176   8.443   1.891  1.00  0.00     0.049 A 
ATOM     52  H   UNL     1      -0.333   9.510   0.143  1.00  0.00     0.167 HD
ATOM     53  C   UNL     1      -1.300  11.422  -3.511  1.00  0.00     0.034 A 
ATOM     54  C   UNL     1      -0.215   9.251   2.947  1.00  0.00     0.034 A 
ATOM     55  C   UNL     1      -1.731  12.210  -2.455  1.00  0.00     0.049 A 
ATOM     56  C   UNL     1      -0.819  10.500   2.786  1.00  0.00     0.074 A 
ATOM     57  C   UNL     1      -2.400  13.440  -2.602  1.00  0.00     0.029 A 
ATOM     58  N   UNL     1      -1.595  11.961  -1.107  1.00  0.00    -0.354 N 
ATOM     59  N   UNL     1      -1.143  11.101   1.640  1.00  0.00    -0.248 NA
ATOM     60  C   UNL     1      -1.208  11.379   3.897  1.00  0.00     0.031 C 
ATOM     61  C   UNL     1      -2.655  13.932  -1.360  1.00  0.00     0.029 A 
ATOM     62  C   UNL     1      -2.149  13.017  -0.417  1.00  0.00     0.049 A 
ATOM     63  H   UNL     1      -1.173  11.167  -0.707  1.00  0.00     0.167 HD
ATOM     64  C   UNL     1      -1.722  12.278   1.886  1.00  0.00     0.074 A 
ATOM     65  C   UNL     1      -1.766  12.477   3.341  1.00  0.00     0.031 C 
ATOM     66  C   UNL     1      -2.219  13.193   0.956  1.00  0.00     0.034 A 
BRANCH  53  67
ATOM     67  C   UNL     1      -1.556  11.916  -4.926  1.00  0.00     0.023 A 
ATOM     68  C   UNL     1      -2.417  11.171  -5.715  1.00  0.00     0.012 A 
ATOM     69  C   UNL     1      -1.057  13.070  -5.351  1.00  0.00     0.148 A 
ATOM     70  C   UNL     1      -2.464  11.591  -7.066  1.00  0.00     0.002 A 
ATOM     71  C   UNL     1      -1.256  13.484  -6.646  1.00  0.00     0.091 A 
ATOM     72  F   UNL     1      -0.357  13.833  -4.516  1.00  0.00    -0.205 F 
ATOM     73  C   UNL     1      -2.047  12.767  -7.500  1.00  0.00     0.022 A 
BRANCH  71  74
ATOM     74  S   UNL     1      -0.460  15.001  -7.230  1.00  0.00     0.127 S 
ATOM     75  O   UNL     1       0.459  14.674  -8.409  1.00  0.00    -0.237 OA
ATOM     76  O   UNL     1      -1.531  15.999  -7.679  1.00  0.00    -0.237 OA
ATOM     77  O   UNL     1       0.461  15.686  -5.963  1.00  0.00    -0.744 OA
ENDBRANCH  71  74
ENDBRANCH  53  67
BRANCH  54  78
ATOM     78  C   UNL     1       0.026   8.749   4.362  1.00  0.00     0.023 A 
ATOM     79  C   UNL     1      -1.030   8.680   5.255  1.00  0.00     0.012 A 
ATOM     80  C   UNL     1       1.270   8.489   4.745  1.00  0.00     0.148 A 
ATOM     81  C   UNL     1      -0.630   8.607   6.611  1.00  0.00     0.002 A 
ATOM     82  C   UNL     1       1.568   8.294   6.072  1.00  0.00     0.091 A 
ATOM     83  F   UNL     1       2.238   8.416   3.835  1.00  0.00    -0.205 F 
ATOM     84  C   UNL     1       0.581   8.271   7.018  1.00  0.00     0.022 A 
BRANCH  82  85
ATOM     85  S   UNL     1       3.291   8.063   6.575  1.00  0.00     0.127 S 
ATOM     86  O   UNL     1       3.687   9.166   7.559  1.00  0.00    -0.237 OA
ATOM     87  O   UNL     1       3.447   6.698   7.250  1.00  0.00    -0.237 OA
ATOM     88  O   UNL     1       4.302   8.136   5.198  1.00  0.00    -0.744 OA
ENDBRANCH  82  85
ENDBRANCH  54  78
BRANCH  66  89
ATOM     89  C   UNL     1      -2.877  14.458   1.481  1.00  0.00     0.023 A 
ATOM     90  C   UNL     1      -2.124  15.256   2.326  1.00  0.00     0.012 A 
ATOM     91  C   UNL     1      -4.143  14.750   1.205  1.00  0.00     0.148 A 
ATOM     92  C   UNL     1      -2.888  16.189   3.066  1.00  0.00     0.002 A 
ATOM     93  C   UNL     1      -4.788  15.765   1.870  1.00  0.00     0.091 A 
ATOM     94  F   UNL     1      -4.792  14.055   0.276  1.00  0.00    -0.205 F 
ATOM     95  C   UNL     1      -4.120  16.556   2.763  1.00  0.00     0.022 A 
BRANCH  93  96
ATOM     96  S   UNL     1      -6.546  16.059   1.559  1.00  0.00     0.127 S 
ATOM     97  O   UNL     1      -7.329  15.896   2.865  1.00  0.00    -0.237 OA
ATOM     98  O   UNL     1      -6.739  17.479   1.022  1.00  0.00    -0.237 OA
ATOM     99  O   UNL     1      -7.118  14.932   0.408  1.00  0.00    -0.744 OA
ENDBRANCH  93  96
ENDBRANCH  66  89
ENDBRANCH  40  41
ENDBRANCH  33  35
ENDBRANCH  32  33
ENDBRANCH  31  32
ENDBRANCH  30  31
ENDBRANCH  29  30
ENDBRANCH   1  29
TORSDOF 22
