REMARK SMILES NS(=O)(=O)c1ccc(-n2nc(C(=O)OCCOCCOCCOC(=O)c3ccc(-c4c5nc(c(-c6cccc(S(=O)(=O)[O-])c6F)c6ccc([nH]6)c(-c6cccc(S(=O)(=O)[O-])c6F)c6nc(c(-c7cccc(S(=O)(=O)[O-])c7F)c7ccc4[nH]7)C=C6)C=C5)cc3)cc2-c2cc3ccccc3s2)cc1
REMARK SMILES IDX 18 1 17 2 16 3 15 4 14 5 12 6 13 7 11 8 9 9 10 10 90 11
REMARK SMILES IDX 89 12 8 13 5 14 6 15 101 16 7 17 100 18 2 19 3 20 4 21 1 22
REMARK SMILES IDX 91 25 92 26 99 27 93 28 98 29 94 30 97 31 95 32 96 33 19 34
REMARK SMILES IDX 20 35 21 36 22 37 23 38 24 39 25 40 26 41 27 42 88 43 28 44
REMARK SMILES IDX 87 45 29 46 30 47 31 48 81 49 32 50 86 51 80 52 82 53 33 54
REMARK SMILES IDX 85 55 79 56 78 57 34 59 66 60 46 61 65 62 47 63 50 64 64 65
REMARK SMILES IDX 83 66 48 67 49 68 63 70 84 71 51 72 35 73 36 74 44 75 37 76
REMARK SMILES IDX 39 77 45 78 38 79 40 80 41 81 42 82 43 83 67 84 68 85 76 86
REMARK SMILES IDX 69 87 71 88 77 89 70 90 72 91 73 92 74 93 75 94 52 95 53 96
REMARK SMILES IDX 61 97 54 98 56 99 62 100 55 101 57 102 58 103 59 104 60 105
REMARK H PARENT 1 23 1 24 82 58 50 69
REMARK Flexibility Score: inf
ROOT
ATOM      1  C   UNL     1       0.911  10.284  -0.636  1.00  0.00     0.188 C 
ENDROOT
BRANCH   1   2
ATOM      2  O   UNL     1       1.374  11.409   0.097  1.00  0.00    -0.376 OA
BRANCH   2   3
ATOM      3  C   UNL     1       2.504  12.147  -0.339  1.00  0.00     0.202 C 
BRANCH   3   4
ATOM      4  C   UNL     1       3.826  11.437  -0.692  1.00  0.00     0.261 C 
BRANCH   4   5
ATOM      5  O   UNL     1       3.692  10.252  -1.482  1.00  0.00    -0.458 OA
BRANCH   5   6
ATOM      6  C   UNL     1       3.778   9.056  -0.826  1.00  0.00     0.358 C 
ATOM      7  O   UNL     1       4.179   8.924   0.324  1.00  0.00    -0.244 OA
BRANCH   6   8
ATOM      8  C   UNL     1       3.295   7.952  -1.671  1.00  0.00     0.171 A 
ATOM      9  N   UNL     1       2.700   5.998  -2.312  1.00  0.00    -0.231 N 
ATOM     10  N   UNL     1       2.797   6.790  -1.209  1.00  0.00    -0.160 NA
ATOM     11  C   UNL     1       3.197   6.630  -3.428  1.00  0.00     0.085 A 
ATOM     12  C   UNL     1       3.244   7.965  -3.078  1.00  0.00     0.068 A 
BRANCH   9  13
ATOM     13  C   UNL     1       2.191   4.694  -2.186  1.00  0.00     0.065 A 
ATOM     14  C   UNL     1       1.189   2.135  -1.840  1.00  0.00     0.082 A 
ATOM     15  C   UNL     1       2.510   2.315  -2.271  1.00  0.00     0.024 A 
ATOM     16  C   UNL     1       0.356   3.232  -1.592  1.00  0.00     0.024 A 
ATOM     17  C   UNL     1       3.011   3.601  -2.463  1.00  0.00     0.030 A 
ATOM     18  C   UNL     1       0.872   4.521  -1.736  1.00  0.00     0.030 A 
BRANCH  14  19
ATOM     19  S   UNL     1       0.569   0.491  -1.646  1.00  0.00     0.238 S 
ATOM     20  O   UNL     1       1.255  -0.377  -2.594  1.00  0.00    -0.207 OA
ATOM     21  O   UNL     1      -0.856   0.511  -1.518  1.00  0.00    -0.207 OA
BRANCH  19  22
ATOM     22  N   UNL     1       1.173   0.071  -0.137  1.00  0.00    -0.225 NA
ATOM     23  H   UNL     1       0.879  -0.877   0.096  1.00  0.00     0.137 HD
ATOM     24  H   UNL     1       0.816   0.720   0.565  1.00  0.00     0.137 HD
ENDBRANCH  19  22
ENDBRANCH  14  19
ENDBRANCH   9  13
BRANCH  11  25
ATOM     25  C   UNL     1       3.769   6.102  -4.642  1.00  0.00     0.054 A 
ATOM     26  C   UNL     1       3.365   6.376  -5.948  1.00  0.00     0.031 A 
ATOM     27  S   UNL     1       5.522   6.251  -4.727  1.00  0.00    -0.134 S 
ATOM     28  C   UNL     1       4.089   7.576  -6.358  1.00  0.00    -0.007 A 
ATOM     29  C   UNL     1       5.235   7.751  -5.566  1.00  0.00     0.035 A 
ATOM     30  C   UNL     1       3.732   8.615  -7.244  1.00  0.00     0.009 A 
ATOM     31  C   UNL     1       5.917   8.973  -5.483  1.00  0.00     0.019 A 
ATOM     32  C   UNL     1       4.390   9.848  -7.152  1.00  0.00     0.001 A 
ATOM     33  C   UNL     1       5.432  10.037  -6.247  1.00  0.00     0.001 A 
ENDBRANCH  11  25
ENDBRANCH   6   8
ENDBRANCH   5   6
ENDBRANCH   4   5
ENDBRANCH   3   4
ENDBRANCH   2   3
ENDBRANCH   1   2
BRANCH   1  34
ATOM     34  C   UNL     1       0.847  10.306  -2.183  1.00  0.00     0.188 C 
BRANCH  34  35
ATOM     35  O   UNL     1       1.583  11.339  -2.807  1.00  0.00    -0.376 OA
BRANCH  35  36
ATOM     36  C   UNL     1       0.929  12.443  -3.423  1.00  0.00     0.202 C 
BRANCH  36  37
ATOM     37  C   UNL     1      -0.298  13.134  -2.821  1.00  0.00     0.261 C 
BRANCH  37  38
ATOM     38  O   UNL     1      -0.948  12.391  -1.819  1.00  0.00    -0.460 OA
BRANCH  38  39
ATOM     39  C   UNL     1      -1.845  11.501  -2.286  1.00  0.00     0.338 C 
ATOM     40  O   UNL     1      -2.083  11.240  -3.453  1.00  0.00    -0.246 OA
BRANCH  39  41
ATOM     41  C   UNL     1      -2.481  10.857  -1.128  1.00  0.00     0.060 A 
ATOM     42  C   UNL     1      -3.408   9.875  -1.466  1.00  0.00     0.016 A 
ATOM     43  C   UNL     1      -2.570  11.634   0.034  1.00  0.00     0.016 A 
ATOM     44  C   UNL     1      -4.650  10.013  -0.917  1.00  0.00     0.010 A 
ATOM     45  C   UNL     1      -3.817  11.800   0.554  1.00  0.00     0.010 A 
ATOM     46  C   UNL     1      -4.850  11.077  -0.033  1.00  0.00    -0.014 A 
BRANCH  46  47
ATOM     47  C   UNL     1      -6.205  11.408   0.303  1.00  0.00     0.031 A 
ATOM     48  C   UNL     1      -6.736  10.482   1.312  1.00  0.00     0.074 A 
ATOM     49  C   UNL     1      -6.813  12.486  -0.223  1.00  0.00     0.049 A 
ATOM     50  N   UNL     1      -7.595   9.536   1.133  1.00  0.00    -0.248 NA
ATOM     51  C   UNL     1      -6.027  10.428   2.601  1.00  0.00     0.031 C 
ATOM     52  C   UNL     1      -6.216  13.581  -0.997  1.00  0.00     0.029 A 
ATOM     53  N   UNL     1      -8.087  12.905  -0.031  1.00  0.00    -0.354 N 
ATOM     54  C   UNL     1      -7.724   8.954   2.387  1.00  0.00     0.074 A 
ATOM     55  C   UNL     1      -6.559   9.332   3.137  1.00  0.00     0.031 C 
ATOM     56  C   UNL     1      -7.052  14.645  -0.964  1.00  0.00     0.029 A 
ATOM     57  C   UNL     1      -8.275  14.258  -0.280  1.00  0.00     0.049 A 
ATOM     58  H   UNL     1      -8.812  12.306   0.259  1.00  0.00     0.167 HD
ATOM     59  C   UNL     1      -8.933   8.517   2.823  1.00  0.00     0.034 A 
ATOM     60  C   UNL     1      -9.316  15.005   0.163  1.00  0.00     0.034 A 
ATOM     61  C   UNL     1      -9.856   8.348   1.730  1.00  0.00     0.049 A 
ATOM     62  C   UNL     1     -10.394  14.066   0.563  1.00  0.00     0.074 A 
ATOM     63  C   UNL     1      -9.872   7.592   0.575  1.00  0.00     0.029 A 
ATOM     64  N   UNL     1     -10.787   9.343   1.554  1.00  0.00    -0.354 N 
ATOM     65  N   UNL     1     -11.042  13.311  -0.280  1.00  0.00    -0.248 NA
ATOM     66  C   UNL     1     -10.436  13.628   1.951  1.00  0.00     0.031 C 
ATOM     67  C   UNL     1     -10.496   8.421  -0.402  1.00  0.00     0.029 A 
ATOM     68  C   UNL     1     -10.876   9.616   0.215  1.00  0.00     0.049 A 
ATOM     69  H   UNL     1     -11.302   9.784   2.268  1.00  0.00     0.167 HD
ATOM     70  C   UNL     1     -11.177  12.093   0.376  1.00  0.00     0.074 A 
ATOM     71  C   UNL     1     -10.891  12.383   1.780  1.00  0.00     0.031 C 
ATOM     72  C   UNL     1     -11.207  10.919  -0.323  1.00  0.00     0.034 A 
BRANCH  59  73
ATOM     73  C   UNL     1      -9.406   8.660   4.251  1.00  0.00     0.023 A 
ATOM     74  C   UNL     1     -10.622   8.028   4.580  1.00  0.00     0.012 A 
ATOM     75  C   UNL     1      -8.890   9.586   5.191  1.00  0.00     0.148 A 
ATOM     76  C   UNL     1     -11.315   8.344   5.753  1.00  0.00     0.002 A 
ATOM     77  C   UNL     1      -9.537   9.832   6.393  1.00  0.00     0.091 A 
ATOM     78  F   UNL     1      -7.844  10.356   4.886  1.00  0.00    -0.205 F 
ATOM     79  C   UNL     1     -10.769   9.240   6.664  1.00  0.00     0.022 A 
BRANCH  77  80
ATOM     80  S   UNL     1      -8.841  10.950   7.617  1.00  0.00     0.127 S 
ATOM     81  O   UNL     1      -9.696  12.122   7.460  1.00  0.00    -0.237 OA
ATOM     82  O   UNL     1      -9.040  10.197   8.856  1.00  0.00    -0.237 OA
ATOM     83  O   UNL     1      -7.442  11.119   7.243  1.00  0.00    -0.744 OA
ENDBRANCH  77  80
ENDBRANCH  59  73
BRANCH  60  84
ATOM     84  C   UNL     1      -9.333  16.432   0.557  1.00  0.00     0.023 A 
ATOM     85  C   UNL     1     -10.549  17.141   0.562  1.00  0.00     0.012 A 
ATOM     86  C   UNL     1      -8.210  17.028   1.175  1.00  0.00     0.148 A 
ATOM     87  C   UNL     1     -10.650  18.394   1.180  1.00  0.00     0.002 A 
ATOM     88  C   UNL     1      -8.311  18.277   1.779  1.00  0.00     0.091 A 
ATOM     89  F   UNL     1      -7.069  16.330   1.248  1.00  0.00    -0.205 F 
ATOM     90  C   UNL     1      -9.534  18.959   1.792  1.00  0.00     0.022 A 
BRANCH  88  91
ATOM     91  S   UNL     1      -6.921  19.064   2.606  1.00  0.00     0.127 S 
ATOM     92  O   UNL     1      -6.894  20.378   1.963  1.00  0.00    -0.237 OA
ATOM     93  O   UNL     1      -7.364  19.073   3.998  1.00  0.00    -0.237 OA
ATOM     94  O   UNL     1      -5.761  18.231   2.319  1.00  0.00    -0.744 OA
ENDBRANCH  88  91
ENDBRANCH  60  84
BRANCH  72  95
ATOM     95  C   UNL     1     -11.353  10.997  -1.823  1.00  0.00     0.023 A 
ATOM     96  C   UNL     1     -10.360  11.561  -2.651  1.00  0.00     0.012 A 
ATOM     97  C   UNL     1     -12.432  10.324  -2.418  1.00  0.00     0.148 A 
ATOM     98  C   UNL     1     -10.453  11.472  -4.043  1.00  0.00     0.002 A 
ATOM     99  C   UNL     1     -12.498  10.197  -3.799  1.00  0.00     0.091 A 
ATOM    100  F   UNL     1     -13.364   9.788  -1.615  1.00  0.00    -0.205 F 
ATOM    101  C   UNL     1     -11.516  10.778  -4.617  1.00  0.00     0.022 A 
BRANCH  99 102
ATOM    102  S   UNL     1     -13.766   9.204  -4.588  1.00  0.00     0.127 S 
ATOM    103  O   UNL     1     -14.650  10.225  -5.146  1.00  0.00    -0.237 OA
ATOM    104  O   UNL     1     -13.002   8.447  -5.581  1.00  0.00    -0.237 OA
ATOM    105  O   UNL     1     -14.345   8.382  -3.533  1.00  0.00    -0.744 OA
ENDBRANCH  99 102
ENDBRANCH  72  95
ENDBRANCH  46  47
ENDBRANCH  39  41
ENDBRANCH  38  39
ENDBRANCH  37  38
ENDBRANCH  36  37
ENDBRANCH  35  36
ENDBRANCH  34  35
ENDBRANCH   1  34
TORSDOF 24
