REMARK SMILES C=CCc1cccc(-c2ccc([C@@H](C)C(=O)OCCOCCOCCOC(=O)c3ccc(-c4c5nc(c(-c6cccc(S(=O)(=O)[O-])c6F)c6ccc([nH]6)c(-c6cccc(S(=O)(=O)[O-])c6F)c6nc(c(-c7cccc(S(=O)(=O)[O-])c7F)c7ccc4[nH]7)C=C6)C=C5)cc3)cc2)c1
REMARK SMILES IDX 21 1 20 2 19 3 18 4 17 5 15 6 16 7 13 8 14 9 12 10 9 11
REMARK SMILES IDX 10 12 93 13 11 14 92 15 8 16 4 17 5 18 94 19 6 20 7 21 3 22
REMARK SMILES IDX 2 23 1 24 22 25 23 26 24 27 25 28 26 29 27 30 28 31 29 32
REMARK SMILES IDX 30 33 91 34 31 35 90 36 32 37 33 38 34 39 84 40 35 41 89 42
REMARK SMILES IDX 83 43 85 44 36 45 88 46 82 47 81 48 37 50 69 51 49 52 68 53
REMARK SMILES IDX 50 54 53 55 67 56 86 57 51 58 52 59 66 61 87 62 54 63 38 64
REMARK SMILES IDX 39 65 47 66 40 67 42 68 48 69 41 70 43 71 44 72 45 73 46 74
REMARK SMILES IDX 70 75 71 76 79 77 72 78 74 79 80 80 73 81 75 82 76 83 77 84
REMARK SMILES IDX 78 85 55 86 56 87 64 88 57 89 59 90 65 91 58 92 60 93 61 94
REMARK SMILES IDX 62 95 63 96
REMARK H PARENT 85 49 53 60
REMARK Flexibility Score: inf
ROOT
ATOM      1  C   UNL     1       5.091  -7.224  -0.072  1.00  0.00     0.188 C 
ENDROOT
BRANCH   1   2
ATOM      2  O   UNL     1       5.852  -7.790  -1.133  1.00  0.00    -0.376 OA
BRANCH   2   3
ATOM      3  C   UNL     1       5.182  -8.507  -2.162  1.00  0.00     0.202 C 
BRANCH   3   4
ATOM      4  C   UNL     1       4.222  -9.643  -1.768  1.00  0.00     0.261 C 
BRANCH   4   5
ATOM      5  O   UNL     1       3.160  -9.275  -0.857  1.00  0.00    -0.463 OA
BRANCH   5   6
ATOM      6  C   UNL     1       3.060 -10.008   0.281  1.00  0.00     0.313 C 
ATOM      7  O   UNL     1       3.763 -10.992   0.505  1.00  0.00    -0.252 OA
BRANCH   6   8
ATOM      8  C   UNL     1       2.031  -9.534   1.315  1.00  0.00     0.126 C 
ATOM      9  C   UNL     1       1.131 -10.718   1.669  1.00  0.00     0.025 C 
BRANCH   8  10
ATOM     10  C   UNL     1       1.179  -8.284   1.093  1.00  0.00    -0.034 A 
ATOM     11  C   UNL     1      -0.376  -5.893   0.795  1.00  0.00    -0.018 A 
ATOM     12  C   UNL     1      -0.332  -6.877  -0.209  1.00  0.00     0.009 A 
ATOM     13  C   UNL     1       0.368  -6.130   1.957  1.00  0.00     0.009 A 
ATOM     14  C   UNL     1       0.424  -8.056  -0.063  1.00  0.00     0.005 A 
ATOM     15  C   UNL     1       1.123  -7.305   2.107  1.00  0.00     0.005 A 
BRANCH  11  16
ATOM     16  C   UNL     1      -1.221  -4.686   0.660  1.00  0.00    -0.018 A 
ATOM     17  C   UNL     1      -1.515  -2.239   0.674  1.00  0.00    -0.044 A 
ATOM     18  C   UNL     1      -2.892  -2.423   0.471  1.00  0.00     0.004 A 
ATOM     19  C   UNL     1      -0.693  -3.381   0.770  1.00  0.00     0.012 A 
ATOM     20  C   UNL     1      -3.433  -3.701   0.355  1.00  0.00     0.001 A 
ATOM     21  C   UNL     1      -2.604  -4.819   0.450  1.00  0.00     0.009 A 
BRANCH  17  22
ATOM     22  C   UNL     1      -1.022  -0.811   0.830  1.00  0.00     0.062 C 
BRANCH  22  23
ATOM     23  C   UNL     1       0.463  -0.597   0.826  1.00  0.00    -0.030 C 
ATOM     24  C   UNL     1       1.127   0.110  -0.098  1.00  0.00     0.004 C 
ENDBRANCH  22  23
ENDBRANCH  17  22
ENDBRANCH  11  16
ENDBRANCH   8  10
ENDBRANCH   6   8
ENDBRANCH   5   6
ENDBRANCH   4   5
ENDBRANCH   3   4
ENDBRANCH   2   3
ENDBRANCH   1   2
BRANCH   1  25
ATOM     25  C   UNL     1       3.750  -6.551  -0.403  1.00  0.00     0.188 C 
BRANCH  25  26
ATOM     26  O   UNL     1       3.468  -6.454  -1.782  1.00  0.00    -0.376 OA
BRANCH  26  27
ATOM     27  C   UNL     1       3.269  -5.157  -2.306  1.00  0.00     0.202 C 
BRANCH  27  28
ATOM     28  C   UNL     1       4.445  -4.176  -2.193  1.00  0.00     0.261 C 
BRANCH  28  29
ATOM     29  O   UNL     1       5.087  -4.088  -0.908  1.00  0.00    -0.460 OA
BRANCH  29  30
ATOM     30  C   UNL     1       4.428  -3.434   0.074  1.00  0.00     0.338 C 
ATOM     31  O   UNL     1       3.336  -2.889  -0.014  1.00  0.00    -0.246 OA
BRANCH  30  32
ATOM     32  C   UNL     1       5.146  -3.674   1.347  1.00  0.00     0.060 A 
ATOM     33  C   UNL     1       4.485  -4.336   2.393  1.00  0.00     0.016 A 
ATOM     34  C   UNL     1       6.467  -3.253   1.505  1.00  0.00     0.016 A 
ATOM     35  C   UNL     1       5.135  -4.547   3.613  1.00  0.00     0.010 A 
ATOM     36  C   UNL     1       7.108  -3.446   2.733  1.00  0.00     0.010 A 
ATOM     37  C   UNL     1       6.435  -4.063   3.804  1.00  0.00    -0.014 A 
BRANCH  37  38
ATOM     38  C   UNL     1       7.032  -4.030   5.165  1.00  0.00     0.031 A 
ATOM     39  C   UNL     1       7.023  -2.727   5.920  1.00  0.00     0.074 A 
ATOM     40  C   UNL     1       7.597  -5.120   5.716  1.00  0.00     0.049 A 
ATOM     41  N   UNL     1       7.553  -2.434   7.078  1.00  0.00    -0.248 NA
ATOM     42  C   UNL     1       6.327  -1.601   5.274  1.00  0.00     0.031 C 
ATOM     43  C   UNL     1       7.668  -6.442   5.097  1.00  0.00     0.029 A 
ATOM     44  N   UNL     1       8.253  -5.272   6.914  1.00  0.00    -0.354 N 
ATOM     45  C   UNL     1       7.291  -1.084   7.283  1.00  0.00     0.074 A 
ATOM     46  C   UNL     1       6.559  -0.615   6.127  1.00  0.00     0.031 C 
ATOM     47  C   UNL     1       8.363  -7.263   5.904  1.00  0.00     0.029 A 
ATOM     48  C   UNL     1       8.813  -6.517   7.079  1.00  0.00     0.049 A 
ATOM     49  H   UNL     1       8.317  -4.558   7.589  1.00  0.00     0.167 HD
ATOM     50  C   UNL     1       7.622  -0.305   8.340  1.00  0.00     0.034 A 
ATOM     51  C   UNL     1       9.623  -6.990   8.049  1.00  0.00     0.034 A 
ATOM     52  C   UNL     1       8.338  -0.773   9.496  1.00  0.00     0.049 A 
ATOM     53  C   UNL     1      10.001  -6.096   9.204  1.00  0.00     0.074 A 
ATOM     54  C   UNL     1       8.673  -0.071  10.640  1.00  0.00     0.029 A 
ATOM     55  N   UNL     1       8.848  -2.053   9.648  1.00  0.00    -0.354 N 
ATOM     56  N   UNL     1       9.651  -4.854   9.438  1.00  0.00    -0.248 NA
ATOM     57  C   UNL     1      10.862  -6.679  10.245  1.00  0.00     0.031 C 
ATOM     58  C   UNL     1       9.423  -0.915  11.466  1.00  0.00     0.029 A 
ATOM     59  C   UNL     1       9.511  -2.157  10.859  1.00  0.00     0.049 A 
ATOM     60  H   UNL     1       8.754  -2.780   8.991  1.00  0.00     0.167 HD
ATOM     61  C   UNL     1      10.212  -4.523  10.668  1.00  0.00     0.074 A 
ATOM     62  C   UNL     1      10.911  -5.700  11.138  1.00  0.00     0.031 C 
ATOM     63  C   UNL     1      10.161  -3.347  11.344  1.00  0.00     0.034 A 
BRANCH  50  64
ATOM     64  C   UNL     1       7.207   1.142   8.300  1.00  0.00     0.023 A 
ATOM     65  C   UNL     1       5.848   1.490   8.441  1.00  0.00     0.012 A 
ATOM     66  C   UNL     1       8.172   2.161   8.179  1.00  0.00     0.148 A 
ATOM     67  C   UNL     1       5.453   2.827   8.428  1.00  0.00     0.002 A 
ATOM     68  C   UNL     1       7.776   3.492   8.216  1.00  0.00     0.091 A 
ATOM     69  F   UNL     1       9.457   1.810   8.024  1.00  0.00    -0.205 F 
ATOM     70  C   UNL     1       6.417   3.826   8.328  1.00  0.00     0.022 A 
BRANCH  68  71
ATOM     71  S   UNL     1       8.947   4.853   8.178  1.00  0.00     0.127 S 
ATOM     72  O   UNL     1       8.664   5.448   6.872  1.00  0.00    -0.237 OA
ATOM     73  O   UNL     1       8.517   5.659   9.321  1.00  0.00    -0.237 OA
ATOM     74  O   UNL     1      10.267   4.255   8.316  1.00  0.00    -0.744 OA
ENDBRANCH  68  71
ENDBRANCH  50  64
BRANCH  51  75
ATOM     75  C   UNL     1      10.127  -8.392   7.984  1.00  0.00     0.023 A 
ATOM     76  C   UNL     1       9.685  -9.338   8.930  1.00  0.00     0.012 A 
ATOM     77  C   UNL     1      11.045  -8.790   6.993  1.00  0.00     0.148 A 
ATOM     78  C   UNL     1      10.173 -10.646   8.909  1.00  0.00     0.002 A 
ATOM     79  C   UNL     1      11.483 -10.108   6.943  1.00  0.00     0.091 A 
ATOM     80  F   UNL     1      11.467  -7.871   6.114  1.00  0.00    -0.205 F 
ATOM     81  C   UNL     1      11.063 -11.033   7.911  1.00  0.00     0.022 A 
BRANCH  79  82
ATOM     82  S   UNL     1      12.536 -10.728   5.627  1.00  0.00     0.127 S 
ATOM     83  O   UNL     1      13.771 -11.029   6.348  1.00  0.00    -0.237 OA
ATOM     84  O   UNL     1      11.787 -11.900   5.173  1.00  0.00    -0.237 OA
ATOM     85  O   UNL     1      12.624  -9.651   4.651  1.00  0.00    -0.744 OA
ENDBRANCH  79  82
ENDBRANCH  51  75
BRANCH  63  86
ATOM     86  C   UNL     1      10.829  -3.278  12.695  1.00  0.00     0.023 A 
ATOM     87  C   UNL     1      12.234  -3.288  12.794  1.00  0.00     0.012 A 
ATOM     88  C   UNL     1      10.056  -3.127  13.864  1.00  0.00     0.148 A 
ATOM     89  C   UNL     1      12.858  -3.187  14.039  1.00  0.00     0.002 A 
ATOM     90  C   UNL     1      10.685  -2.973  15.094  1.00  0.00     0.091 A 
ATOM     91  F   UNL     1       8.720  -3.134  13.753  1.00  0.00    -0.205 F 
ATOM     92  C   UNL     1      12.085  -3.018  15.185  1.00  0.00     0.022 A 
BRANCH  90  93
ATOM     93  S   UNL     1       9.775  -2.650  16.610  1.00  0.00     0.127 S 
ATOM     94  O   UNL     1       9.947  -3.908  17.334  1.00  0.00    -0.237 OA
ATOM     95  O   UNL     1      10.508  -1.516  17.174  1.00  0.00    -0.237 OA
ATOM     96  O   UNL     1       8.410  -2.345  16.204  1.00  0.00    -0.744 OA
ENDBRANCH  90  93
ENDBRANCH  63  86
ENDBRANCH  37  38
ENDBRANCH  30  32
ENDBRANCH  29  30
ENDBRANCH  28  29
ENDBRANCH  27  28
ENDBRANCH  26  27
ENDBRANCH  25  26
ENDBRANCH   1  25
TORSDOF 24
