REMARK SMILES CCCCCCCNC(=O)Oc1cccc(-c2ccc([C@@H](C)C(=O)OCCOCCOCCOC(=O)c3ccc(-c4c5nc(c(-c6cccc(S(=O)(=O)[O-])c6F)c6ccc([nH]6)c(-c6cccc(S(=O)(=O)[O-])c6F)c6nc(c(-c7cccc(S(=O)(=O)[O-])c7F)c7ccc4[nH]7)C=C6)C=C5)cc3)cc2F)c1
REMARK SMILES IDX 26 1 25 2 23 3 24 4 21 5 22 6 20 7 17 8 18 9 101 10 19 11
REMARK SMILES IDX 100 12 102 13 16 14 12 15 13 16 103 17 14 18 15 19 11 20
REMARK SMILES IDX 9 21 8 22 10 24 7 25 6 26 5 27 4 28 3 29 2 30 1 31 27 32
REMARK SMILES IDX 28 33 29 34 30 35 31 36 32 37 33 38 34 39 35 40 36 41 37 42
REMARK SMILES IDX 38 43 99 44 39 45 98 46 40 47 41 48 42 49 92 50 43 51 97 52
REMARK SMILES IDX 91 53 93 54 44 55 96 56 90 57 89 58 45 60 77 61 57 62 76 63
REMARK SMILES IDX 58 64 61 65 75 66 94 67 59 68 60 69 74 71 95 72 62 73 46 74
REMARK SMILES IDX 47 75 55 76 48 77 50 78 56 79 49 80 51 81 52 82 53 83 54 84
REMARK SMILES IDX 78 85 79 86 87 87 80 88 82 89 88 90 81 91 83 92 84 93 85 94
REMARK SMILES IDX 86 95 63 96 64 97 72 98 65 99 67 100 73 101 66 102 68 103
REMARK SMILES IDX 69 104 70 105 71 106
REMARK H PARENT 8 23 93 59 61 70
REMARK Flexibility Score: inf
ROOT
ATOM      1  C   UNL     1     -10.030 -12.349   1.050  1.00  0.00     0.261 C 
ENDROOT
BRANCH   1   2
ATOM      2  O   UNL     1      -9.906 -11.664  -0.218  1.00  0.00    -0.463 OA
BRANCH   2   3
ATOM      3  C   UNL     1     -11.064 -11.248  -0.791  1.00  0.00     0.313 C 
ATOM      4  O   UNL     1     -12.172 -11.509  -0.327  1.00  0.00    -0.252 OA
BRANCH   3   5
ATOM      5  C   UNL     1     -10.930 -10.398  -2.059  1.00  0.00     0.126 C 
ATOM      6  C   UNL     1     -11.807 -11.020  -3.147  1.00  0.00     0.025 C 
BRANCH   5   7
ATOM      7  C   UNL     1      -9.564 -10.039  -2.646  1.00  0.00    -0.031 A 
ATOM      8  C   UNL     1      -7.046  -9.238  -3.770  1.00  0.00     0.018 A 
ATOM      9  C   UNL     1      -7.331 -10.585  -3.475  1.00  0.00     0.012 A 
ATOM     10  C   UNL     1      -8.052  -8.307  -3.492  1.00  0.00     0.131 A 
ATOM     11  C   UNL     1      -8.569 -10.982  -2.931  1.00  0.00     0.005 A 
ATOM     12  C   UNL     1      -9.286  -8.692  -2.952  1.00  0.00     0.044 A 
ATOM     13  F   UNL     1      -7.862  -7.005  -3.760  1.00  0.00    -0.206 F 
BRANCH   8  14
ATOM     14  C   UNL     1      -5.764  -8.840  -4.388  1.00  0.00    -0.012 A 
ATOM     15  C   UNL     1      -3.728  -7.508  -4.441  1.00  0.00     0.133 A 
ATOM     16  C   UNL     1      -3.353  -8.069  -5.659  1.00  0.00     0.047 A 
ATOM     17  C   UNL     1      -4.923  -7.873  -3.807  1.00  0.00     0.056 A 
ATOM     18  C   UNL     1      -4.172  -9.028  -6.244  1.00  0.00     0.004 A 
ATOM     19  C   UNL     1      -5.364  -9.408  -5.615  1.00  0.00     0.009 A 
BRANCH  15  20
ATOM     20  O   UNL     1      -2.926  -6.466  -3.947  1.00  0.00    -0.410 OA
BRANCH  20  21
ATOM     21  C   UNL     1      -2.319  -6.663  -2.718  1.00  0.00     0.412 C 
ATOM     22  N   UNL     1      -1.558  -5.602  -2.312  1.00  0.00    -0.321 N 
ATOM     23  H   UNL     1      -1.181  -5.656  -1.404  1.00  0.00     0.167 HD
ATOM     24  O   UNL     1      -2.391  -7.685  -2.035  1.00  0.00    -0.224 OA
BRANCH  22  25
ATOM     25  C   UNL     1      -1.244  -4.406  -3.072  1.00  0.00     0.119 C 
BRANCH  25  26
ATOM     26  C   UNL     1      -1.705  -3.123  -2.380  1.00  0.00     0.021 C 
BRANCH  26  27
ATOM     27  C   UNL     1      -1.077  -2.863  -1.004  1.00  0.00     0.002 C 
BRANCH  27  28
ATOM     28  C   UNL     1       0.452  -2.753  -0.984  1.00  0.00     0.000 C 
BRANCH  28  29
ATOM     29  C   UNL     1       1.040  -1.601  -1.806  1.00  0.00    -0.000 C 
BRANCH  29  30
ATOM     30  C   UNL     1       0.596  -0.198  -1.384  1.00  0.00    -0.003 C 
ATOM     31  C   UNL     1       0.984   0.158   0.044  1.00  0.00     0.004 C 
ENDBRANCH  29  30
ENDBRANCH  28  29
ENDBRANCH  27  28
ENDBRANCH  26  27
ENDBRANCH  25  26
ENDBRANCH  22  25
ENDBRANCH  20  21
ENDBRANCH  15  20
ENDBRANCH   8  14
ENDBRANCH   5   7
ENDBRANCH   3   5
ENDBRANCH   2   3
ENDBRANCH   1   2
BRANCH   1  32
ATOM     32  C   UNL     1      -9.154 -11.791   2.182  1.00  0.00     0.202 C 
BRANCH  32  33
ATOM     33  O   UNL     1      -9.299 -10.421   2.531  1.00  0.00    -0.376 OA
BRANCH  33  34
ATOM     34  C   UNL     1      -9.160  -9.427   1.523  1.00  0.00     0.188 C 
BRANCH  34  35
ATOM     35  C   UNL     1      -8.074  -9.601   0.452  1.00  0.00     0.188 C 
BRANCH  35  36
ATOM     36  O   UNL     1      -7.164 -10.653   0.703  1.00  0.00    -0.376 OA
BRANCH  36  37
ATOM     37  C   UNL     1      -5.794 -10.304   0.749  1.00  0.00     0.202 C 
BRANCH  37  38
ATOM     38  C   UNL     1      -5.391  -9.403   1.925  1.00  0.00     0.261 C 
BRANCH  38  39
ATOM     39  O   UNL     1      -6.159  -8.196   2.085  1.00  0.00    -0.460 OA
BRANCH  39  40
ATOM     40  C   UNL     1      -5.987  -7.224   1.164  1.00  0.00     0.338 C 
ATOM     41  O   UNL     1      -5.224  -7.249   0.205  1.00  0.00    -0.246 OA
BRANCH  40  42
ATOM     42  C   UNL     1      -7.040  -6.207   1.363  1.00  0.00     0.060 A 
ATOM     43  C   UNL     1      -7.925  -5.923   0.312  1.00  0.00     0.016 A 
ATOM     44  C   UNL     1      -7.162  -5.541   2.585  1.00  0.00     0.016 A 
ATOM     45  C   UNL     1      -8.917  -4.954   0.473  1.00  0.00     0.010 A 
ATOM     46  C   UNL     1      -8.142  -4.557   2.736  1.00  0.00     0.010 A 
ATOM     47  C   UNL     1      -9.006  -4.236   1.673  1.00  0.00    -0.014 A 
BRANCH  47  48
ATOM     48  C   UNL     1      -9.880  -3.039   1.770  1.00  0.00     0.031 A 
ATOM     49  C   UNL     1      -9.253  -1.679   1.624  1.00  0.00     0.074 A 
ATOM     50  C   UNL     1     -11.198  -3.149   2.013  1.00  0.00     0.049 A 
ATOM     51  N   UNL     1      -9.796  -0.496   1.748  1.00  0.00    -0.248 NA
ATOM     52  C   UNL     1      -7.816  -1.650   1.302  1.00  0.00     0.031 C 
ATOM     53  C   UNL     1     -11.929  -4.405   2.170  1.00  0.00     0.029 A 
ATOM     54  N   UNL     1     -12.151  -2.178   2.204  1.00  0.00    -0.354 N 
ATOM     55  C   UNL     1      -8.765   0.416   1.556  1.00  0.00     0.074 A 
ATOM     56  C   UNL     1      -7.562  -0.350   1.314  1.00  0.00     0.031 C 
ATOM     57  C   UNL     1     -13.210  -4.128   2.470  1.00  0.00     0.029 A 
ATOM     58  C   UNL     1     -13.383  -2.678   2.556  1.00  0.00     0.049 A 
ATOM     59  H   UNL     1     -11.970  -1.216   2.100  1.00  0.00     0.167 HD
ATOM     60  C   UNL     1      -8.815   1.769   1.571  1.00  0.00     0.034 A 
ATOM     61  C   UNL     1     -14.510  -2.041   2.933  1.00  0.00     0.034 A 
ATOM     62  C   UNL     1     -10.013   2.531   1.797  1.00  0.00     0.049 A 
ATOM     63  C   UNL     1     -14.533  -0.533   2.970  1.00  0.00     0.074 A 
ATOM     64  C   UNL     1     -10.172   3.906   1.778  1.00  0.00     0.029 A 
ATOM     65  N   UNL     1     -11.251   1.990   2.104  1.00  0.00    -0.354 N 
ATOM     66  N   UNL     1     -13.581   0.318   2.670  1.00  0.00    -0.248 NA
ATOM     67  C   UNL     1     -15.798   0.105   3.368  1.00  0.00     0.031 C 
ATOM     68  C   UNL     1     -11.499   4.196   2.110  1.00  0.00     0.029 A 
ATOM     69  C   UNL     1     -12.176   3.002   2.293  1.00  0.00     0.049 A 
ATOM     70  H   UNL     1     -11.444   1.027   2.176  1.00  0.00     0.167 HD
ATOM     71  C   UNL     1     -14.141   1.585   2.804  1.00  0.00     0.074 A 
ATOM     72  C   UNL     1     -15.522   1.391   3.195  1.00  0.00     0.031 C 
ATOM     73  C   UNL     1     -13.562   2.799   2.631  1.00  0.00     0.034 A 
BRANCH  60  74
ATOM     74  C   UNL     1      -7.532   2.518   1.322  1.00  0.00     0.023 A 
ATOM     75  C   UNL     1      -6.969   2.536   0.030  1.00  0.00     0.012 A 
ATOM     76  C   UNL     1      -6.916   3.251   2.355  1.00  0.00     0.148 A 
ATOM     77  C   UNL     1      -5.794   3.244  -0.223  1.00  0.00     0.002 A 
ATOM     78  C   UNL     1      -5.772   3.992   2.085  1.00  0.00     0.091 A 
ATOM     79  F   UNL     1      -7.455   3.203   3.582  1.00  0.00    -0.205 F 
ATOM     80  C   UNL     1      -5.203   3.979   0.801  1.00  0.00     0.022 A 
BRANCH  78  81
ATOM     81  S   UNL     1      -4.981   5.036   3.313  1.00  0.00     0.127 S 
ATOM     82  O   UNL     1      -3.730   4.317   3.550  1.00  0.00    -0.237 OA
ATOM     83  O   UNL     1      -4.831   6.299   2.590  1.00  0.00    -0.237 OA
ATOM     84  O   UNL     1      -5.894   5.089   4.446  1.00  0.00    -0.744 OA
ENDBRANCH  78  81
ENDBRANCH  60  74
BRANCH  61  85
ATOM     85  C   UNL     1     -15.728  -2.823   3.294  1.00  0.00     0.023 A 
ATOM     86  C   UNL     1     -16.864  -2.766   2.463  1.00  0.00     0.012 A 
ATOM     87  C   UNL     1     -15.766  -3.619   4.455  1.00  0.00     0.148 A 
ATOM     88  C   UNL     1     -18.027  -3.461   2.799  1.00  0.00     0.002 A 
ATOM     89  C   UNL     1     -16.908  -4.353   4.754  1.00  0.00     0.091 A 
ATOM     90  F   UNL     1     -14.682  -3.645   5.242  1.00  0.00    -0.205 F 
ATOM     91  C   UNL     1     -18.046  -4.261   3.937  1.00  0.00     0.022 A 
BRANCH  89  92
ATOM     92  S   UNL     1     -16.985  -5.502   6.133  1.00  0.00     0.127 S 
ATOM     93  O   UNL     1     -17.942  -4.842   7.018  1.00  0.00    -0.237 OA
ATOM     94  O   UNL     1     -17.481  -6.715   5.484  1.00  0.00    -0.237 OA
ATOM     95  O   UNL     1     -15.623  -5.602   6.639  1.00  0.00    -0.744 OA
ENDBRANCH  89  92
ENDBRANCH  61  85
BRANCH  73  96
ATOM     96  C   UNL     1     -14.424   4.025   2.810  1.00  0.00     0.023 A 
ATOM     97  C   UNL     1     -14.854   4.405   4.096  1.00  0.00     0.012 A 
ATOM     98  C   UNL     1     -14.742   4.843   1.706  1.00  0.00     0.148 A 
ATOM     99  C   UNL     1     -15.617   5.559   4.277  1.00  0.00     0.002 A 
ATOM    100  C   UNL     1     -15.458   6.018   1.900  1.00  0.00     0.091 A 
ATOM    101  F   UNL     1     -14.337   4.457   0.487  1.00  0.00    -0.205 F 
ATOM    102  C   UNL     1     -15.909   6.371   3.182  1.00  0.00     0.022 A 
BRANCH 100 103
ATOM    103  S   UNL     1     -15.794   7.175   0.567  1.00  0.00     0.127 S 
ATOM    104  O   UNL     1     -17.234   7.006   0.382  1.00  0.00    -0.237 OA
ATOM    105  O   UNL     1     -15.401   8.454   1.161  1.00  0.00    -0.237 OA
ATOM    106  O   UNL     1     -14.967   6.750  -0.554  1.00  0.00    -0.744 OA
ENDBRANCH 100 103
ENDBRANCH  73  96
ENDBRANCH  47  48
ENDBRANCH  40  42
ENDBRANCH  39  40
ENDBRANCH  38  39
ENDBRANCH  37  38
ENDBRANCH  36  37
ENDBRANCH  35  36
ENDBRANCH  34  35
ENDBRANCH  33  34
ENDBRANCH  32  33
ENDBRANCH   1  32
TORSDOF 30
