REMARK SMILES CCn1c(C)cc(/C=C(/C(=O)OCCOCCOCCOC(=O)c2ccc(-c3c4nc(c(-c5cccc(S(=O)(=O)[O-])c5F)c5ccc([nH]5)c(-c5cccc(S(=O)(=O)[O-])c5F)c5nc(c(-c6cccc(S(=O)(=O)[O-])c6F)c6ccc3[nH]6)C=C5)C=C4)cc2)c2ccccc2)c1C
REMARK SMILES IDX 17 1 16 2 15 3 14 4 13 5 12 6 10 7 11 8 9 9 8 10 7 11 3 12
REMARK SMILES IDX 4 13 93 14 5 15 6 16 94 17 2 18 1 19 87 20 88 21 92 22 89 23
REMARK SMILES IDX 91 24 90 25 18 26 19 27 20 28 21 29 22 30 23 31 24 32 25 33
REMARK SMILES IDX 86 34 26 35 85 36 27 37 28 38 29 39 79 40 30 41 84 42 78 43
REMARK SMILES IDX 80 44 31 45 83 46 77 47 76 48 32 50 64 51 44 52 63 53 45 54
REMARK SMILES IDX 48 55 62 56 81 57 46 58 47 59 61 61 82 62 49 63 33 64 34 65
REMARK SMILES IDX 42 66 35 67 37 68 43 69 36 70 38 71 39 72 40 73 41 74 65 75
REMARK SMILES IDX 66 76 74 77 67 78 69 79 75 80 68 81 70 82 71 83 72 84 73 85
REMARK SMILES IDX 50 86 51 87 59 88 52 89 54 90 60 91 53 92 55 93 56 94 57 95
REMARK SMILES IDX 58 96
REMARK H PARENT 80 49 48 60
REMARK Flexibility Score: inf
ROOT
ATOM      1  C   UNL     1       1.073  -1.178   9.148  1.00  0.00     0.188 C 
ENDROOT
BRANCH   1   2
ATOM      2  C   UNL     1       2.495  -1.684   9.451  1.00  0.00     0.188 C 
BRANCH   2   3
ATOM      3  O   UNL     1       3.068  -1.120  10.607  1.00  0.00    -0.376 OA
BRANCH   3   4
ATOM      4  C   UNL     1       4.005  -0.065  10.521  1.00  0.00     0.202 C 
BRANCH   4   5
ATOM      5  C   UNL     1       4.084   0.974   9.382  1.00  0.00     0.261 C 
BRANCH   5   6
ATOM      6  O   UNL     1       3.337   0.710   8.187  1.00  0.00    -0.460 OA
BRANCH   6   7
ATOM      7  C   UNL     1       4.053   0.316   7.111  1.00  0.00     0.338 C 
ATOM      8  O   UNL     1       5.288   0.201   7.074  1.00  0.00    -0.246 OA
BRANCH   7   9
ATOM      9  C   UNL     1       3.179  -0.072   5.966  1.00  0.00     0.067 C 
ATOM     10  C   UNL     1       2.383   0.888   5.440  1.00  0.00     0.026 C 
BRANCH  10  11
ATOM     11  C   UNL     1       1.630   0.955   4.209  1.00  0.00    -0.004 A 
ATOM     12  N   UNL     1       0.654   0.602   2.220  1.00  0.00    -0.349 N 
ATOM     13  C   UNL     1       0.641   1.965   2.414  1.00  0.00     0.015 A 
ATOM     14  C   UNL     1       1.067  -0.020   3.392  1.00  0.00     0.022 A 
ATOM     15  C   UNL     1       0.056   2.938   1.456  1.00  0.00     0.064 C 
ATOM     16  C   UNL     1       1.276   2.203   3.616  1.00  0.00     0.031 A 
ATOM     17  C   UNL     1       0.843  -1.479   3.578  1.00  0.00     0.065 C 
BRANCH  12  18
ATOM     18  C   UNL     1       0.218  -0.087   1.008  1.00  0.00     0.118 C 
ATOM     19  C   UNL     1       1.037   0.239  -0.233  1.00  0.00     0.027 C 
ENDBRANCH  12  18
ENDBRANCH  10  11
BRANCH   9  20
ATOM     20  C   UNL     1       3.404  -1.409   5.401  1.00  0.00    -0.011 A 
ATOM     21  C   UNL     1       2.739  -2.520   5.946  1.00  0.00     0.009 A 
ATOM     22  C   UNL     1       4.263  -1.594   4.316  1.00  0.00     0.009 A 
ATOM     23  C   UNL     1       2.884  -3.785   5.382  1.00  0.00     0.001 A 
ATOM     24  C   UNL     1       4.409  -2.863   3.752  1.00  0.00     0.001 A 
ATOM     25  C   UNL     1       3.711  -3.953   4.276  1.00  0.00     0.000 A 
ENDBRANCH   9  20
ENDBRANCH   7   9
ENDBRANCH   6   7
ENDBRANCH   5   6
ENDBRANCH   4   5
ENDBRANCH   3   4
ENDBRANCH   2   3
ENDBRANCH   1   2
BRANCH   1  26
ATOM     26  O   UNL     1       0.557  -0.157   9.984  1.00  0.00    -0.376 OA
BRANCH  26  27
ATOM     27  C   UNL     1       0.476  -0.425  11.387  1.00  0.00     0.202 C 
BRANCH  27  28
ATOM     28  C   UNL     1      -0.331  -1.653  11.912  1.00  0.00     0.261 C 
BRANCH  28  29
ATOM     29  O   UNL     1       0.300  -2.963  12.178  1.00  0.00    -0.460 OA
BRANCH  29  30
ATOM     30  C   UNL     1      -0.350  -4.074  11.665  1.00  0.00     0.338 C 
ATOM     31  O   UNL     1      -0.993  -4.013  10.623  1.00  0.00    -0.246 OA
BRANCH  30  32
ATOM     32  C   UNL     1      -0.165  -5.421  12.414  1.00  0.00     0.060 A 
ATOM     33  C   UNL     1       0.543  -6.452  11.807  1.00  0.00     0.016 A 
ATOM     34  C   UNL     1      -0.897  -5.840  13.551  1.00  0.00     0.016 A 
ATOM     35  C   UNL     1       0.581  -7.792  12.366  1.00  0.00     0.010 A 
ATOM     36  C   UNL     1      -0.910  -7.236  14.078  1.00  0.00     0.010 A 
ATOM     37  C   UNL     1      -0.155  -8.284  13.518  1.00  0.00    -0.014 A 
BRANCH  37  38
ATOM     38  C   UNL     1      -0.337  -9.944  13.665  1.00  0.00     0.031 A 
ATOM     39  C   UNL     1      -0.540 -10.335  12.239  1.00  0.00     0.074 A 
ATOM     40  C   UNL     1      -0.493 -11.036  14.557  1.00  0.00     0.049 A 
ATOM     41  N   UNL     1      -1.473  -9.751  11.536  1.00  0.00    -0.248 NA
ATOM     42  C   UNL     1       0.470 -11.021  11.430  1.00  0.00     0.031 C 
ATOM     43  C   UNL     1      -0.658 -11.001  16.025  1.00  0.00     0.029 A 
ATOM     44  N   UNL     1      -0.551 -12.486  14.382  1.00  0.00    -0.354 N 
ATOM     45  C   UNL     1      -1.427 -10.323  10.301  1.00  0.00     0.074 A 
ATOM     46  C   UNL     1      -0.066 -10.836  10.216  1.00  0.00     0.031 C 
ATOM     47  C   UNL     1      -0.625 -12.248  16.596  1.00  0.00     0.029 A 
ATOM     48  C   UNL     1      -0.489 -13.308  15.594  1.00  0.00     0.049 A 
ATOM     49  H   UNL     1      -0.629 -12.893  13.489  1.00  0.00     0.167 HD
ATOM     50  C   UNL     1      -2.589 -10.922   9.907  1.00  0.00     0.034 A 
ATOM     51  C   UNL     1      -0.432 -14.701  15.806  1.00  0.00     0.034 A 
ATOM     52  C   UNL     1      -2.512 -12.355   9.954  1.00  0.00     0.049 A 
ATOM     53  C   UNL     1      -1.085 -15.301  14.637  1.00  0.00     0.074 A 
ATOM     54  C   UNL     1      -1.514 -13.259   9.642  1.00  0.00     0.029 A 
ATOM     55  N   UNL     1      -3.369 -12.993  10.820  1.00  0.00    -0.354 N 
ATOM     56  N   UNL     1      -2.380 -15.354  14.539  1.00  0.00    -0.248 NA
ATOM     57  C   UNL     1      -0.345 -16.030  13.612  1.00  0.00     0.031 C 
ATOM     58  C   UNL     1      -1.508 -14.169  10.718  1.00  0.00     0.029 A 
ATOM     59  C   UNL     1      -2.723 -14.078  11.380  1.00  0.00     0.049 A 
ATOM     60  H   UNL     1      -4.296 -12.721  11.011  1.00  0.00     0.167 HD
ATOM     61  C   UNL     1      -2.562 -15.601  13.213  1.00  0.00     0.074 A 
ATOM     62  C   UNL     1      -1.353 -16.271  12.772  1.00  0.00     0.031 C 
ATOM     63  C   UNL     1      -3.302 -14.684  12.550  1.00  0.00     0.034 A 
BRANCH  50  64
ATOM     64  C   UNL     1      -3.844 -10.116  10.174  1.00  0.00     0.023 A 
ATOM     65  C   UNL     1      -4.536  -9.619   9.059  1.00  0.00     0.012 A 
ATOM     66  C   UNL     1      -4.259  -9.705  11.469  1.00  0.00     0.148 A 
ATOM     67  C   UNL     1      -5.562  -8.684   9.220  1.00  0.00     0.002 A 
ATOM     68  C   UNL     1      -5.196  -8.688  11.615  1.00  0.00     0.091 A 
ATOM     69  F   UNL     1      -3.748 -10.320  12.547  1.00  0.00    -0.205 F 
ATOM     70  C   UNL     1      -5.860  -8.186  10.489  1.00  0.00     0.022 A 
BRANCH  68  71
ATOM     71  S   UNL     1      -5.430  -7.823  13.181  1.00  0.00     0.127 S 
ATOM     72  O   UNL     1      -5.453  -6.417  12.764  1.00  0.00    -0.237 OA
ATOM     73  O   UNL     1      -6.717  -8.331  13.646  1.00  0.00    -0.237 OA
ATOM     74  O   UNL     1      -4.281  -8.160  14.014  1.00  0.00    -0.744 OA
ENDBRANCH  68  71
ENDBRANCH  50  64
BRANCH  51  75
ATOM     75  C   UNL     1      -0.198 -15.910  16.831  1.00  0.00     0.023 A 
ATOM     76  C   UNL     1      -1.032 -17.090  16.718  1.00  0.00     0.012 A 
ATOM     77  C   UNL     1       1.015 -16.145  17.522  1.00  0.00     0.148 A 
ATOM     78  C   UNL     1      -0.656 -18.390  17.126  1.00  0.00     0.002 A 
ATOM     79  C   UNL     1       1.380 -17.456  17.961  1.00  0.00     0.091 A 
ATOM     80  F   UNL     1       1.864 -15.120  17.667  1.00  0.00    -0.205 F 
ATOM     81  C   UNL     1       0.563 -18.576  17.737  1.00  0.00     0.022 A 
BRANCH  79  82
ATOM     82  S   UNL     1       2.959 -17.853  18.755  1.00  0.00     0.127 S 
ATOM     83  O   UNL     1       2.561 -18.762  19.831  1.00  0.00    -0.237 OA
ATOM     84  O   UNL     1       3.691 -18.496  17.665  1.00  0.00    -0.237 OA
ATOM     85  O   UNL     1       3.492 -16.576  19.210  1.00  0.00    -0.744 OA
ENDBRANCH  79  82
ENDBRANCH  51  75
BRANCH  63  86
ATOM     86  C   UNL     1      -4.578 -14.207  13.199  1.00  0.00     0.023 A 
ATOM     87  C   UNL     1      -4.687 -13.658  14.495  1.00  0.00     0.012 A 
ATOM     88  C   UNL     1      -5.743 -14.315  12.428  1.00  0.00     0.148 A 
ATOM     89  C   UNL     1      -5.925 -13.239  14.999  1.00  0.00     0.002 A 
ATOM     90  C   UNL     1      -6.960 -13.850  12.904  1.00  0.00     0.091 A 
ATOM     91  F   UNL     1      -5.638 -14.885  11.216  1.00  0.00    -0.205 F 
ATOM     92  C   UNL     1      -7.060 -13.314  14.194  1.00  0.00     0.022 A 
BRANCH  90  93
ATOM     93  S   UNL     1      -8.407 -13.888  11.849  1.00  0.00     0.127 S 
ATOM     94  O   UNL     1      -9.079 -15.104  12.303  1.00  0.00    -0.237 OA
ATOM     95  O   UNL     1      -9.098 -12.646  12.181  1.00  0.00    -0.237 OA
ATOM     96  O   UNL     1      -7.886 -13.935  10.486  1.00  0.00    -0.744 OA
ENDBRANCH  90  93
ENDBRANCH  63  86
ENDBRANCH  37  38
ENDBRANCH  30  32
ENDBRANCH  29  30
ENDBRANCH  28  29
ENDBRANCH  27  28
ENDBRANCH  26  27
ENDBRANCH   1  26
TORSDOF 23
