REMARK SMILES COc1ccc(-c2ccc(C#N)c(S[C@@H](C)C(=O)OCCOCCOCCOC(=O)c3ccc(-c4c5nc(c(-c6cccc(S(=O)(=O)[O-])c6F)c6ccc([nH]6)c(-c6cccc(S(=O)(=O)[O-])c6F)c6nc(c(-c7cccc(S(=O)(=O)[O-])c7F)c7ccc4[nH]7)C=C6)C=C5)cc3)n2)cc1
REMARK SMILES IDX 23 1 22 2 21 3 20 4 19 5 17 6 18 7 15 8 16 9 14 10 13 11
REMARK SMILES IDX 7 12 8 13 94 14 9 15 10 16 6 17 3 18 4 19 96 20 5 21 95 22
REMARK SMILES IDX 2 23 1 24 11 25 12 26 24 27 25 28 26 29 27 30 28 31 29 32
REMARK SMILES IDX 30 33 31 34 32 35 93 36 33 37 92 38 34 39 35 40 36 41 86 42
REMARK SMILES IDX 37 43 91 44 85 45 87 46 38 47 90 48 84 49 83 50 39 52 71 53
REMARK SMILES IDX 51 54 70 55 52 56 55 57 69 58 88 59 53 60 54 61 68 63 89 64
REMARK SMILES IDX 56 65 40 66 41 67 49 68 42 69 44 70 50 71 43 72 45 73 46 74
REMARK SMILES IDX 47 75 48 76 72 77 73 78 81 79 74 80 76 81 82 82 75 83 77 84
REMARK SMILES IDX 78 85 79 86 80 87 57 88 58 89 66 90 59 91 61 92 67 93 60 94
REMARK SMILES IDX 62 95 63 96 64 97 65 98
REMARK H PARENT 87 51 55 62
REMARK Flexibility Score: inf
ROOT
ATOM      1  C   UNL     1      -0.314   1.976 -12.300  1.00  0.00     0.188 C 
ENDROOT
BRANCH   1   2
ATOM      2  O   UNL     1      -0.073   0.852 -13.130  1.00  0.00    -0.376 OA
BRANCH   2   3
ATOM      3  C   UNL     1       1.096   0.072 -12.915  1.00  0.00     0.202 C 
BRANCH   3   4
ATOM      4  C   UNL     1       2.429   0.723 -12.496  1.00  0.00     0.261 C 
BRANCH   4   5
ATOM      5  O   UNL     1       2.371   1.620 -11.362  1.00  0.00    -0.462 OA
BRANCH   5   6
ATOM      6  C   UNL     1       2.837   2.877 -11.570  1.00  0.00     0.319 C 
ATOM      7  O   UNL     1       3.287   3.247 -12.653  1.00  0.00    -0.251 OA
BRANCH   6   8
ATOM      8  C   UNL     1       2.680   3.863 -10.421  1.00  0.00     0.160 C 
ATOM      9  C   UNL     1       3.873   4.810 -10.318  1.00  0.00     0.032 C 
BRANCH   8  10
ATOM     10  S   UNL     1       2.163   3.438  -8.716  1.00  0.00    -0.090 SA
BRANCH  10  11
ATOM     11  C   UNL     1       2.655   1.820  -8.184  1.00  0.00     0.115 A 
ATOM     12  C   UNL     1       2.185   0.275  -6.460  1.00  0.00     0.072 A 
ATOM     13  C   UNL     1       3.082  -0.641  -6.988  1.00  0.00     0.030 A 
ATOM     14  N   UNL     1       1.938   1.458  -7.070  1.00  0.00    -0.240 NA
ATOM     15  C   UNL     1       3.837  -0.267  -8.090  1.00  0.00     0.024 A 
ATOM     16  C   UNL     1       3.676   1.005  -8.655  1.00  0.00     0.084 A 
BRANCH  12  17
ATOM     17  C   UNL     1       1.654   0.081  -5.103  1.00  0.00     0.000 A 
ATOM     18  C   UNL     1       0.793  -0.457  -2.461  1.00  0.00     0.118 A 
ATOM     19  C   UNL     1      -0.110  -0.491  -3.526  1.00  0.00     0.047 A 
ATOM     20  C   UNL     1       2.128  -0.153  -2.708  1.00  0.00     0.047 A 
ATOM     21  C   UNL     1       0.311  -0.207  -4.837  1.00  0.00     0.014 A 
ATOM     22  C   UNL     1       2.547   0.118  -4.013  1.00  0.00     0.014 A 
BRANCH  18  23
ATOM     23  O   UNL     1       0.297  -0.797  -1.231  1.00  0.00    -0.497 OA
ATOM     24  C   UNL     1       0.856  -0.071  -0.139  1.00  0.00     0.278 C 
ENDBRANCH  18  23
ENDBRANCH  12  17
BRANCH  16  25
ATOM     25  C   UNL     1       4.661   1.417  -9.595  1.00  0.00     0.102 C 
ATOM     26  N   UNL     1       5.504   1.716 -10.338  1.00  0.00    -0.192 NA
ENDBRANCH  16  25
ENDBRANCH  10  11
ENDBRANCH   8  10
ENDBRANCH   6   8
ENDBRANCH   5   6
ENDBRANCH   4   5
ENDBRANCH   3   4
ENDBRANCH   2   3
ENDBRANCH   1   2
BRANCH   1  27
ATOM     27  C   UNL     1      -0.347   1.752 -10.778  1.00  0.00     0.188 C 
BRANCH  27  28
ATOM     28  O   UNL     1       0.108   0.489 -10.352  1.00  0.00    -0.376 OA
BRANCH  28  29
ATOM     29  C   UNL     1      -0.856  -0.513 -10.074  1.00  0.00     0.202 C 
BRANCH  29  30
ATOM     30  C   UNL     1      -2.273  -0.563 -10.694  1.00  0.00     0.261 C 
BRANCH  30  31
ATOM     31  O   UNL     1      -2.819   0.627 -11.282  1.00  0.00    -0.460 OA
BRANCH  31  32
ATOM     32  C   UNL     1      -3.516   1.466 -10.474  1.00  0.00     0.338 C 
ATOM     33  O   UNL     1      -3.734   1.319  -9.285  1.00  0.00    -0.246 OA
BRANCH  32  34
ATOM     34  C   UNL     1      -3.773   2.715 -11.233  1.00  0.00     0.060 A 
ATOM     35  C   UNL     1      -3.085   3.890 -10.885  1.00  0.00     0.016 A 
ATOM     36  C   UNL     1      -4.660   2.717 -12.308  1.00  0.00     0.016 A 
ATOM     37  C   UNL     1      -3.269   5.062 -11.624  1.00  0.00     0.010 A 
ATOM     38  C   UNL     1      -4.871   3.902 -13.023  1.00  0.00     0.010 A 
ATOM     39  C   UNL     1      -4.185   5.083 -12.682  1.00  0.00    -0.014 A 
BRANCH  39  40
ATOM     40  C   UNL     1      -4.520   6.353 -13.375  1.00  0.00     0.031 A 
ATOM     41  C   UNL     1      -5.805   7.053 -13.030  1.00  0.00     0.074 A 
ATOM     42  C   UNL     1      -3.721   6.852 -14.336  1.00  0.00     0.049 A 
ATOM     43  N   UNL     1      -6.361   8.093 -13.594  1.00  0.00    -0.248 NA
ATOM     44  C   UNL     1      -6.568   6.500 -11.899  1.00  0.00     0.031 C 
ATOM     45  C   UNL     1      -2.441   6.283 -14.750  1.00  0.00     0.029 A 
ATOM     46  N   UNL     1      -3.896   7.932 -15.169  1.00  0.00    -0.354 N 
ATOM     47  C   UNL     1      -7.558   8.296 -12.919  1.00  0.00     0.074 A 
ATOM     48  C   UNL     1      -7.646   7.271 -11.900  1.00  0.00     0.031 C 
ATOM     49  C   UNL     1      -1.964   6.993 -15.788  1.00  0.00     0.029 A 
ATOM     50  C   UNL     1      -2.926   8.037 -16.139  1.00  0.00     0.049 A 
ATOM     51  H   UNL     1      -4.642   8.568 -15.080  1.00  0.00     0.167 HD
ATOM     52  C   UNL     1      -8.498   9.248 -13.127  1.00  0.00     0.034 A 
ATOM     53  C   UNL     1      -2.846   8.848 -17.214  1.00  0.00     0.034 A 
ATOM     54  C   UNL     1      -8.406  10.266 -14.139  1.00  0.00     0.049 A 
ATOM     55  C   UNL     1      -3.936   9.860 -17.462  1.00  0.00     0.074 A 
ATOM     56  C   UNL     1      -9.283  11.306 -14.392  1.00  0.00     0.029 A 
ATOM     57  N   UNL     1      -7.398  10.356 -15.086  1.00  0.00    -0.354 N 
ATOM     58  N   UNL     1      -5.004  10.118 -16.746  1.00  0.00    -0.248 NA
ATOM     59  C   UNL     1      -3.800  10.707 -18.657  1.00  0.00     0.031 C 
ATOM     60  C   UNL     1      -8.835  11.991 -15.526  1.00  0.00     0.029 A 
ATOM     61  C   UNL     1      -7.650  11.411 -15.947  1.00  0.00     0.049 A 
ATOM     62  H   UNL     1      -6.618   9.758 -15.139  1.00  0.00     0.167 HD
ATOM     63  C   UNL     1      -5.651  11.170 -17.388  1.00  0.00     0.074 A 
ATOM     64  C   UNL     1      -4.840  11.522 -18.535  1.00  0.00     0.031 C 
ATOM     65  C   UNL     1      -6.820  11.779 -17.067  1.00  0.00     0.034 A 
BRANCH  52  66
ATOM     66  C   UNL     1      -9.720   9.233 -12.245  1.00  0.00     0.023 A 
ATOM     67  C   UNL     1      -9.614   9.590 -10.886  1.00  0.00     0.012 A 
ATOM     68  C   UNL     1     -10.985   8.921 -12.781  1.00  0.00     0.148 A 
ATOM     69  C   UNL     1     -10.743   9.601 -10.066  1.00  0.00     0.002 A 
ATOM     70  C   UNL     1     -12.111   8.982 -11.971  1.00  0.00     0.091 A 
ATOM     71  F   UNL     1     -11.062   8.567 -14.072  1.00  0.00    -0.205 F 
ATOM     72  C   UNL     1     -11.990   9.309 -10.610  1.00  0.00     0.022 A 
BRANCH  70  73
ATOM     73  S   UNL     1     -13.772   8.702 -12.593  1.00  0.00     0.127 S 
ATOM     74  O   UNL     1     -14.137   7.462 -11.909  1.00  0.00    -0.237 OA
ATOM     75  O   UNL     1     -14.480   9.891 -12.119  1.00  0.00    -0.237 OA
ATOM     76  O   UNL     1     -13.651   8.600 -14.040  1.00  0.00    -0.744 OA
ENDBRANCH  70  73
ENDBRANCH  52  66
BRANCH  53  77
ATOM     77  C   UNL     1      -1.693   8.733 -18.154  1.00  0.00     0.023 A 
ATOM     78  C   UNL     1      -0.767   9.790 -18.254  1.00  0.00     0.012 A 
ATOM     79  C   UNL     1      -1.514   7.586 -18.952  1.00  0.00     0.148 A 
ATOM     80  C   UNL     1       0.298   9.719 -19.153  1.00  0.00     0.002 A 
ATOM     81  C   UNL     1      -0.419   7.497 -19.802  1.00  0.00     0.091 A 
ATOM     82  F   UNL     1      -2.416   6.599 -18.855  1.00  0.00    -0.205 F 
ATOM     83  C   UNL     1       0.478   8.569 -19.919  1.00  0.00     0.022 A 
BRANCH  81  84
ATOM     84  S   UNL     1      -0.041   6.013 -20.742  1.00  0.00     0.127 S 
ATOM     85  O   UNL     1      -0.214   6.478 -22.116  1.00  0.00    -0.237 OA
ATOM     86  O   UNL     1       1.344   5.756 -20.348  1.00  0.00    -0.237 OA
ATOM     87  O   UNL     1      -0.994   5.007 -20.296  1.00  0.00    -0.744 OA
ENDBRANCH  81  84
ENDBRANCH  53  77
BRANCH  65  88
ATOM     88  C   UNL     1      -7.294  12.909 -17.947  1.00  0.00     0.023 A 
ATOM     89  C   UNL     1      -7.772  12.636 -19.244  1.00  0.00     0.012 A 
ATOM     90  C   UNL     1      -7.344  14.230 -17.458  1.00  0.00     0.148 A 
ATOM     91  C   UNL     1      -8.262  13.664 -20.051  1.00  0.00     0.002 A 
ATOM     92  C   UNL     1      -7.882  15.240 -18.247  1.00  0.00     0.091 A 
ATOM     93  F   UNL     1      -6.876  14.472 -16.225  1.00  0.00    -0.205 F 
ATOM     94  C   UNL     1      -8.329  14.961 -19.549  1.00  0.00     0.022 A 
BRANCH  92  95
ATOM     95  S   UNL     1      -8.094  16.924 -17.659  1.00  0.00     0.127 S 
ATOM     96  O   UNL     1      -7.184  17.663 -18.534  1.00  0.00    -0.237 OA
ATOM     97  O   UNL     1      -9.514  17.162 -17.916  1.00  0.00    -0.237 OA
ATOM     98  O   UNL     1      -7.723  16.912 -16.250  1.00  0.00    -0.744 OA
ENDBRANCH  92  95
ENDBRANCH  65  88
ENDBRANCH  39  40
ENDBRANCH  32  34
ENDBRANCH  31  32
ENDBRANCH  30  31
ENDBRANCH  29  30
ENDBRANCH  28  29
ENDBRANCH  27  28
ENDBRANCH   1  27
TORSDOF 25
