REMARK SMILES CCNC(=O)N1[C@@H](C(=O)OCCOCCOCCOC(=O)c2ccc(-c3c4nc(c(-c5cccc(S(=O)(=O)[O-])c5F)c5ccc([nH]5)c(-c5cccc(S(=O)(=O)[O-])c5F)c5nc(c(-c6cccc(S(=O)(=O)[O-])c6F)c6ccc3[nH]6)C=C5)C=C4)cc2)CC[C@@H]2CCCC[C@H]21
REMARK SMILES IDX 15 1 14 2 13 3 12 4 11 5 10 6 8 7 9 8 7 9 6 10 92 11 85 12
REMARK SMILES IDX 87 13 91 14 86 15 88 16 90 17 89 18 4 19 3 20 5 22 2 23 1 24
REMARK SMILES IDX 16 25 17 26 18 27 19 28 20 29 21 30 22 31 23 32 84 33 24 34
REMARK SMILES IDX 83 35 25 36 26 37 27 38 77 39 28 40 82 41 76 42 78 43 29 44
REMARK SMILES IDX 81 45 75 46 74 47 30 49 62 50 42 51 61 52 43 53 46 54 60 55
REMARK SMILES IDX 79 56 44 57 45 58 59 60 80 61 47 62 31 63 32 64 40 65 33 66
REMARK SMILES IDX 35 67 41 68 34 69 36 70 37 71 38 72 39 73 63 74 64 75 72 76
REMARK SMILES IDX 65 77 67 78 73 79 66 80 68 81 69 82 70 83 71 84 48 85 49 86
REMARK SMILES IDX 57 87 50 88 52 89 58 90 51 91 53 92 54 93 55 94 56 95
REMARK H PARENT 3 21 78 48 46 59
REMARK Flexibility Score: inf
ROOT
ATOM      1  C   UNL     1      -2.587  -2.219  -4.628  1.00  0.00     0.188 C 
ENDROOT
BRANCH   1   2
ATOM      2  C   UNL     1      -1.640  -1.058  -4.938  1.00  0.00     0.188 C 
BRANCH   2   3
ATOM      3  O   UNL     1      -0.438  -1.369  -5.596  1.00  0.00    -0.376 OA
BRANCH   3   4
ATOM      4  C   UNL     1       0.581  -2.126  -4.972  1.00  0.00     0.202 C 
BRANCH   4   5
ATOM      5  C   UNL     1       0.696  -2.462  -3.474  1.00  0.00     0.261 C 
BRANCH   5   6
ATOM      6  O   UNL     1      -0.425  -3.013  -2.768  1.00  0.00    -0.462 OA
BRANCH   6   7
ATOM      7  C   UNL     1      -1.038  -2.144  -1.913  1.00  0.00     0.329 C 
ATOM      8  O   UNL     1      -0.874  -0.928  -1.948  1.00  0.00    -0.250 OA
BRANCH   7   9
ATOM      9  C   UNL     1      -1.940  -2.811  -0.865  1.00  0.00     0.197 C 
ATOM     10  N   UNL     1      -1.335  -3.154   0.441  1.00  0.00    -0.308 N 
ATOM     11  C   UNL     1      -2.291  -3.669   1.451  1.00  0.00     0.091 C 
ATOM     12  C   UNL     1      -2.828  -3.936  -1.413  1.00  0.00     0.038 C 
ATOM     13  C   UNL     1      -3.290  -4.716   0.892  1.00  0.00     0.012 C 
ATOM     14  C   UNL     1      -1.658  -4.234   2.739  1.00  0.00     0.025 C 
ATOM     15  C   UNL     1      -3.929  -4.244  -0.408  1.00  0.00     0.008 C 
ATOM     16  C   UNL     1      -4.382  -5.025   1.926  1.00  0.00     0.006 C 
ATOM     17  C   UNL     1      -2.720  -4.607   3.776  1.00  0.00     0.002 C 
ATOM     18  C   UNL     1      -3.770  -5.562   3.213  1.00  0.00     0.000 C 
BRANCH  10  19
ATOM     19  C   UNL     1      -0.008  -3.512   0.483  1.00  0.00     0.318 C 
ATOM     20  N   UNL     1       0.912  -2.501   0.433  1.00  0.00    -0.338 N 
ATOM     21  H   UNL     1       1.849  -2.792   0.506  1.00  0.00     0.165 HD
ATOM     22  O   UNL     1       0.382  -4.666   0.641  1.00  0.00    -0.249 OA
BRANCH  20  23
ATOM     23  C   UNL     1       0.730  -1.061   0.290  1.00  0.00     0.114 C 
ATOM     24  C   UNL     1       1.593  -0.220   1.205  1.00  0.00     0.027 C 
ENDBRANCH  20  23
ENDBRANCH  10  19
ENDBRANCH   7   9
ENDBRANCH   6   7
ENDBRANCH   5   6
ENDBRANCH   4   5
ENDBRANCH   3   4
ENDBRANCH   2   3
ENDBRANCH   1   2
BRANCH   1  25
ATOM     25  O   UNL     1      -2.413  -3.491  -5.214  1.00  0.00    -0.376 OA
BRANCH  25  26
ATOM     26  C   UNL     1      -2.219  -3.548  -6.617  1.00  0.00     0.202 C 
BRANCH  26  27
ATOM     27  C   UNL     1      -3.144  -2.772  -7.578  1.00  0.00     0.261 C 
BRANCH  27  28
ATOM     28  O   UNL     1      -3.665  -1.514  -7.112  1.00  0.00    -0.460 OA
BRANCH  28  29
ATOM     29  C   UNL     1      -4.953  -1.533  -6.666  1.00  0.00     0.338 C 
ATOM     30  O   UNL     1      -5.715  -2.479  -6.698  1.00  0.00    -0.246 OA
BRANCH  29  31
ATOM     31  C   UNL     1      -5.234  -0.293  -5.889  1.00  0.00     0.060 A 
ATOM     32  C   UNL     1      -5.632  -0.428  -4.547  1.00  0.00     0.016 A 
ATOM     33  C   UNL     1      -5.125   0.977  -6.454  1.00  0.00     0.016 A 
ATOM     34  C   UNL     1      -5.943   0.695  -3.777  1.00  0.00     0.010 A 
ATOM     35  C   UNL     1      -5.476   2.102  -5.690  1.00  0.00     0.010 A 
ATOM     36  C   UNL     1      -5.918   1.966  -4.359  1.00  0.00    -0.014 A 
BRANCH  36  37
ATOM     37  C   UNL     1      -6.536   3.114  -3.642  1.00  0.00     0.031 A 
ATOM     38  C   UNL     1      -7.943   3.517  -4.005  1.00  0.00     0.074 A 
ATOM     39  C   UNL     1      -5.883   3.787  -2.675  1.00  0.00     0.049 A 
ATOM     40  N   UNL     1      -8.671   4.501  -3.546  1.00  0.00    -0.248 NA
ATOM     41  C   UNL     1      -8.616   2.696  -5.026  1.00  0.00     0.031 C 
ATOM     42  C   UNL     1      -4.531   3.497  -2.205  1.00  0.00     0.029 A 
ATOM     43  N   UNL     1      -6.272   4.877  -1.933  1.00  0.00    -0.354 N 
ATOM     44  C   UNL     1      -9.872   4.442  -4.244  1.00  0.00     0.074 A 
ATOM     45  C   UNL     1      -9.772   3.328  -5.162  1.00  0.00     0.031 C 
ATOM     46  C   UNL     1      -4.187   4.410  -1.279  1.00  0.00     0.029 A 
ATOM     47  C   UNL     1      -5.284   5.363  -1.108  1.00  0.00     0.049 A 
ATOM     48  H   UNL     1      -7.172   5.273  -1.987  1.00  0.00     0.167 HD
ATOM     49  C   UNL     1     -10.966   5.233  -4.129  1.00  0.00     0.034 A 
ATOM     50  C   UNL     1      -5.256   6.463  -0.327  1.00  0.00     0.034 A 
ATOM     51  C   UNL     1     -11.081   6.333  -3.209  1.00  0.00     0.049 A 
ATOM     52  C   UNL     1      -6.476   7.349  -0.241  1.00  0.00     0.074 A 
ATOM     53  C   UNL     1     -12.169   7.161  -2.991  1.00  0.00     0.029 A 
ATOM     54  N   UNL     1     -10.072   6.775  -2.369  1.00  0.00    -0.354 N 
ATOM     55  N   UNL     1      -7.643   7.213  -0.823  1.00  0.00    -0.248 NA
ATOM     56  C   UNL     1      -6.382   8.525   0.639  1.00  0.00     0.031 C 
ATOM     57  C   UNL     1     -11.805   8.126  -2.046  1.00  0.00     0.029 A 
ATOM     58  C   UNL     1     -10.504   7.874  -1.644  1.00  0.00     0.049 A 
ATOM     59  H   UNL     1      -9.178   6.368  -2.297  1.00  0.00     0.167 HD
ATOM     60  C   UNL     1      -8.430   8.262  -0.354  1.00  0.00     0.074 A 
ATOM     61  C   UNL     1      -7.615   9.008   0.582  1.00  0.00     0.031 C 
ATOM     62  C   UNL     1      -9.706   8.588  -0.681  1.00  0.00     0.034 A 
BRANCH  49  63
ATOM     63  C   UNL     1     -12.143   4.930  -5.019  1.00  0.00     0.023 A 
ATOM     64  C   UNL     1     -12.930   3.785  -4.777  1.00  0.00     0.012 A 
ATOM     65  C   UNL     1     -12.503   5.809  -6.060  1.00  0.00     0.148 A 
ATOM     66  C   UNL     1     -14.038   3.504  -5.576  1.00  0.00     0.002 A 
ATOM     67  C   UNL     1     -13.635   5.546  -6.821  1.00  0.00     0.091 A 
ATOM     68  F   UNL     1     -11.729   6.879  -6.288  1.00  0.00    -0.205 F 
ATOM     69  C   UNL     1     -14.396   4.389  -6.590  1.00  0.00     0.022 A 
BRANCH  67  70
ATOM     70  S   UNL     1     -14.227   6.666  -8.095  1.00  0.00     0.127 S 
ATOM     71  O   UNL     1     -13.971   5.892  -9.309  1.00  0.00    -0.237 OA
ATOM     72  O   UNL     1     -15.642   6.805  -7.748  1.00  0.00    -0.237 OA
ATOM     73  O   UNL     1     -13.443   7.885  -7.957  1.00  0.00    -0.744 OA
ENDBRANCH  67  70
ENDBRANCH  49  63
BRANCH  50  74
ATOM     74  C   UNL     1      -4.032   6.795   0.459  1.00  0.00     0.023 A 
ATOM     75  C   UNL     1      -4.066   6.728   1.866  1.00  0.00     0.012 A 
ATOM     76  C   UNL     1      -2.840   7.186  -0.180  1.00  0.00     0.148 A 
ATOM     77  C   UNL     1      -2.947   7.079   2.622  1.00  0.00     0.002 A 
ATOM     78  C   UNL     1      -1.711   7.476   0.577  1.00  0.00     0.091 A 
ATOM     79  F   UNL     1      -2.833   7.266  -1.518  1.00  0.00    -0.205 F 
ATOM     80  C   UNL     1      -1.767   7.443   1.978  1.00  0.00     0.022 A 
BRANCH  78  81
ATOM     81  S   UNL     1      -0.115   7.831  -0.167  1.00  0.00     0.127 S 
ATOM     82  O   UNL     1       0.071   9.238   0.178  1.00  0.00    -0.237 OA
ATOM     83  O   UNL     1       0.760   6.900   0.547  1.00  0.00    -0.237 OA
ATOM     84  O   UNL     1      -0.268   7.543  -1.586  1.00  0.00    -0.744 OA
ENDBRANCH  78  81
ENDBRANCH  50  74
BRANCH  62  85
ATOM     85  C   UNL     1     -10.323   9.784   0.005  1.00  0.00     0.023 A 
ATOM     86  C   UNL     1      -9.868  11.084  -0.298  1.00  0.00     0.012 A 
ATOM     87  C   UNL     1     -11.386   9.624   0.917  1.00  0.00     0.148 A 
ATOM     88  C   UNL     1     -10.426  12.198   0.330  1.00  0.00     0.002 A 
ATOM     89  C   UNL     1     -11.973  10.742   1.499  1.00  0.00     0.091 A 
ATOM     90  F   UNL     1     -11.799   8.382   1.207  1.00  0.00    -0.205 F 
ATOM     91  C   UNL     1     -11.483  12.028   1.220  1.00  0.00     0.022 A 
BRANCH  89  92
ATOM     92  S   UNL     1     -13.401  10.626   2.584  1.00  0.00     0.127 S 
ATOM     93  O   UNL     1     -12.806  10.901   3.891  1.00  0.00    -0.237 OA
ATOM     94  O   UNL     1     -14.267  11.690   2.073  1.00  0.00    -0.237 OA
ATOM     95  O   UNL     1     -13.930   9.281   2.406  1.00  0.00    -0.744 OA
ENDBRANCH  89  92
ENDBRANCH  62  85
ENDBRANCH  36  37
ENDBRANCH  29  31
ENDBRANCH  28  29
ENDBRANCH  27  28
ENDBRANCH  26  27
ENDBRANCH  25  26
ENDBRANCH   1  25
TORSDOF 22
