REMARK SMILES CC(C)[NH+](CCNC(=O)N[C@@H]1C=C[C@H](C(=O)OCCOCCOCCOC(=O)c2ccc(-c3c4nc(c(-c5cccc(S(=O)(=O)[O-])c5F)c5ccc([nH]5)c(-c5cccc(S(=O)(=O)[O-])c5F)c5nc(c(-c6cccc(S(=O)(=O)[O-])c6F)c6ccc3[nH]6)C=C5)C=C4)cc2)C1)C(C)C
REMARK SMILES IDX 21 1 20 2 19 3 18 4 17 5 15 6 16 7 14 8 11 9 12 10 92 11
REMARK SMILES IDX 13 12 10 13 7 14 8 15 9 17 6 19 5 20 4 21 2 23 1 24 3 25
REMARK SMILES IDX 93 26 94 27 95 28 22 29 23 30 24 31 25 32 26 33 27 34 28 35
REMARK SMILES IDX 29 36 30 37 91 38 31 39 90 40 32 41 33 42 34 43 84 44 35 45
REMARK SMILES IDX 89 46 83 47 85 48 36 49 88 50 82 51 81 52 37 54 69 55 49 56
REMARK SMILES IDX 68 57 50 58 53 59 67 60 86 61 51 62 52 63 66 65 87 66 54 67
REMARK SMILES IDX 38 68 39 69 47 70 40 71 42 72 48 73 41 74 43 75 44 76 45 77
REMARK SMILES IDX 46 78 70 79 71 80 79 81 72 82 74 83 80 84 73 85 75 86 76 87
REMARK SMILES IDX 77 88 78 89 55 90 56 91 64 92 57 93 59 94 65 95 58 96 60 97
REMARK SMILES IDX 61 98 62 99 63 100
REMARK H PARENT 7 16 10 18 4 22 85 53 53 64
REMARK Flexibility Score: inf
ROOT
ATOM      1  C   UNL     1       1.978  -7.569  -5.405  1.00  0.00     0.188 C 
ENDROOT
BRANCH   1   2
ATOM      2  O   UNL     1       1.718  -7.239  -6.758  1.00  0.00    -0.376 OA
BRANCH   2   3
ATOM      3  C   UNL     1       0.356  -7.119  -7.139  1.00  0.00     0.202 C 
BRANCH   3   4
ATOM      4  C   UNL     1      -0.459  -6.012  -6.455  1.00  0.00     0.261 C 
BRANCH   4   5
ATOM      5  O   UNL     1      -0.275  -5.938  -5.035  1.00  0.00    -0.463 OA
BRANCH   5   6
ATOM      6  C   UNL     1      -0.917  -6.832  -4.232  1.00  0.00     0.312 C 
ATOM      7  O   UNL     1      -1.762  -7.628  -4.610  1.00  0.00    -0.252 OA
BRANCH   6   8
ATOM      8  C   UNL     1      -0.306  -6.790  -2.817  1.00  0.00     0.124 C 
ATOM      9  C   UNL     1      -2.130  -6.143  -1.387  1.00  0.00     0.107 C 
ATOM     10  C   UNL     1      -1.156  -5.017  -1.582  1.00  0.00    -0.006 C 
ATOM     11  C   UNL     1      -1.223  -7.332  -1.716  1.00  0.00     0.048 C 
ATOM     12  C   UNL     1      -0.136  -5.371  -2.364  1.00  0.00    -0.014 C 
BRANCH   9  13
ATOM     13  N   UNL     1      -3.195  -6.092  -2.371  1.00  0.00    -0.332 N 
ATOM     14  N   UNL     1      -4.474  -4.167  -1.975  1.00  0.00    -0.332 N 
ATOM     15  C   UNL     1      -4.219  -5.290  -2.636  1.00  0.00     0.315 C 
ATOM     16  H   UNL     1      -5.250  -3.679  -2.334  1.00  0.00     0.165 HD
ATOM     17  O   UNL     1      -4.980  -5.590  -3.557  1.00  0.00    -0.249 OA
ATOM     18  H   UNL     1      -3.144  -6.844  -3.005  1.00  0.00     0.165 HD
BRANCH  14  19
ATOM     19  C   UNL     1      -3.865  -3.504  -0.846  1.00  0.00     0.179 C 
BRANCH  19  20
ATOM     20  C   UNL     1      -3.146  -2.194  -1.242  1.00  0.00     0.284 C 
BRANCH  20  21
ATOM     21  N   UNL     1      -3.943  -0.952  -1.190  1.00  0.00    -0.330 N 
ATOM     22  H   UNL     1      -3.458  -0.164  -1.620  1.00  0.00     0.348 HD
BRANCH  21  23
ATOM     23  C   UNL     1      -3.986  -0.336   0.145  1.00  0.00     0.177 C 
ATOM     24  C   UNL     1      -4.648   1.038   0.221  1.00  0.00     0.075 C 
ATOM     25  C   UNL     1      -4.527  -1.219   1.278  1.00  0.00     0.075 C 
ENDBRANCH  21  23
BRANCH  21  26
ATOM     26  C   UNL     1      -5.055  -0.921  -2.150  1.00  0.00     0.177 C 
ATOM     27  C   UNL     1      -6.402  -1.470  -1.670  1.00  0.00     0.075 C 
ATOM     28  C   UNL     1      -5.272   0.460  -2.784  1.00  0.00     0.075 C 
ENDBRANCH  21  26
ENDBRANCH  20  21
ENDBRANCH  19  20
ENDBRANCH  14  19
ENDBRANCH   9  13
ENDBRANCH   6   8
ENDBRANCH   5   6
ENDBRANCH   4   5
ENDBRANCH   3   4
ENDBRANCH   2   3
ENDBRANCH   1   2
BRANCH   1  29
ATOM     29  C   UNL     1       2.595  -6.391  -4.612  1.00  0.00     0.188 C 
BRANCH  29  30
ATOM     30  O   UNL     1       3.127  -5.266  -5.292  1.00  0.00    -0.376 OA
BRANCH  30  31
ATOM     31  C   UNL     1       3.877  -5.498  -6.470  1.00  0.00     0.202 C 
BRANCH  31  32
ATOM     32  C   UNL     1       5.062  -6.481  -6.417  1.00  0.00     0.261 C 
BRANCH  32  33
ATOM     33  O   UNL     1       4.842  -7.738  -5.741  1.00  0.00    -0.460 OA
BRANCH  33  34
ATOM     34  C   UNL     1       5.398  -7.877  -4.510  1.00  0.00     0.338 C 
ATOM     35  O   UNL     1       6.101  -7.055  -3.933  1.00  0.00    -0.246 OA
BRANCH  34  36
ATOM     36  C   UNL     1       4.879  -9.094  -3.834  1.00  0.00     0.060 A 
ATOM     37  C   UNL     1       4.182  -8.958  -2.620  1.00  0.00     0.016 A 
ATOM     38  C   UNL     1       5.120 -10.367  -4.351  1.00  0.00     0.016 A 
ATOM     39  C   UNL     1       3.751 -10.086  -1.912  1.00  0.00     0.010 A 
ATOM     40  C   UNL     1       4.712 -11.497  -3.625  1.00  0.00     0.010 A 
ATOM     41  C   UNL     1       4.054 -11.367  -2.386  1.00  0.00    -0.014 A 
BRANCH  41  42
ATOM     42  C   UNL     1       3.858 -12.562  -1.520  1.00  0.00     0.031 A 
ATOM     43  C   UNL     1       5.053 -13.138  -0.804  1.00  0.00     0.074 A 
ATOM     44  C   UNL     1       2.657 -13.157  -1.389  1.00  0.00     0.049 A 
ATOM     45  N   UNL     1       5.149 -14.227  -0.087  1.00  0.00    -0.248 NA
ATOM     46  C   UNL     1       6.312 -12.384  -0.923  1.00  0.00     0.031 C 
ATOM     47  C   UNL     1       1.415 -12.702  -2.008  1.00  0.00     0.029 A 
ATOM     48  N   UNL     1       2.299 -14.303  -0.718  1.00  0.00    -0.354 N 
ATOM     49  C   UNL     1       6.483 -14.316   0.293  1.00  0.00     0.074 A 
ATOM     50  C   UNL     1       7.160 -13.169  -0.274  1.00  0.00     0.031 C 
ATOM     51  C   UNL     1       0.439 -13.584  -1.724  1.00  0.00     0.029 A 
ATOM     52  C   UNL     1       0.994 -14.681  -0.932  1.00  0.00     0.049 A 
ATOM     53  H   UNL     1       2.918 -14.805  -0.139  1.00  0.00     0.167 HD
ATOM     54  C   UNL     1       7.094 -15.260   1.049  1.00  0.00     0.034 A 
ATOM     55  C   UNL     1       0.332 -15.799  -0.566  1.00  0.00     0.034 A 
ATOM     56  C   UNL     1       6.425 -16.395   1.625  1.00  0.00     0.049 A 
ATOM     57  C   UNL     1       1.041 -16.855   0.247  1.00  0.00     0.074 A 
ATOM     58  C   UNL     1       6.951 -17.375   2.448  1.00  0.00     0.029 A 
ATOM     59  N   UNL     1       5.093 -16.717   1.423  1.00  0.00    -0.354 N 
ATOM     60  N   UNL     1       2.275 -16.869   0.691  1.00  0.00    -0.248 NA
ATOM     61  C   UNL     1       0.256 -18.039   0.634  1.00  0.00     0.031 C 
ATOM     62  C   UNL     1       5.947 -18.314   2.709  1.00  0.00     0.029 A 
ATOM     63  C   UNL     1       4.783 -17.890   2.090  1.00  0.00     0.049 A 
ATOM     64  H   UNL     1       4.460 -16.190   0.884  1.00  0.00     0.167 HD
ATOM     65  C   UNL     1       2.400 -18.034   1.442  1.00  0.00     0.074 A 
ATOM     66  C   UNL     1       1.112 -18.694   1.406  1.00  0.00     0.031 C 
ATOM     67  C   UNL     1       3.485 -18.516   2.097  1.00  0.00     0.034 A 
BRANCH  54  68
ATOM     68  C   UNL     1       8.572 -15.105   1.304  1.00  0.00     0.023 A 
ATOM     69  C   UNL     1       9.036 -14.086   2.160  1.00  0.00     0.012 A 
ATOM     70  C   UNL     1       9.496 -16.006   0.738  1.00  0.00     0.148 A 
ATOM     71  C   UNL     1      10.398 -13.942   2.419  1.00  0.00     0.002 A 
ATOM     72  C   UNL     1      10.847 -15.887   1.040  1.00  0.00     0.091 A 
ATOM     73  F   UNL     1       9.038 -16.957  -0.088  1.00  0.00    -0.205 F 
ATOM     74  C   UNL     1      11.301 -14.848   1.869  1.00  0.00     0.022 A 
BRANCH  72  75
ATOM     75  S   UNL     1      12.079 -17.053   0.450  1.00  0.00     0.127 S 
ATOM     76  O   UNL     1      12.836 -16.229  -0.492  1.00  0.00    -0.237 OA
ATOM     77  O   UNL     1      12.796 -17.389   1.680  1.00  0.00    -0.237 OA
ATOM     78  O   UNL     1      11.337 -18.156  -0.144  1.00  0.00    -0.744 OA
ENDBRANCH  72  75
ENDBRANCH  54  68
BRANCH  55  79
ATOM     79  C   UNL     1      -1.097 -15.985  -0.955  1.00  0.00     0.023 A 
ATOM     80  C   UNL     1      -2.098 -15.971   0.037  1.00  0.00     0.012 A 
ATOM     81  C   UNL     1      -1.466 -16.182  -2.300  1.00  0.00     0.148 A 
ATOM     82  C   UNL     1      -3.436 -16.181  -0.300  1.00  0.00     0.002 A 
ATOM     83  C   UNL     1      -2.806 -16.334  -2.635  1.00  0.00     0.091 A 
ATOM     84  F   UNL     1      -0.497 -16.212  -3.225  1.00  0.00    -0.205 F 
ATOM     85  C   UNL     1      -3.791 -16.352  -1.635  1.00  0.00     0.022 A 
BRANCH  83  86
ATOM     86  S   UNL     1      -3.370 -16.441  -4.337  1.00  0.00     0.127 S 
ATOM     87  O   UNL     1      -3.870 -17.812  -4.400  1.00  0.00    -0.237 OA
ATOM     88  O   UNL     1      -4.402 -15.405  -4.374  1.00  0.00    -0.237 OA
ATOM     89  O   UNL     1      -2.201 -16.159  -5.158  1.00  0.00    -0.744 OA
ENDBRANCH  83  86
ENDBRANCH  55  79
BRANCH  67  90
ATOM     90  C   UNL     1       3.330 -19.793   2.887  1.00  0.00     0.023 A 
ATOM     91  C   UNL     1       3.180 -21.027   2.224  1.00  0.00     0.012 A 
ATOM     92  C   UNL     1       3.416 -19.773   4.294  1.00  0.00     0.148 A 
ATOM     93  C   UNL     1       3.083 -22.215   2.949  1.00  0.00     0.002 A 
ATOM     94  C   UNL     1       3.372 -20.965   5.007  1.00  0.00     0.091 A 
ATOM     95  F   UNL     1       3.544 -18.588   4.910  1.00  0.00    -0.205 F 
ATOM     96  C   UNL     1       3.191 -22.186   4.338  1.00  0.00     0.022 A 
BRANCH  94  97
ATOM     97  S   UNL     1       3.603 -21.035   6.788  1.00  0.00     0.127 S 
ATOM     98  O   UNL     1       2.264 -21.400   7.248  1.00  0.00    -0.237 OA
ATOM     99  O   UNL     1       4.606 -22.091   6.928  1.00  0.00    -0.237 OA
ATOM    100  O   UNL     1       4.059 -19.710   7.188  1.00  0.00    -0.744 OA
ENDBRANCH  94  97
ENDBRANCH  67  90
ENDBRANCH  41  42
ENDBRANCH  34  36
ENDBRANCH  33  34
ENDBRANCH  32  33
ENDBRANCH  31  32
ENDBRANCH  30  31
ENDBRANCH  29  30
ENDBRANCH   1  29
TORSDOF 26
