REMARK SMILES C[C@H](C(=O)OCCOCCOCCOC(=O)c1ccc(-c2c3nc(c(-c4cccc(S(=O)(=O)[O-])c4F)c4ccc([nH]4)c(-c4cccc(S(=O)(=O)[O-])c4F)c4nc(c(-c5cccc(S(=O)(=O)[O-])c5F)c5ccc2[nH]5)C=C4)C=C3)cc1)[C@@H](C)Nc1cccc2ccccc12
REMARK SMILES IDX 9 1 8 2 7 3 6 4 5 5 3 6 4 7 2 8 1 9 80 10 81 11 82 12 83 14
REMARK SMILES IDX 84 15 92 16 85 17 87 18 91 19 86 20 88 21 90 22 89 23 10 24
REMARK SMILES IDX 11 25 12 26 13 27 14 28 15 29 16 30 17 31 18 32 79 33 19 34
REMARK SMILES IDX 78 35 20 36 21 37 22 38 72 39 23 40 77 41 71 42 73 43 24 44
REMARK SMILES IDX 76 45 70 46 69 47 25 49 57 50 37 51 56 52 38 53 41 54 55 55
REMARK SMILES IDX 74 56 39 57 40 58 54 60 75 61 42 62 26 63 27 64 35 65 28 66
REMARK SMILES IDX 30 67 36 68 29 69 31 70 32 71 33 72 34 73 58 74 59 75 67 76
REMARK SMILES IDX 60 77 62 78 68 79 61 80 63 81 64 82 65 83 66 84 43 85 44 86
REMARK SMILES IDX 52 87 45 88 47 89 53 90 46 91 48 92 49 93 50 94 51 95
REMARK H PARENT 82 13 73 48 41 59
REMARK Flexibility Score: inf
ROOT
ATOM      1  C   UNL     1       3.181   0.144   0.937  1.00  0.00     0.188 C 
ENDROOT
BRANCH   1   2
ATOM      2  O   UNL     1       3.713  -1.171   1.048  1.00  0.00    -0.376 OA
BRANCH   2   3
ATOM      3  C   UNL     1       3.476  -2.058  -0.050  1.00  0.00     0.202 C 
BRANCH   3   4
ATOM      4  C   UNL     1       2.008  -2.266  -0.460  1.00  0.00     0.261 C 
BRANCH   4   5
ATOM      5  O   UNL     1       1.403  -1.042  -0.920  1.00  0.00    -0.463 OA
BRANCH   5   6
ATOM      6  C   UNL     1       0.127  -0.792  -0.516  1.00  0.00     0.310 C 
ATOM      7  O   UNL     1      -0.609  -1.633  -0.019  1.00  0.00    -0.252 OA
BRANCH   6   8
ATOM      8  C   UNL     1      -0.201   0.697  -0.649  1.00  0.00     0.118 C 
ATOM      9  C   UNL     1       0.146   1.200  -2.057  1.00  0.00     0.022 C 
BRANCH   8  10
ATOM     10  C   UNL     1      -1.686   0.960  -0.302  1.00  0.00     0.090 C 
ATOM     11  C   UNL     1      -1.990   0.793   1.196  1.00  0.00     0.031 C 
BRANCH  10  12
ATOM     12  N   UNL     1      -2.030   2.337  -0.635  1.00  0.00    -0.381 N 
ATOM     13  H   UNL     1      -1.607   2.998  -0.041  1.00  0.00     0.160 HD
BRANCH  12  14
ATOM     14  C   UNL     1      -2.827   2.909  -1.612  1.00  0.00     0.042 A 
ATOM     15  C   UNL     1      -2.445   4.230  -1.949  1.00  0.00     0.026 A 
ATOM     16  C   UNL     1      -3.942   2.335  -2.310  1.00  0.00     0.005 A 
ATOM     17  C   UNL     1      -3.161   5.013  -2.843  1.00  0.00     0.003 A 
ATOM     18  C   UNL     1      -4.708   3.183  -3.165  1.00  0.00    -0.016 A 
ATOM     19  C   UNL     1      -4.405   0.994  -2.227  1.00  0.00     0.011 A 
ATOM     20  C   UNL     1      -4.314   4.503  -3.411  1.00  0.00     0.009 A 
ATOM     21  C   UNL     1      -5.879   2.721  -3.791  1.00  0.00     0.009 A 
ATOM     22  C   UNL     1      -5.526   0.524  -2.923  1.00  0.00     0.001 A 
ATOM     23  C   UNL     1      -6.283   1.397  -3.681  1.00  0.00     0.001 A 
ENDBRANCH  12  14
ENDBRANCH  10  12
ENDBRANCH   8  10
ENDBRANCH   6   8
ENDBRANCH   5   6
ENDBRANCH   4   5
ENDBRANCH   3   4
ENDBRANCH   2   3
ENDBRANCH   1   2
BRANCH   1  24
ATOM     24  C   UNL     1       3.696   0.997  -0.232  1.00  0.00     0.188 C 
BRANCH  24  25
ATOM     25  O   UNL     1       3.814   0.311  -1.473  1.00  0.00    -0.376 OA
BRANCH  25  26
ATOM     26  C   UNL     1       4.170   1.087  -2.617  1.00  0.00     0.202 C 
BRANCH  26  27
ATOM     27  C   UNL     1       5.438   1.945  -2.481  1.00  0.00     0.261 C 
BRANCH  27  28
ATOM     28  O   UNL     1       5.362   2.976  -1.477  1.00  0.00    -0.460 OA
BRANCH  28  29
ATOM     29  C   UNL     1       4.311   3.833  -1.532  1.00  0.00     0.338 C 
ATOM     30  O   UNL     1       3.546   3.983  -2.458  1.00  0.00    -0.246 OA
BRANCH  29  31
ATOM     31  C   UNL     1       4.099   4.385  -0.164  1.00  0.00     0.060 A 
ATOM     32  C   UNL     1       2.782   4.616   0.261  1.00  0.00     0.016 A 
ATOM     33  C   UNL     1       5.163   4.609   0.715  1.00  0.00     0.016 A 
ATOM     34  C   UNL     1       2.534   5.125   1.539  1.00  0.00     0.010 A 
ATOM     35  C   UNL     1       4.914   5.115   1.994  1.00  0.00     0.010 A 
ATOM     36  C   UNL     1       3.602   5.417   2.398  1.00  0.00    -0.014 A 
BRANCH  36  37
ATOM     37  C   UNL     1       3.375   6.215   3.631  1.00  0.00     0.031 A 
ATOM     38  C   UNL     1       3.709   7.684   3.603  1.00  0.00     0.074 A 
ATOM     39  C   UNL     1       2.890   5.663   4.759  1.00  0.00     0.049 A 
ATOM     40  N   UNL     1       3.630   8.573   4.558  1.00  0.00    -0.248 NA
ATOM     41  C   UNL     1       4.203   8.220   2.322  1.00  0.00     0.031 C 
ATOM     42  C   UNL     1       2.520   4.260   4.928  1.00  0.00     0.029 A 
ATOM     43  N   UNL     1       2.651   6.226   5.991  1.00  0.00    -0.354 N 
ATOM     44  C   UNL     1       4.092   9.762   4.007  1.00  0.00     0.074 A 
ATOM     45  C   UNL     1       4.462   9.479   2.638  1.00  0.00     0.031 C 
ATOM     46  C   UNL     1       2.122   4.065   6.199  1.00  0.00     0.029 A 
ATOM     47  C   UNL     1       2.236   5.321   6.940  1.00  0.00     0.049 A 
ATOM     48  H   UNL     1       2.767   7.186   6.176  1.00  0.00     0.167 HD
ATOM     49  C   UNL     1       4.189  10.985   4.579  1.00  0.00     0.034 A 
ATOM     50  C   UNL     1       1.999   5.483   8.259  1.00  0.00     0.034 A 
ATOM     51  C   UNL     1       3.809  11.279   5.934  1.00  0.00     0.049 A 
ATOM     52  C   UNL     1       2.150   6.850   8.883  1.00  0.00     0.074 A 
ATOM     53  C   UNL     1       3.826  12.501   6.583  1.00  0.00     0.029 A 
ATOM     54  N   UNL     1       3.365  10.343   6.853  1.00  0.00    -0.354 N 
ATOM     55  N   UNL     1       2.472   7.988   8.318  1.00  0.00    -0.248 NA
ATOM     56  C   UNL     1       1.874   6.958  10.325  1.00  0.00     0.031 C 
ATOM     57  C   UNL     1       3.430  12.297   7.908  1.00  0.00     0.029 A 
ATOM     58  C   UNL     1       3.122  10.956   8.071  1.00  0.00     0.049 A 
ATOM     59  H   UNL     1       3.241   9.384   6.669  1.00  0.00     0.167 HD
ATOM     60  C   UNL     1       2.396   8.950   9.322  1.00  0.00     0.074 A 
ATOM     61  C   UNL     1       1.980   8.264  10.527  1.00  0.00     0.031 C 
ATOM     62  C   UNL     1       2.656  10.280   9.254  1.00  0.00     0.034 A 
BRANCH  49  63
ATOM     63  C   UNL     1       4.720  12.110   3.732  1.00  0.00     0.023 A 
ATOM     64  C   UNL     1       3.929  12.641   2.692  1.00  0.00     0.012 A 
ATOM     65  C   UNL     1       5.981  12.676   4.000  1.00  0.00     0.148 A 
ATOM     66  C   UNL     1       4.400  13.695   1.911  1.00  0.00     0.002 A 
ATOM     67  C   UNL     1       6.423  13.758   3.249  1.00  0.00     0.091 A 
ATOM     68  F   UNL     1       6.727  12.141   4.978  1.00  0.00    -0.205 F 
ATOM     69  C   UNL     1       5.640  14.261   2.197  1.00  0.00     0.022 A 
BRANCH  67  70
ATOM     70  S   UNL     1       7.968  14.607   3.591  1.00  0.00     0.127 S 
ATOM     71  O   UNL     1       8.771  14.236   2.427  1.00  0.00    -0.237 OA
ATOM     72  O   UNL     1       7.548  16.008   3.621  1.00  0.00    -0.237 OA
ATOM     73  O   UNL     1       8.441  14.085   4.866  1.00  0.00    -0.744 OA
ENDBRANCH  67  70
ENDBRANCH  49  63
BRANCH  50  74
ATOM     74  C   UNL     1       1.571   4.322   9.093  1.00  0.00     0.023 A 
ATOM     75  C   UNL     1       0.272   4.296   9.638  1.00  0.00     0.012 A 
ATOM     76  C   UNL     1       2.449   3.255   9.362  1.00  0.00     0.148 A 
ATOM     77  C   UNL     1      -0.132   3.247  10.465  1.00  0.00     0.002 A 
ATOM     78  C   UNL     1       2.022   2.185  10.139  1.00  0.00     0.091 A 
ATOM     79  F   UNL     1       3.687   3.308   8.850  1.00  0.00    -0.205 F 
ATOM     80  C   UNL     1       0.739   2.188  10.708  1.00  0.00     0.022 A 
BRANCH  78  81
ATOM     81  S   UNL     1       3.031   0.724  10.410  1.00  0.00     0.127 S 
ATOM     82  O   UNL     1       3.318   0.819  11.839  1.00  0.00    -0.237 OA
ATOM     83  O   UNL     1       2.109  -0.348  10.036  1.00  0.00    -0.237 OA
ATOM     84  O   UNL     1       4.179   0.869   9.525  1.00  0.00    -0.744 OA
ENDBRANCH  78  81
ENDBRANCH  50  74
BRANCH  62  85
ATOM     85  C   UNL     1       2.451  11.109  10.498  1.00  0.00     0.023 A 
ATOM     86  C   UNL     1       3.338  10.986  11.586  1.00  0.00     0.012 A 
ATOM     87  C   UNL     1       1.423  12.073  10.553  1.00  0.00     0.148 A 
ATOM     88  C   UNL     1       3.183  11.783  12.721  1.00  0.00     0.002 A 
ATOM     89  C   UNL     1       1.307  12.899  11.665  1.00  0.00     0.091 A 
ATOM     90  F   UNL     1       0.580  12.167   9.514  1.00  0.00    -0.205 F 
ATOM     91  C   UNL     1       2.177  12.746  12.755  1.00  0.00     0.022 A 
BRANCH  89  92
ATOM     92  S   UNL     1       0.107  14.233  11.756  1.00  0.00     0.127 S 
ATOM     93  O   UNL     1      -0.826  13.726  12.761  1.00  0.00    -0.237 OA
ATOM     94  O   UNL     1       0.929  15.359  12.201  1.00  0.00    -0.237 OA
ATOM     95  O   UNL     1      -0.440  14.377  10.414  1.00  0.00    -0.744 OA
ENDBRANCH  89  92
ENDBRANCH  62  85
ENDBRANCH  36  37
ENDBRANCH  29  31
ENDBRANCH  28  29
ENDBRANCH  27  28
ENDBRANCH  26  27
ENDBRANCH  25  26
ENDBRANCH  24  25
ENDBRANCH   1  24
TORSDOF 23
