REMARK SMILES Cc1[nH]c2ccccc2c1/C=C1/SC(=S)N(c2cccc(C(=O)OCCOCCOCCOC(=O)c3ccc(-c4c5nc(c(-c6cccc(S(=O)(=O)[O-])c6F)c6ccc([nH]6)c(-c6cccc(S(=O)(=O)[O-])c6F)c6nc(c(-c7cccc(S(=O)(=O)[O-])c7F)c7ccc4[nH]7)C=C6)C=C5)cc3)c2)C1=O
REMARK SMILES IDX 29 1 28 2 27 3 26 4 25 5 24 6 22 7 23 8 21 9 17 10 18 11
REMARK SMILES IDX 99 12 19 13 20 14 16 15 11 16 12 17 13 18 100 19 14 20
REMARK SMILES IDX 101 21 15 22 10 23 1 24 2 25 3 26 4 27 9 29 5 30 8 31 6 32
REMARK SMILES IDX 7 33 30 34 31 35 32 36 33 37 34 38 35 39 36 40 37 41 98 42
REMARK SMILES IDX 38 43 97 44 39 45 40 46 41 47 91 48 42 49 96 50 90 51 92 52
REMARK SMILES IDX 43 53 95 54 89 55 88 56 44 58 76 59 56 60 75 61 57 62 60 63
REMARK SMILES IDX 74 64 93 65 58 66 59 67 73 69 94 70 61 71 45 72 46 73 54 74
REMARK SMILES IDX 47 75 49 76 55 77 48 78 50 79 51 80 52 81 53 82 77 83 78 84
REMARK SMILES IDX 86 85 79 86 81 87 87 88 80 89 82 90 83 91 84 92 85 93 62 94
REMARK SMILES IDX 63 95 71 96 64 97 66 98 72 99 65 100 67 101 68 102 69 103
REMARK SMILES IDX 70 104
REMARK H PARENT 3 28 92 57 60 68
REMARK Flexibility Score: inf
ROOT
ATOM      1  C   UNL     1      -7.405   0.388  -4.814  1.00  0.00     0.188 C 
ENDROOT
BRANCH   1   2
ATOM      2  C   UNL     1      -8.180   0.271  -6.146  1.00  0.00     0.188 C 
BRANCH   2   3
ATOM      3  O   UNL     1      -9.566   0.093  -5.949  1.00  0.00    -0.376 OA
BRANCH   3   4
ATOM      4  C   UNL     1     -10.138  -1.170  -6.226  1.00  0.00     0.202 C 
BRANCH   4   5
ATOM      5  C   UNL     1      -9.521  -2.472  -5.679  1.00  0.00     0.261 C 
BRANCH   5   6
ATOM      6  O   UNL     1      -8.110  -2.470  -5.426  1.00  0.00    -0.460 OA
BRANCH   6   7
ATOM      7  C   UNL     1      -7.304  -2.958  -6.397  1.00  0.00     0.338 C 
ATOM      8  O   UNL     1      -7.645  -3.396  -7.483  1.00  0.00    -0.246 OA
BRANCH   7   9
ATOM      9  C   UNL     1      -5.900  -2.719  -5.995  1.00  0.00     0.062 A 
ATOM     10  C   UNL     1      -4.116  -2.819  -4.332  1.00  0.00     0.051 A 
ATOM     11  C   UNL     1      -3.306  -2.090  -5.222  1.00  0.00     0.027 A 
ATOM     12  C   UNL     1      -5.435  -3.099  -4.725  1.00  0.00     0.042 A 
ATOM     13  C   UNL     1      -3.772  -1.706  -6.484  1.00  0.00     0.003 A 
ATOM     14  C   UNL     1      -5.063  -2.039  -6.881  1.00  0.00     0.016 A 
BRANCH  10  15
ATOM     15  N   UNL     1      -3.603  -3.243  -3.058  1.00  0.00    -0.261 N 
ATOM     16  C   UNL     1      -1.704  -2.470  -0.009  1.00  0.00     0.032 C 
ATOM     17  C   UNL     1      -2.409  -3.014  -1.014  1.00  0.00     0.081 C 
ATOM     18  S   UNL     1      -3.038  -4.612  -0.929  1.00  0.00    -0.054 SA
ATOM     19  C   UNL     1      -2.790  -2.381  -2.315  1.00  0.00     0.270 C 
ATOM     20  C   UNL     1      -3.819  -4.500  -2.506  1.00  0.00     0.152 C 
ATOM     21  O   UNL     1      -2.434  -1.257  -2.641  1.00  0.00    -0.268 OA
ATOM     22  S   UNL     1      -4.566  -5.858  -3.143  1.00  0.00    -0.051 S 
BRANCH  16  23
ATOM     23  C   UNL     1      -1.209  -1.136   0.060  1.00  0.00     0.004 A 
ATOM     24  C   UNL     1      -3.469   0.198   0.167  1.00  0.00     0.065 C 
ATOM     25  C   UNL     1      -1.996  -0.003   0.138  1.00  0.00     0.020 A 
ATOM     26  N   UNL     1      -1.143   1.075   0.129  1.00  0.00    -0.358 N 
ATOM     27  C   UNL     1       0.169   0.659   0.103  1.00  0.00     0.046 A 
ATOM     28  H   UNL     1      -1.431   2.016   0.139  1.00  0.00     0.166 HD
ATOM     29  C   UNL     1       0.159  -0.736   0.079  1.00  0.00     0.007 A 
ATOM     30  C   UNL     1       1.349   1.411   0.080  1.00  0.00     0.027 A 
ATOM     31  C   UNL     1       1.395  -1.415   0.044  1.00  0.00     0.011 A 
ATOM     32  C   UNL     1       2.560   0.714   0.038  1.00  0.00     0.002 A 
ATOM     33  C   UNL     1       2.586  -0.678   0.025  1.00  0.00     0.001 A 
ENDBRANCH  16  23
ENDBRANCH  10  15
ENDBRANCH   7   9
ENDBRANCH   6   7
ENDBRANCH   5   6
ENDBRANCH   4   5
ENDBRANCH   3   4
ENDBRANCH   2   3
ENDBRANCH   1   2
BRANCH   1  34
ATOM     34  O   UNL     1      -8.104   0.353  -3.573  1.00  0.00    -0.376 OA
BRANCH  34  35
ATOM     35  C   UNL     1      -9.298   1.114  -3.425  1.00  0.00     0.202 C 
BRANCH  35  36
ATOM     36  C   UNL     1      -9.294   2.619  -3.735  1.00  0.00     0.261 C 
BRANCH  36  37
ATOM     37  O   UNL     1      -8.696   2.997  -4.983  1.00  0.00    -0.460 OA
BRANCH  37  38
ATOM     38  C   UNL     1      -7.518   3.663  -4.889  1.00  0.00     0.338 C 
ATOM     39  O   UNL     1      -6.923   3.973  -3.872  1.00  0.00    -0.246 OA
BRANCH  38  40
ATOM     40  C   UNL     1      -6.944   3.827  -6.238  1.00  0.00     0.060 A 
ATOM     41  C   UNL     1      -5.720   3.206  -6.528  1.00  0.00     0.016 A 
ATOM     42  C   UNL     1      -7.577   4.628  -7.188  1.00  0.00     0.016 A 
ATOM     43  C   UNL     1      -5.116   3.395  -7.770  1.00  0.00     0.010 A 
ATOM     44  C   UNL     1      -6.957   4.838  -8.422  1.00  0.00     0.010 A 
ATOM     45  C   UNL     1      -5.713   4.245  -8.707  1.00  0.00    -0.014 A 
BRANCH  45  46
ATOM     46  C   UNL     1      -4.967   4.667  -9.915  1.00  0.00     0.031 A 
ATOM     47  C   UNL     1      -4.263   5.992  -9.893  1.00  0.00     0.074 A 
ATOM     48  C   UNL     1      -4.971   3.917 -11.031  1.00  0.00     0.049 A 
ATOM     49  N   UNL     1      -3.660   6.627 -10.863  1.00  0.00    -0.248 NA
ATOM     50  C   UNL     1      -4.250   6.703  -8.604  1.00  0.00     0.031 C 
ATOM     51  C   UNL     1      -5.620   2.617 -11.171  1.00  0.00     0.029 A 
ATOM     52  N   UNL     1      -4.450   4.175 -12.275  1.00  0.00    -0.354 N 
ATOM     53  C   UNL     1      -3.237   7.832 -10.316  1.00  0.00     0.074 A 
ATOM     54  C   UNL     1      -3.650   7.838  -8.929  1.00  0.00     0.031 C 
ATOM     55  C   UNL     1      -5.511   2.215 -12.449  1.00  0.00     0.029 A 
ATOM     56  C   UNL     1      -4.813   3.244 -13.219  1.00  0.00     0.049 A 
ATOM     57  H   UNL     1      -3.874   4.949 -12.472  1.00  0.00     0.167 HD
ATOM     58  C   UNL     1      -2.564   8.842 -10.914  1.00  0.00     0.034 A 
ATOM     59  C   UNL     1      -4.643   3.246 -14.556  1.00  0.00     0.034 A 
ATOM     60  C   UNL     1      -2.147   8.827 -12.289  1.00  0.00     0.049 A 
ATOM     61  C   UNL     1      -3.904   4.385 -15.208  1.00  0.00     0.074 A 
ATOM     62  C   UNL     1      -1.399   9.769 -12.970  1.00  0.00     0.029 A 
ATOM     63  N   UNL     1      -2.466   7.832 -13.199  1.00  0.00    -0.354 N 
ATOM     64  N   UNL     1      -3.389   5.458 -14.656  1.00  0.00    -0.248 NA
ATOM     65  C   UNL     1      -3.694   4.303 -16.662  1.00  0.00     0.031 C 
ATOM     66  C   UNL     1      -1.297   9.361 -14.304  1.00  0.00     0.029 A 
ATOM     67  C   UNL     1      -1.949   8.145 -14.443  1.00  0.00     0.049 A 
ATOM     68  H   UNL     1      -2.985   7.021 -12.991  1.00  0.00     0.167 HD
ATOM     69  C   UNL     1      -2.767   6.159 -15.683  1.00  0.00     0.074 A 
ATOM     70  C   UNL     1      -2.961   5.386 -16.892  1.00  0.00     0.031 C 
ATOM     71  C   UNL     1      -2.102   7.340 -15.630  1.00  0.00     0.034 A 
BRANCH  58  72
ATOM     72  C   UNL     1      -2.239  10.049 -10.075  1.00  0.00     0.023 A 
ATOM     73  C   UNL     1      -1.267   9.959  -9.058  1.00  0.00     0.012 A 
ATOM     74  C   UNL     1      -2.885  11.279 -10.306  1.00  0.00     0.148 A 
ATOM     75  C   UNL     1      -0.975  11.061  -8.255  1.00  0.00     0.002 A 
ATOM     76  C   UNL     1      -2.555  12.386  -9.533  1.00  0.00     0.091 A 
ATOM     77  F   UNL     1      -3.826  11.340 -11.259  1.00  0.00    -0.205 F 
ATOM     78  C   UNL     1      -1.612  12.275  -8.498  1.00  0.00     0.022 A 
BRANCH  76  79
ATOM     79  S   UNL     1      -3.265  14.008  -9.828  1.00  0.00     0.127 S 
ATOM     80  O   UNL     1      -4.222  14.116  -8.728  1.00  0.00    -0.237 OA
ATOM     81  O   UNL     1      -2.098  14.884  -9.707  1.00  0.00    -0.237 OA
ATOM     82  O   UNL     1      -3.842  13.954 -11.163  1.00  0.00    -0.744 OA
ENDBRANCH  76  79
ENDBRANCH  58  72
BRANCH  59  83
ATOM     83  C   UNL     1      -5.185   2.116 -15.362  1.00  0.00     0.023 A 
ATOM     84  C   UNL     1      -4.304   1.180 -15.934  1.00  0.00     0.012 A 
ATOM     85  C   UNL     1      -6.574   1.937 -15.513  1.00  0.00     0.148 A 
ATOM     86  C   UNL     1      -4.796   0.094 -16.658  1.00  0.00     0.002 A 
ATOM     87  C   UNL     1      -7.059   0.825 -16.189  1.00  0.00     0.091 A 
ATOM     88  F   UNL     1      -7.393   2.849 -14.969  1.00  0.00    -0.205 F 
ATOM     89  C   UNL     1      -6.172  -0.091 -16.775  1.00  0.00     0.022 A 
BRANCH  87  90
ATOM     90  S   UNL     1      -8.811   0.435 -16.279  1.00  0.00     0.127 S 
ATOM     91  O   UNL     1      -9.072   0.566 -17.711  1.00  0.00    -0.237 OA
ATOM     92  O   UNL     1      -8.837  -0.937 -15.771  1.00  0.00    -0.237 OA
ATOM     93  O   UNL     1      -9.479   1.408 -15.427  1.00  0.00    -0.744 OA
ENDBRANCH  87  90
ENDBRANCH  59  83
BRANCH  71  94
ATOM     94  C   UNL     1      -1.483   7.869 -16.898  1.00  0.00     0.023 A 
ATOM     95  C   UNL     1      -2.298   8.434 -17.898  1.00  0.00     0.012 A 
ATOM     96  C   UNL     1      -0.081   7.914 -17.040  1.00  0.00     0.148 A 
ATOM     97  C   UNL     1      -1.727   9.023 -19.026  1.00  0.00     0.002 A 
ATOM     98  C   UNL     1       0.481   8.545 -18.142  1.00  0.00     0.091 A 
ATOM     99  F   UNL     1       0.675   7.355 -16.084  1.00  0.00    -0.205 F 
ATOM    100  C   UNL     1      -0.340   9.092 -19.142  1.00  0.00     0.022 A 
BRANCH  98 101
ATOM    101  S   UNL     1       2.254   8.773 -18.326  1.00  0.00     0.127 S 
ATOM    102  O   UNL     1       2.552   7.896 -19.458  1.00  0.00    -0.237 OA
ATOM    103  O   UNL     1       2.354  10.203 -18.619  1.00  0.00    -0.237 OA
ATOM    104  O   UNL     1       2.847   8.371 -17.057  1.00  0.00    -0.744 OA
ENDBRANCH  98 101
ENDBRANCH  71  94
ENDBRANCH  45  46
ENDBRANCH  38  40
ENDBRANCH  37  38
ENDBRANCH  36  37
ENDBRANCH  35  36
ENDBRANCH  34  35
ENDBRANCH   1  34
TORSDOF 22
