REMARK SMILES Cc1ccc(-c2cc(C[C@H]3CCCC3=O)ccc2[C@@H](C)C(=O)OCCOCCOCCOC(=O)c2ccc(-c3c4nc(c(-c5cccc(S(=O)(=O)[O-])c5F)c5ccc([nH]5)c(-c5cccc(S(=O)(=O)[O-])c5F)c5nc(c(-c6cccc(S(=O)(=O)[O-])c6F)c6ccc3[nH]6)C=C5)C=C4)cc2)cc1
REMARK SMILES IDX 27 1 26 2 25 3 24 4 23 5 21 6 22 7 19 8 20 9 18 10 6 11 7 12
REMARK SMILES IDX 8 13 17 14 16 15 5 16 1 17 2 18 3 19 99 20 4 21 98 22 9 23
REMARK SMILES IDX 10 24 11 25 14 26 12 27 13 28 15 29 28 30 29 31 30 32 31 33
REMARK SMILES IDX 32 34 33 35 34 36 35 37 36 38 97 39 37 40 96 41 38 42 39 43
REMARK SMILES IDX 40 44 90 45 41 46 95 47 89 48 91 49 42 50 94 51 88 52 87 53
REMARK SMILES IDX 43 55 75 56 55 57 74 58 56 59 59 60 73 61 92 62 57 63 58 64
REMARK SMILES IDX 72 66 93 67 60 68 44 69 45 70 53 71 46 72 48 73 54 74 47 75
REMARK SMILES IDX 49 76 50 77 51 78 52 79 76 80 77 81 85 82 78 83 80 84 86 85
REMARK SMILES IDX 79 86 81 87 82 88 83 89 84 90 61 91 62 92 70 93 63 94 65 95
REMARK SMILES IDX 71 96 64 97 66 98 67 99 68 100 69 101
REMARK H PARENT 91 54 59 65
REMARK Flexibility Score: inf
ROOT
ATOM      1  C   UNL     1      -4.952  -6.365  -0.745  1.00  0.00     0.188 C 
ENDROOT
BRANCH   1   2
ATOM      2  O   UNL     1      -4.447  -6.626   0.557  1.00  0.00    -0.376 OA
BRANCH   2   3
ATOM      3  C   UNL     1      -3.097  -6.081   0.814  1.00  0.00     0.202 C 
BRANCH   3   4
ATOM      4  C   UNL     1      -3.115  -4.522   0.829  1.00  0.00     0.261 C 
BRANCH   4   5
ATOM      5  O   UNL     1      -2.091  -3.350   1.016  1.00  0.00    -0.463 OA
BRANCH   5   6
ATOM      6  C   UNL     1      -1.947  -2.361   2.020  1.00  0.00     0.313 C 
ATOM      7  O   UNL     1      -1.429  -2.759   3.073  1.00  0.00    -0.252 OA
BRANCH   6   8
ATOM      8  C   UNL     1      -2.232  -0.736   2.009  1.00  0.00     0.127 C 
ATOM      9  C   UNL     1      -2.551  -0.292   3.474  1.00  0.00     0.025 C 
BRANCH   8  10
ATOM     10  C   UNL     1      -3.154   0.138   1.037  1.00  0.00    -0.026 A 
ATOM     11  C   UNL     1      -2.679   0.621  -0.201  1.00  0.00    -0.014 A 
ATOM     12  C   UNL     1      -3.580   1.097  -1.199  1.00  0.00     0.012 A 
ATOM     13  C   UNL     1      -4.961   1.205  -0.989  1.00  0.00    -0.047 A 
ATOM     14  C   UNL     1      -4.513   0.454   1.302  1.00  0.00     0.005 A 
ATOM     15  C   UNL     1      -5.404   0.940   0.306  1.00  0.00     0.004 A 
BRANCH  11  16
ATOM     16  C   UNL     1      -1.250   0.765  -0.439  1.00  0.00    -0.018 A 
ATOM     17  C   UNL     1       3.029   0.793  -0.481  1.00  0.00     0.044 C 
ATOM     18  C   UNL     1       1.538   0.888  -0.593  1.00  0.00    -0.051 A 
ATOM     19  C   UNL     1       0.825  -0.062  -1.336  1.00  0.00     0.004 A 
ATOM     20  C   UNL     1       0.845   1.827   0.175  1.00  0.00     0.004 A 
ATOM     21  C   UNL     1      -0.564  -0.123  -1.262  1.00  0.00     0.009 A 
ATOM     22  C   UNL     1      -0.542   1.770   0.245  1.00  0.00     0.009 A 
ENDBRANCH  11  16
BRANCH  13  23
ATOM     23  C   UNL     1      -5.869   1.777  -2.063  1.00  0.00     0.047 C 
BRANCH  23  24
ATOM     24  C   UNL     1      -6.830   0.908  -2.892  1.00  0.00     0.060 C 
ATOM     25  C   UNL     1      -6.252  -0.241  -3.711  1.00  0.00     0.012 C 
ATOM     26  C   UNL     1      -7.968   0.244  -2.161  1.00  0.00     0.136 C 
ATOM     27  C   UNL     1      -7.410  -1.215  -3.961  1.00  0.00     0.009 C 
ATOM     28  C   UNL     1      -8.470  -0.971  -2.894  1.00  0.00     0.076 C 
ATOM     29  O   UNL     1      -8.523   0.704  -1.173  1.00  0.00    -0.299 OA
ENDBRANCH  23  24
ENDBRANCH  13  23
ENDBRANCH   8  10
ENDBRANCH   6   8
ENDBRANCH   5   6
ENDBRANCH   4   5
ENDBRANCH   3   4
ENDBRANCH   2   3
ENDBRANCH   1   2
BRANCH   1  30
ATOM     30  C   UNL     1      -6.485  -6.461  -0.842  1.00  0.00     0.188 C 
BRANCH  30  31
ATOM     31  O   UNL     1      -7.010  -7.236  -1.921  1.00  0.00    -0.376 OA
BRANCH  31  32
ATOM     32  C   UNL     1      -6.280  -7.252  -3.144  1.00  0.00     0.202 C 
BRANCH  32  33
ATOM     33  C   UNL     1      -5.735  -5.924  -3.731  1.00  0.00     0.261 C 
BRANCH  33  34
ATOM     34  O   UNL     1      -6.268  -4.757  -3.070  1.00  0.00    -0.460 OA
BRANCH  34  35
ATOM     35  C   UNL     1      -5.402  -3.717  -2.938  1.00  0.00     0.338 C 
ATOM     36  O   UNL     1      -4.444  -3.523  -3.674  1.00  0.00    -0.246 OA
BRANCH  35  37
ATOM     37  C   UNL     1      -5.610  -3.009  -1.617  1.00  0.00     0.060 A 
ATOM     38  C   UNL     1      -4.508  -2.401  -1.107  1.00  0.00     0.016 A 
ATOM     39  C   UNL     1      -6.691  -3.124  -0.727  1.00  0.00     0.016 A 
ATOM     40  C   UNL     1      -4.437  -2.237   0.294  1.00  0.00     0.010 A 
ATOM     41  C   UNL     1      -6.560  -2.938   0.703  1.00  0.00     0.010 A 
ATOM     42  C   UNL     1      -5.349  -2.608   1.303  1.00  0.00    -0.014 A 
BRANCH  42  43
ATOM     43  C   UNL     1      -5.082  -2.880   2.863  1.00  0.00     0.031 A 
ATOM     44  C   UNL     1      -5.767  -2.042   3.908  1.00  0.00     0.074 A 
ATOM     45  C   UNL     1      -4.369  -3.880   3.542  1.00  0.00     0.049 A 
ATOM     46  N   UNL     1      -5.416  -2.046   5.166  1.00  0.00    -0.248 NA
ATOM     47  C   UNL     1      -6.812  -1.062   3.623  1.00  0.00     0.031 C 
ATOM     48  C   UNL     1      -4.901  -4.681   4.663  1.00  0.00     0.029 A 
ATOM     49  N   UNL     1      -3.122  -4.514   3.384  1.00  0.00    -0.354 N 
ATOM     50  C   UNL     1      -6.459  -1.475   5.841  1.00  0.00     0.074 A 
ATOM     51  C   UNL     1      -7.090  -0.629   4.860  1.00  0.00     0.031 C 
ATOM     52  C   UNL     1      -4.000  -5.596   5.079  1.00  0.00     0.029 A 
ATOM     53  C   UNL     1      -2.756  -5.444   4.349  1.00  0.00     0.049 A 
ATOM     54  H   UNL     1      -2.534  -4.307   2.623  1.00  0.00     0.167 HD
ATOM     55  C   UNL     1      -6.880  -1.991   7.032  1.00  0.00     0.034 A 
ATOM     56  C   UNL     1      -1.456  -5.776   4.660  1.00  0.00     0.034 A 
ATOM     57  C   UNL     1      -5.965  -2.982   7.633  1.00  0.00     0.049 A 
ATOM     58  C   UNL     1      -1.214  -5.544   6.125  1.00  0.00     0.074 A 
ATOM     59  C   UNL     1      -6.122  -4.318   7.967  1.00  0.00     0.029 A 
ATOM     60  N   UNL     1      -4.624  -2.682   7.891  1.00  0.00    -0.354 N 
ATOM     61  N   UNL     1      -2.181  -5.371   6.978  1.00  0.00    -0.248 NA
ATOM     62  C   UNL     1       0.099  -5.319   6.735  1.00  0.00     0.031 C 
ATOM     63  C   UNL     1      -4.863  -4.831   8.378  1.00  0.00     0.029 A 
ATOM     64  C   UNL     1      -3.934  -3.805   8.344  1.00  0.00     0.049 A 
ATOM     65  H   UNL     1      -4.220  -1.793   7.768  1.00  0.00     0.167 HD
ATOM     66  C   UNL     1      -1.691  -4.596   7.992  1.00  0.00     0.074 A 
ATOM     67  C   UNL     1      -0.252  -4.773   7.912  1.00  0.00     0.031 C 
ATOM     68  C   UNL     1      -2.506  -3.743   8.684  1.00  0.00     0.034 A 
BRANCH  55  69
ATOM     69  C   UNL     1      -8.289  -1.760   7.582  1.00  0.00     0.023 A 
ATOM     70  C   UNL     1      -8.556  -2.143   8.914  1.00  0.00     0.012 A 
ATOM     71  C   UNL     1      -9.402  -1.264   6.857  1.00  0.00     0.148 A 
ATOM     72  C   UNL     1      -9.827  -2.001   9.494  1.00  0.00     0.002 A 
ATOM     73  C   UNL     1     -10.625  -0.995   7.472  1.00  0.00     0.091 A 
ATOM     74  F   UNL     1      -9.362  -1.177   5.523  1.00  0.00    -0.205 F 
ATOM     75  C   UNL     1     -10.852  -1.383   8.789  1.00  0.00     0.022 A 
BRANCH  73  76
ATOM     76  S   UNL     1     -11.906  -0.060   6.615  1.00  0.00     0.127 S 
ATOM     77  O   UNL     1     -12.833  -1.109   6.196  1.00  0.00    -0.237 OA
ATOM     78  O   UNL     1     -12.416   0.822   7.665  1.00  0.00    -0.237 OA
ATOM     79  O   UNL     1     -11.217   0.642   5.536  1.00  0.00    -0.744 OA
ENDBRANCH  73  76
ENDBRANCH  55  69
BRANCH  56  80
ATOM     80  C   UNL     1      -0.390  -5.647   3.581  1.00  0.00     0.023 A 
ATOM     81  C   UNL     1      -0.476  -6.530   2.481  1.00  0.00     0.012 A 
ATOM     82  C   UNL     1       0.495  -4.556   3.452  1.00  0.00     0.148 A 
ATOM     83  C   UNL     1       0.094  -6.223   1.234  1.00  0.00     0.002 A 
ATOM     84  C   UNL     1       1.022  -4.225   2.195  1.00  0.00     0.091 A 
ATOM     85  F   UNL     1       0.718  -3.775   4.516  1.00  0.00    -0.205 F 
ATOM     86  C   UNL     1       0.789  -5.037   1.076  1.00  0.00     0.022 A 
BRANCH  84  87
ATOM     87  S   UNL     1       1.741  -2.612   1.830  1.00  0.00     0.127 S 
ATOM     88  O   UNL     1       2.967  -2.971   1.120  1.00  0.00    -0.237 OA
ATOM     89  O   UNL     1       0.707  -2.028   0.984  1.00  0.00    -0.237 OA
ATOM     90  O   UNL     1       1.954  -1.956   3.117  1.00  0.00    -0.744 OA
ENDBRANCH  84  87
ENDBRANCH  56  80
BRANCH  68  91
ATOM     91  C   UNL     1      -2.018  -2.779   9.738  1.00  0.00     0.023 A 
ATOM     92  C   UNL     1      -0.720  -2.231   9.753  1.00  0.00     0.012 A 
ATOM     93  C   UNL     1      -2.912  -2.334  10.739  1.00  0.00     0.148 A 
ATOM     94  C   UNL     1      -0.298  -1.364  10.768  1.00  0.00     0.002 A 
ATOM     95  C   UNL     1      -2.522  -1.385  11.677  1.00  0.00     0.091 A 
ATOM     96  F   UNL     1      -4.145  -2.857  10.811  1.00  0.00    -0.205 F 
ATOM     97  C   UNL     1      -1.205  -0.926  11.724  1.00  0.00     0.022 A 
BRANCH  95  98
ATOM     98  S   UNL     1      -3.748  -0.631  12.750  1.00  0.00     0.127 S 
ATOM     99  O   UNL     1      -3.783  -1.556  13.879  1.00  0.00    -0.237 OA
ATOM    100  O   UNL     1      -3.154   0.673  13.050  1.00  0.00    -0.237 OA
ATOM    101  O   UNL     1      -4.953  -0.558  11.932  1.00  0.00    -0.744 OA
ENDBRANCH  95  98
ENDBRANCH  68  91
ENDBRANCH  42  43
ENDBRANCH  35  37
ENDBRANCH  34  35
ENDBRANCH  33  34
ENDBRANCH  32  33
ENDBRANCH  31  32
ENDBRANCH  30  31
ENDBRANCH   1  30
TORSDOF 24
