REMARK SMILES CC(C)(C)OC(=O)N1CCC[C@H]1C(=O)N[C@@H](Cc1ccccc1)C(=O)OCCOCCOCCOC(=O)c1ccc(-c2c3nc(c(-c4cccc(S(=O)(=O)[O-])c4F)c4ccc([nH]4)c(-c4cccc(S(=O)(=O)[O-])c4F)c4nc(c(-c5cccc(S(=O)(=O)[O-])c5F)c5ccc2[nH]5)C=C4)C=C3)cc1
REMARK SMILES IDX 30 1 29 2 28 3 27 4 26 5 24 6 25 7 16 8 15 9 13 10 14 11
REMARK SMILES IDX 12 13 8 14 9 15 10 16 11 17 6 18 7 19 5 20 2 21 1 22 3 23
REMARK SMILES IDX 4 24 17 25 18 26 19 27 23 28 20 29 22 30 21 31 31 32 32 33
REMARK SMILES IDX 33 34 34 35 35 36 36 37 37 38 38 39 39 40 100 41 40 42 99 43
REMARK SMILES IDX 41 44 42 45 43 46 93 47 44 48 98 49 92 50 94 51 45 52 97 53
REMARK SMILES IDX 91 54 90 55 46 57 78 58 58 59 77 60 59 61 62 62 76 63 95 64
REMARK SMILES IDX 60 65 61 66 75 68 96 69 63 70 47 71 48 72 56 73 49 74 51 75
REMARK SMILES IDX 57 76 50 77 52 78 53 79 54 80 55 81 79 82 80 83 88 84 81 85
REMARK SMILES IDX 83 86 89 87 82 88 84 89 85 90 86 91 87 92 64 93 65 94 73 95
REMARK SMILES IDX 66 96 68 97 74 98 67 99 69 100 70 101 71 102 72 103
REMARK H PARENT 15 12 94 56 62 67
REMARK Flexibility Score: inf
ROOT
ATOM      1  C   UNL     1      -4.253  -3.194   7.012  1.00  0.00     0.188 C 
ENDROOT
BRANCH   1   2
ATOM      2  O   UNL     1      -5.296  -3.836   7.742  1.00  0.00    -0.376 OA
BRANCH   2   3
ATOM      3  C   UNL     1      -5.140  -4.007   9.145  1.00  0.00     0.202 C 
BRANCH   3   4
ATOM      4  C   UNL     1      -3.873  -4.727   9.604  1.00  0.00     0.261 C 
BRANCH   4   5
ATOM      5  O   UNL     1      -2.666  -4.048   9.197  1.00  0.00    -0.462 OA
BRANCH   5   6
ATOM      6  C   UNL     1      -1.665  -4.845   8.751  1.00  0.00     0.329 C 
ATOM      7  O   UNL     1      -1.714  -6.072   8.748  1.00  0.00    -0.250 OA
BRANCH   6   8
ATOM      8  C   UNL     1      -0.363  -4.095   8.379  1.00  0.00     0.196 C 
BRANCH   8   9
ATOM      9  N   UNL     1      -0.282  -2.662   8.011  1.00  0.00    -0.341 N 
ATOM     10  C   UNL     1       0.337  -2.003   6.978  1.00  0.00     0.243 C 
ATOM     11  O   UNL     1       0.600  -0.815   7.189  1.00  0.00    -0.273 OA
ATOM     12  H   UNL     1      -0.766  -2.067   8.628  1.00  0.00     0.164 HD
BRANCH  10  13
ATOM     13  C   UNL     1       0.623  -2.685   5.613  1.00  0.00     0.178 C 
ATOM     14  N   UNL     1       1.280  -1.816   4.614  1.00  0.00    -0.296 N 
ATOM     15  C   UNL     1       2.604  -2.290   4.274  1.00  0.00     0.124 C 
ATOM     16  C   UNL     1       2.519  -3.775   4.535  1.00  0.00     0.024 C 
ATOM     17  C   UNL     1       1.595  -3.868   5.743  1.00  0.00     0.037 C 
BRANCH  14  18
ATOM     18  C   UNL     1       0.633  -0.800   3.948  1.00  0.00     0.410 C 
ATOM     19  O   UNL     1      -0.409  -0.299   4.341  1.00  0.00    -0.224 OA
BRANCH  18  20
ATOM     20  O   UNL     1       1.245  -0.490   2.776  1.00  0.00    -0.444 OA
BRANCH  20  21
ATOM     21  C   UNL     1       0.714   0.458   1.803  1.00  0.00     0.106 C 
ATOM     22  C   UNL     1       1.353   0.049   0.465  1.00  0.00     0.056 C 
ATOM     23  C   UNL     1       1.168   1.866   2.181  1.00  0.00     0.056 C 
ATOM     24  C   UNL     1      -0.804   0.410   1.613  1.00  0.00     0.056 C 
ENDBRANCH  20  21
ENDBRANCH  18  20
ENDBRANCH  14  18
ENDBRANCH  10  13
ENDBRANCH   8   9
BRANCH   8  25
ATOM     25  C   UNL     1       0.613  -4.380   9.549  1.00  0.00     0.072 C 
BRANCH  25  26
ATOM     26  C   UNL     1       0.275  -3.877  10.950  1.00  0.00    -0.045 A 
ATOM     27  C   UNL     1      -0.628  -2.843  11.242  1.00  0.00     0.004 A 
ATOM     28  C   UNL     1       0.949  -4.471  12.030  1.00  0.00     0.004 A 
ATOM     29  C   UNL     1      -0.836  -2.407  12.554  1.00  0.00     0.000 A 
ATOM     30  C   UNL     1       0.733  -4.045  13.344  1.00  0.00     0.000 A 
ATOM     31  C   UNL     1      -0.155  -3.007  13.606  1.00  0.00     0.000 A 
ENDBRANCH  25  26
ENDBRANCH   8  25
ENDBRANCH   6   8
ENDBRANCH   5   6
ENDBRANCH   4   5
ENDBRANCH   3   4
ENDBRANCH   2   3
ENDBRANCH   1   2
BRANCH   1  32
ATOM     32  C   UNL     1      -3.637  -1.904   7.589  1.00  0.00     0.188 C 
BRANCH  32  33
ATOM     33  O   UNL     1      -4.383  -1.328   8.649  1.00  0.00    -0.376 OA
BRANCH  33  34
ATOM     34  C   UNL     1      -4.893  -0.031   8.383  1.00  0.00     0.202 C 
BRANCH  34  35
ATOM     35  C   UNL     1      -6.049  -0.002   7.374  1.00  0.00     0.261 C 
BRANCH  35  36
ATOM     36  O   UNL     1      -5.770  -0.623   6.107  1.00  0.00    -0.460 OA
BRANCH  36  37
ATOM     37  C   UNL     1      -4.962   0.055   5.260  1.00  0.00     0.338 C 
ATOM     38  O   UNL     1      -4.476   1.155   5.448  1.00  0.00    -0.246 OA
BRANCH  37  39
ATOM     39  C   UNL     1      -4.614  -0.853   4.144  1.00  0.00     0.060 A 
ATOM     40  C   UNL     1      -3.292  -1.286   4.019  1.00  0.00     0.016 A 
ATOM     41  C   UNL     1      -5.573  -1.282   3.228  1.00  0.00     0.016 A 
ATOM     42  C   UNL     1      -2.906  -2.100   2.951  1.00  0.00     0.010 A 
ATOM     43  C   UNL     1      -5.183  -2.079   2.143  1.00  0.00     0.010 A 
ATOM     44  C   UNL     1      -3.837  -2.451   1.969  1.00  0.00    -0.014 A 
BRANCH  44  45
ATOM     45  C   UNL     1      -3.374  -3.020   0.675  1.00  0.00     0.031 A 
ATOM     46  C   UNL     1      -3.260  -2.104  -0.518  1.00  0.00     0.074 A 
ATOM     47  C   UNL     1      -3.034  -4.316   0.549  1.00  0.00     0.049 A 
ATOM     48  N   UNL     1      -2.887  -2.376  -1.743  1.00  0.00    -0.248 NA
ATOM     49  C   UNL     1      -3.596  -0.688  -0.294  1.00  0.00     0.031 C 
ATOM     50  C   UNL     1      -3.051  -5.306   1.624  1.00  0.00     0.029 A 
ATOM     51  N   UNL     1      -2.633  -5.027  -0.557  1.00  0.00    -0.354 N 
ATOM     52  C   UNL     1      -2.945  -1.170  -2.433  1.00  0.00     0.074 A 
ATOM     53  C   UNL     1      -3.406  -0.168  -1.497  1.00  0.00     0.031 C 
ATOM     54  C   UNL     1      -2.712  -6.505   1.117  1.00  0.00     0.029 A 
ATOM     55  C   UNL     1      -2.483  -6.373  -0.322  1.00  0.00     0.049 A 
ATOM     56  H   UNL     1      -2.470  -4.611  -1.435  1.00  0.00     0.167 HD
ATOM     57  C   UNL     1      -2.629  -0.908  -3.723  1.00  0.00     0.034 A 
ATOM     58  C   UNL     1      -2.220  -7.386  -1.174  1.00  0.00     0.034 A 
ATOM     59  C   UNL     1      -2.204  -1.898  -4.673  1.00  0.00     0.049 A 
ATOM     60  C   UNL     1      -2.001  -7.090  -2.638  1.00  0.00     0.074 A 
ATOM     61  C   UNL     1      -1.873  -1.728  -6.005  1.00  0.00     0.029 A 
ATOM     62  N   UNL     1      -2.079  -3.251  -4.399  1.00  0.00    -0.354 N 
ATOM     63  N   UNL     1      -1.954  -5.931  -3.251  1.00  0.00    -0.248 NA
ATOM     64  C   UNL     1      -1.773  -8.243  -3.523  1.00  0.00     0.031 C 
ATOM     65  C   UNL     1      -1.579  -2.985  -6.546  1.00  0.00     0.029 A 
ATOM     66  C   UNL     1      -1.698  -3.932  -5.542  1.00  0.00     0.049 A 
ATOM     67  H   UNL     1      -2.237  -3.666  -3.521  1.00  0.00     0.167 HD
ATOM     68  C   UNL     1      -1.648  -6.213  -4.580  1.00  0.00     0.074 A 
ATOM     69  C   UNL     1      -1.510  -7.651  -4.681  1.00  0.00     0.031 C 
ATOM     70  C   UNL     1      -1.504  -5.358  -5.623  1.00  0.00     0.034 A 
BRANCH  57  71
ATOM     71  C   UNL     1      -2.724   0.525  -4.173  1.00  0.00     0.023 A 
ATOM     72  C   UNL     1      -1.737   1.445  -3.762  1.00  0.00     0.012 A 
ATOM     73  C   UNL     1      -3.772   0.958  -5.006  1.00  0.00     0.148 A 
ATOM     74  C   UNL     1      -1.811   2.783  -4.148  1.00  0.00     0.002 A 
ATOM     75  C   UNL     1      -3.819   2.286  -5.416  1.00  0.00     0.091 A 
ATOM     76  F   UNL     1      -4.715   0.074  -5.360  1.00  0.00    -0.205 F 
ATOM     77  C   UNL     1      -2.846   3.201  -4.980  1.00  0.00     0.022 A 
BRANCH  75  78
ATOM     78  S   UNL     1      -5.082   2.903  -6.534  1.00  0.00     0.127 S 
ATOM     79  O   UNL     1      -5.938   3.659  -5.622  1.00  0.00    -0.237 OA
ATOM     80  O   UNL     1      -4.301   3.725  -7.460  1.00  0.00    -0.237 OA
ATOM     81  O   UNL     1      -5.689   1.725  -7.137  1.00  0.00    -0.744 OA
ENDBRANCH  75  78
ENDBRANCH  57  71
BRANCH  58  82
ATOM     82  C   UNL     1      -2.122  -8.785  -0.668  1.00  0.00     0.023 A 
ATOM     83  C   UNL     1      -0.875  -9.440  -0.683  1.00  0.00     0.012 A 
ATOM     84  C   UNL     1      -3.252  -9.470  -0.179  1.00  0.00     0.148 A 
ATOM     85  C   UNL     1      -0.759 -10.759  -0.243  1.00  0.00     0.002 A 
ATOM     86  C   UNL     1      -3.119 -10.767   0.305  1.00  0.00     0.091 A 
ATOM     87  F   UNL     1      -4.434  -8.839  -0.197  1.00  0.00    -0.205 F 
ATOM     88  C   UNL     1      -1.877 -11.419   0.260  1.00  0.00     0.022 A 
BRANCH  86  89
ATOM     89  S   UNL     1      -4.478 -11.655   1.074  1.00  0.00     0.127 S 
ATOM     90  O   UNL     1      -4.737 -12.709   0.096  1.00  0.00    -0.237 OA
ATOM     91  O   UNL     1      -3.869 -12.110   2.324  1.00  0.00    -0.237 OA
ATOM     92  O   UNL     1      -5.543 -10.676   1.243  1.00  0.00    -0.744 OA
ENDBRANCH  86  89
ENDBRANCH  58  82
BRANCH  70  93
ATOM     93  C   UNL     1      -1.134  -5.936  -6.965  1.00  0.00     0.023 A 
ATOM     94  C   UNL     1      -2.091  -6.655  -7.709  1.00  0.00     0.012 A 
ATOM     95  C   UNL     1       0.137  -5.697  -7.526  1.00  0.00     0.148 A 
ATOM     96  C   UNL     1      -1.779  -7.152  -8.975  1.00  0.00     0.002 A 
ATOM     97  C   UNL     1       0.425  -6.154  -8.807  1.00  0.00     0.091 A 
ATOM     98  F   UNL     1       1.043  -5.030  -6.796  1.00  0.00    -0.205 F 
ATOM     99  C   UNL     1      -0.527  -6.890  -9.529  1.00  0.00     0.022 A 
BRANCH  97 100
ATOM    100  S   UNL     1       1.976  -5.776  -9.634  1.00  0.00     0.127 S 
ATOM    101  O   UNL     1       2.683  -7.052  -9.538  1.00  0.00    -0.237 OA
ATOM    102  O   UNL     1       1.534  -5.425 -10.984  1.00  0.00    -0.237 OA
ATOM    103  O   UNL     1       2.566  -4.673  -8.888  1.00  0.00    -0.744 OA
ENDBRANCH  97 100
ENDBRANCH  70  93
ENDBRANCH  44  45
ENDBRANCH  37  39
ENDBRANCH  36  37
ENDBRANCH  35  36
ENDBRANCH  34  35
ENDBRANCH  33  34
ENDBRANCH  32  33
ENDBRANCH   1  32
TORSDOF 27
