REMARK SMILES Cc1cc(C)c2c(OCCCC(=O)OCCOCCOCCOC(=O)c3ccc(-c4c5nc(c(-c6cccc(S(=O)(=O)[O-])c6F)c6ccc([nH]6)c(-c6cccc(S(=O)(=O)[O-])c6F)c6nc(c(-c7cccc(S(=O)(=O)[O-])c7F)c7ccc4[nH]7)C=C6)C=C5)cc3)nsc2n1
REMARK SMILES IDX 18 1 17 2 16 3 15 4 14 5 12 6 13 7 11 8 10 9 9 10 8 11 7 12
REMARK SMILES IDX 1 13 2 14 3 15 92 16 4 17 91 18 5 19 6 20 90 21 89 22 19 23
REMARK SMILES IDX 20 24 21 25 22 26 23 27 24 28 25 29 26 30 27 31 88 32 28 33
REMARK SMILES IDX 87 34 29 35 30 36 31 37 81 38 32 39 86 40 80 41 82 42 33 43
REMARK SMILES IDX 85 44 79 45 78 46 34 48 66 49 46 50 65 51 47 52 50 53 64 54
REMARK SMILES IDX 83 55 48 56 49 57 63 59 84 60 51 61 35 62 36 63 44 64 37 65
REMARK SMILES IDX 39 66 45 67 38 68 40 69 41 70 42 71 43 72 67 73 68 74 76 75
REMARK SMILES IDX 69 76 71 77 77 78 70 79 72 80 73 81 74 82 75 83 52 84 53 85
REMARK SMILES IDX 61 86 54 87 56 88 62 89 55 90 57 91 58 92 59 93 60 94
REMARK H PARENT 82 47 50 58
REMARK Flexibility Score: inf
ROOT
ATOM      1  C   UNL     1      -3.256   0.130   3.950  1.00  0.00     0.188 C 
ENDROOT
BRANCH   1   2
ATOM      2  O   UNL     1      -2.269  -0.564   4.685  1.00  0.00    -0.376 OA
BRANCH   2   3
ATOM      3  C   UNL     1      -0.929  -0.151   4.497  1.00  0.00     0.202 C 
BRANCH   3   4
ATOM      4  C   UNL     1      -0.500   0.431   3.143  1.00  0.00     0.261 C 
BRANCH   4   5
ATOM      5  O   UNL     1      -1.187   1.640   2.692  1.00  0.00    -0.463 OA
BRANCH   5   6
ATOM      6  C   UNL     1      -1.640   1.664   1.415  1.00  0.00     0.305 C 
ATOM      7  O   UNL     1      -1.546   0.691   0.667  1.00  0.00    -0.252 OA
BRANCH   6   8
ATOM      8  C   UNL     1      -2.222   2.980   0.873  1.00  0.00     0.126 C 
BRANCH   8   9
ATOM      9  C   UNL     1      -2.810   4.188   1.621  1.00  0.00     0.053 C 
BRANCH   9  10
ATOM     10  C   UNL     1      -2.006   5.298   2.330  1.00  0.00     0.232 C 
BRANCH  10  11
ATOM     11  O   UNL     1      -1.154   6.205   1.641  1.00  0.00    -0.477 OA
BRANCH  11  12
ATOM     12  C   UNL     1      -0.220   5.724   0.798  1.00  0.00     0.235 A 
ATOM     13  C   UNL     1       1.801   0.771  -0.485  1.00  0.00     0.067 C 
ATOM     14  C   UNL     1       1.656   2.179   0.021  1.00  0.00     0.039 A 
ATOM     15  C   UNL     1       1.538   2.414   1.386  1.00  0.00     0.027 A 
ATOM     16  N   UNL     1       1.564   3.152  -0.898  1.00  0.00    -0.240 NA
ATOM     17  C   UNL     1       0.990   3.619   1.874  1.00  0.00    -0.034 A 
ATOM     18  C   UNL     1       1.066   4.303  -0.414  1.00  0.00     0.147 A 
ATOM     19  C   UNL     1       0.730   3.771   3.348  1.00  0.00     0.045 C 
ATOM     20  C   UNL     1       0.625   4.563   0.885  1.00  0.00     0.078 A 
ATOM     21  S   UNL     1       0.836   5.680  -1.385  1.00  0.00    -0.012 S 
ATOM     22  N   UNL     1      -0.087   6.497  -0.280  1.00  0.00    -0.153 NA
ENDBRANCH  11  12
ENDBRANCH  10  11
ENDBRANCH   9  10
ENDBRANCH   8   9
ENDBRANCH   6   8
ENDBRANCH   5   6
ENDBRANCH   4   5
ENDBRANCH   3   4
ENDBRANCH   2   3
ENDBRANCH   1   2
BRANCH   1  23
ATOM     23  C   UNL     1      -3.484   1.620   4.283  1.00  0.00     0.188 C 
BRANCH  23  24
ATOM     24  O   UNL     1      -2.466   2.354   4.940  1.00  0.00    -0.376 OA
BRANCH  24  25
ATOM     25  C   UNL     1      -2.248   2.341   6.345  1.00  0.00     0.202 C 
BRANCH  25  26
ATOM     26  C   UNL     1      -2.990   1.498   7.381  1.00  0.00     0.261 C 
BRANCH  26  27
ATOM     27  O   UNL     1      -3.833   0.504   6.864  1.00  0.00    -0.460 OA
BRANCH  27  28
ATOM     28  C   UNL     1      -5.100   0.919   6.658  1.00  0.00     0.338 C 
ATOM     29  O   UNL     1      -5.536   2.043   6.776  1.00  0.00    -0.246 OA
BRANCH  28  30
ATOM     30  C   UNL     1      -5.872  -0.241   6.211  1.00  0.00     0.060 A 
ATOM     31  C   UNL     1      -7.124   0.015   5.661  1.00  0.00     0.016 A 
ATOM     32  C   UNL     1      -5.430  -1.536   6.521  1.00  0.00     0.016 A 
ATOM     33  C   UNL     1      -8.046  -0.997   5.711  1.00  0.00     0.010 A 
ATOM     34  C   UNL     1      -6.351  -2.547   6.568  1.00  0.00     0.010 A 
ATOM     35  C   UNL     1      -7.668  -2.222   6.282  1.00  0.00    -0.014 A 
BRANCH  35  36
ATOM     36  C   UNL     1      -8.705  -3.205   6.479  1.00  0.00     0.031 A 
ATOM     37  C   UNL     1      -9.148  -3.733   5.181  1.00  0.00     0.074 A 
ATOM     38  C   UNL     1      -9.170  -3.530   7.703  1.00  0.00     0.049 A 
ATOM     39  N   UNL     1     -10.166  -3.320   4.501  1.00  0.00    -0.248 NA
ATOM     40  C   UNL     1      -8.227  -4.589   4.415  1.00  0.00     0.031 C 
ATOM     41  C   UNL     1      -8.550  -3.208   8.995  1.00  0.00     0.029 A 
ATOM     42  N   UNL     1     -10.227  -4.309   8.067  1.00  0.00    -0.354 N 
ATOM     43  C   UNL     1     -10.219  -4.197   3.427  1.00  0.00     0.074 A 
ATOM     44  C   UNL     1      -8.885  -4.702   3.257  1.00  0.00     0.031 C 
ATOM     45  C   UNL     1      -9.074  -4.006   9.954  1.00  0.00     0.029 A 
ATOM     46  C   UNL     1     -10.169  -4.769   9.383  1.00  0.00     0.049 A 
ATOM     47  H   UNL     1     -10.967  -4.529   7.456  1.00  0.00     0.167 HD
ATOM     48  C   UNL     1     -11.415  -4.781   3.144  1.00  0.00     0.034 A 
ATOM     49  C   UNL     1     -10.936  -5.746   9.930  1.00  0.00     0.034 A 
ATOM     50  C   UNL     1     -12.496  -4.049   3.758  1.00  0.00     0.049 A 
ATOM     51  C   UNL     1     -12.172  -5.827   9.125  1.00  0.00     0.074 A 
ATOM     52  C   UNL     1     -13.149  -2.851   3.575  1.00  0.00     0.029 A 
ATOM     53  N   UNL     1     -12.745  -4.455   5.040  1.00  0.00    -0.354 N 
ATOM     54  N   UNL     1     -13.068  -4.880   9.097  1.00  0.00    -0.248 NA
ATOM     55  C   UNL     1     -12.264  -6.827   8.065  1.00  0.00     0.031 C 
ATOM     56  C   UNL     1     -13.782  -2.542   4.814  1.00  0.00     0.029 A 
ATOM     57  C   UNL     1     -13.547  -3.580   5.710  1.00  0.00     0.049 A 
ATOM     58  H   UNL     1     -12.386  -5.284   5.434  1.00  0.00     0.167 HD
ATOM     59  C   UNL     1     -13.510  -4.905   7.790  1.00  0.00     0.074 A 
ATOM     60  C   UNL     1     -13.139  -6.213   7.266  1.00  0.00     0.031 C 
ATOM     61  C   UNL     1     -13.779  -3.750   7.125  1.00  0.00     0.034 A 
BRANCH  48  62
ATOM     62  C   UNL     1     -11.590  -6.258   2.840  1.00  0.00     0.023 A 
ATOM     63  C   UNL     1     -12.888  -6.682   2.481  1.00  0.00     0.012 A 
ATOM     64  C   UNL     1     -10.659  -7.276   3.156  1.00  0.00     0.148 A 
ATOM     65  C   UNL     1     -13.238  -8.037   2.451  1.00  0.00     0.002 A 
ATOM     66  C   UNL     1     -10.982  -8.621   3.038  1.00  0.00     0.091 A 
ATOM     67  F   UNL     1      -9.490  -6.971   3.719  1.00  0.00    -0.205 F 
ATOM     68  C   UNL     1     -12.281  -9.009   2.713  1.00  0.00     0.022 A 
BRANCH  66  69
ATOM     69  S   UNL     1      -9.761  -9.911   3.318  1.00  0.00     0.127 S 
ATOM     70  O   UNL     1     -10.285 -10.554   4.518  1.00  0.00    -0.237 OA
ATOM     71  O   UNL     1      -9.880 -10.695   2.088  1.00  0.00    -0.237 OA
ATOM     72  O   UNL     1      -8.484  -9.223   3.465  1.00  0.00    -0.744 OA
ENDBRANCH  66  69
ENDBRANCH  48  62
BRANCH  49  73
ATOM     73  C   UNL     1     -10.614  -6.810  10.916  1.00  0.00     0.023 A 
ATOM     74  C   UNL     1     -11.670  -7.553  11.492  1.00  0.00     0.012 A 
ATOM     75  C   UNL     1      -9.307  -7.331  11.016  1.00  0.00     0.148 A 
ATOM     76  C   UNL     1     -11.446  -8.809  12.067  1.00  0.00     0.002 A 
ATOM     77  C   UNL     1      -9.090  -8.586  11.581  1.00  0.00     0.091 A 
ATOM     78  F   UNL     1      -8.295  -6.641  10.475  1.00  0.00    -0.205 F 
ATOM     79  C   UNL     1     -10.159  -9.336  12.090  1.00  0.00     0.022 A 
BRANCH  77  80
ATOM     80  S   UNL     1      -7.468  -9.363  11.604  1.00  0.00     0.127 S 
ATOM     81  O   UNL     1      -7.333  -9.735  13.013  1.00  0.00    -0.237 OA
ATOM     82  O   UNL     1      -7.658 -10.486  10.691  1.00  0.00    -0.237 OA
ATOM     83  O   UNL     1      -6.529  -8.339  11.161  1.00  0.00    -0.744 OA
ENDBRANCH  77  80
ENDBRANCH  49  73
BRANCH  61  84
ATOM     84  C   UNL     1     -14.249  -2.566   7.903  1.00  0.00     0.023 A 
ATOM     85  C   UNL     1     -13.427  -1.786   8.735  1.00  0.00     0.012 A 
ATOM     86  C   UNL     1     -15.566  -2.153   7.644  1.00  0.00     0.148 A 
ATOM     87  C   UNL     1     -13.917  -0.595   9.282  1.00  0.00     0.002 A 
ATOM     88  C   UNL     1     -16.027  -0.946   8.137  1.00  0.00     0.091 A 
ATOM     89  F   UNL     1     -16.333  -2.942   6.875  1.00  0.00    -0.205 F 
ATOM     90  C   UNL     1     -15.208  -0.164   8.965  1.00  0.00     0.022 A 
BRANCH  88  91
ATOM     91  S   UNL     1     -17.615  -0.288   7.631  1.00  0.00     0.127 S 
ATOM     92  O   UNL     1     -18.403  -0.417   8.854  1.00  0.00    -0.237 OA
ATOM     93  O   UNL     1     -17.275   1.086   7.260  1.00  0.00    -0.237 OA
ATOM     94  O   UNL     1     -18.057  -1.113   6.513  1.00  0.00    -0.744 OA
ENDBRANCH  88  91
ENDBRANCH  61  84
ENDBRANCH  35  36
ENDBRANCH  28  30
ENDBRANCH  27  28
ENDBRANCH  26  27
ENDBRANCH  25  26
ENDBRANCH  24  25
ENDBRANCH  23  24
ENDBRANCH   1  23
TORSDOF 24
