REMARK SMILES Cc1c(CC(=O)OCCOCCOCCOC(=O)c2ccc(-c3c4nc(c(-c5cccc(S(=O)(=O)[O-])c5F)c5ccc([nH]5)c(-c5cccc(S(=O)(=O)[O-])c5F)c5nc(c(-c6cccc(S(=O)(=O)[O-])c6F)c6ccc3[nH]6)C=C5)C=C4)cc2)c(=O)oc2c(C)c3occ(-c4ccc5c(c4)OCCCO5)c3cc12
REMARK SMILES IDX 11 1 10 2 9 3 8 4 7 5 5 6 6 7 4 8 3 9 1 10 2 11 105 12 82 13
REMARK SMILES IDX 85 14 104 15 83 16 84 17 86 18 103 19 87 20 88 21 91 22
REMARK SMILES IDX 89 23 90 24 92 25 93 26 97 27 94 28 96 29 95 30 98 31 99 32
REMARK SMILES IDX 102 34 101 35 100 36 12 38 13 39 14 40 15 41 16 42 17 43
REMARK SMILES IDX 18 44 19 45 20 46 81 47 21 48 80 49 22 50 23 51 24 52 74 53
REMARK SMILES IDX 25 54 79 55 73 56 75 57 26 58 78 59 72 60 71 61 27 63 59 64
REMARK SMILES IDX 39 65 58 66 40 67 43 68 57 69 76 70 41 71 42 72 56 74 77 75
REMARK SMILES IDX 44 76 28 77 29 78 37 79 30 80 32 81 38 82 31 83 33 84 34 85
REMARK SMILES IDX 35 86 36 87 60 88 61 89 69 90 62 91 64 92 70 93 63 94 65 95
REMARK SMILES IDX 66 96 67 97 68 98 45 99 46 100 54 101 47 102 49 103 55 104
REMARK SMILES IDX 48 105 50 106 51 107 52 108 53 109
REMARK H PARENT 75 62 43 73
REMARK Flexibility Score: 80.00
ROOT
ATOM      1  C   UNL     1       3.347  -0.171  -0.360  1.00  0.00     0.188 C 
ENDROOT
BRANCH   1   2
ATOM      2  O   UNL     1       4.638  -0.164  -0.963  1.00  0.00    -0.376 OA
BRANCH   2   3
ATOM      3  C   UNL     1       5.560   0.844  -0.596  1.00  0.00     0.202 C 
BRANCH   3   4
ATOM      4  C   UNL     1       5.212   2.283  -1.005  1.00  0.00     0.261 C 
BRANCH   4   5
ATOM      5  O   UNL     1       3.824   2.671  -0.880  1.00  0.00    -0.463 OA
BRANCH   5   6
ATOM      6  C   UNL     1       3.126   2.801  -2.036  1.00  0.00     0.310 C 
ATOM      7  O   UNL     1       3.612   2.627  -3.152  1.00  0.00    -0.252 OA
BRANCH   6   8
ATOM      8  C   UNL     1       1.670   3.251  -1.884  1.00  0.00     0.166 C 
BRANCH   8   9
ATOM      9  C   UNL     1       0.920   3.055  -0.583  1.00  0.00     0.052 A 
ATOM     10  C   UNL     1      -0.085   0.792  -1.167  1.00  0.00     0.046 C 
ATOM     11  C   UNL     1       0.167   1.980  -0.265  1.00  0.00    -0.029 A 
ATOM     12  C   UNL     1      -0.482   1.934   1.059  1.00  0.00     0.022 A 
ATOM     13  C   UNL     1       0.936   4.246   0.318  1.00  0.00     0.340 A 
ATOM     14  C   UNL     1      -0.618   3.099   1.821  1.00  0.00     0.145 A 
ATOM     15  C   UNL     1      -0.961   0.734   1.587  1.00  0.00     0.025 A 
ATOM     16  O   UNL     1       1.652   5.215   0.084  1.00  0.00    -0.246 OA
ATOM     17  O   UNL     1       0.025   4.272   1.369  1.00  0.00    -0.422 OA
ATOM     18  C   UNL     1      -1.312   3.163   3.054  1.00  0.00     0.036 A 
ATOM     19  C   UNL     1      -1.588   0.731   2.837  1.00  0.00     0.029 A 
ATOM     20  C   UNL     1      -1.542   4.409   3.843  1.00  0.00     0.052 C 
ATOM     21  C   UNL     1      -1.775   1.926   3.510  1.00  0.00     0.141 A 
ATOM     22  C   UNL     1      -2.110  -0.276   3.668  1.00  0.00     0.028 A 
ATOM     23  O   UNL     1      -2.453   1.702   4.676  1.00  0.00    -0.463 OA
ATOM     24  C   UNL     1      -2.658   0.360   4.761  1.00  0.00     0.205 A 
BRANCH  22  25
ATOM     25  C   UNL     1      -2.172  -1.695   3.453  1.00  0.00    -0.011 A 
ATOM     26  C   UNL     1      -1.464  -2.557   4.305  1.00  0.00     0.013 A 
ATOM     27  C   UNL     1      -3.011  -2.192   2.449  1.00  0.00     0.059 A 
ATOM     28  C   UNL     1      -1.772  -3.908   4.315  1.00  0.00     0.051 A 
ATOM     29  C   UNL     1      -3.322  -3.535   2.469  1.00  0.00     0.161 A 
ATOM     30  C   UNL     1      -2.803  -4.336   3.488  1.00  0.00     0.161 A 
BRANCH  29  31
ATOM     31  O   UNL     1      -4.215  -4.072   1.592  1.00  0.00    -0.490 OA
BRANCH  31  32
ATOM     32  C   UNL     1      -5.556  -3.982   2.069  1.00  0.00     0.233 CG0
ATOM     33  G   UNL     1      -5.888  -4.658   3.404  1.00  0.00     0.000 G0
ENDBRANCH  31  32
ENDBRANCH  29  31
BRANCH  30  34
ATOM     34  O   UNL     1      -3.596  -5.357   3.959  1.00  0.00    -0.490 OA
BRANCH  34  35
ATOM     35  C   UNL     1      -4.789  -4.708   4.451  1.00  0.00     0.233 C 
BRANCH  35  36
ATOM     36  C   UNL     1      -5.888  -4.658   3.404  1.00  0.00     0.083 CG0
ATOM     37  G   UNL     1      -5.556  -3.982   2.069  1.00  0.00     0.000 G0
ENDBRANCH  35  36
ENDBRANCH  34  35
ENDBRANCH  30  34
ENDBRANCH  22  25
ENDBRANCH   8   9
ENDBRANCH   6   8
ENDBRANCH   5   6
ENDBRANCH   4   5
ENDBRANCH   3   4
ENDBRANCH   2   3
ENDBRANCH   1   2
BRANCH   1  38
ATOM     38  C   UNL     1       3.094   0.575   0.970  1.00  0.00     0.188 C 
BRANCH  38  39
ATOM     39  O   UNL     1       4.243   0.604   1.798  1.00  0.00    -0.376 OA
BRANCH  39  40
ATOM     40  C   UNL     1       4.094   0.192   3.139  1.00  0.00     0.202 C 
BRANCH  40  41
ATOM     41  C   UNL     1       4.004  -1.315   3.342  1.00  0.00     0.261 C 
BRANCH  41  42
ATOM     42  O   UNL     1       3.479  -2.031   2.235  1.00  0.00    -0.460 OA
BRANCH  42  43
ATOM     43  C   UNL     1       2.134  -2.115   2.227  1.00  0.00     0.338 C 
ATOM     44  O   UNL     1       1.354  -1.406   2.832  1.00  0.00    -0.246 OA
BRANCH  43  45
ATOM     45  C   UNL     1       1.743  -3.307   1.472  1.00  0.00     0.060 A 
ATOM     46  C   UNL     1       0.405  -3.393   1.104  1.00  0.00     0.016 A 
ATOM     47  C   UNL     1       2.581  -4.430   1.529  1.00  0.00     0.016 A 
ATOM     48  C   UNL     1      -0.165  -4.641   1.082  1.00  0.00     0.010 A 
ATOM     49  C   UNL     1       2.004  -5.677   1.511  1.00  0.00     0.010 A 
ATOM     50  C   UNL     1       0.618  -5.750   1.428  1.00  0.00    -0.014 A 
BRANCH  50  51
ATOM     51  C   UNL     1      -0.098  -6.980   1.717  1.00  0.00     0.031 A 
ATOM     52  C   UNL     1      -0.863  -7.486   0.560  1.00  0.00     0.074 A 
ATOM     53  C   UNL     1      -0.040  -7.579   2.924  1.00  0.00     0.049 A 
ATOM     54  N   UNL     1      -2.136  -7.684   0.475  1.00  0.00    -0.248 NA
ATOM     55  C   UNL     1      -0.138  -7.614  -0.714  1.00  0.00     0.031 C 
ATOM     56  C   UNL     1       0.865  -7.247   4.031  1.00  0.00     0.029 A 
ATOM     57  N   UNL     1      -0.665  -8.711   3.364  1.00  0.00    -0.354 N 
ATOM     58  C   UNL     1      -2.332  -8.186  -0.805  1.00  0.00     0.074 A 
ATOM     59  C   UNL     1      -1.125  -7.936  -1.547  1.00  0.00     0.031 C 
ATOM     60  C   UNL     1       0.941  -8.304   4.867  1.00  0.00     0.029 A 
ATOM     61  C   UNL     1       0.004  -9.320   4.420  1.00  0.00     0.049 A 
ATOM     62  H   UNL     1      -1.499  -9.059   2.974  1.00  0.00     0.167 HD
ATOM     63  C   UNL     1      -3.344  -9.049  -1.065  1.00  0.00     0.034 A 
ATOM     64  C   UNL     1      -0.116 -10.610   4.813  1.00  0.00     0.034 A 
ATOM     65  C   UNL     1      -4.376  -8.992  -0.069  1.00  0.00     0.049 A 
ATOM     66  C   UNL     1      -1.403 -11.123   4.295  1.00  0.00     0.074 A 
ATOM     67  C   UNL     1      -5.330  -8.083   0.325  1.00  0.00     0.029 A 
ATOM     68  N   UNL     1      -4.263  -9.928   0.925  1.00  0.00    -0.354 N 
ATOM     69  N   UNL     1      -2.571 -10.738   4.724  1.00  0.00    -0.248 NA
ATOM     70  C   UNL     1      -1.415 -11.893   3.059  1.00  0.00     0.031 C 
ATOM     71  C   UNL     1      -5.613  -8.385   1.686  1.00  0.00     0.029 A 
ATOM     72  C   UNL     1      -4.811  -9.457   2.085  1.00  0.00     0.049 A 
ATOM     73  H   UNL     1      -3.846 -10.814   0.819  1.00  0.00     0.167 HD
ATOM     74  C   UNL     1      -3.386 -10.817   3.606  1.00  0.00     0.074 A 
ATOM     75  C   UNL     1      -2.684 -11.705   2.691  1.00  0.00     0.031 C 
ATOM     76  C   UNL     1      -4.385  -9.910   3.397  1.00  0.00     0.034 A 
BRANCH  63  77
ATOM     77  C   UNL     1      -3.181 -10.260  -1.953  1.00  0.00     0.023 A 
ATOM     78  C   UNL     1      -4.344 -10.988  -2.278  1.00  0.00     0.012 A 
ATOM     79  C   UNL     1      -1.938 -10.876  -2.232  1.00  0.00     0.148 A 
ATOM     80  C   UNL     1      -4.271 -12.271  -2.830  1.00  0.00     0.002 A 
ATOM     81  C   UNL     1      -1.871 -12.106  -2.869  1.00  0.00     0.091 A 
ATOM     82  F   UNL     1      -0.805 -10.355  -1.751  1.00  0.00    -0.205 F 
ATOM     83  C   UNL     1      -3.034 -12.825  -3.142  1.00  0.00     0.022 A 
BRANCH  81  84
ATOM     84  S   UNL     1      -0.294 -12.819  -3.349  1.00  0.00     0.127 S 
ATOM     85  O   UNL     1      -0.112 -13.847  -2.329  1.00  0.00    -0.237 OA
ATOM     86  O   UNL     1      -0.588 -13.320  -4.691  1.00  0.00    -0.237 OA
ATOM     87  O   UNL     1       0.654 -11.710  -3.325  1.00  0.00    -0.744 OA
ENDBRANCH  81  84
ENDBRANCH  63  77
BRANCH  64  88
ATOM     88  C   UNL     1       0.916 -11.522   5.364  1.00  0.00     0.023 A 
ATOM     89  C   UNL     1       0.507 -12.717   5.991  1.00  0.00     0.012 A 
ATOM     90  C   UNL     1       2.282 -11.381   5.032  1.00  0.00     0.148 A 
ATOM     91  C   UNL     1       1.415 -13.756   6.227  1.00  0.00     0.002 A 
ATOM     92  C   UNL     1       3.184 -12.411   5.282  1.00  0.00     0.091 A 
ATOM     93  F   UNL     1       2.685 -10.283   4.381  1.00  0.00    -0.205 F 
ATOM     94  C   UNL     1       2.750 -13.608   5.864  1.00  0.00     0.022 A 
BRANCH  92  95
ATOM     95  S   UNL     1       4.919 -12.291   4.825  1.00  0.00     0.127 S 
ATOM     96  O   UNL     1       5.586 -12.783   6.031  1.00  0.00    -0.237 OA
ATOM     97  O   UNL     1       4.991 -13.188   3.676  1.00  0.00    -0.237 OA
ATOM     98  O   UNL     1       5.159 -10.880   4.546  1.00  0.00    -0.744 OA
ENDBRANCH  92  95
ENDBRANCH  64  88
BRANCH  76  99
ATOM     99  C   UNL     1      -4.899  -9.142   4.588  1.00  0.00     0.023 A 
ATOM    100  C   UNL     1      -4.073  -8.312   5.371  1.00  0.00     0.012 A 
ATOM    101  C   UNL     1      -6.284  -9.145   4.837  1.00  0.00     0.148 A 
ATOM    102  C   UNL     1      -4.607  -7.543   6.407  1.00  0.00     0.002 A 
ATOM    103  C   UNL     1      -6.823  -8.303   5.801  1.00  0.00     0.091 A 
ATOM    104  F   UNL     1      -7.062  -9.947   4.093  1.00  0.00    -0.205 F 
ATOM    105  C   UNL     1      -5.985  -7.518   6.606  1.00  0.00     0.022 A 
BRANCH 103 106
ATOM    106  S   UNL     1      -8.592  -8.062   5.971  1.00  0.00     0.127 S 
ATOM    107  O   UNL     1      -8.853  -8.627   7.293  1.00  0.00    -0.237 OA
ATOM    108  O   UNL     1      -8.708  -6.604   5.893  1.00  0.00    -0.237 OA
ATOM    109  O   UNL     1      -9.209  -8.769   4.856  1.00  0.00    -0.744 OA
ENDBRANCH 103 106
ENDBRANCH  76  99
ENDBRANCH  50  51
ENDBRANCH  43  45
ENDBRANCH  42  43
ENDBRANCH  41  42
ENDBRANCH  40  41
ENDBRANCH  39  40
ENDBRANCH  38  39
ENDBRANCH   1  38
TORSDOF 22
