REMARK SMILES CCc1nc2sc(C(=O)NCC(=O)OCCOCCOCCOC(=O)c3ccc(-c4c5nc(c(-c6cccc(S(=O)(=O)[O-])c6F)c6ccc([nH]6)c(-c6cccc(S(=O)(=O)[O-])c6F)c6nc(c(-c7cccc(S(=O)(=O)[O-])c7F)c7ccc4[nH]7)C=C6)C=C5)cc3)c(N)c2c(C(F)(F)F)c1C
REMARK SMILES IDX 18 1 17 2 16 3 15 4 14 5 12 6 13 7 11 8 10 9 8 10 9 11 7 13
REMARK SMILES IDX 3 14 4 15 97 16 5 17 92 18 98 19 6 20 91 21 89 22 2 23 1 24
REMARK SMILES IDX 93 25 94 26 95 27 96 28 90 29 19 32 20 33 21 34 22 35 23 36
REMARK SMILES IDX 24 37 25 38 26 39 27 40 88 41 28 42 87 43 29 44 30 45 31 46
REMARK SMILES IDX 81 47 32 48 86 49 80 50 82 51 33 52 85 53 79 54 78 55 34 57
REMARK SMILES IDX 66 58 46 59 65 60 47 61 50 62 64 63 83 64 48 65 49 66 63 68
REMARK SMILES IDX 84 69 51 70 35 71 36 72 44 73 37 74 39 75 45 76 38 77 40 78
REMARK SMILES IDX 41 79 42 80 43 81 67 82 68 83 76 84 69 85 71 86 77 87 70 88
REMARK SMILES IDX 72 89 73 90 74 91 75 92 52 93 53 94 61 95 54 96 56 97 62 98
REMARK SMILES IDX 55 99 57 100 58 101 59 102 60 103
REMARK H PARENT 10 12 90 30 90 31 82 56 50 67
REMARK Flexibility Score: inf
ROOT
ATOM      1  C   UNL     1       2.699  12.044   1.928  1.00  0.00     0.188 C 
ENDROOT
BRANCH   1   2
ATOM      2  O   UNL     1       2.542  12.258   3.308  1.00  0.00    -0.376 OA
BRANCH   2   3
ATOM      3  C   UNL     1       2.703  11.186   4.216  1.00  0.00     0.202 C 
BRANCH   3   4
ATOM      4  C   UNL     1       2.349   9.727   3.862  1.00  0.00     0.261 C 
BRANCH   4   5
ATOM      5  O   UNL     1       2.853   9.236   2.604  1.00  0.00    -0.462 OA
BRANCH   5   6
ATOM      6  C   UNL     1       1.940   9.100   1.601  1.00  0.00     0.325 C 
ATOM      7  O   UNL     1       0.732   9.271   1.761  1.00  0.00    -0.250 OA
BRANCH   6   8
ATOM      8  C   UNL     1       2.570   8.926   0.200  1.00  0.00     0.239 C 
BRANCH   8   9
ATOM      9  N   UNL     1       3.854   8.268   0.115  1.00  0.00    -0.340 N 
ATOM     10  C   UNL     1       4.145   6.931  -0.026  1.00  0.00     0.264 C 
ATOM     11  O   UNL     1       5.325   6.689  -0.302  1.00  0.00    -0.268 OA
ATOM     12  H   UNL     1       4.636   8.865   0.165  1.00  0.00     0.164 HD
BRANCH  10  13
ATOM     13  C   UNL     1       3.146   5.874   0.178  1.00  0.00     0.118 A 
ATOM     14  C   UNL     1       0.792   1.861   0.969  1.00  0.00     0.045 A 
ATOM     15  N   UNL     1       2.032   2.255   0.594  1.00  0.00    -0.242 NA
ATOM     16  C   UNL     1      -0.240   2.743   1.340  1.00  0.00    -0.017 A 
ATOM     17  C   UNL     1       2.217   3.579   0.507  1.00  0.00     0.127 A 
ATOM     18  C   UNL     1      -0.028   4.132   1.192  1.00  0.00     0.073 A 
ATOM     19  C   UNL     1      -1.565   2.271   1.876  1.00  0.00     0.047 C 
ATOM     20  S   UNL     1       3.719   4.235   0.060  1.00  0.00    -0.108 S 
ATOM     21  C   UNL     1       1.263   4.540   0.751  1.00  0.00     0.048 A 
ATOM     22  C   UNL     1       1.796   5.831   0.478  1.00  0.00     0.066 A 
BRANCH  14  23
ATOM     23  C   UNL     1       0.618   0.360   1.001  1.00  0.00     0.053 C 
ATOM     24  C   UNL     1       1.239  -0.330  -0.208  1.00  0.00     0.011 C 
ENDBRANCH  14  23
BRANCH  18  25
ATOM     25  C   UNL     1      -1.087   5.180   1.486  1.00  0.00     0.417 C 
ATOM     26  F   UNL     1      -0.679   6.078   2.433  1.00  0.00    -0.166 F 
ATOM     27  F   UNL     1      -1.409   5.920   0.381  1.00  0.00    -0.166 F 
ATOM     28  F   UNL     1      -2.282   4.718   1.942  1.00  0.00    -0.166 F 
ENDBRANCH  18  25
BRANCH  22  29
ATOM     29  N   UNL     1       0.951   6.868   0.555  1.00  0.00    -0.397 N 
ATOM     30  H   UNL     1       1.274   7.780   0.374  1.00  0.00     0.156 HD
ATOM     31  H   UNL     1       0.007   6.717   0.791  1.00  0.00     0.156 HD
ENDBRANCH  22  29
ENDBRANCH  10  13
ENDBRANCH   8   9
ENDBRANCH   6   8
ENDBRANCH   5   6
ENDBRANCH   4   5
ENDBRANCH   3   4
ENDBRANCH   2   3
ENDBRANCH   1   2
BRANCH   1  32
ATOM     32  C   UNL     1       4.056  11.619   1.351  1.00  0.00     0.188 C 
BRANCH  32  33
ATOM     33  O   UNL     1       4.954  10.710   1.949  1.00  0.00    -0.376 OA
BRANCH  33  34
ATOM     34  C   UNL     1       5.838  11.029   3.017  1.00  0.00     0.202 C 
BRANCH  34  35
ATOM     35  C   UNL     1       6.515  12.387   3.220  1.00  0.00     0.261 C 
BRANCH  35  36
ATOM     36  O   UNL     1       5.915  13.447   2.523  1.00  0.00    -0.460 OA
BRANCH  36  37
ATOM     37  C   UNL     1       6.325  13.538   1.242  1.00  0.00     0.338 C 
ATOM     38  O   UNL     1       7.131  12.818   0.661  1.00  0.00    -0.246 OA
BRANCH  37  39
ATOM     39  C   UNL     1       5.530  14.588   0.605  1.00  0.00     0.060 A 
ATOM     40  C   UNL     1       5.674  14.723  -0.772  1.00  0.00     0.016 A 
ATOM     41  C   UNL     1       4.915  15.555   1.412  1.00  0.00     0.016 A 
ATOM     42  C   UNL     1       5.625  15.995  -1.260  1.00  0.00     0.010 A 
ATOM     43  C   UNL     1       4.884  16.827   0.932  1.00  0.00     0.010 A 
ATOM     44  C   UNL     1       5.396  17.025  -0.342  1.00  0.00    -0.014 A 
BRANCH  44  45
ATOM     45  C   UNL     1       5.723  18.361  -0.751  1.00  0.00     0.031 A 
ATOM     46  C   UNL     1       4.683  18.891  -1.636  1.00  0.00     0.074 A 
ATOM     47  C   UNL     1       6.848  18.963  -0.323  1.00  0.00     0.049 A 
ATOM     48  N   UNL     1       4.732  18.946  -2.924  1.00  0.00    -0.248 NA
ATOM     49  C   UNL     1       3.342  19.094  -1.069  1.00  0.00     0.031 C 
ATOM     50  C   UNL     1       7.762  18.530   0.744  1.00  0.00     0.029 A 
ATOM     51  N   UNL     1       7.348  20.174  -0.674  1.00  0.00    -0.354 N 
ATOM     52  C   UNL     1       3.515  19.503  -3.285  1.00  0.00     0.074 A 
ATOM     53  C   UNL     1       2.626  19.289  -2.177  1.00  0.00     0.031 C 
ATOM     54  C   UNL     1       8.529  19.580   1.123  1.00  0.00     0.029 A 
ATOM     55  C   UNL     1       8.262  20.698   0.236  1.00  0.00     0.049 A 
ATOM     56  H   UNL     1       7.087  20.641  -1.500  1.00  0.00     0.167 HD
ATOM     57  C   UNL     1       3.470  20.426  -4.281  1.00  0.00     0.034 A 
ATOM     58  C   UNL     1       8.669  21.991   0.279  1.00  0.00     0.034 A 
ATOM     59  C   UNL     1       4.688  20.404  -5.054  1.00  0.00     0.049 A 
ATOM     60  C   UNL     1       8.412  22.553  -1.068  1.00  0.00     0.074 A 
ATOM     61  C   UNL     1       5.308  19.517  -5.906  1.00  0.00     0.029 A 
ATOM     62  N   UNL     1       5.644  21.282  -4.607  1.00  0.00    -0.354 N 
ATOM     63  N   UNL     1       9.041  22.163  -2.140  1.00  0.00    -0.248 NA
ATOM     64  C   UNL     1       7.176  23.288  -1.298  1.00  0.00     0.031 C 
ATOM     65  C   UNL     1       6.707  19.745  -5.750  1.00  0.00     0.029 A 
ATOM     66  C   UNL     1       6.898  20.795  -4.849  1.00  0.00     0.049 A 
ATOM     67  H   UNL     1       5.453  22.144  -4.173  1.00  0.00     0.167 HD
ATOM     68  C   UNL     1       8.066  22.180  -3.124  1.00  0.00     0.074 A 
ATOM     69  C   UNL     1       7.012  23.043  -2.601  1.00  0.00     0.031 C 
ATOM     70  C   UNL     1       8.066  21.241  -4.114  1.00  0.00     0.034 A 
BRANCH  57  71
ATOM     71  C   UNL     1       2.586  21.654  -4.254  1.00  0.00     0.023 A 
ATOM     72  C   UNL     1       2.575  22.451  -5.418  1.00  0.00     0.012 A 
ATOM     73  C   UNL     1       1.995  22.212  -3.094  1.00  0.00     0.148 A 
ATOM     74  C   UNL     1       2.029  23.739  -5.419  1.00  0.00     0.002 A 
ATOM     75  C   UNL     1       1.374  23.453  -3.123  1.00  0.00     0.091 A 
ATOM     76  F   UNL     1       2.146  21.624  -1.907  1.00  0.00    -0.205 F 
ATOM     77  C   UNL     1       1.415  24.235  -4.276  1.00  0.00     0.022 A 
BRANCH  75  78
ATOM     78  S   UNL     1       0.521  24.114  -1.685  1.00  0.00     0.127 S 
ATOM     79  O   UNL     1       1.395  25.220  -1.307  1.00  0.00    -0.237 OA
ATOM     80  O   UNL     1      -0.765  24.508  -2.261  1.00  0.00    -0.237 OA
ATOM     81  O   UNL     1       0.435  23.013  -0.734  1.00  0.00    -0.744 OA
ENDBRANCH  75  78
ENDBRANCH  57  71
BRANCH  58  82
ATOM     82  C   UNL     1       8.907  22.888   1.439  1.00  0.00     0.023 A 
ATOM     83  C   UNL     1       9.502  24.148   1.206  1.00  0.00     0.012 A 
ATOM     84  C   UNL     1       8.235  22.686   2.663  1.00  0.00     0.148 A 
ATOM     85  C   UNL     1       9.354  25.198   2.119  1.00  0.00     0.002 A 
ATOM     86  C   UNL     1       8.082  23.738   3.562  1.00  0.00     0.091 A 
ATOM     87  F   UNL     1       7.662  21.500   2.900  1.00  0.00    -0.205 F 
ATOM     88  C   UNL     1       8.623  25.000   3.286  1.00  0.00     0.022 A 
BRANCH  86  89
ATOM     89  S   UNL     1       7.091  23.582   5.056  1.00  0.00     0.127 S 
ATOM     90  O   UNL     1       7.982  24.146   6.070  1.00  0.00    -0.237 OA
ATOM     91  O   UNL     1       5.931  24.407   4.731  1.00  0.00    -0.237 OA
ATOM     92  O   UNL     1       6.829  22.157   5.212  1.00  0.00    -0.744 OA
ENDBRANCH  86  89
ENDBRANCH  58  82
BRANCH  70  93
ATOM     93  C   UNL     1       9.345  20.478  -4.346  1.00  0.00     0.023 A 
ATOM     94  C   UNL     1       9.876  19.555  -3.422  1.00  0.00     0.012 A 
ATOM     95  C   UNL     1       9.946  20.602  -5.609  1.00  0.00     0.148 A 
ATOM     96  C   UNL     1      10.993  18.781  -3.752  1.00  0.00     0.002 A 
ATOM     97  C   UNL     1      11.019  19.792  -5.953  1.00  0.00     0.091 A 
ATOM     98  F   UNL     1       9.433  21.496  -6.467  1.00  0.00    -0.205 F 
ATOM     99  C   UNL     1      11.554  18.887  -5.024  1.00  0.00     0.022 A 
BRANCH  97 100
ATOM    100  S   UNL     1      11.684  19.788  -7.618  1.00  0.00     0.127 S 
ATOM    101  O   UNL     1      12.960  20.478  -7.440  1.00  0.00    -0.237 OA
ATOM    102  O   UNL     1      11.796  18.357  -7.906  1.00  0.00    -0.237 OA
ATOM    103  O   UNL     1      10.705  20.484  -8.444  1.00  0.00    -0.744 OA
ENDBRANCH  97 100
ENDBRANCH  70  93
ENDBRANCH  44  45
ENDBRANCH  37  39
ENDBRANCH  36  37
ENDBRANCH  35  36
ENDBRANCH  34  35
ENDBRANCH  33  34
ENDBRANCH  32  33
ENDBRANCH   1  32
TORSDOF 25
