REMARK SMILES C[C@@H]([C@H]1CC=CS1)n1nccc1NC(=O)CC1(CC(=O)OCCOCCOCCOC(=O)c2ccc(-c3c4nc(c(-c5cccc(S(=O)(=O)[O-])c5F)c5ccc([nH]5)c(-c5cccc(S(=O)(=O)[O-])c5F)c5nc(c(-c6cccc(S(=O)(=O)[O-])c6F)c6ccc3[nH]6)C=C5)C=C4)cc2)CCCCC1
REMARK SMILES IDX 24 1 23 2 22 3 21 4 19 5 20 6 18 7 17 8 96 9 100 10 97 11
REMARK SMILES IDX 99 12 98 13 16 14 14 15 13 16 15 18 12 19 8 20 9 21 10 22
REMARK SMILES IDX 11 23 2 24 1 25 3 26 4 27 7 28 5 29 6 30 25 31 26 32 27 33
REMARK SMILES IDX 28 34 29 35 30 36 31 37 32 38 33 39 34 40 95 41 35 42 94 43
REMARK SMILES IDX 36 44 37 45 38 46 88 47 39 48 93 49 87 50 89 51 40 52 92 53
REMARK SMILES IDX 86 54 85 55 41 57 73 58 53 59 72 60 54 61 57 62 71 63 90 64
REMARK SMILES IDX 55 65 56 66 70 68 91 69 58 70 42 71 43 72 51 73 44 74 46 75
REMARK SMILES IDX 52 76 45 77 47 78 48 79 49 80 50 81 74 82 75 83 83 84 76 85
REMARK SMILES IDX 78 86 84 87 77 88 79 89 80 90 81 91 82 92 59 93 60 94 68 95
REMARK SMILES IDX 61 96 63 97 69 98 62 99 64 100 65 101 66 102 67 103
REMARK H PARENT 13 17 89 56 57 67
REMARK Flexibility Score: inf
ROOT
ATOM      1  O   UNL     1       1.376   9.744   0.945  1.00  0.00    -0.376 OA
ENDROOT
BRANCH   1   2
ATOM      2  C   UNL     1       2.755   9.982   1.195  1.00  0.00     0.202 C 
BRANCH   2   3
ATOM      3  C   UNL     1       3.638   8.765   1.540  1.00  0.00     0.261 C 
BRANCH   3   4
ATOM      4  O   UNL     1       3.749   7.723   0.529  1.00  0.00    -0.463 OA
BRANCH   4   5
ATOM      5  C   UNL     1       3.331   6.487   0.882  1.00  0.00     0.306 C 
ATOM      6  O   UNL     1       2.905   6.209   2.002  1.00  0.00    -0.252 OA
BRANCH   5   7
ATOM      7  C   UNL     1       3.327   5.400  -0.204  1.00  0.00     0.130 C 
BRANCH   7   8
ATOM      8  C   UNL     1       4.053   5.363  -1.597  1.00  0.00    -0.010 C 
ATOM      9  C   UNL     1       4.396   3.867  -1.908  1.00  0.00     0.008 C 
ATOM     10  C   UNL     1       5.377   6.167  -1.625  1.00  0.00     0.008 C 
ATOM     11  C   UNL     1       5.538   3.261  -1.102  1.00  0.00     0.001 C 
ATOM     12  C   UNL     1       6.482   5.564  -0.764  1.00  0.00     0.001 C 
ATOM     13  C   UNL     1       6.783   4.129  -1.182  1.00  0.00     0.000 C 
BRANCH   8  14
ATOM     14  C   UNL     1       3.193   5.858  -2.815  1.00  0.00     0.108 C 
BRANCH  14  15
ATOM     15  C   UNL     1       1.757   5.381  -2.919  1.00  0.00     0.226 C 
ATOM     16  N   UNL     1       1.363   4.149  -3.535  1.00  0.00    -0.311 N 
ATOM     17  H   UNL     1       0.412   3.909  -3.452  1.00  0.00     0.171 HD
ATOM     18  O   UNL     1       0.831   5.959  -2.365  1.00  0.00    -0.275 OA
BRANCH  16  19
ATOM     19  C   UNL     1       2.156   3.258  -4.229  1.00  0.00     0.131 A 
ATOM     20  N   UNL     1       2.026   1.882  -4.261  1.00  0.00    -0.246 N 
ATOM     21  N   UNL     1       3.047   1.285  -4.915  1.00  0.00    -0.179 NA
ATOM     22  C   UNL     1       3.751   2.296  -5.417  1.00  0.00     0.137 A 
ATOM     23  C   UNL     1       3.192   3.543  -5.090  1.00  0.00     0.068 A 
BRANCH  20  24
ATOM     24  C   UNL     1       0.864   1.079  -3.880  1.00  0.00     0.120 C 
ATOM     25  C   UNL     1       0.279   0.451  -5.152  1.00  0.00     0.034 C 
BRANCH  24  26
ATOM     26  C   UNL     1       1.042   0.115  -2.667  1.00  0.00     0.079 C 
ATOM     27  C   UNL     1       0.215  -1.191  -2.721  1.00  0.00     0.045 C 
ATOM     28  S   UNL     1       2.731  -0.439  -2.176  1.00  0.00    -0.128 SA
ATOM     29  C   UNL     1       0.895  -2.220  -1.872  1.00  0.00    -0.019 C 
ATOM     30  C   UNL     1       2.162  -1.948  -1.552  1.00  0.00     0.037 C 
ENDBRANCH  24  26
ENDBRANCH  20  24
ENDBRANCH  16  19
ENDBRANCH  14  15
ENDBRANCH   8  14
ENDBRANCH   7   8
ENDBRANCH   5   7
ENDBRANCH   4   5
ENDBRANCH   3   4
ENDBRANCH   2   3
ENDBRANCH   1   2
BRANCH   1  31
ATOM     31  C   UNL     1       0.997   8.854  -0.093  1.00  0.00     0.188 C 
BRANCH  31  32
ATOM     32  C   UNL     1       1.905   8.681  -1.314  1.00  0.00     0.188 C 
BRANCH  32  33
ATOM     33  O   UNL     1       2.971   9.606  -1.372  1.00  0.00    -0.376 OA
BRANCH  33  34
ATOM     34  C   UNL     1       3.556  10.016  -2.590  1.00  0.00     0.202 C 
BRANCH  34  35
ATOM     35  C   UNL     1       2.663  10.949  -3.372  1.00  0.00     0.261 C 
BRANCH  35  36
ATOM     36  O   UNL     1       1.384  10.400  -3.606  1.00  0.00    -0.460 OA
BRANCH  36  37
ATOM     37  C   UNL     1       1.257   9.284  -4.347  1.00  0.00     0.338 C 
ATOM     38  O   UNL     1       2.109   8.480  -4.669  1.00  0.00    -0.246 OA
BRANCH  37  39
ATOM     39  C   UNL     1      -0.147   9.275  -4.762  1.00  0.00     0.060 A 
ATOM     40  C   UNL     1      -0.564   8.262  -5.623  1.00  0.00     0.016 A 
ATOM     41  C   UNL     1      -0.914  10.426  -4.515  1.00  0.00     0.016 A 
ATOM     42  C   UNL     1      -1.660   8.512  -6.414  1.00  0.00     0.010 A 
ATOM     43  C   UNL     1      -1.950  10.706  -5.348  1.00  0.00     0.010 A 
ATOM     44  C   UNL     1      -2.267   9.769  -6.325  1.00  0.00    -0.014 A 
BRANCH  44  45
ATOM     45  C   UNL     1      -3.414  10.060  -7.145  1.00  0.00     0.031 A 
ATOM     46  C   UNL     1      -4.625   9.387  -6.614  1.00  0.00     0.074 A 
ATOM     47  C   UNL     1      -3.333  11.002  -8.105  1.00  0.00     0.049 A 
ATOM     48  N   UNL     1      -5.357   8.500  -7.201  1.00  0.00    -0.248 NA
ATOM     49  C   UNL     1      -4.923   9.540  -5.173  1.00  0.00     0.031 C 
ATOM     50  C   UNL     1      -2.182  11.872  -8.392  1.00  0.00     0.029 A 
ATOM     51  N   UNL     1      -4.307  11.513  -8.903  1.00  0.00    -0.354 N 
ATOM     52  C   UNL     1      -6.381   8.239  -6.293  1.00  0.00     0.074 A 
ATOM     53  C   UNL     1      -5.905   8.657  -5.008  1.00  0.00     0.031 C 
ATOM     54  C   UNL     1      -2.603  12.945  -9.095  1.00  0.00     0.029 A 
ATOM     55  C   UNL     1      -4.016  12.789  -9.388  1.00  0.00     0.049 A 
ATOM     56  H   UNL     1      -5.138  11.030  -9.118  1.00  0.00     0.167 HD
ATOM     57  C   UNL     1      -7.655   8.076  -6.736  1.00  0.00     0.034 A 
ATOM     58  C   UNL     1      -4.903  13.685  -9.891  1.00  0.00     0.034 A 
ATOM     59  C   UNL     1      -7.660   7.706  -8.131  1.00  0.00     0.049 A 
ATOM     60  C   UNL     1      -6.147  12.944 -10.198  1.00  0.00     0.074 A 
ATOM     61  C   UNL     1      -7.088   6.691  -8.871  1.00  0.00     0.029 A 
ATOM     62  N   UNL     1      -8.002   8.693  -9.021  1.00  0.00    -0.354 N 
ATOM     63  N   UNL     1      -6.247  12.057 -11.146  1.00  0.00    -0.248 NA
ATOM     64  C   UNL     1      -7.177  12.885  -9.173  1.00  0.00     0.031 C 
ATOM     65  C   UNL     1      -6.739   7.289 -10.116  1.00  0.00     0.029 A 
ATOM     66  C   UNL     1      -7.180   8.614 -10.109  1.00  0.00     0.049 A 
ATOM     67  H   UNL     1      -8.723   9.352  -8.895  1.00  0.00     0.167 HD
ATOM     68  C   UNL     1      -7.039  11.058 -10.595  1.00  0.00     0.074 A 
ATOM     69  C   UNL     1      -7.690  11.683  -9.446  1.00  0.00     0.031 C 
ATOM     70  C   UNL     1      -6.842   9.751 -10.938  1.00  0.00     0.034 A 
BRANCH  57  71
ATOM     71  C   UNL     1      -8.870   8.706  -6.072  1.00  0.00     0.023 A 
ATOM     72  C   UNL     1     -10.122   8.428  -6.664  1.00  0.00     0.012 A 
ATOM     73  C   UNL     1      -8.843   9.756  -5.119  1.00  0.00     0.148 A 
ATOM     74  C   UNL     1     -11.253   9.207  -6.398  1.00  0.00     0.002 A 
ATOM     75  C   UNL     1      -9.986  10.479  -4.801  1.00  0.00     0.091 A 
ATOM     76  F   UNL     1      -7.694  10.162  -4.581  1.00  0.00    -0.205 F 
ATOM     77  C   UNL     1     -11.186  10.235  -5.466  1.00  0.00     0.022 A 
BRANCH  75  78
ATOM     78  S   UNL     1      -9.961  11.791  -3.568  1.00  0.00     0.127 S 
ATOM     79  O   UNL     1     -10.135  12.976  -4.402  1.00  0.00    -0.237 OA
ATOM     80  O   UNL     1     -11.113  11.435  -2.739  1.00  0.00    -0.237 OA
ATOM     81  O   UNL     1      -8.677  11.674  -2.888  1.00  0.00    -0.744 OA
ENDBRANCH  75  78
ENDBRANCH  57  71
BRANCH  58  82
ATOM     82  C   UNL     1      -4.879  15.169  -9.901  1.00  0.00     0.023 A 
ATOM     83  C   UNL     1      -5.731  15.863 -10.786  1.00  0.00     0.012 A 
ATOM     84  C   UNL     1      -4.247  15.906  -8.877  1.00  0.00     0.148 A 
ATOM     85  C   UNL     1      -5.978  17.233 -10.631  1.00  0.00     0.002 A 
ATOM     86  C   UNL     1      -4.484  17.271  -8.735  1.00  0.00     0.091 A 
ATOM     87  F   UNL     1      -3.493  15.256  -7.982  1.00  0.00    -0.205 F 
ATOM     88  C   UNL     1      -5.361  17.935  -9.601  1.00  0.00     0.022 A 
BRANCH  86  89
ATOM     89  S   UNL     1      -3.734  18.236  -7.416  1.00  0.00     0.127 S 
ATOM     90  O   UNL     1      -3.255  19.416  -8.137  1.00  0.00    -0.237 OA
ATOM     91  O   UNL     1      -4.872  18.477  -6.534  1.00  0.00    -0.237 OA
ATOM     92  O   UNL     1      -2.673  17.400  -6.869  1.00  0.00    -0.744 OA
ENDBRANCH  86  89
ENDBRANCH  58  82
BRANCH  70  93
ATOM     93  C   UNL     1      -6.019   9.463 -12.168  1.00  0.00     0.023 A 
ATOM     94  C   UNL     1      -4.664   9.835 -12.298  1.00  0.00     0.012 A 
ATOM     95  C   UNL     1      -6.601   8.664 -13.165  1.00  0.00     0.148 A 
ATOM     96  C   UNL     1      -3.921   9.446 -13.416  1.00  0.00     0.002 A 
ATOM     97  C   UNL     1      -5.845   8.233 -14.245  1.00  0.00     0.091 A 
ATOM     98  F   UNL     1      -7.891   8.320 -13.030  1.00  0.00    -0.205 F 
ATOM     99  C   UNL     1      -4.507   8.632 -14.383  1.00  0.00     0.022 A 
BRANCH  97 100
ATOM    100  S   UNL     1      -6.516   7.074 -15.437  1.00  0.00     0.127 S 
ATOM    101  O   UNL     1      -6.865   7.951 -16.552  1.00  0.00    -0.237 OA
ATOM    102  O   UNL     1      -5.380   6.185 -15.687  1.00  0.00    -0.237 OA
ATOM    103  O   UNL     1      -7.636   6.424 -14.767  1.00  0.00    -0.744 OA
ENDBRANCH  97 100
ENDBRANCH  70  93
ENDBRANCH  44  45
ENDBRANCH  37  39
ENDBRANCH  36  37
ENDBRANCH  35  36
ENDBRANCH  34  35
ENDBRANCH  33  34
ENDBRANCH  32  33
ENDBRANCH  31  32
ENDBRANCH   1  31
TORSDOF 26
