REMARK SMILES Cc1ccc(-c2nc(C)cc(N3CCCC[C@H]3C(=O)OCCOCCOCCOC(=O)c3ccc(-c4c5nc(c(-c6cccc(S(=O)(=O)[O-])c6F)c6ccc([nH]6)c(-c6cccc(S(=O)(=O)[O-])c6F)c6nc(c(-c7cccc(S(=O)(=O)[O-])c7F)c7ccc4[nH]7)C=C6)C=C5)cc3)n2)cc1
REMARK SMILES IDX 25 1 24 2 23 3 22 4 21 5 20 6 18 7 19 8 17 9 12 10 13 11
REMARK SMILES IDX 14 12 16 13 15 14 11 15 6 16 7 17 95 18 8 19 9 20 10 21 5 22
REMARK SMILES IDX 1 23 2 24 3 25 97 26 4 27 96 28 26 29 27 30 28 31 29 32
REMARK SMILES IDX 30 33 31 34 32 35 33 36 94 37 34 38 93 39 35 40 36 41 37 42
REMARK SMILES IDX 87 43 38 44 92 45 86 46 88 47 39 48 91 49 85 50 84 51 40 53
REMARK SMILES IDX 72 54 52 55 71 56 53 57 56 58 70 59 89 60 54 61 55 62 69 64
REMARK SMILES IDX 90 65 57 66 41 67 42 68 50 69 43 70 45 71 51 72 44 73 46 74
REMARK SMILES IDX 47 75 48 76 49 77 73 78 74 79 82 80 75 81 77 82 83 83 76 84
REMARK SMILES IDX 78 85 79 86 80 87 81 88 58 89 59 90 67 91 60 92 62 93 68 94
REMARK SMILES IDX 61 95 63 96 64 97 65 98 66 99
REMARK H PARENT 88 52 56 63
REMARK Flexibility Score: inf
ROOT
ATOM      1  C   UNL     1     -10.322  -0.636  -6.538  1.00  0.00     0.188 C 
ENDROOT
BRANCH   1   2
ATOM      2  C   UNL     1     -10.735   0.266  -5.377  1.00  0.00     0.188 C 
BRANCH   2   3
ATOM      3  O   UNL     1     -10.806   1.708  -5.419  1.00  0.00    -0.376 OA
BRANCH   3   4
ATOM      4  C   UNL     1      -9.827   2.594  -6.017  1.00  0.00     0.202 C 
BRANCH   4   5
ATOM      5  C   UNL     1      -8.770   3.731  -5.252  1.00  0.00     0.261 C 
BRANCH   5   6
ATOM      6  O   UNL     1      -7.244   3.533  -4.338  1.00  0.00    -0.462 OA
BRANCH   6   7
ATOM      7  C   UNL     1      -6.715   3.184  -3.001  1.00  0.00     0.328 C 
ATOM      8  O   UNL     1      -7.313   2.669  -2.049  1.00  0.00    -0.250 OA
BRANCH   7   9
ATOM      9  C   UNL     1      -5.334   3.626  -2.552  1.00  0.00     0.193 C 
ATOM     10  N   UNL     1      -4.464   2.466  -2.263  1.00  0.00    -0.343 N 
ATOM     11  C   UNL     1      -4.110   1.675  -3.433  1.00  0.00     0.119 C 
ATOM     12  C   UNL     1      -3.460   2.583  -4.478  1.00  0.00     0.022 C 
ATOM     13  C   UNL     1      -4.649   4.578  -3.502  1.00  0.00     0.037 C 
ATOM     14  C   UNL     1      -4.248   3.857  -4.778  1.00  0.00     0.005 C 
BRANCH  10  15
ATOM     15  C   UNL     1      -4.234   1.828  -1.059  1.00  0.00     0.133 A 
ATOM     16  C   UNL     1      -2.639   0.655   0.150  1.00  0.00     0.161 A 
ATOM     17  N   UNL     1      -3.445   0.311   1.153  1.00  0.00    -0.233 NA
ATOM     18  N   UNL     1      -2.972   1.393  -0.923  1.00  0.00    -0.211 NA
ATOM     19  C   UNL     1      -4.717   0.745   1.025  1.00  0.00     0.043 A 
ATOM     20  C   UNL     1      -5.652   0.270   2.106  1.00  0.00     0.067 C 
ATOM     21  C   UNL     1      -5.142   1.552  -0.047  1.00  0.00     0.070 A 
BRANCH  16  22
ATOM     22  C   UNL     1      -1.218   0.349   0.245  1.00  0.00     0.019 A 
ATOM     23  C   UNL     1       3.031  -0.341  -0.015  1.00  0.00     0.044 C 
ATOM     24  C   UNL     1       1.559  -0.106   0.125  1.00  0.00    -0.051 A 
ATOM     25  C   UNL     1       0.665  -1.184   0.213  1.00  0.00     0.004 A 
ATOM     26  C   UNL     1       1.061   1.198   0.134  1.00  0.00     0.004 A 
ATOM     27  C   UNL     1      -0.716  -0.959   0.281  1.00  0.00     0.012 A 
ATOM     28  C   UNL     1      -0.309   1.417   0.192  1.00  0.00     0.012 A 
ENDBRANCH  16  22
ENDBRANCH  10  15
ENDBRANCH   7   9
ENDBRANCH   6   7
ENDBRANCH   5   6
ENDBRANCH   4   5
ENDBRANCH   3   4
ENDBRANCH   2   3
ENDBRANCH   1   2
BRANCH   1  29
ATOM     29  O   UNL     1      -9.425   0.019  -7.400  1.00  0.00    -0.376 OA
BRANCH  29  30
ATOM     30  C   UNL     1      -9.071  -0.699  -8.565  1.00  0.00     0.202 C 
BRANCH  30  31
ATOM     31  C   UNL     1      -8.073  -1.844  -8.319  1.00  0.00     0.261 C 
BRANCH  31  32
ATOM     32  O   UNL     1      -6.926  -1.393  -7.571  1.00  0.00    -0.460 OA
BRANCH  32  33
ATOM     33  C   UNL     1      -6.764  -1.959  -6.325  1.00  0.00     0.338 C 
ATOM     34  O   UNL     1      -6.612  -3.158  -6.147  1.00  0.00    -0.246 OA
BRANCH  33  35
ATOM     35  C   UNL     1      -6.994  -0.917  -5.275  1.00  0.00     0.060 A 
ATOM     36  C   UNL     1      -7.476  -1.099  -3.967  1.00  0.00     0.016 A 
ATOM     37  C   UNL     1      -6.942   0.361  -5.715  1.00  0.00     0.016 A 
ATOM     38  C   UNL     1      -8.119  -0.022  -3.207  1.00  0.00     0.010 A 
ATOM     39  C   UNL     1      -7.663   1.315  -5.009  1.00  0.00     0.010 A 
ATOM     40  C   UNL     1      -8.367   1.249  -3.745  1.00  0.00    -0.014 A 
BRANCH  40  41
ATOM     41  C   UNL     1      -9.410   2.473  -3.017  1.00  0.00     0.031 A 
ATOM     42  C   UNL     1      -9.194   4.196  -2.572  1.00  0.00     0.074 A 
ATOM     43  C   UNL     1     -10.632   2.066  -2.610  1.00  0.00     0.049 A 
ATOM     44  N   UNL     1      -9.922   4.840  -1.676  1.00  0.00    -0.248 NA
ATOM     45  C   UNL     1      -8.192   5.266  -3.059  1.00  0.00     0.031 C 
ATOM     46  C   UNL     1     -11.794   2.909  -2.349  1.00  0.00     0.029 A 
ATOM     47  N   UNL     1     -11.079   0.780  -2.297  1.00  0.00    -0.354 N 
ATOM     48  C   UNL     1      -9.630   6.213  -1.793  1.00  0.00     0.074 A 
ATOM     49  C   UNL     1      -8.346   6.351  -2.327  1.00  0.00     0.031 C 
ATOM     50  C   UNL     1     -12.694   2.196  -1.660  1.00  0.00     0.029 A 
ATOM     51  C   UNL     1     -12.059   0.943  -1.312  1.00  0.00     0.049 A 
ATOM     52  H   UNL     1     -10.768  -0.068  -2.689  1.00  0.00     0.167 HD
ATOM     53  C   UNL     1     -10.577   7.188  -1.770  1.00  0.00     0.034 A 
ATOM     54  C   UNL     1     -11.902   0.403  -0.074  1.00  0.00     0.034 A 
ATOM     55  C   UNL     1     -11.702   6.721  -1.008  1.00  0.00     0.049 A 
ATOM     56  C   UNL     1     -12.053   1.427   1.029  1.00  0.00     0.074 A 
ATOM     57  C   UNL     1     -12.993   6.348  -1.298  1.00  0.00     0.029 A 
ATOM     58  N   UNL     1     -11.428   6.278   0.275  1.00  0.00    -0.354 N 
ATOM     59  N   UNL     1     -12.324   2.691   0.823  1.00  0.00    -0.248 NA
ATOM     60  C   UNL     1     -11.937   1.134   2.453  1.00  0.00     0.031 C 
ATOM     61  C   UNL     1     -13.428   5.508  -0.225  1.00  0.00     0.029 A 
ATOM     62  C   UNL     1     -12.425   5.442   0.732  1.00  0.00     0.049 A 
ATOM     63  H   UNL     1     -10.628   6.526   0.792  1.00  0.00     0.167 HD
ATOM     64  C   UNL     1     -12.243   3.397   1.991  1.00  0.00     0.074 A 
ATOM     65  C   UNL     1     -12.109   2.355   2.995  1.00  0.00     0.031 C 
ATOM     66  C   UNL     1     -12.215   4.770   2.015  1.00  0.00     0.034 A 
BRANCH  53  67
ATOM     67  C   UNL     1     -10.483   8.528  -2.526  1.00  0.00     0.023 A 
ATOM     68  C   UNL     1     -11.371   9.549  -2.138  1.00  0.00     0.012 A 
ATOM     69  C   UNL     1      -9.666   8.831  -3.666  1.00  0.00     0.148 A 
ATOM     70  C   UNL     1     -11.442  10.783  -2.811  1.00  0.00     0.002 A 
ATOM     71  C   UNL     1      -9.674  10.096  -4.278  1.00  0.00     0.091 A 
ATOM     72  F   UNL     1      -8.940   7.869  -4.253  1.00  0.00    -0.205 F 
ATOM     73  C   UNL     1     -10.579  11.069  -3.862  1.00  0.00     0.022 A 
BRANCH  71  74
ATOM     74  S   UNL     1      -8.517  10.556  -5.594  1.00  0.00     0.127 S 
ATOM     75  O   UNL     1      -9.358  10.493  -6.788  1.00  0.00    -0.237 OA
ATOM     76  O   UNL     1      -8.112  11.910  -5.210  1.00  0.00    -0.237 OA
ATOM     77  O   UNL     1      -7.439   9.574  -5.535  1.00  0.00    -0.744 OA
ENDBRANCH  71  74
ENDBRANCH  53  67
BRANCH  54  78
ATOM     78  C   UNL     1     -11.169  -0.909  -0.115  1.00  0.00     0.023 A 
ATOM     79  C   UNL     1     -11.809  -1.933  -0.870  1.00  0.00     0.012 A 
ATOM     80  C   UNL     1      -9.802  -1.077   0.177  1.00  0.00     0.148 A 
ATOM     81  C   UNL     1     -11.104  -3.011  -1.413  1.00  0.00     0.002 A 
ATOM     82  C   UNL     1      -9.106  -2.183  -0.352  1.00  0.00     0.091 A 
ATOM     83  F   UNL     1      -9.174  -0.142   0.903  1.00  0.00    -0.205 F 
ATOM     84  C   UNL     1      -9.746  -3.123  -1.173  1.00  0.00     0.022 A 
BRANCH  82  85
ATOM     85  S   UNL     1      -7.324  -2.356  -0.160  1.00  0.00     0.127 S 
ATOM     86  O   UNL     1      -7.219  -2.947   1.170  1.00  0.00    -0.237 OA
ATOM     87  O   UNL     1      -6.948  -3.251  -1.258  1.00  0.00    -0.237 OA
ATOM     88  O   UNL     1      -6.838  -0.997  -0.318  1.00  0.00    -0.744 OA
ENDBRANCH  82  85
ENDBRANCH  54  78
BRANCH  66  89
ATOM     89  C   UNL     1     -11.860   5.633   3.225  1.00  0.00     0.023 A 
ATOM     90  C   UNL     1     -11.191   5.124   4.352  1.00  0.00     0.012 A 
ATOM     91  C   UNL     1     -12.030   7.046   3.187  1.00  0.00     0.148 A 
ATOM     92  C   UNL     1     -10.768   5.946   5.405  1.00  0.00     0.002 A 
ATOM     93  C   UNL     1     -11.481   7.871   4.167  1.00  0.00     0.091 A 
ATOM     94  F   UNL     1     -12.729   7.617   2.195  1.00  0.00    -0.205 F 
ATOM     95  C   UNL     1     -10.886   7.325   5.301  1.00  0.00     0.022 A 
BRANCH  93  96
ATOM     96  S   UNL     1     -11.347   9.643   3.874  1.00  0.00     0.127 S 
ATOM     97  O   UNL     1     -12.666  10.129   4.268  1.00  0.00    -0.237 OA
ATOM     98  O   UNL     1     -10.261  10.040   4.773  1.00  0.00    -0.237 OA
ATOM     99  O   UNL     1     -11.010   9.742   2.459  1.00  0.00    -0.744 OA
ENDBRANCH  93  96
ENDBRANCH  66  89
ENDBRANCH  40  41
ENDBRANCH  33  35
ENDBRANCH  32  33
ENDBRANCH  31  32
ENDBRANCH  30  31
ENDBRANCH  29  30
ENDBRANCH   1  29
TORSDOF 22
