REMARK SMILES CS(=O)(=O)c1ccc(C2=NN(c3ccc(C(=O)OCCOCCOCCOC(=O)c4ccc(-c5c6nc(c(-c7cccc(S(=O)(=O)[O-])c7F)c7ccc([nH]7)c(-c7cccc(S(=O)(=O)[O-])c7F)c7nc(c(-c8cccc(S(=O)(=O)[O-])c8F)c8ccc5[nH]8)C=C7)C=C6)cc4)cc3)[C@H](c3ccccc3)C2)cc1
REMARK SMILES IDX 22 1 21 2 20 3 19 4 18 5 16 6 17 7 15 8 12 9 13 10 94 11
REMARK SMILES IDX 14 12 93 13 11 14 9 15 10 16 102 17 95 18 8 19 5 20 6 21
REMARK SMILES IDX 104 22 7 23 103 24 2 25 1 26 3 27 4 28 96 29 97 30 101 31
REMARK SMILES IDX 98 32 100 33 99 34 23 35 24 36 25 37 26 38 27 39 28 40 29 41
REMARK SMILES IDX 30 42 31 43 92 44 32 45 91 46 33 47 34 48 35 49 85 50 36 51
REMARK SMILES IDX 90 52 84 53 86 54 37 55 89 56 83 57 82 58 38 60 70 61 50 62
REMARK SMILES IDX 69 63 51 64 54 65 68 66 87 67 52 68 53 69 67 71 88 72 55 73
REMARK SMILES IDX 39 74 40 75 48 76 41 77 43 78 49 79 42 80 44 81 45 82 46 83
REMARK SMILES IDX 47 84 71 85 72 86 80 87 73 88 75 89 81 90 74 91 76 92 77 93
REMARK SMILES IDX 78 94 79 95 56 96 57 97 65 98 58 99 60 100 66 101 59 102
REMARK SMILES IDX 61 103 62 104 63 105 64 106
REMARK H PARENT 86 59 54 70
REMARK Flexibility Score: inf
ROOT
ATOM      1  C   UNL     1      -1.290  -5.964 -13.496  1.00  0.00     0.188 C 
ENDROOT
BRANCH   1   2
ATOM      2  O   UNL     1      -1.329  -6.377 -14.849  1.00  0.00    -0.376 OA
BRANCH   2   3
ATOM      3  C   UNL     1      -0.146  -6.789 -15.512  1.00  0.00     0.202 C 
BRANCH   3   4
ATOM      4  C   UNL     1       1.218  -6.132 -15.263  1.00  0.00     0.261 C 
BRANCH   4   5
ATOM      5  O   UNL     1       1.540  -5.917 -13.885  1.00  0.00    -0.460 OA
BRANCH   5   6
ATOM      6  C   UNL     1       1.740  -4.622 -13.535  1.00  0.00     0.338 C 
ATOM      7  O   UNL     1       1.761  -3.658 -14.284  1.00  0.00    -0.246 OA
BRANCH   6   8
ATOM      8  C   UNL     1       1.833  -4.488 -12.064  1.00  0.00     0.060 A 
ATOM      9  C   UNL     1       2.202  -4.026  -9.323  1.00  0.00     0.060 A 
ATOM     10  C   UNL     1       1.496  -3.103 -10.103  1.00  0.00     0.029 A 
ATOM     11  C   UNL     1       2.598  -5.240  -9.905  1.00  0.00     0.029 A 
ATOM     12  C   UNL     1       1.319  -3.328 -11.470  1.00  0.00     0.018 A 
ATOM     13  C   UNL     1       2.434  -5.470 -11.272  1.00  0.00     0.018 A 
BRANCH   9  14
ATOM     14  N   UNL     1       2.707  -3.682  -8.064  1.00  0.00    -0.257 N 
ATOM     15  C   UNL     1       2.469  -2.674  -6.202  1.00  0.00     0.071 C 
ATOM     16  N   UNL     1       1.875  -3.502  -7.006  1.00  0.00    -0.176 NA
ATOM     17  C   UNL     1       3.752  -2.074  -6.711  1.00  0.00     0.091 C 
ATOM     18  C   UNL     1       3.924  -2.854  -8.018  1.00  0.00     0.144 C 
BRANCH  15  19
ATOM     19  C   UNL     1       1.957  -2.345  -4.858  1.00  0.00    -0.002 A 
ATOM     20  C   UNL     1       1.051  -1.823  -2.269  1.00  0.00     0.067 A 
ATOM     21  C   UNL     1       0.963  -3.119  -2.792  1.00  0.00     0.021 A 
ATOM     22  C   UNL     1       1.583  -0.784  -3.038  1.00  0.00     0.021 A 
ATOM     23  C   UNL     1       1.405  -3.375  -4.091  1.00  0.00     0.011 A 
ATOM     24  C   UNL     1       2.047  -1.050  -4.334  1.00  0.00     0.011 A 
BRANCH  20  25
ATOM     25  S   UNL     1       0.483  -1.587  -0.599  1.00  0.00     0.175 S 
ATOM     26  C   UNL     1       1.023   0.012  -0.069  1.00  0.00     0.163 C 
ATOM     27  O   UNL     1       1.197  -2.558   0.211  1.00  0.00    -0.224 OA
ATOM     28  O   UNL     1      -0.964  -1.572  -0.650  1.00  0.00    -0.224 OA
ENDBRANCH  20  25
ENDBRANCH  15  19
BRANCH  18  29
ATOM     29  C   UNL     1       5.160  -3.733  -8.179  1.00  0.00    -0.023 A 
ATOM     30  C   UNL     1       5.862  -4.296  -7.106  1.00  0.00     0.006 A 
ATOM     31  C   UNL     1       5.558  -4.092  -9.485  1.00  0.00     0.006 A 
ATOM     32  C   UNL     1       6.913  -5.192  -7.331  1.00  0.00     0.000 A 
ATOM     33  C   UNL     1       6.575  -5.021  -9.708  1.00  0.00     0.000 A 
ATOM     34  C   UNL     1       7.256  -5.569  -8.628  1.00  0.00     0.000 A 
ENDBRANCH  18  29
ENDBRANCH   9  14
ENDBRANCH   6   8
ENDBRANCH   5   6
ENDBRANCH   4   5
ENDBRANCH   3   4
ENDBRANCH   2   3
ENDBRANCH   1   2
BRANCH   1  35
ATOM     35  C   UNL     1      -0.816  -6.947 -12.406  1.00  0.00     0.188 C 
BRANCH  35  36
ATOM     36  O   UNL     1      -0.316  -8.212 -12.774  1.00  0.00    -0.376 OA
BRANCH  36  37
ATOM     37  C   UNL     1      -1.182  -9.201 -13.302  1.00  0.00     0.202 C 
BRANCH  37  38
ATOM     38  C   UNL     1      -2.711  -9.243 -13.125  1.00  0.00     0.261 C 
BRANCH  38  39
ATOM     39  O   UNL     1      -3.386  -8.015 -12.852  1.00  0.00    -0.460 OA
BRANCH  39  40
ATOM     40  C   UNL     1      -3.852  -7.882 -11.584  1.00  0.00     0.338 C 
ATOM     41  O   UNL     1      -3.739  -8.678 -10.668  1.00  0.00    -0.246 OA
BRANCH  40  42
ATOM     42  C   UNL     1      -4.383  -6.518 -11.415  1.00  0.00     0.060 A 
ATOM     43  C   UNL     1      -3.722  -5.644 -10.543  1.00  0.00     0.016 A 
ATOM     44  C   UNL     1      -5.538  -6.115 -12.087  1.00  0.00     0.016 A 
ATOM     45  C   UNL     1      -4.228  -4.364 -10.325  1.00  0.00     0.010 A 
ATOM     46  C   UNL     1      -6.054  -4.838 -11.852  1.00  0.00     0.010 A 
ATOM     47  C   UNL     1      -5.417  -3.967 -10.950  1.00  0.00    -0.014 A 
BRANCH  47  48
ATOM     48  C   UNL     1      -6.066  -2.695 -10.555  1.00  0.00     0.031 A 
ATOM     49  C   UNL     1      -7.206  -2.731  -9.577  1.00  0.00     0.074 A 
ATOM     50  C   UNL     1      -5.660  -1.523 -11.074  1.00  0.00     0.049 A 
ATOM     51  N   UNL     1      -7.927  -1.746  -9.108  1.00  0.00    -0.248 NA
ATOM     52  C   UNL     1      -7.589  -4.057  -9.065  1.00  0.00     0.031 C 
ATOM     53  C   UNL     1      -4.579  -1.358 -12.043  1.00  0.00     0.029 A 
ATOM     54  N   UNL     1      -6.138  -0.251 -10.878  1.00  0.00    -0.354 N 
ATOM     55  C   UNL     1      -8.870  -2.333  -8.273  1.00  0.00     0.074 A 
ATOM     56  C   UNL     1      -8.634  -3.760  -8.306  1.00  0.00     0.031 C 
ATOM     57  C   UNL     1      -4.501  -0.062 -12.388  1.00  0.00     0.029 A 
ATOM     58  C   UNL     1      -5.537   0.689 -11.679  1.00  0.00     0.049 A 
ATOM     59  H   UNL     1      -6.844  -0.034 -10.226  1.00  0.00     0.167 HD
ATOM     60  C   UNL     1      -9.837  -1.737  -7.535  1.00  0.00     0.034 A 
ATOM     61  C   UNL     1      -5.807   2.000 -11.841  1.00  0.00     0.034 A 
ATOM     62  C   UNL     1     -10.061  -0.317  -7.492  1.00  0.00     0.049 A 
ATOM     63  C   UNL     1      -6.891   2.641 -11.014  1.00  0.00     0.074 A 
ATOM     64  C   UNL     1     -10.964   0.387  -6.715  1.00  0.00     0.029 A 
ATOM     65  N   UNL     1      -9.397   0.614  -8.275  1.00  0.00    -0.354 N 
ATOM     66  N   UNL     1      -7.672   2.099 -10.112  1.00  0.00    -0.248 NA
ATOM     67  C   UNL     1      -7.105   4.084 -11.202  1.00  0.00     0.031 C 
ATOM     68  C   UNL     1     -10.872   1.741  -7.057  1.00  0.00     0.029 A 
ATOM     69  C   UNL     1      -9.886   1.885  -8.020  1.00  0.00     0.049 A 
ATOM     70  H   UNL     1      -8.682   0.403  -8.918  1.00  0.00     0.167 HD
ATOM     71  C   UNL     1      -8.451   3.135  -9.606  1.00  0.00     0.074 A 
ATOM     72  C   UNL     1      -8.028   4.343 -10.285  1.00  0.00     0.031 C 
ATOM     73  C   UNL     1      -9.436   3.088  -8.673  1.00  0.00     0.034 A 
BRANCH  60  74
ATOM     74  C   UNL     1     -10.724  -2.628  -6.706  1.00  0.00     0.023 A 
ATOM     75  C   UNL     1     -10.205  -3.267  -5.561  1.00  0.00     0.012 A 
ATOM     76  C   UNL     1     -12.080  -2.807  -7.042  1.00  0.00     0.148 A 
ATOM     77  C   UNL     1     -11.011  -4.101  -4.786  1.00  0.00     0.002 A 
ATOM     78  C   UNL     1     -12.889  -3.602  -6.239  1.00  0.00     0.091 A 
ATOM     79  F   UNL     1     -12.549  -2.213  -8.149  1.00  0.00    -0.205 F 
ATOM     80  C   UNL     1     -12.354  -4.260  -5.119  1.00  0.00     0.022 A 
BRANCH  78  81
ATOM     81  S   UNL     1     -14.648  -3.802  -6.542  1.00  0.00     0.127 S 
ATOM     82  O   UNL     1     -14.705  -5.167  -7.062  1.00  0.00    -0.237 OA
ATOM     83  O   UNL     1     -15.213  -3.637  -5.202  1.00  0.00    -0.237 OA
ATOM     84  O   UNL     1     -15.013  -2.755  -7.485  1.00  0.00    -0.744 OA
ENDBRANCH  78  81
ENDBRANCH  60  74
BRANCH  61  85
ATOM     85  C   UNL     1      -5.012   2.798 -12.816  1.00  0.00     0.023 A 
ATOM     86  C   UNL     1      -4.095   3.758 -12.349  1.00  0.00     0.012 A 
ATOM     87  C   UNL     1      -5.136   2.579 -14.202  1.00  0.00     0.148 A 
ATOM     88  C   UNL     1      -3.328   4.502 -13.247  1.00  0.00     0.002 A 
ATOM     89  C   UNL     1      -4.330   3.284 -15.088  1.00  0.00     0.091 A 
ATOM     90  F   UNL     1      -6.027   1.671 -14.624  1.00  0.00    -0.205 F 
ATOM     91  C   UNL     1      -3.437   4.257 -14.613  1.00  0.00     0.022 A 
BRANCH  89  92
ATOM     92  S   UNL     1      -4.309   2.950 -16.852  1.00  0.00     0.127 S 
ATOM     93  O   UNL     1      -4.851   4.192 -17.398  1.00  0.00    -0.237 OA
ATOM     94  O   UNL     1      -2.882   2.740 -17.098  1.00  0.00    -0.237 OA
ATOM     95  O   UNL     1      -5.136   1.766 -17.042  1.00  0.00    -0.744 OA
ENDBRANCH  89  92
ENDBRANCH  61  85
BRANCH  73  96
ATOM     96  C   UNL     1     -10.119   4.383  -8.308  1.00  0.00     0.023 A 
ATOM     97  C   UNL     1     -10.993   4.999  -9.226  1.00  0.00     0.012 A 
ATOM     98  C   UNL     1      -9.946   4.956  -7.032  1.00  0.00     0.148 A 
ATOM     99  C   UNL     1     -11.655   6.181  -8.895  1.00  0.00     0.002 A 
ATOM    100  C   UNL     1     -10.647   6.107  -6.690  1.00  0.00     0.091 A 
ATOM    101  F   UNL     1      -9.097   4.369  -6.176  1.00  0.00    -0.205 F 
ATOM    102  C   UNL     1     -11.492   6.729  -7.625  1.00  0.00     0.022 A 
BRANCH 100 103
ATOM    103  S   UNL     1     -10.570   6.830  -5.047  1.00  0.00     0.127 S 
ATOM    104  O   UNL     1      -9.760   8.024  -5.284  1.00  0.00    -0.237 OA
ATOM    105  O   UNL     1     -11.979   7.098  -4.757  1.00  0.00    -0.237 OA
ATOM    106  O   UNL     1      -9.961   5.820  -4.193  1.00  0.00    -0.744 OA
ENDBRANCH 100 103
ENDBRANCH  73  96
ENDBRANCH  47  48
ENDBRANCH  40  42
ENDBRANCH  39  40
ENDBRANCH  38  39
ENDBRANCH  37  38
ENDBRANCH  36  37
ENDBRANCH  35  36
ENDBRANCH   1  35
TORSDOF 24
