REMARK SMILES Cc1cccc(OCC(=O)Nc2cc(C(=O)OCCOCCOCCOC(=O)c3ccc(-c4c5nc(c(-c6cccc(S(=O)(=O)[O-])c6F)c6ccc([nH]6)c(-c6cccc(S(=O)(=O)[O-])c6F)c6nc(c(-c7cccc(S(=O)(=O)[O-])c7F)c7ccc4[nH]7)C=C6)C=C5)cc3)c(Cl)cc2Cl)c1
REMARK SMILES IDX 21 1 20 2 19 3 18 4 17 5 15 6 16 7 14 8 12 9 13 10 95 11
REMARK SMILES IDX 94 12 96 13 92 14 93 15 11 16 9 17 10 18 8 20 7 21 6 22 1 23
REMARK SMILES IDX 2 24 3 25 97 26 4 27 5 28 22 29 23 30 24 31 25 32 26 33
REMARK SMILES IDX 27 34 28 35 29 36 30 37 91 38 31 39 90 40 32 41 33 42 34 43
REMARK SMILES IDX 84 44 35 45 89 46 83 47 85 48 36 49 88 50 82 51 81 52 37 54
REMARK SMILES IDX 69 55 49 56 68 57 50 58 53 59 67 60 86 61 51 62 52 63 66 65
REMARK SMILES IDX 87 66 54 67 38 68 39 69 47 70 40 71 42 72 48 73 41 74 43 75
REMARK SMILES IDX 44 76 45 77 46 78 70 79 71 80 79 81 72 82 74 83 80 84 73 85
REMARK SMILES IDX 75 86 76 87 77 88 78 89 55 90 56 91 64 92 57 93 59 94 65 95
REMARK SMILES IDX 58 96 60 97 61 98 62 99 63 100
REMARK H PARENT 11 19 85 53 53 64
REMARK Flexibility Score: inf
ROOT
ATOM      1  C   UNL     1      -4.458  -1.931   1.170  1.00  0.00     0.188 C 
ENDROOT
BRANCH   1   2
ATOM      2  O   UNL     1      -5.726  -2.189   0.594  1.00  0.00    -0.376 OA
BRANCH   2   3
ATOM      3  C   UNL     1      -5.962  -1.345  -0.534  1.00  0.00     0.202 C 
BRANCH   3   4
ATOM      4  C   UNL     1      -4.824  -0.381  -0.941  1.00  0.00     0.261 C 
BRANCH   4   5
ATOM      5  O   UNL     1      -4.000   0.443   0.230  1.00  0.00    -0.460 OA
BRANCH   5   6
ATOM      6  C   UNL     1      -3.032   0.834   1.252  1.00  0.00     0.339 C 
ATOM      7  O   UNL     1      -2.141   0.019   1.506  1.00  0.00    -0.246 OA
BRANCH   6   8
ATOM      8  C   UNL     1      -3.102   2.434   2.334  1.00  0.00     0.080 A 
ATOM      9  C   UNL     1      -1.543   3.846   3.361  1.00  0.00     0.061 A 
ATOM     10  C   UNL     1      -1.925   2.555   3.034  1.00  0.00     0.045 A 
ATOM     11  C   UNL     1      -2.427   4.660   4.062  1.00  0.00     0.066 A 
ATOM     12  C   UNL     1      -3.728   4.590   3.686  1.00  0.00     0.044 A 
ATOM     13  Cl  UNL     1      -1.891   6.005   4.986  1.00  0.00    -0.082 Cl
ATOM     14  C   UNL     1      -4.027   3.661   2.677  1.00  0.00     0.057 A 
ATOM     15  Cl  UNL     1      -5.456   4.457   1.889  1.00  0.00    -0.083 Cl
BRANCH   9  16
ATOM     16  N   UNL     1      -0.848   4.560   2.349  1.00  0.00    -0.322 N 
ATOM     17  C   UNL     1      -1.092   4.863   1.011  1.00  0.00     0.262 C 
ATOM     18  O   UNL     1      -0.231   5.646   0.564  1.00  0.00    -0.271 OA
ATOM     19  H   UNL     1       0.007   4.927   2.669  1.00  0.00     0.170 HD
BRANCH  17  20
ATOM     20  C   UNL     1      -2.434   4.266  -0.145  1.00  0.00     0.329 C 
BRANCH  20  21
ATOM     21  O   UNL     1      -2.384   2.393  -1.200  1.00  0.00    -0.484 OA
BRANCH  21  22
ATOM     22  C   UNL     1      -1.232   1.134  -1.370  1.00  0.00     0.120 A 
ATOM     23  C   UNL     1       2.324   0.086  -0.195  1.00  0.00     0.044 C 
ATOM     24  C   UNL     1       0.868   0.003  -0.559  1.00  0.00    -0.047 A 
ATOM     25  C   UNL     1       0.201  -1.206  -0.415  1.00  0.00     0.003 A 
ATOM     26  C   UNL     1       0.169   1.145  -1.048  1.00  0.00     0.049 A 
ATOM     27  C   UNL     1      -1.111  -1.282  -0.856  1.00  0.00     0.004 A 
ATOM     28  C   UNL     1      -1.774  -0.136  -1.379  1.00  0.00     0.046 A 
ENDBRANCH  21  22
ENDBRANCH  20  21
ENDBRANCH  17  20
ENDBRANCH   9  16
ENDBRANCH   6   8
ENDBRANCH   5   6
ENDBRANCH   4   5
ENDBRANCH   3   4
ENDBRANCH   2   3
ENDBRANCH   1   2
BRANCH   1  29
ATOM     29  C   UNL     1      -3.709  -2.892   2.074  1.00  0.00     0.188 C 
BRANCH  29  30
ATOM     30  O   UNL     1      -3.783  -4.232   1.664  1.00  0.00    -0.376 OA
BRANCH  30  31
ATOM     31  C   UNL     1      -5.135  -4.588   1.472  1.00  0.00     0.202 C 
BRANCH  31  32
ATOM     32  C   UNL     1      -6.205  -4.228   2.567  1.00  0.00     0.261 C 
BRANCH  32  33
ATOM     33  O   UNL     1      -6.166  -3.309   3.785  1.00  0.00    -0.460 OA
BRANCH  33  34
ATOM     34  C   UNL     1      -6.089  -2.335   4.714  1.00  0.00     0.338 C 
ATOM     35  O   UNL     1      -6.370  -2.580   5.882  1.00  0.00    -0.246 OA
BRANCH  34  36
ATOM     36  C   UNL     1      -5.692  -0.965   4.347  1.00  0.00     0.060 A 
ATOM     37  C   UNL     1      -6.383   0.226   4.501  1.00  0.00     0.016 A 
ATOM     38  C   UNL     1      -4.396  -0.686   4.196  1.00  0.00     0.016 A 
ATOM     39  C   UNL     1      -6.216   1.274   3.539  1.00  0.00     0.010 A 
ATOM     40  C   UNL     1      -4.193   0.385   3.347  1.00  0.00     0.010 A 
ATOM     41  C   UNL     1      -5.211   1.149   2.619  1.00  0.00    -0.014 A 
BRANCH  41  42
ATOM     42  C   UNL     1      -5.162   2.004   1.036  1.00  0.00     0.031 A 
ATOM     43  C   UNL     1      -3.665   2.680   0.052  1.00  0.00     0.074 A 
ATOM     44  C   UNL     1      -6.339   1.870   0.365  1.00  0.00     0.049 A 
ATOM     45  N   UNL     1      -3.951   3.451  -1.261  1.00  0.00    -0.248 NA
ATOM     46  C   UNL     1      -1.602   2.677   0.335  1.00  0.00     0.031 C 
ATOM     47  C   UNL     1      -6.627   2.117  -1.044  1.00  0.00     0.029 A 
ATOM     48  N   UNL     1      -7.548   1.389   0.836  1.00  0.00    -0.354 N 
ATOM     49  C   UNL     1      -2.493   3.942  -2.177  1.00  0.00     0.074 A 
ATOM     50  C   UNL     1      -0.965   3.505  -1.072  1.00  0.00     0.031 C 
ATOM     51  C   UNL     1      -7.928   1.883  -1.300  1.00  0.00     0.029 A 
ATOM     52  C   UNL     1      -8.586   1.758  -0.018  1.00  0.00     0.049 A 
ATOM     53  H   UNL     1      -7.659   0.861   1.659  1.00  0.00     0.167 HD
ATOM     54  C   UNL     1      -2.712   4.461  -3.405  1.00  0.00     0.034 A 
ATOM     55  C   UNL     1      -9.516   2.642   0.458  1.00  0.00     0.034 A 
ATOM     56  C   UNL     1      -4.173   4.604  -3.604  1.00  0.00     0.049 A 
ATOM     57  C   UNL     1      -9.259   4.041  -0.124  1.00  0.00     0.074 A 
ATOM     58  C   UNL     1      -5.136   3.813  -4.214  1.00  0.00     0.029 A 
ATOM     59  N   UNL     1      -4.906   5.484  -2.779  1.00  0.00    -0.354 N 
ATOM     60  N   UNL     1      -8.218   4.330  -0.874  1.00  0.00    -0.248 NA
ATOM     61  C   UNL     1     -10.171   5.174  -0.044  1.00  0.00     0.031 C 
ATOM     62  C   UNL     1      -6.429   4.208  -3.731  1.00  0.00     0.029 A 
ATOM     63  C   UNL     1      -6.290   5.254  -2.826  1.00  0.00     0.049 A 
ATOM     64  H   UNL     1      -4.489   6.186  -2.228  1.00  0.00     0.167 HD
ATOM     65  C   UNL     1      -8.264   5.599  -1.361  1.00  0.00     0.074 A 
ATOM     66  C   UNL     1      -9.543   6.075  -0.830  1.00  0.00     0.031 C 
ATOM     67  C   UNL     1      -7.267   6.152  -2.143  1.00  0.00     0.034 A 
BRANCH  54  68
ATOM     68  C   UNL     1      -1.598   4.502  -4.420  1.00  0.00     0.023 A 
ATOM     69  C   UNL     1      -1.920   4.416  -5.785  1.00  0.00     0.012 A 
ATOM     70  C   UNL     1      -0.216   4.514  -4.109  1.00  0.00     0.148 A 
ATOM     71  C   UNL     1      -0.930   4.253  -6.769  1.00  0.00     0.002 A 
ATOM     72  C   UNL     1       0.759   4.223  -5.065  1.00  0.00     0.091 A 
ATOM     73  F   UNL     1       0.182   4.944  -2.908  1.00  0.00    -0.205 F 
ATOM     74  C   UNL     1       0.405   4.102  -6.407  1.00  0.00     0.022 A 
BRANCH  72  75
ATOM     75  S   UNL     1       2.459   3.835  -4.592  1.00  0.00     0.127 S 
ATOM     76  O   UNL     1       2.809   2.750  -5.513  1.00  0.00    -0.237 OA
ATOM     77  O   UNL     1       3.162   5.089  -4.846  1.00  0.00    -0.237 OA
ATOM     78  O   UNL     1       2.385   3.414  -3.196  1.00  0.00    -0.744 OA
ENDBRANCH  72  75
ENDBRANCH  54  68
BRANCH  55  79
ATOM     79  C   UNL     1     -10.000   2.153   1.806  1.00  0.00     0.023 A 
ATOM     80  C   UNL     1     -10.456   0.798   1.786  1.00  0.00     0.012 A 
ATOM     81  C   UNL     1      -9.552   2.666   3.036  1.00  0.00     0.148 A 
ATOM     82  C   UNL     1     -10.136  -0.086   2.819  1.00  0.00     0.002 A 
ATOM     83  C   UNL     1      -9.381   1.796   4.128  1.00  0.00     0.091 A 
ATOM     84  F   UNL     1      -9.214   3.959   3.115  1.00  0.00    -0.205 F 
ATOM     85  C   UNL     1      -9.557   0.408   3.978  1.00  0.00     0.022 A 
BRANCH  83  86
ATOM     86  S   UNL     1      -8.867   2.427   5.744  1.00  0.00     0.127 S 
ATOM     87  O   UNL     1     -10.119   2.964   6.263  1.00  0.00    -0.237 OA
ATOM     88  O   UNL     1      -8.399   1.238   6.455  1.00  0.00    -0.237 OA
ATOM     89  O   UNL     1      -7.817   3.393   5.445  1.00  0.00    -0.744 OA
ENDBRANCH  83  86
ENDBRANCH  55  79
BRANCH  67  90
ATOM     90  C   UNL     1      -7.166   7.655  -2.391  1.00  0.00     0.023 A 
ATOM     91  C   UNL     1      -7.859   8.600  -1.607  1.00  0.00     0.012 A 
ATOM     92  C   UNL     1      -6.254   8.190  -3.336  1.00  0.00     0.148 A 
ATOM     93  C   UNL     1      -7.736   9.977  -1.810  1.00  0.00     0.002 A 
ATOM     94  C   UNL     1      -5.997   9.553  -3.401  1.00  0.00     0.091 A 
ATOM     95  F   UNL     1      -5.645   7.390  -4.221  1.00  0.00    -0.205 F 
ATOM     96  C   UNL     1      -6.776  10.457  -2.683  1.00  0.00     0.022 A 
BRANCH  94  97
ATOM     97  S   UNL     1      -4.543  10.186  -4.246  1.00  0.00     0.127 S 
ATOM     98  O   UNL     1      -5.122  10.726  -5.473  1.00  0.00    -0.237 OA
ATOM     99  O   UNL     1      -4.059  11.192  -3.299  1.00  0.00    -0.237 OA
ATOM    100  O   UNL     1      -3.660   9.038  -4.400  1.00  0.00    -0.744 OA
ENDBRANCH  94  97
ENDBRANCH  67  90
ENDBRANCH  41  42
ENDBRANCH  34  36
ENDBRANCH  33  34
ENDBRANCH  32  33
ENDBRANCH  31  32
ENDBRANCH  30  31
ENDBRANCH  29  30
ENDBRANCH   1  29
TORSDOF 24
