REMARK SMILES Cc1ccnc(C(=O)c2[nH]c3cc(F)ccc3c2CC(=O)OCCOCCOCCOC(=O)c2ccc(-c3c4nc(c(-c5cccc(S(=O)(=O)[O-])c5F)c5ccc([nH]5)c(-c5cccc(S(=O)(=O)[O-])c5F)c5nc(c(-c6cccc(S(=O)(=O)[O-])c6F)c6ccc3[nH]6)C=C5)C=C4)cc2)c1
REMARK SMILES IDX 26 1 25 2 24 3 23 4 22 5 20 6 21 7 19 8 18 9 9 10 10 11
REMARK SMILES IDX 11 12 17 14 12 15 16 16 13 17 15 18 14 19 7 20 8 21 6 22
REMARK SMILES IDX 1 23 2 24 3 25 97 26 4 27 5 28 27 29 28 30 29 31 30 32 31 33
REMARK SMILES IDX 32 34 33 35 34 36 35 37 96 38 36 39 95 40 37 41 38 42 39 43
REMARK SMILES IDX 89 44 40 45 94 46 88 47 90 48 41 49 93 50 87 51 86 52 42 54
REMARK SMILES IDX 74 55 54 56 73 57 55 58 58 59 72 60 91 61 56 62 57 63 71 65
REMARK SMILES IDX 92 66 59 67 43 68 44 69 52 70 45 71 47 72 53 73 46 74 48 75
REMARK SMILES IDX 49 76 50 77 51 78 75 79 76 80 84 81 77 82 79 83 85 84 78 85
REMARK SMILES IDX 80 86 81 87 82 88 83 89 60 90 61 91 69 92 62 93 64 94 70 95
REMARK SMILES IDX 63 96 65 97 66 98 67 99 68 100
REMARK H PARENT 10 13 90 53 58 64
REMARK Flexibility Score: inf
ROOT
ATOM      1  C   UNL     1       4.785  -3.213   0.546  1.00  0.00     0.188 C 
ENDROOT
BRANCH   1   2
ATOM      2  O   UNL     1       6.026  -3.902   0.642  1.00  0.00    -0.376 OA
BRANCH   2   3
ATOM      3  C   UNL     1       6.009  -5.318   0.541  1.00  0.00     0.202 C 
BRANCH   3   4
ATOM      4  C   UNL     1       5.153  -6.056   1.572  1.00  0.00     0.261 C 
BRANCH   4   5
ATOM      5  O   UNL     1       3.743  -5.775   1.423  1.00  0.00    -0.463 OA
BRANCH   5   6
ATOM      6  C   UNL     1       3.029  -5.777   2.576  1.00  0.00     0.310 C 
ATOM      7  O   UNL     1       3.503  -6.135   3.654  1.00  0.00    -0.252 OA
BRANCH   6   8
ATOM      8  C   UNL     1       1.616  -5.226   2.497  1.00  0.00     0.161 C 
BRANCH   8   9
ATOM      9  C   UNL     1       0.855  -5.213   1.188  1.00  0.00     0.000 A 
ATOM     10  C   UNL     1       0.444  -4.094   0.448  1.00  0.00     0.093 A 
ATOM     11  N   UNL     1      -0.203  -4.563  -0.673  1.00  0.00    -0.351 N 
ATOM     12  C   UNL     1      -0.527  -5.885  -0.509  1.00  0.00     0.049 A 
ATOM     13  H   UNL     1      -0.405  -4.027  -1.474  1.00  0.00     0.167 HD
ATOM     14  C   UNL     1       0.149  -6.332   0.627  1.00  0.00     0.004 A 
ATOM     15  C   UNL     1      -1.385  -6.698  -1.259  1.00  0.00     0.066 A 
ATOM     16  C   UNL     1      -0.046  -7.668   1.039  1.00  0.00     0.013 A 
ATOM     17  C   UNL     1      -1.593  -7.993  -0.792  1.00  0.00     0.125 A 
ATOM     18  C   UNL     1      -0.942  -8.480   0.333  1.00  0.00     0.040 A 
ATOM     19  F   UNL     1      -2.466  -8.782  -1.435  1.00  0.00    -0.207 F 
BRANCH  10  20
ATOM     20  C   UNL     1       0.634  -2.686   0.748  1.00  0.00     0.227 C 
ATOM     21  O   UNL     1       1.399  -2.296   1.627  1.00  0.00    -0.285 OA
BRANCH  20  22
ATOM     22  C   UNL     1      -0.148  -1.655   0.006  1.00  0.00     0.113 A 
ATOM     23  C   UNL     1      -3.471   0.134   0.231  1.00  0.00     0.044 C 
ATOM     24  C   UNL     1      -2.072  -0.243  -0.158  1.00  0.00    -0.047 A 
ATOM     25  C   UNL     1      -1.312   0.615  -0.957  1.00  0.00     0.023 A 
ATOM     26  C   UNL     1      -1.467  -1.395   0.357  1.00  0.00     0.036 A 
ATOM     27  C   UNL     1      -0.023   0.239  -1.296  1.00  0.00     0.112 A 
ATOM     28  N   UNL     1       0.560  -0.902  -0.868  1.00  0.00    -0.253 NA
ENDBRANCH  20  22
ENDBRANCH  10  20
ENDBRANCH   8   9
ENDBRANCH   6   8
ENDBRANCH   5   6
ENDBRANCH   4   5
ENDBRANCH   3   4
ENDBRANCH   2   3
ENDBRANCH   1   2
BRANCH   1  29
ATOM     29  C   UNL     1       3.803  -3.604  -0.582  1.00  0.00     0.188 C 
BRANCH  29  30
ATOM     30  O   UNL     1       4.298  -4.228  -1.760  1.00  0.00    -0.376 OA
BRANCH  30  31
ATOM     31  C   UNL     1       5.343  -3.558  -2.453  1.00  0.00     0.202 C 
BRANCH  31  32
ATOM     32  C   UNL     1       5.007  -2.142  -2.914  1.00  0.00     0.261 C 
BRANCH  32  33
ATOM     33  O   UNL     1       4.861  -1.245  -1.798  1.00  0.00    -0.460 OA
BRANCH  33  34
ATOM     34  C   UNL     1       4.057  -0.185  -2.050  1.00  0.00     0.338 C 
ATOM     35  O   UNL     1       3.563   0.102  -3.129  1.00  0.00    -0.246 OA
BRANCH  34  36
ATOM     36  C   UNL     1       3.801   0.627  -0.840  1.00  0.00     0.060 A 
ATOM     37  C   UNL     1       3.127   0.082   0.247  1.00  0.00     0.016 A 
ATOM     38  C   UNL     1       3.970   2.008  -0.914  1.00  0.00     0.016 A 
ATOM     39  C   UNL     1       2.464   0.915   1.151  1.00  0.00     0.010 A 
ATOM     40  C   UNL     1       3.396   2.838   0.058  1.00  0.00     0.010 A 
ATOM     41  C   UNL     1       2.559   2.309   1.056  1.00  0.00    -0.014 A 
BRANCH  41  42
ATOM     42  C   UNL     1       1.719   3.197   1.922  1.00  0.00     0.031 A 
ATOM     43  C   UNL     1       0.793   4.224   1.302  1.00  0.00     0.074 A 
ATOM     44  C   UNL     1       1.738   3.070   3.266  1.00  0.00     0.049 A 
ATOM     45  N   UNL     1       0.092   5.168   1.883  1.00  0.00    -0.248 NA
ATOM     46  C   UNL     1       0.625   4.186  -0.162  1.00  0.00     0.031 C 
ATOM     47  C   UNL     1       2.529   2.092   4.015  1.00  0.00     0.029 A 
ATOM     48  N   UNL     1       1.077   3.776   4.245  1.00  0.00    -0.354 N 
ATOM     49  C   UNL     1      -0.548   5.864   0.861  1.00  0.00     0.074 A 
ATOM     50  C   UNL     1      -0.162   5.232  -0.381  1.00  0.00     0.031 C 
ATOM     51  C   UNL     1       2.297   2.246   5.327  1.00  0.00     0.029 A 
ATOM     52  C   UNL     1       1.424   3.397   5.523  1.00  0.00     0.049 A 
ATOM     53  H   UNL     1       0.420   4.484   4.051  1.00  0.00     0.167 HD
ATOM     54  C   UNL     1      -1.382   6.930   0.943  1.00  0.00     0.034 A 
ATOM     55  C   UNL     1       1.132   3.943   6.720  1.00  0.00     0.034 A 
ATOM     56  C   UNL     1      -1.790   7.553   2.175  1.00  0.00     0.049 A 
ATOM     57  C   UNL     1       0.266   5.170   6.776  1.00  0.00     0.074 A 
ATOM     58  C   UNL     1      -2.615   8.652   2.352  1.00  0.00     0.029 A 
ATOM     59  N   UNL     1      -1.405   7.140   3.440  1.00  0.00    -0.354 N 
ATOM     60  N   UNL     1      -0.339   5.801   5.800  1.00  0.00    -0.248 NA
ATOM     61  C   UNL     1       0.035   5.754   8.105  1.00  0.00     0.031 C 
ATOM     62  C   UNL     1      -2.705   8.919   3.722  1.00  0.00     0.029 A 
ATOM     63  C   UNL     1      -1.966   7.965   4.401  1.00  0.00     0.049 A 
ATOM     64  H   UNL     1      -0.818   6.372   3.629  1.00  0.00     0.167 HD
ATOM     65  C   UNL     1      -1.036   6.844   6.399  1.00  0.00     0.074 A 
ATOM     66  C   UNL     1      -0.814   6.732   7.825  1.00  0.00     0.031 C 
ATOM     67  C   UNL     1      -1.773   7.823   5.820  1.00  0.00     0.034 A 
BRANCH  54  68
ATOM     68  C   UNL     1      -1.929   7.503  -0.341  1.00  0.00     0.023 A 
ATOM     69  C   UNL     1      -2.969   6.837  -1.020  1.00  0.00     0.012 A 
ATOM     70  C   UNL     1      -1.478   8.750  -0.822  1.00  0.00     0.148 A 
ATOM     71  C   UNL     1      -3.539   7.393  -2.166  1.00  0.00     0.002 A 
ATOM     72  C   UNL     1      -2.076   9.315  -1.942  1.00  0.00     0.091 A 
ATOM     73  F   UNL     1      -0.479   9.360  -0.169  1.00  0.00    -0.205 F 
ATOM     74  C   UNL     1      -3.101   8.635  -2.619  1.00  0.00     0.022 A 
BRANCH  72  75
ATOM     75  S   UNL     1      -1.636  10.942  -2.566  1.00  0.00     0.127 S 
ATOM     76  O   UNL     1      -1.050  10.609  -3.864  1.00  0.00    -0.237 OA
ATOM     77  O   UNL     1      -2.937  11.605  -2.636  1.00  0.00    -0.237 OA
ATOM     78  O   UNL     1      -0.711  11.510  -1.596  1.00  0.00    -0.744 OA
ENDBRANCH  72  75
ENDBRANCH  54  68
BRANCH  55  79
ATOM     79  C   UNL     1       1.700   3.357   7.970  1.00  0.00     0.023 A 
ATOM     80  C   UNL     1       0.843   2.799   8.938  1.00  0.00     0.012 A 
ATOM     81  C   UNL     1       3.089   3.354   8.205  1.00  0.00     0.148 A 
ATOM     82  C   UNL     1       1.357   2.278  10.127  1.00  0.00     0.002 A 
ATOM     83  C   UNL     1       3.599   2.766   9.355  1.00  0.00     0.091 A 
ATOM     84  F   UNL     1       3.892   3.925   7.294  1.00  0.00    -0.205 F 
ATOM     85  C   UNL     1       2.735   2.246  10.328  1.00  0.00     0.022 A 
BRANCH  83  86
ATOM     86  S   UNL     1       5.365   2.551   9.603  1.00  0.00     0.127 S 
ATOM     87  O   UNL     1       5.670   3.629  10.539  1.00  0.00    -0.237 OA
ATOM     88  O   UNL     1       5.434   1.204  10.171  1.00  0.00    -0.237 OA
ATOM     89  O   UNL     1       5.956   2.668   8.276  1.00  0.00    -0.744 OA
ENDBRANCH  83  86
ENDBRANCH  55  79
BRANCH  67  90
ATOM     90  C   UNL     1      -2.419   8.830   6.736  1.00  0.00     0.023 A 
ATOM     91  C   UNL     1      -1.622   9.771   7.420  1.00  0.00     0.012 A 
ATOM     92  C   UNL     1      -3.816   8.851   6.913  1.00  0.00     0.148 A 
ATOM     93  C   UNL     1      -2.199  10.679   8.307  1.00  0.00     0.002 A 
ATOM     94  C   UNL     1      -4.389   9.794   7.759  1.00  0.00     0.091 A 
ATOM     95  F   UNL     1      -4.558   7.938   6.271  1.00  0.00    -0.205 F 
ATOM     96  C   UNL     1      -3.582  10.696   8.470  1.00  0.00     0.022 A 
BRANCH  94  97
ATOM     97  S   UNL     1      -6.168   9.944   7.955  1.00  0.00     0.127 S 
ATOM     98  O   UNL     1      -6.381   9.308   9.254  1.00  0.00    -0.237 OA
ATOM     99  O   UNL     1      -6.362  11.395   7.947  1.00  0.00    -0.237 OA
ATOM    100  O   UNL     1      -6.753   9.255   6.812  1.00  0.00    -0.744 OA
ENDBRANCH  94  97
ENDBRANCH  67  90
ENDBRANCH  41  42
ENDBRANCH  34  36
ENDBRANCH  33  34
ENDBRANCH  32  33
ENDBRANCH  31  32
ENDBRANCH  30  31
ENDBRANCH  29  30
ENDBRANCH   1  29
TORSDOF 23
