REMARK SMILES CN(C)C(=O)c1cccc(NCc2cc(C(=O)OCCOCCOCCOC(=O)c3ccc(-c4c5nc(c(-c6cccc(S(=O)(=O)[O-])c6F)c6ccc([nH]6)c(-c6cccc(S(=O)(=O)[O-])c6F)c6nc(c(-c7cccc(S(=O)(=O)[O-])c7F)c7ccc4[nH]7)C=C6)C=C5)cc3)cs2)c1
REMARK SMILES IDX 22 1 21 2 20 3 19 4 18 5 16 6 17 7 15 8 13 9 14 10 94 11
REMARK SMILES IDX 93 12 12 13 11 14 10 16 6 17 7 18 95 19 8 20 9 21 4 22 1 23
REMARK SMILES IDX 2 24 3 25 5 26 23 27 24 28 25 29 26 30 27 31 28 32 29 33
REMARK SMILES IDX 30 34 31 35 92 36 32 37 91 38 33 39 34 40 35 41 85 42 36 43
REMARK SMILES IDX 90 44 84 45 86 46 37 47 89 48 83 49 82 50 38 52 70 53 50 54
REMARK SMILES IDX 69 55 51 56 54 57 68 58 87 59 52 60 53 61 67 63 88 64 55 65
REMARK SMILES IDX 39 66 40 67 48 68 41 69 43 70 49 71 42 72 44 73 45 74 46 75
REMARK SMILES IDX 47 76 71 77 72 78 80 79 73 80 75 81 81 82 74 83 76 84 77 85
REMARK SMILES IDX 78 86 79 87 56 88 57 89 65 90 58 91 60 92 66 93 59 94 61 95
REMARK SMILES IDX 62 96 63 97 64 98
REMARK H PARENT 11 15 86 51 54 62
REMARK Flexibility Score: inf
ROOT
ATOM      1  C   UNL     1      -4.771  -8.692   7.258  1.00  0.00     0.188 C 
ENDROOT
BRANCH   1   2
ATOM      2  O   UNL     1      -5.608  -9.700   7.813  1.00  0.00    -0.376 OA
BRANCH   2   3
ATOM      3  C   UNL     1      -5.946 -10.851   7.056  1.00  0.00     0.202 C 
BRANCH   3   4
ATOM      4  C   UNL     1      -6.794 -10.649   5.798  1.00  0.00     0.261 C 
BRANCH   4   5
ATOM      5  O   UNL     1      -6.191  -9.772   4.832  1.00  0.00    -0.460 OA
BRANCH   5   6
ATOM      6  C   UNL     1      -6.841  -8.586   4.639  1.00  0.00     0.339 C 
ATOM      7  O   UNL     1      -7.923  -8.297   5.132  1.00  0.00    -0.246 OA
BRANCH   6   8
ATOM      8  C   UNL     1      -6.068  -7.637   3.841  1.00  0.00     0.071 A 
ATOM      9  C   UNL     1      -4.601  -6.761   2.219  1.00  0.00     0.025 A 
ATOM     10  C   UNL     1      -5.122  -7.910   2.794  1.00  0.00     0.033 A 
ATOM     11  S   UNL     1      -5.204  -5.357   2.994  1.00  0.00    -0.146 S 
ATOM     12  C   UNL     1      -6.178  -6.274   4.048  1.00  0.00     0.080 A 
BRANCH   9  13
ATOM     13  C   UNL     1      -3.656  -6.657   1.043  1.00  0.00     0.159 C 
BRANCH  13  14
ATOM     14  N   UNL     1      -2.901  -5.419   0.944  1.00  0.00    -0.380 N 
ATOM     15  H   UNL     1      -3.402  -4.590   1.121  1.00  0.00     0.160 HD
BRANCH  14  16
ATOM     16  C   UNL     1      -1.569  -5.267   0.631  1.00  0.00     0.035 A 
ATOM     17  C   UNL     1       0.255  -3.764  -0.009  1.00  0.00     0.042 A 
ATOM     18  C   UNL     1       1.147  -4.837  -0.046  1.00  0.00     0.014 A 
ATOM     19  C   UNL     1      -1.094  -3.986   0.304  1.00  0.00     0.039 A 
ATOM     20  C   UNL     1       0.693  -6.116   0.258  1.00  0.00     0.003 A 
ATOM     21  C   UNL     1      -0.651  -6.323   0.590  1.00  0.00     0.026 A 
BRANCH  17  22
ATOM     22  C   UNL     1       0.757  -2.423  -0.398  1.00  0.00     0.253 C 
ATOM     23  C   UNL     1       0.858  -0.006  -0.113  1.00  0.00     0.146 C 
ATOM     24  N   UNL     1       0.445  -1.309   0.378  1.00  0.00    -0.345 N 
ATOM     25  C   UNL     1      -0.125  -1.347   1.718  1.00  0.00     0.146 C 
ATOM     26  O   UNL     1       1.449  -2.355  -1.414  1.00  0.00    -0.269 OA
ENDBRANCH  17  22
ENDBRANCH  14  16
ENDBRANCH  13  14
ENDBRANCH   9  13
ENDBRANCH   6   8
ENDBRANCH   5   6
ENDBRANCH   4   5
ENDBRANCH   3   4
ENDBRANCH   2   3
ENDBRANCH   1   2
BRANCH   1  27
ATOM     27  C   UNL     1      -3.590  -9.076   6.346  1.00  0.00     0.188 C 
BRANCH  27  28
ATOM     28  O   UNL     1      -3.176 -10.431   6.444  1.00  0.00    -0.376 OA
BRANCH  28  29
ATOM     29  C   UNL     1      -1.921 -10.656   7.072  1.00  0.00     0.202 C 
BRANCH  29  30
ATOM     30  C   UNL     1      -1.952 -10.506   8.597  1.00  0.00     0.261 C 
BRANCH  30  31
ATOM     31  O   UNL     1      -2.249  -9.181   9.065  1.00  0.00    -0.460 OA
BRANCH  31  32
ATOM     32  C   UNL     1      -1.354  -8.214   8.761  1.00  0.00     0.338 C 
ATOM     33  O   UNL     1      -0.317  -8.345   8.137  1.00  0.00    -0.246 OA
BRANCH  32  34
ATOM     34  C   UNL     1      -1.923  -6.916   9.175  1.00  0.00     0.060 A 
ATOM     35  C   UNL     1      -2.009  -5.888   8.229  1.00  0.00     0.016 A 
ATOM     36  C   UNL     1      -2.353  -6.711  10.489  1.00  0.00     0.016 A 
ATOM     37  C   UNL     1      -2.491  -4.634   8.611  1.00  0.00     0.010 A 
ATOM     38  C   UNL     1      -2.827  -5.453  10.870  1.00  0.00     0.010 A 
ATOM     39  C   UNL     1      -2.867  -4.399   9.942  1.00  0.00    -0.014 A 
BRANCH  39  40
ATOM     40  C   UNL     1      -3.152  -3.015  10.394  1.00  0.00     0.031 A 
ATOM     41  C   UNL     1      -2.048  -2.221  11.041  1.00  0.00     0.074 A 
ATOM     42  C   UNL     1      -4.370  -2.467  10.238  1.00  0.00     0.049 A 
ATOM     43  N   UNL     1      -2.056  -0.983  11.461  1.00  0.00    -0.248 NA
ATOM     44  C   UNL     1      -0.766  -2.917  11.242  1.00  0.00     0.031 C 
ATOM     45  C   UNL     1      -5.532  -3.137   9.657  1.00  0.00     0.029 A 
ATOM     46  N   UNL     1      -4.834  -1.219  10.577  1.00  0.00    -0.354 N 
ATOM     47  C   UNL     1      -0.790  -0.753  11.984  1.00  0.00     0.074 A 
ATOM     48  C   UNL     1      -0.045  -1.987  11.850  1.00  0.00     0.031 C 
ATOM     49  C   UNL     1      -6.583  -2.298   9.699  1.00  0.00     0.029 A 
ATOM     50  C   UNL     1      -6.170  -1.036  10.312  1.00  0.00     0.049 A 
ATOM     51  H   UNL     1      -4.263  -0.522  10.973  1.00  0.00     0.167 HD
ATOM     52  C   UNL     1      -0.280   0.387  12.507  1.00  0.00     0.034 A 
ATOM     53  C   UNL     1      -6.967   0.028  10.538  1.00  0.00     0.034 A 
ATOM     54  C   UNL     1      -1.011   1.618  12.632  1.00  0.00     0.049 A 
ATOM     55  C   UNL     1      -6.376   1.287  11.122  1.00  0.00     0.074 A 
ATOM     56  C   UNL     1      -0.563   2.840  13.104  1.00  0.00     0.029 A 
ATOM     57  N   UNL     1      -2.345   1.783  12.296  1.00  0.00    -0.354 N 
ATOM     58  N   UNL     1      -5.134   1.538  11.460  1.00  0.00    -0.248 NA
ATOM     59  C   UNL     1      -7.289   2.425  11.315  1.00  0.00     0.031 C 
ATOM     60  C   UNL     1      -1.632   3.741  13.065  1.00  0.00     0.029 A 
ATOM     61  C   UNL     1      -2.740   3.084  12.555  1.00  0.00     0.049 A 
ATOM     62  H   UNL     1      -2.926   1.079  11.928  1.00  0.00     0.167 HD
ATOM     63  C   UNL     1      -5.109   2.868  11.867  1.00  0.00     0.074 A 
ATOM     64  C   UNL     1      -6.457   3.377  11.716  1.00  0.00     0.031 C 
ATOM     65  C   UNL     1      -4.068   3.599  12.338  1.00  0.00     0.034 A 
BRANCH  52  66
ATOM     66  C   UNL     1       1.161   0.367  12.938  1.00  0.00     0.023 A 
ATOM     67  C   UNL     1       2.172   0.393  11.957  1.00  0.00     0.012 A 
ATOM     68  C   UNL     1       1.516   0.375  14.300  1.00  0.00     0.148 A 
ATOM     69  C   UNL     1       3.517   0.401  12.324  1.00  0.00     0.002 A 
ATOM     70  C   UNL     1       2.858   0.420  14.659  1.00  0.00     0.091 A 
ATOM     71  F   UNL     1       0.539   0.322  15.217  1.00  0.00    -0.205 F 
ATOM     72  C   UNL     1       3.859   0.424  13.673  1.00  0.00     0.022 A 
BRANCH  70  73
ATOM     73  S   UNL     1       3.394   0.520  16.370  1.00  0.00     0.127 S 
ATOM     74  O   UNL     1       3.874  -0.840  16.609  1.00  0.00    -0.237 OA
ATOM     75  O   UNL     1       4.447   1.535  16.307  1.00  0.00    -0.237 OA
ATOM     76  O   UNL     1       2.219   0.916  17.133  1.00  0.00    -0.744 OA
ENDBRANCH  70  73
ENDBRANCH  52  66
BRANCH  53  77
ATOM     77  C   UNL     1      -8.405  -0.022  10.147  1.00  0.00     0.023 A 
ATOM     78  C   UNL     1      -8.853   0.751   9.058  1.00  0.00     0.012 A 
ATOM     79  C   UNL     1      -9.324  -0.834  10.838  1.00  0.00     0.148 A 
ATOM     80  C   UNL     1     -10.197   0.738   8.681  1.00  0.00     0.002 A 
ATOM     81  C   UNL     1     -10.651  -0.881  10.426  1.00  0.00     0.091 A 
ATOM     82  F   UNL     1      -8.883  -1.543  11.886  1.00  0.00    -0.205 F 
ATOM     83  C   UNL     1     -11.093  -0.085   9.358  1.00  0.00     0.022 A 
BRANCH  81  84
ATOM     84  S   UNL     1     -11.846  -2.000  11.167  1.00  0.00     0.127 S 
ATOM     85  O   UNL     1     -12.651  -1.087  11.974  1.00  0.00    -0.237 OA
ATOM     86  O   UNL     1     -12.524  -2.544   9.990  1.00  0.00    -0.237 OA
ATOM     87  O   UNL     1     -11.056  -2.975  11.907  1.00  0.00    -0.744 OA
ENDBRANCH  81  84
ENDBRANCH  53  77
BRANCH  65  88
ATOM     88  C   UNL     1      -4.322   5.041  12.694  1.00  0.00     0.023 A 
ATOM     89  C   UNL     1      -5.033   5.355  13.869  1.00  0.00     0.012 A 
ATOM     90  C   UNL     1      -3.786   6.083  11.912  1.00  0.00     0.148 A 
ATOM     91  C   UNL     1      -5.232   6.684  14.244  1.00  0.00     0.002 A 
ATOM     92  C   UNL     1      -3.951   7.404  12.315  1.00  0.00     0.091 A 
ATOM     93  F   UNL     1      -3.130   5.768  10.785  1.00  0.00    -0.205 F 
ATOM     94  C   UNL     1      -4.682   7.706  13.475  1.00  0.00     0.022 A 
BRANCH  92  95
ATOM     95  S   UNL     1      -3.194   8.771  11.428  1.00  0.00     0.127 S 
ATOM     96  O   UNL     1      -4.318   9.281  10.647  1.00  0.00    -0.237 OA
ATOM     97  O   UNL     1      -2.758   9.650  12.515  1.00  0.00    -0.237 OA
ATOM     98  O   UNL     1      -2.103   8.186  10.659  1.00  0.00    -0.744 OA
ENDBRANCH  92  95
ENDBRANCH  65  88
ENDBRANCH  39  40
ENDBRANCH  32  34
ENDBRANCH  31  32
ENDBRANCH  30  31
ENDBRANCH  29  30
ENDBRANCH  28  29
ENDBRANCH  27  28
ENDBRANCH   1  27
TORSDOF 24
