REMARK SMILES C[C@H]1[C@@H](C(=O)OCCOCCOCCOC(=O)c2ccc(-c3c4nc(c(-c5cccc(S(=O)(=O)[O-])c5F)c5ccc([nH]5)c(-c5cccc(S(=O)(=O)[O-])c5F)c5nc(c(-c6cccc(S(=O)(=O)[O-])c6F)c6ccc3[nH]6)C=C5)C=C4)cc2)CCN1C(=O)N[C@@H]1CC[N@@H+]2CCCC[C@H]12
REMARK SMILES IDX 11 1 10 2 9 3 8 4 7 5 6 6 4 7 5 8 3 9 1 10 2 11 83 12 81 13
REMARK SMILES IDX 82 14 84 15 85 16 86 17 87 19 88 20 95 21 89 22 90 23 94 24
REMARK SMILES IDX 91 25 93 27 92 28 12 29 13 30 14 31 15 32 16 33 17 34 18 35
REMARK SMILES IDX 19 36 80 37 20 38 79 39 21 40 22 41 23 42 73 43 24 44 78 45
REMARK SMILES IDX 72 46 74 47 25 48 77 49 71 50 70 51 26 53 58 54 38 55 57 56
REMARK SMILES IDX 39 57 42 58 56 59 75 60 40 61 41 62 55 64 76 65 43 66 27 67
REMARK SMILES IDX 28 68 36 69 29 70 31 71 37 72 30 73 32 74 33 75 34 76 35 77
REMARK SMILES IDX 59 78 60 79 68 80 61 81 63 82 69 83 62 84 64 85 65 86 66 87
REMARK SMILES IDX 67 88 44 89 45 90 53 91 46 92 48 93 54 94 47 95 49 96 50 97
REMARK SMILES IDX 51 98 52 99
REMARK H PARENT 86 18 90 26 74 52 42 63
REMARK Flexibility Score: inf
ROOT
ATOM      1  C   UNL     1      -2.050  -2.549  -1.118  1.00  0.00     0.188 C 
ENDROOT
BRANCH   1   2
ATOM      2  C   UNL     1      -1.474  -2.400  -2.541  1.00  0.00     0.188 C 
BRANCH   2   3
ATOM      3  O   UNL     1      -2.243  -3.077  -3.531  1.00  0.00    -0.376 OA
BRANCH   3   4
ATOM      4  C   UNL     1      -1.554  -4.135  -4.189  1.00  0.00     0.202 C 
BRANCH   4   5
ATOM      5  C   UNL     1      -1.685  -5.434  -3.400  1.00  0.00     0.261 C 
BRANCH   5   6
ATOM      6  O   UNL     1      -1.110  -5.338  -2.084  1.00  0.00    -0.463 OA
BRANCH   6   7
ATOM      7  C   UNL     1       0.232  -5.524  -1.968  1.00  0.00     0.311 C 
ATOM      8  O   UNL     1       0.979  -5.771  -2.901  1.00  0.00    -0.252 OA
BRANCH   7   9
ATOM      9  C   UNL     1       0.630  -5.452  -0.503  1.00  0.00     0.123 C 
ATOM     10  C   UNL     1       1.983  -3.304  -1.114  1.00  0.00     0.032 C 
ATOM     11  C   UNL     1       1.554  -4.295  -0.035  1.00  0.00     0.098 C 
ATOM     12  N   UNL     1       2.723  -4.959   0.551  1.00  0.00    -0.321 N 
ATOM     13  C   UNL     1       1.367  -6.738  -0.116  1.00  0.00     0.039 C 
ATOM     14  C   UNL     1       2.812  -6.303   0.008  1.00  0.00     0.122 C 
BRANCH  12  15
ATOM     15  C   UNL     1       3.713  -4.531   1.377  1.00  0.00     0.318 C 
ATOM     16  O   UNL     1       4.699  -5.243   1.601  1.00  0.00    -0.249 OA
ATOM     17  N   UNL     1       3.720  -3.357   2.025  1.00  0.00    -0.329 N 
ATOM     18  H   UNL     1       4.564  -3.241   2.518  1.00  0.00     0.165 HD
BRANCH  17  19
ATOM     19  C   UNL     1       2.853  -2.203   2.217  1.00  0.00     0.147 C 
ATOM     20  C   UNL     1       3.290  -1.018   1.381  1.00  0.00     0.092 C 
ATOM     21  C   UNL     1       2.833  -1.574   3.647  1.00  0.00     0.207 C 
ATOM     22  C   UNL     1       2.528   0.127   2.020  1.00  0.00     0.264 C 
ATOM     23  N   UNL     1       2.633  -0.105   3.468  1.00  0.00    -0.331 N 
ATOM     24  C   UNL     1       4.040  -1.913   4.535  1.00  0.00     0.067 C 
ATOM     25  C   UNL     1       3.717   0.726   4.017  1.00  0.00     0.262 C 
ATOM     26  H   UNL     1       1.797   0.170   3.983  1.00  0.00     0.348 HD
ATOM     27  C   UNL     1       4.002  -1.071   5.804  1.00  0.00     0.012 C 
ATOM     28  C   UNL     1       4.033   0.420   5.481  1.00  0.00     0.062 C 
ENDBRANCH  17  19
ENDBRANCH  12  15
ENDBRANCH   7   9
ENDBRANCH   6   7
ENDBRANCH   5   6
ENDBRANCH   4   5
ENDBRANCH   3   4
ENDBRANCH   2   3
ENDBRANCH   1   2
BRANCH   1  29
ATOM     29  O   UNL     1      -3.464  -2.636  -0.967  1.00  0.00    -0.376 OA
BRANCH  29  30
ATOM     30  C   UNL     1      -4.256  -1.736  -1.737  1.00  0.00     0.202 C 
BRANCH  30  31
ATOM     31  C   UNL     1      -4.083  -0.253  -1.403  1.00  0.00     0.261 C 
BRANCH  31  32
ATOM     32  O   UNL     1      -2.740   0.193  -1.657  1.00  0.00    -0.460 OA
BRANCH  32  33
ATOM     33  C   UNL     1      -2.320   1.222  -0.884  1.00  0.00     0.338 C 
ATOM     34  O   UNL     1      -2.974   1.825  -0.054  1.00  0.00    -0.246 OA
BRANCH  33  35
ATOM     35  C   UNL     1      -0.908   1.536  -1.189  1.00  0.00     0.060 A 
ATOM     36  C   UNL     1       0.094   0.589  -0.985  1.00  0.00     0.016 A 
ATOM     37  C   UNL     1      -0.564   2.838  -1.552  1.00  0.00     0.016 A 
ATOM     38  C   UNL     1       1.434   0.959  -1.091  1.00  0.00     0.010 A 
ATOM     39  C   UNL     1       0.786   3.201  -1.657  1.00  0.00     0.010 A 
ATOM     40  C   UNL     1       1.803   2.278  -1.364  1.00  0.00    -0.014 A 
BRANCH  40  41
ATOM     41  C   UNL     1       3.209   2.729  -1.139  1.00  0.00     0.031 A 
ATOM     42  C   UNL     1       3.473   3.777  -0.084  1.00  0.00     0.074 A 
ATOM     43  C   UNL     1       4.270   2.174  -1.759  1.00  0.00     0.049 A 
ATOM     44  N   UNL     1       4.543   4.498   0.121  1.00  0.00    -0.248 NA
ATOM     45  C   UNL     1       2.386   4.031   0.878  1.00  0.00     0.031 C 
ATOM     46  C   UNL     1       4.226   1.036  -2.674  1.00  0.00     0.029 A 
ATOM     47  N   UNL     1       5.606   2.506  -1.706  1.00  0.00    -0.354 N 
ATOM     48  C   UNL     1       4.226   5.355   1.168  1.00  0.00     0.074 A 
ATOM     49  C   UNL     1       2.882   5.031   1.592  1.00  0.00     0.031 C 
ATOM     50  C   UNL     1       5.473   0.759  -3.091  1.00  0.00     0.029 A 
ATOM     51  C   UNL     1       6.388   1.770  -2.567  1.00  0.00     0.049 A 
ATOM     52  H   UNL     1       5.966   3.202  -1.110  1.00  0.00     0.167 HD
ATOM     53  C   UNL     1       4.980   6.333   1.719  1.00  0.00     0.034 A 
ATOM     54  C   UNL     1       7.671   1.935  -2.954  1.00  0.00     0.034 A 
ATOM     55  C   UNL     1       6.340   6.613   1.350  1.00  0.00     0.049 A 
ATOM     56  C   UNL     1       8.466   3.095  -2.413  1.00  0.00     0.074 A 
ATOM     57  C   UNL     1       7.169   7.616   1.819  1.00  0.00     0.029 A 
ATOM     58  N   UNL     1       7.075   5.876   0.438  1.00  0.00    -0.354 N 
ATOM     59  N   UNL     1       8.137   3.960  -1.485  1.00  0.00    -0.248 NA
ATOM     60  C   UNL     1       9.805   3.313  -2.984  1.00  0.00     0.031 C 
ATOM     61  C   UNL     1       8.406   7.493   1.179  1.00  0.00     0.029 A 
ATOM     62  C   UNL     1       8.350   6.402   0.327  1.00  0.00     0.049 A 
ATOM     63  H   UNL     1       6.741   5.095  -0.058  1.00  0.00     0.167 HD
ATOM     64  C   UNL     1       9.232   4.809  -1.347  1.00  0.00     0.074 A 
ATOM     65  C   UNL     1      10.243   4.343  -2.272  1.00  0.00     0.031 C 
ATOM     66  C   UNL     1       9.375   5.891  -0.544  1.00  0.00     0.034 A 
BRANCH  53  67
ATOM     67  C   UNL     1       4.339   7.206   2.759  1.00  0.00     0.023 A 
ATOM     68  C   UNL     1       4.204   6.752   4.084  1.00  0.00     0.012 A 
ATOM     69  C   UNL     1       3.918   8.508   2.422  1.00  0.00     0.148 A 
ATOM     70  C   UNL     1       3.640   7.578   5.057  1.00  0.00     0.002 A 
ATOM     71  C   UNL     1       3.393   9.337   3.404  1.00  0.00     0.091 A 
ATOM     72  F   UNL     1       4.028   8.904   1.146  1.00  0.00    -0.205 F 
ATOM     73  C   UNL     1       3.247   8.872   4.720  1.00  0.00     0.022 A 
BRANCH  71  74
ATOM     74  S   UNL     1       2.927  11.039   3.070  1.00  0.00     0.127 S 
ATOM     75  O   UNL     1       1.468  10.946   3.044  1.00  0.00    -0.237 OA
ATOM     76  O   UNL     1       3.474  11.744   4.229  1.00  0.00    -0.237 OA
ATOM     77  O   UNL     1       3.558  11.382   1.802  1.00  0.00    -0.744 OA
ENDBRANCH  71  74
ENDBRANCH  53  67
BRANCH  54  78
ATOM     78  C   UNL     1       8.272   1.012  -3.962  1.00  0.00     0.023 A 
ATOM     79  C   UNL     1       9.350   0.182  -3.600  1.00  0.00     0.012 A 
ATOM     80  C   UNL     1       7.772   0.946  -5.278  1.00  0.00     0.148 A 
ATOM     81  C   UNL     1       9.923  -0.686  -4.532  1.00  0.00     0.002 A 
ATOM     82  C   UNL     1       8.299   0.030  -6.179  1.00  0.00     0.091 A 
ATOM     83  F   UNL     1       6.779   1.778  -5.625  1.00  0.00    -0.205 F 
ATOM     84  C   UNL     1       9.387  -0.775  -5.815  1.00  0.00     0.022 A 
BRANCH  82  85
ATOM     85  S   UNL     1       7.553  -0.247  -7.789  1.00  0.00     0.127 S 
ATOM     86  O   UNL     1       8.465   0.474  -8.672  1.00  0.00    -0.237 OA
ATOM     87  O   UNL     1       7.603  -1.705  -7.906  1.00  0.00    -0.237 OA
ATOM     88  O   UNL     1       6.203   0.293  -7.684  1.00  0.00    -0.744 OA
ENDBRANCH  82  85
ENDBRANCH  54  78
BRANCH  66  89
ATOM     89  C   UNL     1      10.680   6.639  -0.580  1.00  0.00     0.023 A 
ATOM     90  C   UNL     1      10.953   7.513  -1.649  1.00  0.00     0.012 A 
ATOM     91  C   UNL     1      11.573   6.573   0.508  1.00  0.00     0.148 A 
ATOM     92  C   UNL     1      12.103   8.302  -1.642  1.00  0.00     0.002 A 
ATOM     93  C   UNL     1      12.694   7.393   0.529  1.00  0.00     0.091 A 
ATOM     94  F   UNL     1      11.298   5.722   1.508  1.00  0.00    -0.205 F 
ATOM     95  C   UNL     1      12.965   8.253  -0.548  1.00  0.00     0.022 A 
BRANCH  93  96
ATOM     96  S   UNL     1      13.810   7.468   1.936  1.00  0.00     0.127 S 
ATOM     97  O   UNL     1      15.013   6.837   1.396  1.00  0.00    -0.237 OA
ATOM     98  O   UNL     1      13.925   8.908   2.164  1.00  0.00    -0.237 OA
ATOM     99  O   UNL     1      13.152   6.735   3.010  1.00  0.00    -0.744 OA
ENDBRANCH  93  96
ENDBRANCH  66  89
ENDBRANCH  40  41
ENDBRANCH  33  35
ENDBRANCH  32  33
ENDBRANCH  31  32
ENDBRANCH  30  31
ENDBRANCH  29  30
ENDBRANCH   1  29
TORSDOF 22
