REMARK SMILES CN(C)C(=O)CCc1cccc(NC(=O)[C@H]2CCCC[C@@H]2C(=O)OCCOCCOCCOC(=O)c2ccc(-c3c4nc(c(-c5cccc(S(=O)(=O)[O-])c5F)c5ccc([nH]5)c(-c5cccc(S(=O)(=O)[O-])c5F)c5nc(c(-c6cccc(S(=O)(=O)[O-])c6F)c6ccc3[nH]6)C=C5)C=C4)cc2)c1
REMARK SMILES IDX 28 1 27 2 26 3 25 4 24 5 22 6 23 7 21 8 16 9 17 10 18 11
REMARK SMILES IDX 20 12 19 13 14 14 13 15 15 17 12 18 8 19 9 20 99 21 10 22
REMARK SMILES IDX 11 23 7 24 6 25 4 26 1 27 2 28 3 29 5 30 29 31 30 32 31 33
REMARK SMILES IDX 32 34 33 35 34 36 35 37 36 38 37 39 98 40 38 41 97 42 39 43
REMARK SMILES IDX 40 44 41 45 91 46 42 47 96 48 90 49 92 50 43 51 95 52 89 53
REMARK SMILES IDX 88 54 44 56 76 57 56 58 75 59 57 60 60 61 74 62 93 63 58 64
REMARK SMILES IDX 59 65 73 67 94 68 61 69 45 70 46 71 54 72 47 73 49 74 55 75
REMARK SMILES IDX 48 76 50 77 51 78 52 79 53 80 77 81 78 82 86 83 79 84 81 85
REMARK SMILES IDX 87 86 80 87 82 88 83 89 84 90 85 91 62 92 63 93 71 94 64 95
REMARK SMILES IDX 66 96 72 97 65 98 67 99 68 100 69 101 70 102
REMARK H PARENT 13 16 92 55 60 66
REMARK Flexibility Score: inf
ROOT
ATOM      1  C   UNL     1      -1.731  -1.704  10.090  1.00  0.00     0.188 C 
ENDROOT
BRANCH   1   2
ATOM      2  O   UNL     1      -2.429  -1.411  11.289  1.00  0.00    -0.376 OA
BRANCH   2   3
ATOM      3  C   UNL     1      -2.087  -0.153  11.860  1.00  0.00     0.202 C 
BRANCH   3   4
ATOM      4  C   UNL     1      -2.613   1.063  11.091  1.00  0.00     0.261 C 
BRANCH   4   5
ATOM      5  O   UNL     1      -2.251   1.141   9.698  1.00  0.00    -0.463 OA
BRANCH   5   6
ATOM      6  C   UNL     1      -0.989   1.512   9.333  1.00  0.00     0.309 C 
ATOM      7  O   UNL     1      -0.072   1.695  10.121  1.00  0.00    -0.252 OA
BRANCH   6   8
ATOM      8  C   UNL     1      -0.938   1.694   7.807  1.00  0.00     0.111 C 
ATOM      9  C   UNL     1      -0.247   0.592   6.994  1.00  0.00     0.093 C 
ATOM     10  C   UNL     1       1.280   0.803   7.188  1.00  0.00     0.014 C 
ATOM     11  C   UNL     1       1.743   2.224   6.841  1.00  0.00     0.001 C 
ATOM     12  C   UNL     1      -0.558   3.095   7.368  1.00  0.00     0.016 C 
ATOM     13  C   UNL     1       0.928   3.328   7.509  1.00  0.00     0.001 C 
BRANCH   9  14
ATOM     14  C   UNL     1      -0.571   0.369   5.461  1.00  0.00     0.228 C 
ATOM     15  N   UNL     1      -1.718   0.644   4.759  1.00  0.00    -0.326 N 
ATOM     16  H   UNL     1      -1.646   0.426   3.801  1.00  0.00     0.169 HD
ATOM     17  O   UNL     1       0.308  -0.158   4.756  1.00  0.00    -0.274 OA
BRANCH  15  18
ATOM     18  C   UNL     1      -2.968   1.167   5.109  1.00  0.00     0.041 A 
ATOM     19  C   UNL     1      -4.741   2.743   4.767  1.00  0.00    -0.045 A 
ATOM     20  C   UNL     1      -4.704   3.009   6.132  1.00  0.00     0.004 A 
ATOM     21  C   UNL     1      -3.750   1.907   4.226  1.00  0.00     0.029 A 
ATOM     22  C   UNL     1      -4.208   2.014   6.936  1.00  0.00     0.002 A 
ATOM     23  C   UNL     1      -3.493   0.981   6.357  1.00  0.00     0.026 A 
BRANCH  19  24
ATOM     24  C   UNL     1      -5.986   3.184   4.037  1.00  0.00     0.045 C 
BRANCH  24  25
ATOM     25  C   UNL     1      -7.240   2.419   4.561  1.00  0.00     0.105 C 
BRANCH  25  26
ATOM     26  C   UNL     1      -7.563   2.688   6.040  1.00  0.00     0.222 C 
ATOM     27  C   UNL     1      -7.376   2.086   8.414  1.00  0.00     0.146 C 
ATOM     28  N   UNL     1      -7.304   1.714   7.004  1.00  0.00    -0.349 N 
ATOM     29  C   UNL     1      -6.986   0.315   6.739  1.00  0.00     0.146 C 
ATOM     30  O   UNL     1      -7.979   3.809   6.358  1.00  0.00    -0.275 OA
ENDBRANCH  25  26
ENDBRANCH  24  25
ENDBRANCH  19  24
ENDBRANCH  15  18
ENDBRANCH   9  14
ENDBRANCH   6   8
ENDBRANCH   5   6
ENDBRANCH   4   5
ENDBRANCH   3   4
ENDBRANCH   2   3
ENDBRANCH   1   2
BRANCH   1  31
ATOM     31  C   UNL     1      -2.654  -1.690   8.868  1.00  0.00     0.188 C 
BRANCH  31  32
ATOM     32  O   UNL     1      -4.054  -1.543   9.009  1.00  0.00    -0.376 OA
BRANCH  32  33
ATOM     33  C   UNL     1      -4.736  -2.359   9.947  1.00  0.00     0.202 C 
BRANCH  33  34
ATOM     34  C   UNL     1      -4.358  -3.837  10.211  1.00  0.00     0.261 C 
BRANCH  34  35
ATOM     35  O   UNL     1      -3.021  -4.259   9.907  1.00  0.00    -0.460 OA
BRANCH  35  36
ATOM     36  C   UNL     1      -2.834  -4.866   8.707  1.00  0.00     0.338 C 
ATOM     37  O   UNL     1      -3.692  -5.120   7.881  1.00  0.00    -0.246 OA
BRANCH  36  38
ATOM     38  C   UNL     1      -1.375  -4.967   8.441  1.00  0.00     0.060 A 
ATOM     39  C   UNL     1      -0.856  -4.319   7.308  1.00  0.00     0.016 A 
ATOM     40  C   UNL     1      -0.522  -5.680   9.287  1.00  0.00     0.016 A 
ATOM     41  C   UNL     1       0.504  -4.399   7.005  1.00  0.00     0.010 A 
ATOM     42  C   UNL     1       0.837  -5.789   8.961  1.00  0.00     0.010 A 
ATOM     43  C   UNL     1       1.351  -5.178   7.800  1.00  0.00    -0.014 A 
BRANCH  43  44
ATOM     44  C   UNL     1       2.709  -5.524   7.303  1.00  0.00     0.031 A 
ATOM     45  C   UNL     1       2.906  -6.856   6.628  1.00  0.00     0.074 A 
ATOM     46  C   UNL     1       3.750  -4.680   7.429  1.00  0.00     0.049 A 
ATOM     47  N   UNL     1       3.996  -7.389   6.140  1.00  0.00    -0.248 NA
ATOM     48  C   UNL     1       1.709  -7.703   6.489  1.00  0.00     0.031 C 
ATOM     49  C   UNL     1       3.699  -3.354   8.041  1.00  0.00     0.029 A 
ATOM     50  N   UNL     1       5.066  -4.832   7.063  1.00  0.00    -0.354 N 
ATOM     51  C   UNL     1       3.625  -8.642   5.665  1.00  0.00     0.074 A 
ATOM     52  C   UNL     1       2.212  -8.796   5.935  1.00  0.00     0.031 C 
ATOM     53  C   UNL     1       4.937  -2.827   8.040  1.00  0.00     0.029 A 
ATOM     54  C   UNL     1       5.870  -3.785   7.447  1.00  0.00     0.049 A 
ATOM     55  H   UNL     1       5.402  -5.617   6.572  1.00  0.00     0.167 HD
ATOM     56  C   UNL     1       4.385  -9.579   5.050  1.00  0.00     0.034 A 
ATOM     57  C   UNL     1       7.207  -3.628   7.353  1.00  0.00     0.034 A 
ATOM     58  C   UNL     1       5.787  -9.427   4.767  1.00  0.00     0.049 A 
ATOM     59  C   UNL     1       8.039  -4.700   6.692  1.00  0.00     0.074 A 
ATOM     60  C   UNL     1       6.629 -10.305   4.107  1.00  0.00     0.029 A 
ATOM     61  N   UNL     1       6.558  -8.339   5.142  1.00  0.00    -0.354 N 
ATOM     62  N   UNL     1       7.655  -5.831   6.149  1.00  0.00    -0.248 NA
ATOM     63  C   UNL     1       9.487  -4.457   6.600  1.00  0.00     0.031 C 
ATOM     64  C   UNL     1       7.919  -9.765   4.119  1.00  0.00     0.029 A 
ATOM     65  C   UNL     1       7.870  -8.529   4.743  1.00  0.00     0.049 A 
ATOM     66  H   UNL     1       6.222  -7.547   5.621  1.00  0.00     0.167 HD
ATOM     67  C   UNL     1       8.803  -6.410   5.616  1.00  0.00     0.074 A 
ATOM     68  C   UNL     1       9.894  -5.498   5.885  1.00  0.00     0.031 C 
ATOM     69  C   UNL     1       8.943  -7.595   4.970  1.00  0.00     0.034 A 
BRANCH  56  70
ATOM     70  C   UNL     1       3.710 -10.859   4.631  1.00  0.00     0.023 A 
ATOM     71  C   UNL     1       2.802 -10.855   3.552  1.00  0.00     0.012 A 
ATOM     72  C   UNL     1       4.013 -12.074   5.275  1.00  0.00     0.148 A 
ATOM     73  C   UNL     1       2.181 -12.034   3.143  1.00  0.00     0.002 A 
ATOM     74  C   UNL     1       3.428 -13.253   4.830  1.00  0.00     0.091 A 
ATOM     75  F   UNL     1       4.862 -12.053   6.312  1.00  0.00    -0.205 F 
ATOM     76  C   UNL     1       2.501 -13.233   3.775  1.00  0.00     0.022 A 
BRANCH  74  77
ATOM     77  S   UNL     1       3.836 -14.859   5.523  1.00  0.00     0.127 S 
ATOM     78  O   UNL     1       2.592 -15.210   6.207  1.00  0.00    -0.237 OA
ATOM     79  O   UNL     1       4.115 -15.648   4.324  1.00  0.00    -0.237 OA
ATOM     80  O   UNL     1       4.985 -14.643   6.392  1.00  0.00    -0.744 OA
ENDBRANCH  74  77
ENDBRANCH  56  70
BRANCH  57  81
ATOM     81  C   UNL     1       7.855  -2.393   7.884  1.00  0.00     0.023 A 
ATOM     82  C   UNL     1       8.444  -1.475   6.993  1.00  0.00     0.012 A 
ATOM     83  C   UNL     1       7.900  -2.133   9.267  1.00  0.00     0.148 A 
ATOM     84  C   UNL     1       9.097  -0.338   7.472  1.00  0.00     0.002 A 
ATOM     85  C   UNL     1       8.502  -0.970   9.734  1.00  0.00     0.091 A 
ATOM     86  F   UNL     1       7.351  -3.028  10.099  1.00  0.00    -0.205 F 
ATOM     87  C   UNL     1       9.118  -0.081   8.840  1.00  0.00     0.022 A 
BRANCH  85  88
ATOM     88  S   UNL     1       8.475  -0.497  11.466  1.00  0.00     0.127 S 
ATOM     89  O   UNL     1       9.886  -0.606  11.828  1.00  0.00    -0.237 OA
ATOM     90  O   UNL     1       7.961   0.871  11.395  1.00  0.00    -0.237 OA
ATOM     91  O   UNL     1       7.582  -1.443  12.121  1.00  0.00    -0.744 OA
ENDBRANCH  85  88
ENDBRANCH  57  81
BRANCH  69  92
ATOM     92  C   UNL     1      10.314  -7.963   4.455  1.00  0.00     0.023 A 
ATOM     93  C   UNL     1      11.341  -8.308   5.355  1.00  0.00     0.012 A 
ATOM     94  C   UNL     1      10.562  -8.032   3.068  1.00  0.00     0.148 A 
ATOM     95  C   UNL     1      12.603  -8.675   4.886  1.00  0.00     0.002 A 
ATOM     96  C   UNL     1      11.805  -8.451   2.608  1.00  0.00     0.091 A 
ATOM     97  F   UNL     1       9.579  -7.687   2.224  1.00  0.00    -0.205 F 
ATOM     98  C   UNL     1      12.831  -8.758   3.515  1.00  0.00     0.022 A 
BRANCH  96  99
ATOM     99  S   UNL     1      12.159  -8.683   0.861  1.00  0.00     0.127 S 
ATOM    100  O   UNL     1      13.055  -7.561   0.587  1.00  0.00    -0.237 OA
ATOM    101  O   UNL     1      12.804  -9.997   0.848  1.00  0.00    -0.237 OA
ATOM    102  O   UNL     1      10.872  -8.636   0.180  1.00  0.00    -0.744 OA
ENDBRANCH  96  99
ENDBRANCH  69  92
ENDBRANCH  43  44
ENDBRANCH  36  38
ENDBRANCH  35  36
ENDBRANCH  34  35
ENDBRANCH  33  34
ENDBRANCH  32  33
ENDBRANCH  31  32
ENDBRANCH   1  31
TORSDOF 25
