REMARK SMILES C[C@@H]1[C@@H](C(=O)OCCOCCOCCOC(=O)c2ccc(-c3c4nc(c(-c5cccc(S(=O)(=O)[O-])c5F)c5ccc([nH]5)c(-c5cccc(S(=O)(=O)[O-])c5F)c5nc(c(-c6cccc(S(=O)(=O)[O-])c6F)c6ccc3[nH]6)C=C5)C=C4)cc2)CC[N@@H+]1[C@H]1CC[C@@H](C(F)(F)F)CC1
REMARK SMILES IDX 11 1 10 2 9 3 8 4 7 5 6 6 4 7 5 8 3 9 1 10 2 11 83 12 81 13
REMARK SMILES IDX 82 14 84 16 85 17 93 18 86 19 92 20 87 21 88 22 89 23 90 24
REMARK SMILES IDX 91 25 12 26 13 27 14 28 15 29 16 30 17 31 18 32 19 33 80 34
REMARK SMILES IDX 20 35 79 36 21 37 22 38 23 39 73 40 24 41 78 42 72 43 74 44
REMARK SMILES IDX 25 45 77 46 71 47 70 48 26 50 58 51 38 52 57 53 39 54 42 55
REMARK SMILES IDX 56 56 75 57 40 58 41 59 55 61 76 62 43 63 27 64 28 65 36 66
REMARK SMILES IDX 29 67 31 68 37 69 30 70 32 71 33 72 34 73 35 74 59 75 60 76
REMARK SMILES IDX 68 77 61 78 63 79 69 80 62 81 64 82 65 83 66 84 67 85 44 86
REMARK SMILES IDX 45 87 53 88 46 89 48 90 54 91 47 92 49 93 50 94 51 95 52 96
REMARK H PARENT 83 15 74 49 42 60
REMARK Flexibility Score: inf
ROOT
ATOM      1  C   UNL     1       0.235   3.551  -2.312  1.00  0.00     0.188 C 
ENDROOT
BRANCH   1   2
ATOM      2  C   UNL     1       0.337   2.528  -3.464  1.00  0.00     0.188 C 
BRANCH   2   3
ATOM      3  O   UNL     1      -0.421   2.894  -4.596  1.00  0.00    -0.376 OA
BRANCH   3   4
ATOM      4  C   UNL     1      -1.658   2.252  -4.862  1.00  0.00     0.202 C 
BRANCH   4   5
ATOM      5  C   UNL     1      -2.578   1.646  -3.782  1.00  0.00     0.261 C 
BRANCH   5   6
ATOM      6  O   UNL     1      -2.083   1.666  -2.444  1.00  0.00    -0.463 OA
BRANCH   6   7
ATOM      7  C   UNL     1      -1.755   0.460  -1.898  1.00  0.00     0.315 C 
ATOM      8  O   UNL     1      -1.959  -0.623  -2.424  1.00  0.00    -0.252 OA
BRANCH   7   9
ATOM      9  C   UNL     1      -1.073   0.677  -0.561  1.00  0.00     0.162 C 
ATOM     10  C   UNL     1       1.326   0.660   0.164  1.00  0.00     0.076 C 
ATOM     11  C   UNL     1       0.191  -0.190  -0.421  1.00  0.00     0.195 C 
ATOM     12  N   UNL     1      -0.270  -1.321   0.379  1.00  0.00    -0.330 N 
ATOM     13  C   UNL     1      -1.962   0.274   0.595  1.00  0.00     0.083 C 
ATOM     14  C   UNL     1      -1.669  -1.199   0.755  1.00  0.00     0.263 C 
ATOM     15  H   UNL     1      -0.060  -2.018  -0.336  1.00  0.00     0.348 HD
BRANCH  12  16
ATOM     16  C   UNL     1       0.562  -2.220   1.151  1.00  0.00     0.184 C 
ATOM     17  C   UNL     1       1.799  -2.741   0.398  1.00  0.00     0.066 C 
ATOM     18  C   UNL     1       0.906  -1.625   2.526  1.00  0.00     0.066 C 
ATOM     19  C   UNL     1       2.667  -3.651   1.273  1.00  0.00     0.019 C 
ATOM     20  C   UNL     1       1.750  -2.576   3.362  1.00  0.00     0.019 C 
ATOM     21  C   UNL     1       3.018  -3.055   2.645  1.00  0.00     0.095 C 
BRANCH  21  22
ATOM     22  C   UNL     1       4.089  -1.969   2.564  1.00  0.00     0.391 C 
ATOM     23  F   UNL     1       4.361  -1.484   3.799  1.00  0.00    -0.171 F 
ATOM     24  F   UNL     1       5.241  -2.468   2.068  1.00  0.00    -0.171 F 
ATOM     25  F   UNL     1       3.725  -0.927   1.796  1.00  0.00    -0.171 F 
ENDBRANCH  21  22
ENDBRANCH  12  16
ENDBRANCH   7   9
ENDBRANCH   6   7
ENDBRANCH   5   6
ENDBRANCH   4   5
ENDBRANCH   3   4
ENDBRANCH   2   3
ENDBRANCH   1   2
BRANCH   1  26
ATOM     26  O   UNL     1      -0.853   4.458  -2.264  1.00  0.00    -0.376 OA
BRANCH  26  27
ATOM     27  C   UNL     1      -1.043   5.331  -3.372  1.00  0.00     0.202 C 
BRANCH  27  28
ATOM     28  C   UNL     1       0.139   6.032  -4.084  1.00  0.00     0.261 C 
BRANCH  28  29
ATOM     29  O   UNL     1       1.340   5.266  -4.278  1.00  0.00    -0.460 OA
BRANCH  29  30
ATOM     30  C   UNL     1       2.405   5.635  -3.525  1.00  0.00     0.338 C 
ATOM     31  O   UNL     1       2.456   6.570  -2.730  1.00  0.00    -0.246 OA
BRANCH  30  32
ATOM     32  C   UNL     1       3.468   4.614  -3.620  1.00  0.00     0.060 A 
ATOM     33  C   UNL     1       3.773   3.844  -2.485  1.00  0.00     0.016 A 
ATOM     34  C   UNL     1       4.201   4.455  -4.794  1.00  0.00     0.016 A 
ATOM     35  C   UNL     1       4.818   2.920  -2.518  1.00  0.00     0.010 A 
ATOM     36  C   UNL     1       5.271   3.553  -4.815  1.00  0.00     0.010 A 
ATOM     37  C   UNL     1       5.601   2.801  -3.671  1.00  0.00    -0.014 A 
BRANCH  37  38
ATOM     38  C   UNL     1       6.872   2.037  -3.631  1.00  0.00     0.031 A 
ATOM     39  C   UNL     1       8.159   2.796  -3.441  1.00  0.00     0.074 A 
ATOM     40  C   UNL     1       6.892   0.701  -3.781  1.00  0.00     0.049 A 
ATOM     41  N   UNL     1       9.391   2.362  -3.475  1.00  0.00    -0.248 NA
ATOM     42  C   UNL     1       8.035   4.241  -3.184  1.00  0.00     0.031 C 
ATOM     43  C   UNL     1       5.717  -0.152  -3.943  1.00  0.00     0.029 A 
ATOM     44  N   UNL     1       7.953  -0.169  -3.854  1.00  0.00    -0.354 N 
ATOM     45  C   UNL     1      10.191   3.481  -3.276  1.00  0.00     0.074 A 
ATOM     46  C   UNL     1       9.305   4.615  -3.132  1.00  0.00     0.031 C 
ATOM     47  C   UNL     1       6.122  -1.420  -4.136  1.00  0.00     0.029 A 
ATOM     48  C   UNL     1       7.584  -1.462  -4.142  1.00  0.00     0.049 A 
ATOM     49  H   UNL     1       8.888   0.107  -3.714  1.00  0.00     0.167 HD
ATOM     50  C   UNL     1      11.541   3.558  -3.207  1.00  0.00     0.034 A 
ATOM     51  C   UNL     1       8.341  -2.546  -4.410  1.00  0.00     0.034 A 
ATOM     52  C   UNL     1      12.421   2.429  -3.341  1.00  0.00     0.049 A 
ATOM     53  C   UNL     1       9.845  -2.422  -4.382  1.00  0.00     0.074 A 
ATOM     54  C   UNL     1      13.802   2.401  -3.259  1.00  0.00     0.029 A 
ATOM     55  N   UNL     1      12.009   1.130  -3.595  1.00  0.00    -0.354 N 
ATOM     56  N   UNL     1      10.586  -1.378  -4.099  1.00  0.00    -0.248 NA
ATOM     57  C   UNL     1      10.618  -3.638  -4.681  1.00  0.00     0.031 C 
ATOM     58  C   UNL     1      14.227   1.090  -3.496  1.00  0.00     0.029 A 
ATOM     59  C   UNL     1      13.109   0.294  -3.685  1.00  0.00     0.049 A 
ATOM     60  H   UNL     1      11.073   0.844  -3.698  1.00  0.00     0.167 HD
ATOM     61  C   UNL     1      11.905  -1.821  -4.141  1.00  0.00     0.074 A 
ATOM     62  C   UNL     1      11.861  -3.232  -4.461  1.00  0.00     0.031 C 
ATOM     63  C   UNL     1      13.050  -1.122  -3.944  1.00  0.00     0.034 A 
BRANCH  50  64
ATOM     64  C   UNL     1      12.152   4.912  -2.959  1.00  0.00     0.023 A 
ATOM     65  C   UNL     1      12.037   5.507  -1.686  1.00  0.00     0.012 A 
ATOM     66  C   UNL     1      12.888   5.568  -3.965  1.00  0.00     0.148 A 
ATOM     67  C   UNL     1      12.616   6.749  -1.428  1.00  0.00     0.002 A 
ATOM     68  C   UNL     1      13.501   6.784  -3.686  1.00  0.00     0.091 A 
ATOM     69  F   UNL     1      12.969   4.996  -5.174  1.00  0.00    -0.205 F 
ATOM     70  C   UNL     1      13.356   7.381  -2.423  1.00  0.00     0.022 A 
BRANCH  68  71
ATOM     71  S   UNL     1      14.542   7.641  -4.873  1.00  0.00     0.127 S 
ATOM     72  O   UNL     1      13.734   8.821  -5.176  1.00  0.00    -0.237 OA
ATOM     73  O   UNL     1      15.745   7.911  -4.087  1.00  0.00    -0.237 OA
ATOM     74  O   UNL     1      14.733   6.717  -5.983  1.00  0.00    -0.744 OA
ENDBRANCH  68  71
ENDBRANCH  50  64
BRANCH  51  75
ATOM     75  C   UNL     1       7.700  -3.858  -4.714  1.00  0.00     0.023 A 
ATOM     76  C   UNL     1       7.846  -4.927  -3.808  1.00  0.00     0.012 A 
ATOM     77  C   UNL     1       6.965  -4.059  -5.899  1.00  0.00     0.148 A 
ATOM     78  C   UNL     1       7.309  -6.182  -4.094  1.00  0.00     0.002 A 
ATOM     79  C   UNL     1       6.384  -5.297  -6.151  1.00  0.00     0.091 A 
ATOM     80  F   UNL     1       6.851  -3.037  -6.757  1.00  0.00    -0.205 F 
ATOM     81  C   UNL     1       6.571  -6.365  -5.260  1.00  0.00     0.022 A 
BRANCH  79  82
ATOM     82  S   UNL     1       5.322  -5.594  -7.569  1.00  0.00     0.127 S 
ATOM     83  O   UNL     1       6.144  -6.492  -8.376  1.00  0.00    -0.237 OA
ATOM     84  O   UNL     1       4.156  -6.221  -6.944  1.00  0.00    -0.237 OA
ATOM     85  O   UNL     1       5.062  -4.283  -8.148  1.00  0.00    -0.744 OA
ENDBRANCH  79  82
ENDBRANCH  51  75
BRANCH  63  86
ATOM     86  C   UNL     1      14.357  -1.873  -4.007  1.00  0.00     0.023 A 
ATOM     87  C   UNL     1      14.850  -2.333  -5.244  1.00  0.00     0.012 A 
ATOM     88  C   UNL     1      15.135  -2.052  -2.845  1.00  0.00     0.148 A 
ATOM     89  C   UNL     1      16.078  -2.990  -5.319  1.00  0.00     0.002 A 
ATOM     90  C   UNL     1      16.382  -2.660  -2.935  1.00  0.00     0.091 A 
ATOM     91  F   UNL     1      14.644  -1.620  -1.674  1.00  0.00    -0.205 F 
ATOM     92  C   UNL     1      16.848  -3.143  -4.168  1.00  0.00     0.022 A 
BRANCH  90  93
ATOM     93  S   UNL     1      17.487  -2.813  -1.526  1.00  0.00     0.127 S 
ATOM     94  O   UNL     1      17.453  -4.253  -1.276  1.00  0.00    -0.237 OA
ATOM     95  O   UNL     1      18.752  -2.318  -2.071  1.00  0.00    -0.237 OA
ATOM     96  O   UNL     1      16.916  -1.983  -0.474  1.00  0.00    -0.744 OA
ENDBRANCH  90  93
ENDBRANCH  63  86
ENDBRANCH  37  38
ENDBRANCH  30  32
ENDBRANCH  29  30
ENDBRANCH  28  29
ENDBRANCH  27  28
ENDBRANCH  26  27
ENDBRANCH   1  26
TORSDOF 22
