REMARK SMILES Cn1cc(C(c2ccccc2OCC(=O)OCCOCCOCCOC(=O)c2ccc(-c3c4nc(c(-c5cccc(S(=O)(=O)[O-])c5F)c5ccc([nH]5)c(-c5cccc(S(=O)(=O)[O-])c5F)c5nc(c(-c6cccc(S(=O)(=O)[O-])c6F)c6ccc3[nH]6)C=C5)C=C4)cc2)c2cn(C)c3ccccc23)c2ccccc21
REMARK SMILES IDX 20 1 19 2 18 3 17 4 16 5 14 6 15 7 13 8 12 9 11 10 6 11 7 12
REMARK SMILES IDX 8 13 10 14 9 15 5 16 4 17 1 18 2 19 3 20 106 21 101 22
REMARK SMILES IDX 105 23 102 24 104 25 103 26 91 27 92 28 100 29 93 30 95 31
REMARK SMILES IDX 99 32 94 33 96 34 98 35 97 36 21 37 22 38 23 39 24 40 25 41
REMARK SMILES IDX 26 42 27 43 28 44 29 45 90 46 30 47 89 48 31 49 32 50 33 51
REMARK SMILES IDX 83 52 34 53 88 54 82 55 84 56 35 57 87 58 81 59 80 60 36 62
REMARK SMILES IDX 68 63 48 64 67 65 49 66 52 67 66 68 85 69 50 70 51 71 65 73
REMARK SMILES IDX 86 74 53 75 37 76 38 77 46 78 39 79 41 80 47 81 40 82 42 83
REMARK SMILES IDX 43 84 44 85 45 86 69 87 70 88 78 89 71 90 73 91 79 92 72 93
REMARK SMILES IDX 74 94 75 95 76 96 77 97 54 98 55 99 63 100 56 101 58 102
REMARK SMILES IDX 64 103 57 104 59 105 60 106 61 107 62 108
REMARK H PARENT 84 61 52 72
REMARK Flexibility Score: inf
ROOT
ATOM      1  C   UNL     1       2.396  -1.581   2.753  1.00  0.00     0.188 C 
ENDROOT
BRANCH   1   2
ATOM      2  O   UNL     1       2.439  -0.335   3.455  1.00  0.00    -0.376 OA
BRANCH   2   3
ATOM      3  C   UNL     1       2.038   0.801   2.714  1.00  0.00     0.202 C 
BRANCH   3   4
ATOM      4  C   UNL     1       0.617   1.330   3.029  1.00  0.00     0.261 C 
BRANCH   4   5
ATOM      5  O   UNL     1      -0.558   0.492   2.958  1.00  0.00    -0.461 OA
BRANCH   5   6
ATOM      6  C   UNL     1      -0.614  -0.316   1.875  1.00  0.00     0.344 C 
ATOM      7  O   UNL     1       0.366  -0.558   1.216  1.00  0.00    -0.248 OA
BRANCH   6   8
ATOM      8  C   UNL     1      -2.021  -0.784   1.503  1.00  0.00     0.351 C 
BRANCH   8   9
ATOM      9  O   UNL     1      -2.599  -2.055   1.392  1.00  0.00    -0.482 OA
BRANCH   9  10
ATOM     10  C   UNL     1      -1.796  -3.149   1.437  1.00  0.00     0.124 A 
ATOM     11  C   UNL     1      -0.812  -3.584   0.527  1.00  0.00     0.006 A 
ATOM     12  C   UNL     1      -0.230  -4.849   0.900  1.00  0.00     0.008 A 
ATOM     13  C   UNL     1      -0.561  -5.612   2.029  1.00  0.00     0.001 A 
ATOM     14  C   UNL     1      -2.181  -3.965   2.549  1.00  0.00     0.047 A 
ATOM     15  C   UNL     1      -1.566  -5.173   2.856  1.00  0.00     0.004 A 
BRANCH  11  16
ATOM     16  C   UNL     1      -0.259  -3.088  -0.839  1.00  0.00     0.087 C 
BRANCH  16  17
ATOM     17  C   UNL     1      -0.015  -1.619  -1.199  1.00  0.00    -0.010 A 
ATOM     18  C   UNL     1       2.347   1.151  -1.233  1.00  0.00     0.149 C 
ATOM     19  N   UNL     1       1.210   0.269  -1.387  1.00  0.00    -0.350 N 
ATOM     20  C   UNL     1       1.278  -1.098  -1.354  1.00  0.00     0.091 A 
ATOM     21  C   UNL     1      -0.109   0.661  -1.380  1.00  0.00     0.048 A 
ATOM     22  C   UNL     1      -0.876  -0.508  -1.549  1.00  0.00     0.004 A 
ATOM     23  C   UNL     1      -0.686   1.920  -1.143  1.00  0.00     0.027 A 
ATOM     24  C   UNL     1      -2.263  -0.346  -1.773  1.00  0.00     0.010 A 
ATOM     25  C   UNL     1      -2.076   2.008  -1.151  1.00  0.00     0.002 A 
ATOM     26  C   UNL     1      -2.850   0.912  -1.527  1.00  0.00     0.001 A 
ENDBRANCH  16  17
BRANCH  16  27
ATOM     27  C   UNL     1      -0.703  -3.938  -2.003  1.00  0.00    -0.010 A 
ATOM     28  C   UNL     1      -0.091  -3.821  -3.244  1.00  0.00     0.091 A 
ATOM     29  C   UNL     1      -1.632  -5.033  -2.129  1.00  0.00     0.004 A 
ATOM     30  N   UNL     1      -0.712  -4.643  -4.128  1.00  0.00    -0.350 N 
ATOM     31  C   UNL     1      -1.655  -5.405  -3.481  1.00  0.00     0.048 A 
ATOM     32  C   UNL     1      -2.459  -5.767  -1.246  1.00  0.00     0.010 A 
ATOM     33  C   UNL     1      -0.409  -4.684  -5.539  1.00  0.00     0.149 C 
ATOM     34  C   UNL     1      -2.518  -6.395  -3.975  1.00  0.00     0.027 A 
ATOM     35  C   UNL     1      -3.273  -6.800  -1.716  1.00  0.00     0.001 A 
ATOM     36  C   UNL     1      -3.324  -7.086  -3.070  1.00  0.00     0.002 A 
ENDBRANCH  16  27
ENDBRANCH  11  16
ENDBRANCH   9  10
ENDBRANCH   8   9
ENDBRANCH   6   8
ENDBRANCH   5   6
ENDBRANCH   4   5
ENDBRANCH   3   4
ENDBRANCH   2   3
ENDBRANCH   1   2
BRANCH   1  37
ATOM     37  C   UNL     1       1.221  -2.465   3.217  1.00  0.00     0.188 C 
BRANCH  37  38
ATOM     38  O   UNL     1       0.760  -2.315   4.552  1.00  0.00    -0.376 OA
BRANCH  38  39
ATOM     39  C   UNL     1       1.784  -2.289   5.530  1.00  0.00     0.202 C 
BRANCH  39  40
ATOM     40  C   UNL     1       2.721  -3.509   5.596  1.00  0.00     0.261 C 
BRANCH  40  41
ATOM     41  O   UNL     1       3.268  -3.950   4.327  1.00  0.00    -0.460 OA
BRANCH  41  42
ATOM     42  C   UNL     1       3.080  -5.261   4.024  1.00  0.00     0.338 C 
ATOM     43  O   UNL     1       2.569  -6.096   4.756  1.00  0.00    -0.246 OA
BRANCH  42  44
ATOM     44  C   UNL     1       3.547  -5.635   2.659  1.00  0.00     0.060 A 
ATOM     45  C   UNL     1       2.990  -5.085   1.506  1.00  0.00     0.016 A 
ATOM     46  C   UNL     1       4.377  -6.748   2.522  1.00  0.00     0.016 A 
ATOM     47  C   UNL     1       3.135  -5.719   0.265  1.00  0.00     0.010 A 
ATOM     48  C   UNL     1       4.613  -7.311   1.255  1.00  0.00     0.010 A 
ATOM     49  C   UNL     1       3.954  -6.837   0.107  1.00  0.00    -0.014 A 
BRANCH  49  50
ATOM     50  C   UNL     1       4.108  -7.523  -1.216  1.00  0.00     0.031 A 
ATOM     51  C   UNL     1       3.965  -9.023  -1.309  1.00  0.00     0.074 A 
ATOM     52  C   UNL     1       4.412  -6.843  -2.343  1.00  0.00     0.049 A 
ATOM     53  N   UNL     1       4.423  -9.849  -2.214  1.00  0.00    -0.248 NA
ATOM     54  C   UNL     1       3.205  -9.676  -0.232  1.00  0.00     0.031 C 
ATOM     55  C   UNL     1       4.470  -5.388  -2.483  1.00  0.00     0.029 A 
ATOM     56  N   UNL     1       4.790  -7.306  -3.588  1.00  0.00    -0.354 N 
ATOM     57  C   UNL     1       4.100 -11.126  -1.765  1.00  0.00     0.074 A 
ATOM     58  C   UNL     1       3.368 -10.959  -0.526  1.00  0.00     0.031 C 
ATOM     59  C   UNL     1       4.889  -5.076  -3.716  1.00  0.00     0.029 A 
ATOM     60  C   UNL     1       5.263  -6.303  -4.405  1.00  0.00     0.049 A 
ATOM     61  H   UNL     1       4.729  -8.249  -3.861  1.00  0.00     0.167 HD
ATOM     62  C   UNL     1       4.406 -12.323  -2.324  1.00  0.00     0.034 A 
ATOM     63  C   UNL     1       6.022  -6.340  -5.518  1.00  0.00     0.034 A 
ATOM     64  C   UNL     1       5.086 -12.473  -3.585  1.00  0.00     0.049 A 
ATOM     65  C   UNL     1       6.446  -7.666  -6.079  1.00  0.00     0.074 A 
ATOM     66  C   UNL     1       5.421 -13.639  -4.252  1.00  0.00     0.029 A 
ATOM     67  N   UNL     1       5.543 -11.424  -4.368  1.00  0.00    -0.354 N 
ATOM     68  N   UNL     1       6.158  -8.870  -5.652  1.00  0.00    -0.248 NA
ATOM     69  C   UNL     1       7.295  -7.639  -7.278  1.00  0.00     0.031 C 
ATOM     70  C   UNL     1       6.125 -13.295  -5.411  1.00  0.00     0.029 A 
ATOM     71  C   UNL     1       6.187 -11.914  -5.492  1.00  0.00     0.049 A 
ATOM     72  H   UNL     1       5.426 -10.470  -4.156  1.00  0.00     0.167 HD
ATOM     73  C   UNL     1       6.777  -9.746  -6.535  1.00  0.00     0.074 A 
ATOM     74  C   UNL     1       7.434  -8.933  -7.538  1.00  0.00     0.031 C 
ATOM     75  C   UNL     1       6.811 -11.101  -6.507  1.00  0.00     0.034 A 
BRANCH  62  76
ATOM     76  C   UNL     1       4.060 -13.570  -1.548  1.00  0.00     0.023 A 
ATOM     77  C   UNL     1       2.722 -13.984  -1.404  1.00  0.00     0.012 A 
ATOM     78  C   UNL     1       5.087 -14.353  -0.978  1.00  0.00     0.148 A 
ATOM     79  C   UNL     1       2.407 -15.126  -0.664  1.00  0.00     0.002 A 
ATOM     80  C   UNL     1       4.770 -15.514  -0.283  1.00  0.00     0.091 A 
ATOM     81  F   UNL     1       6.355 -13.938  -1.111  1.00  0.00    -0.205 F 
ATOM     82  C   UNL     1       3.430 -15.894  -0.111  1.00  0.00     0.022 A 
BRANCH  80  83
ATOM     83  S   UNL     1       6.024 -16.607   0.396  1.00  0.00     0.127 S 
ATOM     84  O   UNL     1       5.891 -16.355   1.830  1.00  0.00    -0.237 OA
ATOM     85  O   UNL     1       5.553 -17.924  -0.037  1.00  0.00    -0.237 OA
ATOM     86  O   UNL     1       7.286 -16.191  -0.200  1.00  0.00    -0.744 OA
ENDBRANCH  80  83
ENDBRANCH  62  76
BRANCH  63  87
ATOM     87  C   UNL     1       6.502  -5.059  -6.114  1.00  0.00     0.023 A 
ATOM     88  C   UNL     1       6.010  -4.637  -7.362  1.00  0.00     0.012 A 
ATOM     89  C   UNL     1       7.396  -4.225  -5.408  1.00  0.00     0.148 A 
ATOM     90  C   UNL     1       6.406  -3.411  -7.900  1.00  0.00     0.002 A 
ATOM     91  C   UNL     1       7.731  -2.977  -5.917  1.00  0.00     0.091 A 
ATOM     92  F   UNL     1       7.868  -4.654  -4.229  1.00  0.00    -0.205 F 
ATOM     93  C   UNL     1       7.251  -2.576  -7.172  1.00  0.00     0.022 A 
BRANCH  91  94
ATOM     94  S   UNL     1       8.681  -1.774  -4.981  1.00  0.00     0.127 S 
ATOM     95  O   UNL     1       9.895  -1.659  -5.785  1.00  0.00    -0.237 OA
ATOM     96  O   UNL     1       7.801  -0.604  -5.020  1.00  0.00    -0.237 OA
ATOM     97  O   UNL     1       8.857  -2.349  -3.654  1.00  0.00    -0.744 OA
ENDBRANCH  91  94
ENDBRANCH  63  87
BRANCH  75  98
ATOM     98  C   UNL     1       7.559 -11.806  -7.608  1.00  0.00     0.023 A 
ATOM     99  C   UNL     1       8.967 -11.785  -7.626  1.00  0.00     0.012 A 
ATOM    100  C   UNL     1       6.866 -12.556  -8.580  1.00  0.00     0.148 A 
ATOM    101  C   UNL     1       9.674 -12.479  -8.608  1.00  0.00     0.002 A 
ATOM    102  C   UNL     1       7.577 -13.286  -9.524  1.00  0.00     0.091 A 
ATOM    103  F   UNL     1       5.525 -12.548  -8.555  1.00  0.00    -0.205 F 
ATOM    104  C   UNL     1       8.981 -13.238  -9.548  1.00  0.00     0.022 A 
BRANCH 102 105
ATOM    105  S   UNL     1       6.778 -14.365 -10.717  1.00  0.00     0.127 S 
ATOM    106  O   UNL     1       7.080 -13.690 -11.979  1.00  0.00    -0.237 OA
ATOM    107  O   UNL     1       7.489 -15.627 -10.514  1.00  0.00    -0.237 OA
ATOM    108  O   UNL     1       5.367 -14.395 -10.355  1.00  0.00    -0.744 OA
ENDBRANCH 102 105
ENDBRANCH  75  98
ENDBRANCH  49  50
ENDBRANCH  42  44
ENDBRANCH  41  42
ENDBRANCH  40  41
ENDBRANCH  39  40
ENDBRANCH  38  39
ENDBRANCH  37  38
ENDBRANCH   1  37
TORSDOF 25
