REMARK SMILES O=C(OCCOCCOCCOC(=O)[C@H]1C[C@H](O)CN1S(=O)(=O)c1ccc2c(c1)OCCO2)c1ccc(-c2c3nc(c(-c4cccc(S(=O)(=O)[O-])c4F)c4ccc([nH]4)c(-c4cccc(S(=O)(=O)[O-])c4F)c4nc(c(-c5cccc(S(=O)(=O)[O-])c5F)c5ccc2[nH]5)C=C4)C=C3)cc1
REMARK SMILES IDX 7 1 6 2 5 3 4 4 3 5 2 6 1 7 34 8 35 9 96 10 36 11 95 12
REMARK SMILES IDX 37 13 38 14 39 15 89 16 40 17 94 18 88 19 90 20 41 21 93 22
REMARK SMILES IDX 87 23 86 24 42 26 74 27 54 28 73 29 55 30 58 31 72 32 91 33
REMARK SMILES IDX 56 34 57 35 71 37 92 38 59 39 43 40 44 41 52 42 45 43 47 44
REMARK SMILES IDX 53 45 46 46 48 47 49 48 50 49 51 50 75 51 76 52 84 53 77 54
REMARK SMILES IDX 79 55 85 56 78 57 80 58 81 59 82 60 83 61 60 62 61 63 69 64
REMARK SMILES IDX 62 65 64 66 70 67 63 68 65 69 66 70 67 71 68 72 8 73 9 74
REMARK SMILES IDX 10 75 11 76 12 77 13 78 14 79 15 80 16 81 20 82 17 83 19 84
REMARK SMILES IDX 21 85 22 86 23 87 24 88 25 89 29 90 26 91 28 92 27 93 30 94
REMARK SMILES IDX 33 95 31 96 32 97 18 98
REMARK H PARENT 90 25 58 36 18 99
REMARK Flexibility Score: inf
ROOT
ATOM      1  C   UNL     1       2.891   1.857  -1.054  1.00  0.00     0.188 C 
ENDROOT
BRANCH   1   2
ATOM      2  O   UNL     1       4.275   1.757  -0.734  1.00  0.00    -0.376 OA
BRANCH   2   3
ATOM      3  C   UNL     1       5.082   1.044  -1.674  1.00  0.00     0.202 C 
BRANCH   3   4
ATOM      4  C   UNL     1       4.732  -0.432  -1.961  1.00  0.00     0.261 C 
BRANCH   4   5
ATOM      5  O   UNL     1       3.328  -0.730  -1.990  1.00  0.00    -0.460 OA
BRANCH   5   6
ATOM      6  C   UNL     1       2.594  -1.276  -0.989  1.00  0.00     0.338 C 
ATOM      7  O   UNL     1       1.448  -1.656  -1.210  1.00  0.00    -0.246 OA
BRANCH   6   8
ATOM      8  C   UNL     1       3.089  -1.378   0.402  1.00  0.00     0.060 A 
ATOM      9  C   UNL     1       4.471  -0.537   1.079  1.00  0.00     0.016 A 
ATOM     10  C   UNL     1       2.208  -2.501   1.493  1.00  0.00     0.016 A 
ATOM     11  C   UNL     1       5.017  -0.685   2.762  1.00  0.00     0.010 A 
ATOM     12  C   UNL     1       2.862  -2.719   3.403  1.00  0.00     0.010 A 
ATOM     13  C   UNL     1       4.267  -1.729   3.937  1.00  0.00    -0.014 A 
BRANCH  13  14
ATOM     14  C   UNL     1       5.085  -1.929   5.144  1.00  0.00     0.031 A 
ATOM     15  C   UNL     1       5.863  -3.196   5.274  1.00  0.00     0.074 A 
ATOM     16  C   UNL     1       5.373  -0.875   5.928  1.00  0.00     0.049 A 
ATOM     17  N   UNL     1       6.580  -3.657   6.257  1.00  0.00    -0.248 NA
ATOM     18  C   UNL     1       5.851  -4.078   4.110  1.00  0.00     0.031 C 
ATOM     19  C   UNL     1       4.847   0.480   5.760  1.00  0.00     0.029 A 
ATOM     20  N   UNL     1       6.212  -0.766   7.003  1.00  0.00    -0.354 N 
ATOM     21  C   UNL     1       7.010  -4.913   5.835  1.00  0.00     0.074 A 
ATOM     22  C   UNL     1       6.439  -5.171   4.546  1.00  0.00     0.031 C 
ATOM     23  C   UNL     1       5.356   1.280   6.708  1.00  0.00     0.029 A 
ATOM     24  C   UNL     1       6.179   0.475   7.595  1.00  0.00     0.049 A 
ATOM     25  H   UNL     1       6.782  -1.503   7.321  1.00  0.00     0.167 HD
ATOM     26  C   UNL     1       7.868  -5.755   6.441  1.00  0.00     0.034 A 
ATOM     27  C   UNL     1       6.702   0.877   8.767  1.00  0.00     0.034 A 
ATOM     28  C   UNL     1       8.499  -5.426   7.677  1.00  0.00     0.049 A 
ATOM     29  C   UNL     1       7.505  -0.135   9.535  1.00  0.00     0.074 A 
ATOM     30  C   UNL     1       9.319  -6.203   8.465  1.00  0.00     0.029 A 
ATOM     31  N   UNL     1       8.368  -4.193   8.297  1.00  0.00    -0.354 N 
ATOM     32  N   UNL     1       7.823  -1.363   9.194  1.00  0.00    -0.248 NA
ATOM     33  C   UNL     1       8.034   0.288  10.834  1.00  0.00     0.031 C 
ATOM     34  C   UNL     1       9.630  -5.457   9.603  1.00  0.00     0.029 A 
ATOM     35  C   UNL     1       9.075  -4.190   9.476  1.00  0.00     0.049 A 
ATOM     36  H   UNL     1       7.848  -3.435   7.946  1.00  0.00     0.167 HD
ATOM     37  C   UNL     1       8.625  -1.846  10.217  1.00  0.00     0.074 A 
ATOM     38  C   UNL     1       8.759  -0.767  11.177  1.00  0.00     0.031 C 
ATOM     39  C   UNL     1       9.198  -3.066  10.366  1.00  0.00     0.034 A 
BRANCH  26  40
ATOM     40  C   UNL     1       8.083  -7.099   5.807  1.00  0.00     0.023 A 
ATOM     41  C   UNL     1       8.778  -7.237   4.586  1.00  0.00     0.012 A 
ATOM     42  C   UNL     1       7.528  -8.235   6.420  1.00  0.00     0.148 A 
ATOM     43  C   UNL     1       8.876  -8.484   3.967  1.00  0.00     0.002 A 
ATOM     44  C   UNL     1       7.684  -9.480   5.831  1.00  0.00     0.091 A 
ATOM     45  F   UNL     1       6.834  -8.070   7.554  1.00  0.00    -0.205 F 
ATOM     46  C   UNL     1       8.340  -9.606   4.596  1.00  0.00     0.022 A 
BRANCH  44  47
ATOM     47  S   UNL     1       7.089 -10.985   6.603  1.00  0.00     0.127 S 
ATOM     48  O   UNL     1       6.142 -11.477   5.602  1.00  0.00    -0.237 OA
ATOM     49  O   UNL     1       8.319 -11.767   6.718  1.00  0.00    -0.237 OA
ATOM     50  O   UNL     1       6.492 -10.585   7.869  1.00  0.00    -0.744 OA
ENDBRANCH  44  47
ENDBRANCH  26  40
BRANCH  27  51
ATOM     51  C   UNL     1       6.405   2.230   9.318  1.00  0.00     0.023 A 
ATOM     52  C   UNL     1       7.441   3.143   9.588  1.00  0.00     0.012 A 
ATOM     53  C   UNL     1       5.077   2.597   9.622  1.00  0.00     0.148 A 
ATOM     54  C   UNL     1       7.167   4.370  10.199  1.00  0.00     0.002 A 
ATOM     55  C   UNL     1       4.803   3.842  10.171  1.00  0.00     0.091 A 
ATOM     56  F   UNL     1       4.100   1.714   9.372  1.00  0.00    -0.205 F 
ATOM     57  C   UNL     1       5.849   4.722  10.486  1.00  0.00     0.022 A 
BRANCH  55  58
ATOM     58  S   UNL     1       3.126   4.412  10.463  1.00  0.00     0.127 S 
ATOM     59  O   UNL     1       3.075   4.457  11.922  1.00  0.00    -0.237 OA
ATOM     60  O   UNL     1       3.134   5.718   9.803  1.00  0.00    -0.237 OA
ATOM     61  O   UNL     1       2.255   3.429   9.831  1.00  0.00    -0.744 OA
ENDBRANCH  55  58
ENDBRANCH  27  51
BRANCH  39  62
ATOM     62  C   UNL     1      10.084  -3.257  11.556  1.00  0.00     0.023 A 
ATOM     63  C   UNL     1       9.539  -3.321  12.851  1.00  0.00     0.012 A 
ATOM     64  C   UNL     1      11.465  -3.445  11.360  1.00  0.00     0.148 A 
ATOM     65  C   UNL     1      10.373  -3.518  13.947  1.00  0.00     0.002 A 
ATOM     66  C   UNL     1      12.276  -3.714  12.448  1.00  0.00     0.091 A 
ATOM     67  F   UNL     1      11.951  -3.373  10.112  1.00  0.00    -0.205 F 
ATOM     68  C   UNL     1      11.736  -3.729  13.745  1.00  0.00     0.022 A 
BRANCH  66  69
ATOM     69  S   UNL     1      14.014  -4.110  12.264  1.00  0.00     0.127 S 
ATOM     70  O   UNL     1      14.647  -2.950  12.888  1.00  0.00    -0.237 OA
ATOM     71  O   UNL     1      14.124  -5.353  13.027  1.00  0.00    -0.237 OA
ATOM     72  O   UNL     1      14.251  -4.252  10.834  1.00  0.00    -0.744 OA
ENDBRANCH  66  69
ENDBRANCH  39  62
ENDBRANCH  13  14
ENDBRANCH   6   8
ENDBRANCH   5   6
ENDBRANCH   4   5
ENDBRANCH   3   4
ENDBRANCH   2   3
ENDBRANCH   1   2
BRANCH   1  73
ATOM     73  C   UNL     1       2.182   3.111  -0.542  1.00  0.00     0.188 C 
BRANCH  73  74
ATOM     74  O   UNL     1       2.726   4.359  -0.943  1.00  0.00    -0.376 OA
BRANCH  74  75
ATOM     75  C   UNL     1       4.080   4.572  -0.569  1.00  0.00     0.202 C 
BRANCH  75  76
ATOM     76  C   UNL     1       4.465   4.666   0.928  1.00  0.00     0.261 C 
BRANCH  76  77
ATOM     77  O   UNL     1       3.824   3.804   1.892  1.00  0.00    -0.462 OA
BRANCH  77  78
ATOM     78  C   UNL     1       2.745   4.248   2.581  1.00  0.00     0.324 C 
ATOM     79  O   UNL     1       2.277   5.364   2.355  1.00  0.00    -0.250 OA
BRANCH  78  80
ATOM     80  C   UNL     1       2.232   3.348   3.743  1.00  0.00     0.185 C 
ATOM     81  C   UNL     1       0.800   3.846   4.107  1.00  0.00     0.065 C 
ATOM     82  N   UNL     1       2.136   1.771   3.897  1.00  0.00    -0.181 NA
ATOM     83  C   UNL     1      -0.088   2.631   3.970  1.00  0.00     0.131 C 
ATOM     84  C   UNL     1       0.810   1.541   4.533  1.00  0.00     0.135 C 
BRANCH  82  85
ATOM     85  S   UNL     1       2.529   0.931   2.474  1.00  0.00     0.244 S 
ATOM     86  O   UNL     1       1.388   1.119   1.601  1.00  0.00    -0.207 OA
ATOM     87  O   UNL     1       3.816   1.497   2.166  1.00  0.00    -0.207 OA
BRANCH  85  88
ATOM     88  C   UNL     1       2.712  -1.013   2.570  1.00  0.00     0.086 A 
ATOM     89  C   UNL     1       4.022  -2.446   1.952  1.00  0.00     0.026 A 
ATOM     90  C   UNL     1       1.064  -1.615   3.051  1.00  0.00     0.072 A 
ATOM     91  C   UNL     1       3.502  -4.166   1.905  1.00  0.00     0.052 A 
ATOM     92  C   UNL     1       0.736  -3.345   2.971  1.00  0.00     0.162 A 
ATOM     93  C   UNL     1       1.902  -4.544   2.417  1.00  0.00     0.161 A 
ATOM     94  O   UNL     1      -0.522  -3.787   3.306  1.00  0.00    -0.486 OA
ATOM     95  O   UNL     1       1.547  -5.864   2.324  1.00  0.00    -0.486 OA
ATOM     96  C   UNL     1      -0.468  -5.198   3.581  1.00  0.00     0.271 C 
ATOM     97  C   UNL     1       0.131  -6.010   2.431  1.00  0.00     0.271 C 
ENDBRANCH  85  88
ENDBRANCH  82  85
BRANCH  83  98
ATOM     98  O   UNL     1      -1.316   2.786   4.663  1.00  0.00    -0.392 OA
ATOM     99  H   UNL     1      -1.137   2.979   5.597  1.00  0.00     0.211 HD
ENDBRANCH  83  98
ENDBRANCH  78  80
ENDBRANCH  77  78
ENDBRANCH  76  77
ENDBRANCH  75  76
ENDBRANCH  74  75
ENDBRANCH  73  74
ENDBRANCH   1  73
TORSDOF 23
