REMARK SMILES COc1ccc(-c2cc(Cl)cc3c2O[C@H](C(F)(F)F)C(C(=O)OCCOCCOCCOC(=O)c2ccc(-c4c5nc(c(-c6cccc(S(=O)(=O)[O-])c6F)c6ccc([nH]6)c(-c6cccc(S(=O)(=O)[O-])c6F)c6nc(c(-c7cccc(S(=O)(=O)[O-])c7F)c7ccc4[nH]7)C=C6)C=C5)cc2)=C3)cc1C
REMARK SMILES IDX 28 1 27 2 26 3 25 4 24 5 23 6 21 7 22 8 20 9 7 10 8 11 13 12
REMARK SMILES IDX 9 13 12 14 14 15 10 16 11 17 98 18 15 19 6 20 3 21 4 22
REMARK SMILES IDX 100 23 5 24 99 25 101 26 2 27 1 28 16 29 17 30 18 31 19 32
REMARK SMILES IDX 29 33 30 34 31 35 32 36 33 37 34 38 35 39 36 40 97 41 37 42
REMARK SMILES IDX 96 43 38 44 39 45 40 46 90 47 41 48 95 49 89 50 91 51 42 52
REMARK SMILES IDX 94 53 88 54 87 55 43 57 75 58 55 59 74 60 56 61 59 62 73 63
REMARK SMILES IDX 92 64 57 65 58 66 72 68 93 69 60 70 44 71 45 72 53 73 46 74
REMARK SMILES IDX 48 75 54 76 47 77 49 78 50 79 51 80 52 81 76 82 77 83 85 84
REMARK SMILES IDX 78 85 80 86 86 87 79 88 81 89 82 90 83 91 84 92 61 93 62 94
REMARK SMILES IDX 70 95 63 96 65 97 71 98 64 99 66 100 67 101 68 102 69 103
REMARK H PARENT 91 56 59 67
REMARK Flexibility Score: inf
ROOT
ATOM      1  C   UNL     1      -5.778   3.691  -6.248  1.00  0.00     0.188 C 
ENDROOT
BRANCH   1   2
ATOM      2  C   UNL     1      -4.354   3.768  -5.739  1.00  0.00     0.188 C 
BRANCH   2   3
ATOM      3  O   UNL     1      -4.133   4.050  -4.400  1.00  0.00    -0.376 OA
BRANCH   3   4
ATOM      4  C   UNL     1      -3.388   5.256  -4.227  1.00  0.00     0.202 C 
BRANCH   4   5
ATOM      5  C   UNL     1      -2.942   6.382  -5.400  1.00  0.00     0.261 C 
BRANCH   5   6
ATOM      6  O   UNL     1      -1.876   6.472  -6.895  1.00  0.00    -0.460 OA
BRANCH   6   7
ATOM      7  C   UNL     1      -0.439   6.412  -7.738  1.00  0.00     0.338 C 
ATOM      8  O   UNL     1      -0.565   6.890  -8.875  1.00  0.00    -0.246 OA
BRANCH   7   9
ATOM      9  C   UNL     1       1.168   5.636  -7.419  1.00  0.00     0.087 C 
ATOM     10  C   UNL     1       3.736   1.804  -6.685  1.00  0.00     0.026 A 
ATOM     11  C   UNL     1       4.836   1.775  -7.480  1.00  0.00     0.033 A 
ATOM     12  C   UNL     1       3.031   3.277  -6.791  1.00  0.00     0.135 A 
ATOM     13  C   UNL     1       5.266   3.037  -7.995  1.00  0.00     0.042 A 
ATOM     14  C   UNL     1       3.541   4.567  -6.857  1.00  0.00     0.019 A 
ATOM     15  O   UNL     1       2.545   3.597  -8.444  1.00  0.00    -0.475 OA
ATOM     16  Cl  UNL     1       6.426   2.927  -9.288  1.00  0.00    -0.084 Cl
ATOM     17  C   UNL     1       4.721   4.404  -7.625  1.00  0.00     0.032 A 
ATOM     18  C   UNL     1       2.345   5.654  -6.669  1.00  0.00     0.027 C 
ATOM     19  C   UNL     1       1.645   4.933  -8.693  1.00  0.00     0.316 C 
BRANCH  10  20
ATOM     20  C   UNL     1       3.612   0.582  -5.408  1.00  0.00    -0.014 A 
ATOM     21  C   UNL     1       2.826  -0.657  -2.769  1.00  0.00     0.121 A 
ATOM     22  C   UNL     1       2.109  -0.855  -3.928  1.00  0.00     0.047 A 
ATOM     23  C   UNL     1       4.114  -0.184  -2.976  1.00  0.00    -0.008 A 
ATOM     24  C   UNL     1       2.572  -0.348  -5.220  1.00  0.00     0.013 A 
ATOM     25  C   UNL     1       4.500   0.379  -4.289  1.00  0.00     0.016 A 
ATOM     26  C   UNL     1       5.067  -0.261  -1.806  1.00  0.00     0.048 C 
BRANCH  21  27
ATOM     27  O   UNL     1       2.417  -1.213  -1.580  1.00  0.00    -0.496 OA
ATOM     28  C   UNL     1       1.623  -0.363  -0.734  1.00  0.00     0.278 C 
ENDBRANCH  21  27
ENDBRANCH  10  20
BRANCH  19  29
ATOM     29  C   UNL     1       2.262   6.080  -9.582  1.00  0.00     0.430 C 
ATOM     30  F   UNL     1       3.594   5.973  -9.787  1.00  0.00    -0.167 F 
ATOM     31  F   UNL     1       1.674   6.170 -10.801  1.00  0.00    -0.167 F 
ATOM     32  F   UNL     1       2.097   7.321  -9.020  1.00  0.00    -0.167 F 
ENDBRANCH  19  29
ENDBRANCH   7   9
ENDBRANCH   6   7
ENDBRANCH   5   6
ENDBRANCH   4   5
ENDBRANCH   3   4
ENDBRANCH   2   3
ENDBRANCH   1   2
BRANCH   1  33
ATOM     33  O   UNL     1      -6.636   2.807  -5.571  1.00  0.00    -0.376 OA
BRANCH  33  34
ATOM     34  C   UNL     1      -5.994   1.647  -5.065  1.00  0.00     0.202 C 
BRANCH  34  35
ATOM     35  C   UNL     1      -5.142   0.774  -6.051  1.00  0.00     0.261 C 
BRANCH  35  36
ATOM     36  O   UNL     1      -5.242   1.169  -7.470  1.00  0.00    -0.460 OA
BRANCH  36  37
ATOM     37  C   UNL     1      -4.243   1.171  -8.416  1.00  0.00     0.338 C 
ATOM     38  O   UNL     1      -4.186   0.353  -9.324  1.00  0.00    -0.246 OA
BRANCH  37  39
ATOM     39  C   UNL     1      -3.344   2.347  -8.395  1.00  0.00     0.060 A 
ATOM     40  C   UNL     1      -2.005   2.203  -8.435  1.00  0.00     0.016 A 
ATOM     41  C   UNL     1      -3.654   3.667  -8.553  1.00  0.00     0.016 A 
ATOM     42  C   UNL     1      -1.217   3.184  -7.780  1.00  0.00     0.010 A 
ATOM     43  C   UNL     1      -2.796   4.616  -7.910  1.00  0.00     0.010 A 
ATOM     44  C   UNL     1      -1.685   4.246  -7.057  1.00  0.00    -0.014 A 
BRANCH  44  45
ATOM     45  C   UNL     1      -0.825   5.047  -5.655  1.00  0.00     0.031 A 
ATOM     46  C   UNL     1      -0.370   6.816  -5.304  1.00  0.00     0.074 A 
ATOM     47  C   UNL     1      -0.735   4.300  -4.541  1.00  0.00     0.049 A 
ATOM     48  N   UNL     1       0.647   7.290  -4.627  1.00  0.00    -0.248 NA
ATOM     49  C   UNL     1      -1.044   8.157  -5.900  1.00  0.00     0.031 C 
ATOM     50  C   UNL     1      -0.250   4.667  -3.199  1.00  0.00     0.029 A 
ATOM     51  N   UNL     1      -0.948   2.933  -4.433  1.00  0.00    -0.354 N 
ATOM     52  C   UNL     1       0.491   8.713  -4.646  1.00  0.00     0.074 A 
ATOM     53  C   UNL     1      -0.126   9.091  -5.841  1.00  0.00     0.031 C 
ATOM     54  C   UNL     1       0.207   3.540  -2.613  1.00  0.00     0.029 A 
ATOM     55  C   UNL     1       0.164   2.552  -3.669  1.00  0.00     0.049 A 
ATOM     56  H   UNL     1      -1.680   2.382  -4.794  1.00  0.00     0.167 HD
ATOM     57  C   UNL     1       0.411   9.460  -3.506  1.00  0.00     0.034 A 
ATOM     58  C   UNL     1       1.259   2.298  -4.433  1.00  0.00     0.034 A 
ATOM     59  C   UNL     1       1.152   8.759  -2.507  1.00  0.00     0.049 A 
ATOM     60  C   UNL     1       2.544   3.451  -4.046  1.00  0.00     0.074 A 
ATOM     61  C   UNL     1       0.847   7.978  -1.417  1.00  0.00     0.029 A 
ATOM     62  N   UNL     1       2.444   8.473  -2.873  1.00  0.00    -0.354 N 
ATOM     63  N   UNL     1       2.428   4.691  -3.540  1.00  0.00    -0.248 NA
ATOM     64  C   UNL     1       4.002   3.220  -4.065  1.00  0.00     0.031 C 
ATOM     65  C   UNL     1       1.895   7.013  -1.321  1.00  0.00     0.029 A 
ATOM     66  C   UNL     1       2.808   7.272  -2.328  1.00  0.00     0.049 A 
ATOM     67  H   UNL     1       3.016   9.042  -3.438  1.00  0.00     0.167 HD
ATOM     68  C   UNL     1       3.686   5.324  -3.319  1.00  0.00     0.074 A 
ATOM     69  C   UNL     1       4.625   4.321  -3.651  1.00  0.00     0.031 C 
ATOM     70  C   UNL     1       3.953   6.612  -2.894  1.00  0.00     0.034 A 
BRANCH  57  71
ATOM     71  C   UNL     1      -0.405  10.742  -3.262  1.00  0.00     0.023 A 
ATOM     72  C   UNL     1      -0.170  11.379  -2.027  1.00  0.00     0.012 A 
ATOM     73  C   UNL     1      -1.456  11.316  -4.048  1.00  0.00     0.148 A 
ATOM     74  C   UNL     1      -0.913  12.485  -1.589  1.00  0.00     0.002 A 
ATOM     75  C   UNL     1      -2.152  12.464  -3.640  1.00  0.00     0.091 A 
ATOM     76  F   UNL     1      -1.889  10.719  -5.162  1.00  0.00    -0.205 F 
ATOM     77  C   UNL     1      -1.893  13.039  -2.398  1.00  0.00     0.022 A 
BRANCH  75  78
ATOM     78  S   UNL     1      -3.431  13.263  -4.644  1.00  0.00     0.127 S 
ATOM     79  O   UNL     1      -4.627  13.071  -3.822  1.00  0.00    -0.237 OA
ATOM     80  O   UNL     1      -2.957  14.645  -4.711  1.00  0.00    -0.237 OA
ATOM     81  O   UNL     1      -3.448  12.564  -5.922  1.00  0.00    -0.744 OA
ENDBRANCH  75  78
ENDBRANCH  57  71
BRANCH  58  82
ATOM     82  C   UNL     1       0.693   1.400  -5.767  1.00  0.00     0.023 A 
ATOM     83  C   UNL     1      -0.254   0.336  -5.692  1.00  0.00     0.012 A 
ATOM     84  C   UNL     1       0.966   1.639  -7.117  1.00  0.00     0.148 A 
ATOM     85  C   UNL     1      -0.616  -0.491  -6.814  1.00  0.00     0.002 A 
ATOM     86  C   UNL     1       0.754   0.794  -8.258  1.00  0.00     0.091 A 
ATOM     87  F   UNL     1       1.003   2.938  -7.279  1.00  0.00    -0.205 F 
ATOM     88  C   UNL     1      -0.046  -0.315  -8.074  1.00  0.00     0.022 A 
BRANCH  86  89
ATOM     89  S   UNL     1       1.223   1.185 -10.013  1.00  0.00     0.127 S 
ATOM     90  O   UNL     1       2.629   0.739 -10.058  1.00  0.00    -0.237 OA
ATOM     91  O   UNL     1       0.316   0.339 -10.792  1.00  0.00    -0.237 OA
ATOM     92  O   UNL     1       0.978   2.588 -10.222  1.00  0.00    -0.744 OA
ENDBRANCH  86  89
ENDBRANCH  58  82
BRANCH  70  93
ATOM     93  C   UNL     1       5.292   7.456  -3.019  1.00  0.00     0.023 A 
ATOM     94  C   UNL     1       6.458   7.015  -3.674  1.00  0.00     0.012 A 
ATOM     95  C   UNL     1       5.353   8.831  -2.602  1.00  0.00     0.148 A 
ATOM     96  C   UNL     1       7.582   7.848  -3.888  1.00  0.00     0.002 A 
ATOM     97  C   UNL     1       6.400   9.693  -2.955  1.00  0.00     0.091 A 
ATOM     98  F   UNL     1       4.409   9.339  -1.797  1.00  0.00    -0.205 F 
ATOM     99  C   UNL     1       7.539   9.197  -3.570  1.00  0.00     0.022 A 
BRANCH  97 100
ATOM    100  S   UNL     1       6.222  11.485  -2.799  1.00  0.00     0.127 S 
ATOM    101  O   UNL     1       6.811  11.742  -1.488  1.00  0.00    -0.237 OA
ATOM    102  O   UNL     1       7.007  11.985  -3.929  1.00  0.00    -0.237 OA
ATOM    103  O   UNL     1       4.788  11.719  -2.923  1.00  0.00    -0.744 OA
ENDBRANCH  97 100
ENDBRANCH  70  93
ENDBRANCH  44  45
ENDBRANCH  37  39
ENDBRANCH  36  37
ENDBRANCH  35  36
ENDBRANCH  34  35
ENDBRANCH  33  34
ENDBRANCH   1  33
TORSDOF 23
