REMARK SMILES NC(=O)c1ccccc1NC(=O)[C@@H]1CC=CC[C@@H]1C(=O)OCCOCCOCCOC(=O)c1ccc(-c2c3nc(c(-c4cccc(S(=O)(=O)[O-])c4F)c4ccc([nH]4)c(-c4cccc(S(=O)(=O)[O-])c4F)c4nc(c(-c5cccc(S(=O)(=O)[O-])c5F)c5ccc2[nH]5)C=C4)C=C3)cc1
REMARK SMILES IDX 25 1 24 2 23 3 22 4 21 5 19 6 20 7 18 8 13 9 14 10 15 11
REMARK SMILES IDX 17 12 16 13 11 14 10 15 12 17 9 18 4 19 5 20 6 21 8 22 7 23
REMARK SMILES IDX 2 24 1 25 3 28 26 29 27 30 28 31 29 32 30 33 31 34 32 35
REMARK SMILES IDX 33 36 34 37 95 38 35 39 94 40 36 41 37 42 38 43 88 44 39 45
REMARK SMILES IDX 93 46 87 47 89 48 40 49 92 50 86 51 85 52 41 54 73 55 53 56
REMARK SMILES IDX 72 57 54 58 57 59 71 60 90 61 55 62 56 63 70 65 91 66 58 67
REMARK SMILES IDX 42 68 43 69 51 70 44 71 46 72 52 73 45 74 47 75 48 76 49 77
REMARK SMILES IDX 50 78 74 79 75 80 83 81 76 82 78 83 84 84 77 85 79 86 80 87
REMARK SMILES IDX 81 88 82 89 59 90 60 91 68 92 61 93 63 94 69 95 62 96 64 97
REMARK SMILES IDX 65 98 66 99 67 100
REMARK H PARENT 10 16 1 26 1 27 89 53 57 64
REMARK Flexibility Score: inf
ROOT
ATOM      1  C   UNL     1       5.320  -7.223  -4.490  1.00  0.00     0.188 C 
ENDROOT
BRANCH   1   2
ATOM      2  O   UNL     1       5.968  -7.140  -5.749  1.00  0.00    -0.376 OA
BRANCH   2   3
ATOM      3  C   UNL     1       6.417  -5.855  -6.141  1.00  0.00     0.202 C 
BRANCH   3   4
ATOM      4  C   UNL     1       5.314  -4.803  -6.191  1.00  0.00     0.261 C 
BRANCH   4   5
ATOM      5  O   UNL     1       5.012  -4.248  -4.882  1.00  0.00    -0.463 OA
BRANCH   5   6
ATOM      6  C   UNL     1       3.704  -4.259  -4.509  1.00  0.00     0.310 C 
ATOM      7  O   UNL     1       2.840  -4.862  -5.133  1.00  0.00    -0.252 OA
BRANCH   6   8
ATOM      8  C   UNL     1       3.380  -3.291  -3.371  1.00  0.00     0.116 C 
ATOM      9  C   UNL     1       4.273  -3.164  -2.116  1.00  0.00     0.097 C 
ATOM     10  C   UNL     1       4.012  -4.337  -1.117  1.00  0.00     0.041 C 
ATOM     11  C   UNL     1       2.609  -4.848  -1.051  1.00  0.00    -0.030 C 
ATOM     12  C   UNL     1       1.891  -3.442  -2.960  1.00  0.00     0.043 C 
ATOM     13  C   UNL     1       1.646  -4.442  -1.881  1.00  0.00    -0.030 C 
BRANCH   9  14
ATOM     14  C   UNL     1       5.799  -2.915  -2.115  1.00  0.00     0.228 C 
ATOM     15  N   UNL     1       6.560  -2.230  -3.002  1.00  0.00    -0.325 N 
ATOM     16  H   UNL     1       7.464  -2.036  -2.662  1.00  0.00     0.169 HD
ATOM     17  O   UNL     1       6.467  -3.340  -1.155  1.00  0.00    -0.274 OA
BRANCH  15  18
ATOM     18  C   UNL     1       6.346  -1.737  -4.294  1.00  0.00     0.053 A 
ATOM     19  C   UNL     1       7.328  -1.945  -5.285  1.00  0.00     0.063 A 
ATOM     20  C   UNL     1       7.032  -1.675  -6.629  1.00  0.00     0.016 A 
ATOM     21  C   UNL     1       5.766  -1.214  -6.987  1.00  0.00     0.001 A 
ATOM     22  C   UNL     1       5.174  -1.079  -4.648  1.00  0.00     0.027 A 
ATOM     23  C   UNL     1       4.849  -0.885  -5.993  1.00  0.00     0.002 A 
BRANCH  19  24
ATOM     24  C   UNL     1       8.676  -2.510  -5.012  1.00  0.00     0.250 C 
ATOM     25  N   UNL     1       8.767  -3.560  -4.141  1.00  0.00    -0.366 N 
ATOM     26  H   UNL     1       9.645  -3.957  -3.940  1.00  0.00     0.159 HD
ATOM     27  H   UNL     1       7.955  -3.918  -3.716  1.00  0.00     0.159 HD
ATOM     28  O   UNL     1       9.669  -2.064  -5.573  1.00  0.00    -0.269 OA
ENDBRANCH  19  24
ENDBRANCH  15  18
ENDBRANCH   9  14
ENDBRANCH   6   8
ENDBRANCH   5   6
ENDBRANCH   4   5
ENDBRANCH   3   4
ENDBRANCH   2   3
ENDBRANCH   1   2
BRANCH   1  29
ATOM     29  C   UNL     1       6.095  -6.655  -3.284  1.00  0.00     0.188 C 
BRANCH  29  30
ATOM     30  O   UNL     1       7.508  -6.808  -3.250  1.00  0.00    -0.376 OA
BRANCH  30  31
ATOM     31  C   UNL     1       8.024  -8.088  -3.598  1.00  0.00     0.202 C 
BRANCH  31  32
ATOM     32  C   UNL     1       7.585  -9.275  -2.725  1.00  0.00     0.261 C 
BRANCH  32  33
ATOM     33  O   UNL     1       6.194  -9.626  -2.897  1.00  0.00    -0.460 OA
BRANCH  33  34
ATOM     34  C   UNL     1       5.391  -9.494  -1.811  1.00  0.00     0.338 C 
ATOM     35  O   UNL     1       5.745  -9.206  -0.676  1.00  0.00    -0.246 OA
BRANCH  34  36
ATOM     36  C   UNL     1       3.965  -9.506  -2.219  1.00  0.00     0.060 A 
ATOM     37  C   UNL     1       3.194  -8.366  -1.946  1.00  0.00     0.016 A 
ATOM     38  C   UNL     1       3.370 -10.614  -2.820  1.00  0.00     0.016 A 
ATOM     39  C   UNL     1       1.829  -8.335  -2.241  1.00  0.00     0.010 A 
ATOM     40  C   UNL     1       1.993 -10.592  -3.091  1.00  0.00     0.010 A 
ATOM     41  C   UNL     1       1.206  -9.465  -2.775  1.00  0.00    -0.014 A 
BRANCH  41  42
ATOM     42  C   UNL     1      -0.281  -9.559  -2.794  1.00  0.00     0.031 A 
ATOM     43  C   UNL     1      -0.947 -10.437  -1.767  1.00  0.00     0.074 A 
ATOM     44  C   UNL     1      -1.043  -8.875  -3.669  1.00  0.00     0.049 A 
ATOM     45  N   UNL     1      -2.185 -10.846  -1.692  1.00  0.00    -0.248 NA
ATOM     46  C   UNL     1      -0.086 -10.919  -0.673  1.00  0.00     0.031 C 
ATOM     47  C   UNL     1      -0.555  -7.903  -4.644  1.00  0.00     0.029 A 
ATOM     48  N   UNL     1      -2.401  -8.920  -3.888  1.00  0.00    -0.354 N 
ATOM     49  C   UNL     1      -2.238 -11.688  -0.587  1.00  0.00     0.074 A 
ATOM     50  C   UNL     1      -0.909 -11.719  -0.015  1.00  0.00     0.031 C 
ATOM     51  C   UNL     1      -1.593  -7.469  -5.382  1.00  0.00     0.029 A 
ATOM     52  C   UNL     1      -2.806  -8.176  -4.973  1.00  0.00     0.049 A 
ATOM     53  H   UNL     1      -3.022  -9.435  -3.324  1.00  0.00     0.167 HD
ATOM     54  C   UNL     1      -3.294 -12.377  -0.093  1.00  0.00     0.034 A 
ATOM     55  C   UNL     1      -4.002  -8.116  -5.596  1.00  0.00     0.034 A 
ATOM     56  C   UNL     1      -4.621 -12.317  -0.641  1.00  0.00     0.049 A 
ATOM     57  C   UNL     1      -5.147  -8.957  -5.084  1.00  0.00     0.074 A 
ATOM     58  C   UNL     1      -5.761 -12.972  -0.211  1.00  0.00     0.029 A 
ATOM     59  N   UNL     1      -4.986 -11.560  -1.744  1.00  0.00    -0.354 N 
ATOM     60  N   UNL     1      -5.195  -9.741  -4.034  1.00  0.00    -0.248 NA
ATOM     61  C   UNL     1      -6.408  -8.899  -5.841  1.00  0.00     0.031 C 
ATOM     62  C   UNL     1      -6.808 -12.637  -1.076  1.00  0.00     0.029 A 
ATOM     63  C   UNL     1      -6.330 -11.743  -2.020  1.00  0.00     0.049 A 
ATOM     64  H   UNL     1      -4.378 -10.979  -2.256  1.00  0.00     0.167 HD
ATOM     65  C   UNL     1      -6.493 -10.242  -3.985  1.00  0.00     0.074 A 
ATOM     66  C   UNL     1      -7.207  -9.659  -5.102  1.00  0.00     0.031 C 
ATOM     67  C   UNL     1      -7.042 -11.116  -3.104  1.00  0.00     0.034 A 
BRANCH  54  68
ATOM     68  C   UNL     1      -3.042 -13.276   1.090  1.00  0.00     0.023 A 
ATOM     69  C   UNL     1      -2.786 -12.722   2.361  1.00  0.00     0.012 A 
ATOM     70  C   UNL     1      -3.070 -14.677   0.940  1.00  0.00     0.148 A 
ATOM     71  C   UNL     1      -2.516 -13.547   3.453  1.00  0.00     0.002 A 
ATOM     72  C   UNL     1      -2.849 -15.493   2.043  1.00  0.00     0.091 A 
ATOM     73  F   UNL     1      -3.292 -15.185  -0.280  1.00  0.00    -0.205 F 
ATOM     74  C   UNL     1      -2.556 -14.931   3.296  1.00  0.00     0.022 A 
BRANCH  72  75
ATOM     75  S   UNL     1      -2.957 -17.283   1.957  1.00  0.00     0.127 S 
ATOM     76  O   UNL     1      -1.553 -17.670   2.092  1.00  0.00    -0.237 OA
ATOM     77  O   UNL     1      -3.790 -17.597   3.118  1.00  0.00    -0.237 OA
ATOM     78  O   UNL     1      -3.569 -17.588   0.671  1.00  0.00    -0.744 OA
ENDBRANCH  72  75
ENDBRANCH  54  68
BRANCH  55  79
ATOM     79  C   UNL     1      -4.186  -7.237  -6.790  1.00  0.00     0.023 A 
ATOM     80  C   UNL     1      -5.050  -6.127  -6.709  1.00  0.00     0.012 A 
ATOM     81  C   UNL     1      -3.512  -7.492  -8.001  1.00  0.00     0.148 A 
ATOM     82  C   UNL     1      -5.256  -5.301  -7.816  1.00  0.00     0.002 A 
ATOM     83  C   UNL     1      -3.677  -6.632  -9.082  1.00  0.00     0.091 A 
ATOM     84  F   UNL     1      -2.716  -8.568  -8.070  1.00  0.00    -0.205 F 
ATOM     85  C   UNL     1      -4.561  -5.547  -8.997  1.00  0.00     0.022 A 
BRANCH  83  86
ATOM     86  S   UNL     1      -2.735  -6.796 -10.603  1.00  0.00     0.127 S 
ATOM     87  O   UNL     1      -3.782  -7.119 -11.570  1.00  0.00    -0.237 OA
ATOM     88  O   UNL     1      -2.160  -5.458 -10.743  1.00  0.00    -0.237 OA
ATOM     89  O   UNL     1      -1.762  -7.850 -10.356  1.00  0.00    -0.744 OA
ENDBRANCH  83  86
ENDBRANCH  55  79
BRANCH  67  90
ATOM     90  C   UNL     1      -8.499 -11.470  -3.272  1.00  0.00     0.023 A 
ATOM     91  C   UNL     1      -8.903 -12.311  -4.327  1.00  0.00     0.012 A 
ATOM     92  C   UNL     1      -9.452 -11.044  -2.325  1.00  0.00     0.148 A 
ATOM     93  C   UNL     1     -10.237 -12.700  -4.452  1.00  0.00     0.002 A 
ATOM     94  C   UNL     1     -10.769 -11.476  -2.427  1.00  0.00     0.091 A 
ATOM     95  F   UNL     1      -9.050 -10.232  -1.335  1.00  0.00    -0.205 F 
ATOM     96  C   UNL     1     -11.166 -12.294  -3.497  1.00  0.00     0.022 A 
BRANCH  94  97
ATOM     97  S   UNL     1     -12.014 -11.087  -1.191  1.00  0.00     0.127 S 
ATOM     98  O   UNL     1     -12.902 -10.194  -1.934  1.00  0.00    -0.237 OA
ATOM     99  O   UNL     1     -12.580 -12.404  -0.897  1.00  0.00    -0.237 OA
ATOM    100  O   UNL     1     -11.302 -10.471  -0.080  1.00  0.00    -0.744 OA
ENDBRANCH  94  97
ENDBRANCH  67  90
ENDBRANCH  41  42
ENDBRANCH  34  36
ENDBRANCH  33  34
ENDBRANCH  32  33
ENDBRANCH  31  32
ENDBRANCH  30  31
ENDBRANCH  29  30
ENDBRANCH   1  29
TORSDOF 23
