REMARK SMILES O=C(OCCOCCOCCOC(=O)[C@@H]1[C@H](C(=O)Nc2ccc(Cn3cncn3)cc2)[C@@H]2C=C[C@H]1CC2)c1ccc(-c2c3nc(c(-c4cccc(S(=O)(=O)[O-])c4F)c4ccc([nH]4)c(-c4cccc(S(=O)(=O)[O-])c4F)c4nc(c(-c5cccc(S(=O)(=O)[O-])c5F)c5ccc2[nH]5)C=C4)C=C3)cc1
REMARK SMILES IDX 8 1 7 2 6 3 5 4 4 5 3 6 2 7 1 8 38 9 39 10 100 11 40 12
REMARK SMILES IDX 99 13 41 14 42 15 43 16 93 17 44 18 98 19 92 20 94 21 45 22
REMARK SMILES IDX 97 23 91 24 90 25 46 27 78 28 58 29 77 30 59 31 62 32 76 33
REMARK SMILES IDX 95 34 60 35 61 36 75 38 96 39 63 40 47 41 48 42 56 43 49 44
REMARK SMILES IDX 51 45 57 46 50 47 52 48 53 49 54 50 55 51 79 52 80 53 88 54
REMARK SMILES IDX 81 55 83 56 89 57 82 58 84 59 85 60 86 61 87 62 64 63 65 64
REMARK SMILES IDX 73 65 66 66 68 67 74 68 67 69 69 70 70 71 71 72 72 73 9 74
REMARK SMILES IDX 10 75 11 76 12 77 13 78 14 79 15 80 16 81 35 82 32 83 34 84
REMARK SMILES IDX 36 85 33 86 37 87 17 88 18 89 19 90 20 92 21 93 31 94 22 95
REMARK SMILES IDX 30 96 23 97 24 98 25 99 26 100 29 101 27 102 28 103
REMARK H PARENT 94 26 62 37 19 91
REMARK Flexibility Score: inf
ROOT
ATOM      1  C   UNL     1       1.895   2.822   0.083  1.00  0.00     0.188 C 
ENDROOT
BRANCH   1   2
ATOM      2  C   UNL     1       2.451   1.454  -0.262  1.00  0.00     0.188 C 
BRANCH   2   3
ATOM      3  O   UNL     1       3.782   1.129   0.148  1.00  0.00    -0.376 OA
BRANCH   3   4
ATOM      4  C   UNL     1       4.729   1.049  -0.924  1.00  0.00     0.202 C 
BRANCH   4   5
ATOM      5  C   UNL     1       4.675  -0.140  -1.893  1.00  0.00     0.261 C 
BRANCH   5   6
ATOM      6  O   UNL     1       3.393  -0.475  -2.443  1.00  0.00    -0.460 OA
BRANCH   6   7
ATOM      7  C   UNL     1       2.302  -0.961  -1.814  1.00  0.00     0.338 C 
ATOM      8  O   UNL     1       1.197  -0.782  -2.325  1.00  0.00    -0.246 OA
BRANCH   7   9
ATOM      9  C   UNL     1       2.365  -1.698  -0.526  1.00  0.00     0.060 A 
ATOM     10  C   UNL     1       3.506  -2.356  -0.072  1.00  0.00     0.016 A 
ATOM     11  C   UNL     1       1.127  -1.911   0.117  1.00  0.00     0.016 A 
ATOM     12  C   UNL     1       3.365  -3.430   0.769  1.00  0.00     0.010 A 
ATOM     13  C   UNL     1       0.983  -2.968   0.987  1.00  0.00     0.010 A 
ATOM     14  C   UNL     1       2.082  -3.798   1.149  1.00  0.00    -0.014 A 
BRANCH  14  15
ATOM     15  C   UNL     1       1.924  -5.182   1.536  1.00  0.00     0.031 A 
ATOM     16  C   UNL     1       2.537  -5.515   2.839  1.00  0.00     0.074 A 
ATOM     17  C   UNL     1       1.272  -6.012   0.696  1.00  0.00     0.049 A 
ATOM     18  N   UNL     1       3.444  -6.398   3.103  1.00  0.00    -0.248 NA
ATOM     19  C   UNL     1       2.219  -4.620   3.962  1.00  0.00     0.031 C 
ATOM     20  C   UNL     1       0.493  -5.652  -0.500  1.00  0.00     0.029 A 
ATOM     21  N   UNL     1       1.016  -7.338   0.832  1.00  0.00    -0.354 N 
ATOM     22  C   UNL     1       3.622  -6.327   4.484  1.00  0.00     0.074 A 
ATOM     23  C   UNL     1       3.014  -5.098   4.916  1.00  0.00     0.031 C 
ATOM     24  C   UNL     1      -0.383  -6.643  -0.766  1.00  0.00     0.029 A 
ATOM     25  C   UNL     1      -0.129  -7.737   0.151  1.00  0.00     0.049 A 
ATOM     26  H   UNL     1       1.581  -7.951   1.357  1.00  0.00     0.167 HD
ATOM     27  C   UNL     1       3.985  -7.420   5.205  1.00  0.00     0.034 A 
ATOM     28  C   UNL     1      -0.897  -8.813   0.446  1.00  0.00     0.034 A 
ATOM     29  C   UNL     1       4.661  -8.394   4.389  1.00  0.00     0.049 A 
ATOM     30  C   UNL     1      -0.078  -9.721   1.285  1.00  0.00     0.074 A 
ATOM     31  C   UNL     1       5.814  -8.392   3.629  1.00  0.00     0.029 A 
ATOM     32  N   UNL     1       3.942  -9.491   3.982  1.00  0.00    -0.354 N 
ATOM     33  N   UNL     1       0.996 -10.325   0.855  1.00  0.00    -0.248 NA
ATOM     34  C   UNL     1      -0.181  -9.582   2.730  1.00  0.00     0.031 C 
ATOM     35  C   UNL     1       5.507  -9.199   2.495  1.00  0.00     0.029 A 
ATOM     36  C   UNL     1       4.207  -9.685   2.653  1.00  0.00     0.049 A 
ATOM     37  H   UNL     1       3.345 -10.037   4.543  1.00  0.00     0.167 HD
ATOM     38  C   UNL     1       1.891 -10.247   1.916  1.00  0.00     0.074 A 
ATOM     39  C   UNL     1       1.078  -9.873   3.072  1.00  0.00     0.031 C 
ATOM     40  C   UNL     1       3.241 -10.194   1.704  1.00  0.00     0.034 A 
BRANCH  27  41
ATOM     41  C   UNL     1       3.364  -7.778   6.537  1.00  0.00     0.023 A 
ATOM     42  C   UNL     1       3.892  -8.899   7.214  1.00  0.00     0.012 A 
ATOM     43  C   UNL     1       2.128  -7.272   7.009  1.00  0.00     0.148 A 
ATOM     44  C   UNL     1       3.191  -9.526   8.251  1.00  0.00     0.002 A 
ATOM     45  C   UNL     1       1.472  -7.853   8.085  1.00  0.00     0.091 A 
ATOM     46  F   UNL     1       1.493  -6.304   6.345  1.00  0.00    -0.205 F 
ATOM     47  C   UNL     1       1.980  -9.002   8.688  1.00  0.00     0.022 A 
BRANCH  45  48
ATOM     48  S   UNL     1      -0.078  -7.183   8.703  1.00  0.00     0.127 S 
ATOM     49  O   UNL     1      -1.044  -8.115   8.137  1.00  0.00    -0.237 OA
ATOM     50  O   UNL     1       0.109  -7.279  10.150  1.00  0.00    -0.237 OA
ATOM     51  O   UNL     1      -0.132  -5.810   8.204  1.00  0.00    -0.744 OA
ENDBRANCH  45  48
ENDBRANCH  27  41
BRANCH  28  52
ATOM     52  C   UNL     1      -2.375  -8.896   0.368  1.00  0.00     0.023 A 
ATOM     53  C   UNL     1      -3.005 -10.150   0.281  1.00  0.00     0.012 A 
ATOM     54  C   UNL     1      -3.186  -7.758   0.606  1.00  0.00     0.148 A 
ATOM     55  C   UNL     1      -4.394 -10.268   0.428  1.00  0.00     0.002 A 
ATOM     56  C   UNL     1      -4.566  -7.877   0.726  1.00  0.00     0.091 A 
ATOM     57  F   UNL     1      -2.596  -6.573   0.808  1.00  0.00    -0.205 F 
ATOM     58  C   UNL     1      -5.174  -9.134   0.647  1.00  0.00     0.022 A 
BRANCH  56  59
ATOM     59  S   UNL     1      -5.628  -6.452   1.003  1.00  0.00     0.127 S 
ATOM     60  O   UNL     1      -6.685  -6.666   0.014  1.00  0.00    -0.237 OA
ATOM     61  O   UNL     1      -6.039  -6.646   2.390  1.00  0.00    -0.237 OA
ATOM     62  O   UNL     1      -4.798  -5.282   0.745  1.00  0.00    -0.744 OA
ENDBRANCH  56  59
ENDBRANCH  28  52
BRANCH  40  63
ATOM     63  C   UNL     1       3.750 -10.408   0.298  1.00  0.00     0.023 A 
ATOM     64  C   UNL     1       3.475  -9.490  -0.739  1.00  0.00     0.012 A 
ATOM     65  C   UNL     1       4.689 -11.426   0.069  1.00  0.00     0.148 A 
ATOM     66  C   UNL     1       4.107  -9.596  -1.981  1.00  0.00     0.002 A 
ATOM     67  C   UNL     1       5.350 -11.501  -1.153  1.00  0.00     0.091 A 
ATOM     68  F   UNL     1       4.954 -12.280   1.069  1.00  0.00    -0.205 F 
ATOM     69  C   UNL     1       5.055 -10.594  -2.184  1.00  0.00     0.022 A 
BRANCH  67  70
ATOM     70  S   UNL     1       6.681 -12.671  -1.431  1.00  0.00     0.127 S 
ATOM     71  O   UNL     1       6.051 -13.648  -2.317  1.00  0.00    -0.237 OA
ATOM     72  O   UNL     1       7.704 -11.838  -2.068  1.00  0.00    -0.237 OA
ATOM     73  O   UNL     1       7.059 -13.171  -0.115  1.00  0.00    -0.744 OA
ENDBRANCH  67  70
ENDBRANCH  40  63
ENDBRANCH  14  15
ENDBRANCH   7   9
ENDBRANCH   6   7
ENDBRANCH   5   6
ENDBRANCH   4   5
ENDBRANCH   3   4
ENDBRANCH   2   3
ENDBRANCH   1   2
BRANCH   1  74
ATOM     74  O   UNL     1       2.526   3.893  -0.604  1.00  0.00    -0.376 OA
BRANCH  74  75
ATOM     75  C   UNL     1       3.767   4.326  -0.059  1.00  0.00     0.202 C 
BRANCH  75  76
ATOM     76  C   UNL     1       3.635   5.007   1.299  1.00  0.00     0.261 C 
BRANCH  76  77
ATOM     77  O   UNL     1       3.565   4.023   2.353  1.00  0.00    -0.463 OA
BRANCH  77  78
ATOM     78  C   UNL     1       2.501   4.005   3.178  1.00  0.00     0.310 C 
ATOM     79  O   UNL     1       1.514   4.718   3.023  1.00  0.00    -0.252 OA
BRANCH  78  80
ATOM     80  C   UNL     1       2.679   3.128   4.414  1.00  0.00     0.119 C 
ATOM     81  C   UNL     1       3.611   3.776   5.442  1.00  0.00     0.100 C 
ATOM     82  C   UNL     1       2.830   1.563   4.477  1.00  0.00     0.026 C 
ATOM     83  C   UNL     1       4.011   2.724   6.505  1.00  0.00     0.025 C 
ATOM     84  C   UNL     1       4.227   1.053   4.827  1.00  0.00    -0.027 C 
ATOM     85  C   UNL     1       2.098   1.142   5.785  1.00  0.00     0.009 C 
ATOM     86  C   UNL     1       4.846   1.665   5.851  1.00  0.00    -0.027 C 
ATOM     87  C   UNL     1       2.720   1.957   6.974  1.00  0.00     0.009 C 
BRANCH  81  88
ATOM     88  C   UNL     1       4.710   4.730   4.930  1.00  0.00     0.228 C 
ATOM     89  O   UNL     1       4.570   5.938   5.203  1.00  0.00    -0.274 OA
ATOM     90  N   UNL     1       5.871   4.454   4.279  1.00  0.00    -0.326 N 
ATOM     91  H   UNL     1       6.460   5.242   4.266  1.00  0.00     0.169 HD
BRANCH  90  92
ATOM     92  C   UNL     1       6.474   3.368   3.620  1.00  0.00     0.041 A 
ATOM     93  C   UNL     1       7.870   3.299   3.648  1.00  0.00     0.026 A 
ATOM     94  C   UNL     1       5.816   2.375   2.914  1.00  0.00     0.026 A 
ATOM     95  C   UNL     1       8.545   2.159   3.179  1.00  0.00     0.008 A 
ATOM     96  C   UNL     1       6.471   1.244   2.429  1.00  0.00     0.008 A 
ATOM     97  C   UNL     1       7.834   1.089   2.625  1.00  0.00    -0.026 A 
BRANCH  97  98
ATOM     98  C   UNL     1       8.469  -0.221   2.250  1.00  0.00     0.181 C 
BRANCH  98  99
ATOM     99  N   UNL     1       8.917  -0.217   0.876  1.00  0.00    -0.249 N 
ATOM    100  C   UNL     1      10.015   0.409   0.373  1.00  0.00     0.220 A 
ATOM    101  N   UNL     1       8.286  -0.928  -0.080  1.00  0.00    -0.160 NA
ATOM    102  N   UNL     1      10.148   0.112  -0.898  1.00  0.00    -0.224 NA
ATOM    103  C   UNL     1       9.087  -0.720  -1.128  1.00  0.00     0.246 A 
ENDBRANCH  98  99
ENDBRANCH  97  98
ENDBRANCH  90  92
ENDBRANCH  81  88
ENDBRANCH  78  80
ENDBRANCH  77  78
ENDBRANCH  76  77
ENDBRANCH  75  76
ENDBRANCH  74  75
ENDBRANCH   1  74
TORSDOF 24
