REMARK SMILES COc1cc(OC)c(-c2cc(C(=O)OCCOCCOCCOC(=O)c3ccc(-c4c5nc(c(-c6cccc(S(=O)(=O)[O-])c6F)c6ccc([nH]6)c(-c6cccc(S(=O)(=O)[O-])c6F)c6nc(c(-c7cccc(S(=O)(=O)[O-])c7F)c7ccc4[nH]7)C=C6)C=C5)cc3)c3c(-c4ccc(Cl)cc4)[nH]nc3n2)cc1OC
REMARK SMILES IDX 19 1 18 2 17 3 16 4 15 5 14 6 12 7 13 8 11 9 9 10 10 11
REMARK SMILES IDX 101 12 100 13 89 14 99 15 90 16 98 17 8 19 3 20 4 21 103 22
REMARK SMILES IDX 5 23 102 24 2 25 1 26 104 27 105 28 6 29 7 30 91 31 92 32
REMARK SMILES IDX 97 33 93 34 96 35 94 36 95 37 20 38 21 39 22 40 23 41 24 42
REMARK SMILES IDX 25 43 26 44 27 45 88 46 28 47 87 48 29 49 30 50 31 51 81 52
REMARK SMILES IDX 32 53 86 54 80 55 82 56 33 57 85 58 79 59 78 60 34 62 66 63
REMARK SMILES IDX 46 64 65 65 47 66 50 67 64 68 83 69 48 70 49 71 63 73 84 74
REMARK SMILES IDX 51 75 35 76 36 77 44 78 37 79 39 80 45 81 38 82 40 83 41 84
REMARK SMILES IDX 42 85 43 86 67 87 68 88 76 89 69 90 71 91 77 92 70 93 72 94
REMARK SMILES IDX 73 95 74 96 75 97 52 98 53 99 61 100 54 101 56 102 62 103
REMARK SMILES IDX 55 104 57 105 58 106 59 107 60 108
REMARK H PARENT 98 18 82 61 50 72
REMARK Flexibility Score: inf
ROOT
ATOM      1  C   UNL     1       1.849 -10.164  -1.090  1.00  0.00     0.188 C 
ENDROOT
BRANCH   1   2
ATOM      2  C   UNL     1       3.285 -10.040  -1.541  1.00  0.00     0.188 C 
BRANCH   2   3
ATOM      3  O   UNL     1       4.164 -11.102  -1.217  1.00  0.00    -0.376 OA
BRANCH   3   4
ATOM      4  C   UNL     1       5.532 -10.896  -1.592  1.00  0.00     0.202 C 
BRANCH   4   5
ATOM      5  C   UNL     1       6.143  -9.470  -1.513  1.00  0.00     0.261 C 
BRANCH   5   6
ATOM      6  O   UNL     1       5.329  -8.384  -2.018  1.00  0.00    -0.460 OA
BRANCH   6   7
ATOM      7  C   UNL     1       5.048  -8.339  -3.348  1.00  0.00     0.339 C 
ATOM      8  O   UNL     1       5.691  -8.885  -4.206  1.00  0.00    -0.246 OA
BRANCH   7   9
ATOM      9  C   UNL     1       3.760  -7.598  -3.531  1.00  0.00     0.075 A 
ATOM     10  C   UNL     1       2.078  -5.876  -2.829  1.00  0.00     0.078 A 
ATOM     11  C   UNL     1       3.287  -6.615  -2.627  1.00  0.00     0.045 A 
ATOM     12  N   UNL     1       1.266  -6.016  -3.907  1.00  0.00    -0.226 NA
ATOM     13  C   UNL     1       1.632  -7.012  -4.746  1.00  0.00     0.182 A 
ATOM     14  C   UNL     1       2.822  -7.797  -4.556  1.00  0.00     0.061 A 
ATOM     15  N   UNL     1       0.935  -7.413  -5.806  1.00  0.00    -0.154 NA
ATOM     16  C   UNL     1       2.700  -8.829  -5.474  1.00  0.00     0.075 A 
ATOM     17  N   UNL     1       1.591  -8.504  -6.222  1.00  0.00    -0.275 N 
ATOM     18  H   UNL     1       1.304  -9.032  -7.002  1.00  0.00     0.190 HD
BRANCH  10  19
ATOM     19  C   UNL     1       1.683  -4.788  -1.896  1.00  0.00     0.046 A 
ATOM     20  C   UNL     1       1.167  -2.475  -0.294  1.00  0.00     0.164 A 
ATOM     21  C   UNL     1       0.147  -3.384  -0.609  1.00  0.00     0.097 A 
ATOM     22  C   UNL     1       2.459  -2.722  -0.745  1.00  0.00     0.161 A 
ATOM     23  C   UNL     1       0.391  -4.540  -1.386  1.00  0.00     0.132 A 
ATOM     24  C   UNL     1       2.686  -3.855  -1.542  1.00  0.00     0.064 A 
BRANCH  20  25
ATOM     25  O   UNL     1       0.866  -1.450   0.560  1.00  0.00    -0.493 OA
ATOM     26  C   UNL     1       0.338  -0.310  -0.121  1.00  0.00     0.278 C 
ENDBRANCH  20  25
BRANCH  22  27
ATOM     27  O   UNL     1       3.612  -2.027  -0.514  1.00  0.00    -0.493 OA
ATOM     28  C   UNL     1       3.536  -0.727   0.039  1.00  0.00     0.278 C 
ENDBRANCH  22  27
BRANCH  23  29
ATOM     29  O   UNL     1      -0.751  -5.272  -1.586  1.00  0.00    -0.496 OA
ATOM     30  C   UNL     1      -0.648  -6.691  -1.549  1.00  0.00     0.278 C 
ENDBRANCH  23  29
ENDBRANCH  10  19
BRANCH  16  31
ATOM     31  C   UNL     1       3.350 -10.117  -5.666  1.00  0.00     0.000 A 
ATOM     32  C   UNL     1       4.455 -10.242  -6.512  1.00  0.00     0.012 A 
ATOM     33  C   UNL     1       2.852 -11.257  -5.014  1.00  0.00     0.012 A 
ATOM     34  C   UNL     1       5.101 -11.474  -6.644  1.00  0.00     0.021 A 
ATOM     35  C   UNL     1       3.500 -12.488  -5.142  1.00  0.00     0.021 A 
ATOM     36  C   UNL     1       4.633 -12.586  -5.944  1.00  0.00     0.041 A 
ATOM     37  Cl  UNL     1       5.474 -14.081  -6.061  1.00  0.00    -0.084 Cl
ENDBRANCH  16  31
ENDBRANCH   7   9
ENDBRANCH   6   7
ENDBRANCH   5   6
ENDBRANCH   4   5
ENDBRANCH   3   4
ENDBRANCH   2   3
ENDBRANCH   1   2
BRANCH   1  38
ATOM     38  O   UNL     1       1.678 -10.155   0.327  1.00  0.00    -0.376 OA
BRANCH  38  39
ATOM     39  C   UNL     1       2.526 -11.012   1.091  1.00  0.00     0.202 C 
BRANCH  39  40
ATOM     40  C   UNL     1       2.251 -12.510   1.014  1.00  0.00     0.261 C 
BRANCH  40  41
ATOM     41  O   UNL     1       1.993 -12.989  -0.296  1.00  0.00    -0.460 OA
BRANCH  41  42
ATOM     42  C   UNL     1       0.686 -12.919  -0.632  1.00  0.00     0.338 C 
ATOM     43  O   UNL     1      -0.198 -12.297  -0.066  1.00  0.00    -0.246 OA
BRANCH  42  44
ATOM     44  C   UNL     1       0.432 -13.811  -1.761  1.00  0.00     0.060 A 
ATOM     45  C   UNL     1      -0.834 -13.709  -2.342  1.00  0.00     0.016 A 
ATOM     46  C   UNL     1       1.239 -14.948  -1.888  1.00  0.00     0.016 A 
ATOM     47  C   UNL     1      -1.413 -14.864  -2.799  1.00  0.00     0.010 A 
ATOM     48  C   UNL     1       0.650 -16.104  -2.325  1.00  0.00     0.010 A 
ATOM     49  C   UNL     1      -0.697 -16.059  -2.669  1.00  0.00    -0.014 A 
BRANCH  49  50
ATOM     50  C   UNL     1      -1.383 -17.286  -2.989  1.00  0.00     0.031 A 
ATOM     51  C   UNL     1      -1.498 -17.461  -4.446  1.00  0.00     0.074 A 
ATOM     52  C   UNL     1      -1.786 -18.154  -2.043  1.00  0.00     0.049 A 
ATOM     53  N   UNL     1      -2.543 -17.245  -5.173  1.00  0.00    -0.248 NA
ATOM     54  C   UNL     1      -0.254 -17.637  -5.212  1.00  0.00     0.031 C 
ATOM     55  C   UNL     1      -1.428 -18.154  -0.620  1.00  0.00     0.029 A 
ATOM     56  N   UNL     1      -2.490 -19.308  -2.184  1.00  0.00    -0.354 N 
ATOM     57  C   UNL     1      -2.137 -17.567  -6.463  1.00  0.00     0.074 A 
ATOM     58  C   UNL     1      -0.702 -17.511  -6.462  1.00  0.00     0.031 C 
ATOM     59  C   UNL     1      -1.689 -19.377  -0.101  1.00  0.00     0.029 A 
ATOM     60  C   UNL     1      -2.353 -20.183  -1.110  1.00  0.00     0.049 A 
ATOM     61  H   UNL     1      -3.046 -19.507  -2.972  1.00  0.00     0.167 HD
ATOM     62  C   UNL     1      -2.986 -18.222  -7.298  1.00  0.00     0.034 A 
ATOM     63  C   UNL     1      -2.678 -21.499  -1.113  1.00  0.00     0.034 A 
ATOM     64  C   UNL     1      -4.335 -18.183  -6.789  1.00  0.00     0.049 A 
ATOM     65  C   UNL     1      -3.649 -21.704  -2.211  1.00  0.00     0.074 A 
ATOM     66  C   UNL     1      -5.301 -17.226  -6.575  1.00  0.00     0.029 A 
ATOM     67  N   UNL     1      -4.664 -19.276  -6.029  1.00  0.00    -0.354 N 
ATOM     68  N   UNL     1      -4.846 -21.188  -2.219  1.00  0.00    -0.248 NA
ATOM     69  C   UNL     1      -3.166 -22.181  -3.500  1.00  0.00     0.031 C 
ATOM     70  C   UNL     1      -6.072 -17.697  -5.471  1.00  0.00     0.029 A 
ATOM     71  C   UNL     1      -5.584 -18.945  -5.077  1.00  0.00     0.049 A 
ATOM     72  H   UNL     1      -4.287 -20.177  -6.153  1.00  0.00     0.167 HD
ATOM     73  C   UNL     1      -5.057 -20.848  -3.546  1.00  0.00     0.074 A 
ATOM     74  C   UNL     1      -4.090 -21.640  -4.298  1.00  0.00     0.031 C 
ATOM     75  C   UNL     1      -5.766 -19.727  -3.870  1.00  0.00     0.034 A 
BRANCH  62  76
ATOM     76  C   UNL     1      -2.566 -19.321  -8.257  1.00  0.00     0.023 A 
ATOM     77  C   UNL     1      -3.569 -19.828  -9.113  1.00  0.00     0.012 A 
ATOM     78  C   UNL     1      -1.372 -20.075  -8.162  1.00  0.00     0.148 A 
ATOM     79  C   UNL     1      -3.411 -21.039  -9.795  1.00  0.00     0.002 A 
ATOM     80  C   UNL     1      -1.187 -21.235  -8.903  1.00  0.00     0.091 A 
ATOM     81  F   UNL     1      -0.449 -19.768  -7.250  1.00  0.00    -0.205 F 
ATOM     82  C   UNL     1      -2.216 -21.740  -9.697  1.00  0.00     0.022 A 
BRANCH  80  83
ATOM     83  S   UNL     1       0.354 -22.162  -8.838  1.00  0.00     0.127 S 
ATOM     84  O   UNL     1      -0.062 -23.369  -8.131  1.00  0.00    -0.237 OA
ATOM     85  O   UNL     1       0.648 -22.342 -10.259  1.00  0.00    -0.237 OA
ATOM     86  O   UNL     1       1.301 -21.305  -8.136  1.00  0.00    -0.744 OA
ENDBRANCH  80  83
ENDBRANCH  62  76
BRANCH  63  87
ATOM     87  C   UNL     1      -1.997 -22.642  -0.456  1.00  0.00     0.023 A 
ATOM     88  C   UNL     1      -2.675 -23.870  -0.317  1.00  0.00     0.012 A 
ATOM     89  C   UNL     1      -0.600 -22.626  -0.247  1.00  0.00     0.148 A 
ATOM     90  C   UNL     1      -1.980 -25.051  -0.025  1.00  0.00     0.002 A 
ATOM     91  C   UNL     1       0.086 -23.800   0.050  1.00  0.00     0.091 A 
ATOM     92  F   UNL     1       0.069 -21.481  -0.434  1.00  0.00    -0.205 F 
ATOM     93  C   UNL     1      -0.599 -25.018   0.147  1.00  0.00     0.022 A 
BRANCH  91  94
ATOM     94  S   UNL     1       1.872 -23.840   0.259  1.00  0.00     0.127 S 
ATOM     95  O   UNL     1       2.011 -24.554   1.529  1.00  0.00    -0.237 OA
ATOM     96  O   UNL     1       2.296 -24.595  -0.917  1.00  0.00    -0.237 OA
ATOM     97  O   UNL     1       2.300 -22.448   0.304  1.00  0.00    -0.744 OA
ENDBRANCH  91  94
ENDBRANCH  63  87
BRANCH  75  98
ATOM     98  C   UNL     1      -6.685 -19.161  -2.824  1.00  0.00     0.023 A 
ATOM     99  C   UNL     1      -6.231 -18.590  -1.618  1.00  0.00     0.012 A 
ATOM    100  C   UNL     1      -8.054 -19.105  -3.134  1.00  0.00     0.148 A 
ATOM    101  C   UNL     1      -7.134 -17.994  -0.731  1.00  0.00     0.002 A 
ATOM    102  C   UNL     1      -8.939 -18.471  -2.275  1.00  0.00     0.091 A 
ATOM    103  F   UNL     1      -8.465 -19.661  -4.285  1.00  0.00    -0.205 F 
ATOM    104  C   UNL     1      -8.486 -17.923  -1.066  1.00  0.00     0.022 A 
BRANCH 102 105
ATOM    105  S   UNL     1     -10.664 -18.251  -2.713  1.00  0.00     0.127 S 
ATOM    106  O   UNL     1     -11.324 -19.234  -1.857  1.00  0.00    -0.237 OA
ATOM    107  O   UNL     1     -10.905 -16.855  -2.343  1.00  0.00    -0.237 OA
ATOM    108  O   UNL     1     -10.750 -18.508  -4.146  1.00  0.00    -0.744 OA
ENDBRANCH 102 105
ENDBRANCH  75  98
ENDBRANCH  49  50
ENDBRANCH  42  44
ENDBRANCH  41  42
ENDBRANCH  40  41
ENDBRANCH  39  40
ENDBRANCH  38  39
ENDBRANCH   1  38
TORSDOF 25
