REMARK SMILES O=C(OCCOCCOCCOC(=O)[C@@H]1CCCN1S(=O)(=O)c1ccc2c3c(cccc13)C(=O)N2)c1ccc(-c2c3nc(c(-c4cccc(S(=O)(=O)[O-])c4F)c4ccc([nH]4)c(-c4cccc(S(=O)(=O)[O-])c4F)c4nc(c(-c5cccc(S(=O)(=O)[O-])c5F)c5ccc2[nH]5)C=C4)C=C3)cc1
REMARK SMILES IDX 7 1 6 2 5 3 4 4 3 5 2 6 1 7 36 8 37 9 98 10 38 11 97 12
REMARK SMILES IDX 39 13 40 14 41 15 91 16 42 17 96 18 90 19 92 20 43 21 95 22
REMARK SMILES IDX 89 23 88 24 44 26 76 27 56 28 75 29 57 30 60 31 74 32 93 33
REMARK SMILES IDX 58 34 59 35 73 37 94 38 61 39 45 40 46 41 54 42 47 43 49 44
REMARK SMILES IDX 55 45 48 46 50 47 51 48 52 49 53 50 77 51 78 52 86 53 79 54
REMARK SMILES IDX 81 55 87 56 80 57 82 58 83 59 84 60 85 61 62 62 63 63 71 64
REMARK SMILES IDX 64 65 66 66 72 67 65 68 67 69 68 70 69 71 70 72 8 73 9 74
REMARK SMILES IDX 10 75 11 76 12 77 13 78 14 79 15 80 16 81 19 82 17 83 18 84
REMARK SMILES IDX 20 85 21 86 22 87 23 88 24 89 32 90 25 91 27 92 31 93 26 94
REMARK SMILES IDX 28 95 30 96 35 97 29 98 33 99 34 101
REMARK H PARENT 92 25 60 36 35 100
REMARK Flexibility Score: inf
ROOT
ATOM      1  C   UNL     1       1.741   0.452  -1.562  1.00  0.00     0.188 C 
ENDROOT
BRANCH   1   2
ATOM      2  O   UNL     1       3.130   0.209  -1.345  1.00  0.00    -0.376 OA
BRANCH   2   3
ATOM      3  C   UNL     1       3.413  -1.118  -0.895  1.00  0.00     0.202 C 
BRANCH   3   4
ATOM      4  C   UNL     1       3.553  -1.199   0.625  1.00  0.00     0.261 C 
BRANCH   4   5
ATOM      5  O   UNL     1       2.277  -0.948   1.247  1.00  0.00    -0.460 OA
BRANCH   5   6
ATOM      6  C   UNL     1       1.811   0.141   1.901  1.00  0.00     0.338 C 
ATOM      7  O   UNL     1       0.702   0.053   2.428  1.00  0.00    -0.246 OA
BRANCH   6   8
ATOM      8  C   UNL     1       2.529   1.453   2.027  1.00  0.00     0.060 A 
ATOM      9  C   UNL     1       3.529   1.913   1.178  1.00  0.00     0.016 A 
ATOM     10  C   UNL     1       2.086   2.336   3.034  1.00  0.00     0.016 A 
ATOM     11  C   UNL     1       4.086   3.182   1.340  1.00  0.00     0.010 A 
ATOM     12  C   UNL     1       2.666   3.604   3.220  1.00  0.00     0.010 A 
ATOM     13  C   UNL     1       3.697   4.021   2.382  1.00  0.00    -0.014 A 
BRANCH  13  14
ATOM     14  C   UNL     1       4.539   5.213   2.636  1.00  0.00     0.031 A 
ATOM     15  C   UNL     1       5.773   5.033   3.469  1.00  0.00     0.074 A 
ATOM     16  C   UNL     1       4.314   6.381   2.007  1.00  0.00     0.049 A 
ATOM     17  N   UNL     1       6.700   5.904   3.757  1.00  0.00    -0.248 NA
ATOM     18  C   UNL     1       5.990   3.702   4.067  1.00  0.00     0.031 C 
ATOM     19  C   UNL     1       3.163   6.664   1.158  1.00  0.00     0.029 A 
ATOM     20  N   UNL     1       5.076   7.521   1.923  1.00  0.00    -0.354 N 
ATOM     21  C   UNL     1       7.545   5.265   4.650  1.00  0.00     0.074 A 
ATOM     22  C   UNL     1       7.092   3.899   4.777  1.00  0.00     0.031 C 
ATOM     23  C   UNL     1       3.362   7.834   0.527  1.00  0.00     0.029 A 
ATOM     24  C   UNL     1       4.604   8.438   1.008  1.00  0.00     0.049 A 
ATOM     25  H   UNL     1       5.884   7.670   2.465  1.00  0.00     0.167 HD
ATOM     26  C   UNL     1       8.563   5.800   5.356  1.00  0.00     0.034 A 
ATOM     27  C   UNL     1       5.109   9.630   0.620  1.00  0.00     0.034 A 
ATOM     28  C   UNL     1       8.998   7.160   5.236  1.00  0.00     0.049 A 
ATOM     29  C   UNL     1       6.296  10.177   1.370  1.00  0.00     0.074 A 
ATOM     30  C   UNL     1       9.962   7.817   5.978  1.00  0.00     0.029 A 
ATOM     31  N   UNL     1       8.494   8.070   4.323  1.00  0.00    -0.354 N 
ATOM     32  N   UNL     1       7.062   9.579   2.249  1.00  0.00    -0.248 NA
ATOM     33  C   UNL     1       6.642  11.588   1.135  1.00  0.00     0.031 C 
ATOM     34  C   UNL     1      10.024   9.137   5.528  1.00  0.00     0.029 A 
ATOM     35  C   UNL     1       9.121   9.289   4.488  1.00  0.00     0.049 A 
ATOM     36  H   UNL     1       7.794   7.878   3.658  1.00  0.00     0.167 HD
ATOM     37  C   UNL     1       7.940  10.551   2.712  1.00  0.00     0.074 A 
ATOM     38  C   UNL     1       7.665  11.759   1.964  1.00  0.00     0.031 C 
ATOM     39  C   UNL     1       8.850  10.468   3.710  1.00  0.00     0.034 A 
BRANCH  26  40
ATOM     40  C   UNL     1       9.211   4.950   6.404  1.00  0.00     0.023 A 
ATOM     41  C   UNL     1      10.258   4.077   6.065  1.00  0.00     0.012 A 
ATOM     42  C   UNL     1       8.833   5.110   7.752  1.00  0.00     0.148 A 
ATOM     43  C   UNL     1      10.932   3.377   7.065  1.00  0.00     0.002 A 
ATOM     44  C   UNL     1       9.527   4.433   8.742  1.00  0.00     0.091 A 
ATOM     45  F   UNL     1       7.816   5.938   8.033  1.00  0.00    -0.205 F 
ATOM     46  C   UNL     1      10.576   3.564   8.400  1.00  0.00     0.022 A 
BRANCH  44  47
ATOM     47  S   UNL     1       9.172   4.644  10.489  1.00  0.00     0.127 S 
ATOM     48  O   UNL     1       8.864   3.273  10.895  1.00  0.00    -0.237 OA
ATOM     49  O   UNL     1      10.443   5.161  10.994  1.00  0.00    -0.237 OA
ATOM     50  O   UNL     1       8.051   5.569  10.567  1.00  0.00    -0.744 OA
ENDBRANCH  44  47
ENDBRANCH  26  40
BRANCH  27  51
ATOM     51  C   UNL     1       4.477  10.422  -0.478  1.00  0.00     0.023 A 
ATOM     52  C   UNL     1       5.216  10.727  -1.640  1.00  0.00     0.012 A 
ATOM     53  C   UNL     1       3.147  10.872  -0.387  1.00  0.00     0.148 A 
ATOM     54  C   UNL     1       4.642  11.465  -2.681  1.00  0.00     0.002 A 
ATOM     55  C   UNL     1       2.557  11.531  -1.459  1.00  0.00     0.091 A 
ATOM     56  F   UNL     1       2.474  10.641   0.749  1.00  0.00    -0.205 F 
ATOM     57  C   UNL     1       3.306  11.847  -2.600  1.00  0.00     0.022 A 
BRANCH  55  58
ATOM     58  S   UNL     1       0.797  11.886  -1.490  1.00  0.00     0.127 S 
ATOM     59  O   UNL     1       0.776  13.327  -1.256  1.00  0.00    -0.237 OA
ATOM     60  O   UNL     1       0.427  11.472  -2.844  1.00  0.00    -0.237 OA
ATOM     61  O   UNL     1       0.220  11.058  -0.439  1.00  0.00    -0.744 OA
ENDBRANCH  55  58
ENDBRANCH  27  51
BRANCH  39  62
ATOM     62  C   UNL     1       9.599  11.710   4.098  1.00  0.00     0.023 A 
ATOM     63  C   UNL     1       8.969  12.653   4.932  1.00  0.00     0.012 A 
ATOM     64  C   UNL     1      10.965  11.849   3.790  1.00  0.00     0.148 A 
ATOM     65  C   UNL     1       9.692  13.722   5.459  1.00  0.00     0.002 A 
ATOM     66  C   UNL     1      11.687  12.897   4.344  1.00  0.00     0.091 A 
ATOM     67  F   UNL     1      11.534  10.932   2.995  1.00  0.00    -0.205 F 
ATOM     68  C   UNL     1      11.052  13.835   5.177  1.00  0.00     0.022 A 
BRANCH  66  69
ATOM     69  S   UNL     1      13.456  13.086   4.104  1.00  0.00     0.127 S 
ATOM     70  O   UNL     1      13.523  14.354   3.378  1.00  0.00    -0.237 OA
ATOM     71  O   UNL     1      13.948  13.142   5.480  1.00  0.00    -0.237 OA
ATOM     72  O   UNL     1      13.889  11.919   3.347  1.00  0.00    -0.744 OA
ENDBRANCH  66  69
ENDBRANCH  39  62
ENDBRANCH  13  14
ENDBRANCH   6   8
ENDBRANCH   5   6
ENDBRANCH   4   5
ENDBRANCH   3   4
ENDBRANCH   2   3
ENDBRANCH   1   2
BRANCH   1  73
ATOM     73  C   UNL     1       1.414   0.602  -3.049  1.00  0.00     0.188 C 
BRANCH  73  74
ATOM     74  O   UNL     1       1.866  -0.466  -3.884  1.00  0.00    -0.376 OA
BRANCH  74  75
ATOM     75  C   UNL     1       3.242  -0.427  -4.286  1.00  0.00     0.202 C 
BRANCH  75  76
ATOM     76  C   UNL     1       3.606   0.730  -5.216  1.00  0.00     0.261 C 
BRANCH  76  77
ATOM     77  O   UNL     1       3.964   1.842  -4.376  1.00  0.00    -0.462 OA
BRANCH  77  78
ATOM     78  C   UNL     1       3.439   3.045  -4.688  1.00  0.00     0.324 C 
ATOM     79  O   UNL     1       2.843   3.279  -5.735  1.00  0.00    -0.250 OA
BRANCH  78  80
ATOM     80  C   UNL     1       3.419   3.943  -3.490  1.00  0.00     0.183 C 
ATOM     81  C   UNL     1       3.332   5.403  -3.921  1.00  0.00     0.034 C 
ATOM     82  N   UNL     1       4.319   3.963  -2.285  1.00  0.00    -0.184 NA
ATOM     83  C   UNL     1       3.154   6.109  -2.602  1.00  0.00     0.019 C 
ATOM     84  C   UNL     1       3.918   5.248  -1.597  1.00  0.00     0.103 C 
BRANCH  82  85
ATOM     85  S   UNL     1       6.024   3.776  -2.420  1.00  0.00     0.244 S 
ATOM     86  O   UNL     1       6.380   4.151  -3.773  1.00  0.00    -0.207 OA
ATOM     87  O   UNL     1       6.639   4.436  -1.290  1.00  0.00    -0.207 OA
BRANCH  85  88
ATOM     88  C   UNL     1       6.424   2.029  -2.220  1.00  0.00     0.090 A 
ATOM     89  C   UNL     1       6.535   1.279  -3.418  1.00  0.00     0.024 A 
ATOM     90  C   UNL     1       6.790   1.419  -0.960  1.00  0.00     0.005 A 
ATOM     91  C   UNL     1       6.785  -0.102  -3.427  1.00  0.00     0.028 A 
ATOM     92  C   UNL     1       6.979   0.064  -1.031  1.00  0.00     0.019 A 
ATOM     93  C   UNL     1       7.038   1.923   0.354  1.00  0.00     0.010 A 
ATOM     94  C   UNL     1       6.953  -0.681  -2.190  1.00  0.00     0.050 A 
ATOM     95  C   UNL     1       7.247  -0.808   0.019  1.00  0.00     0.050 A 
ATOM     96  C   UNL     1       7.346   1.075   1.449  1.00  0.00     0.002 A 
ATOM     97  N   UNL     1       7.143  -2.006  -1.847  1.00  0.00    -0.321 N 
ATOM     98  C   UNL     1       7.428  -0.315   1.305  1.00  0.00     0.014 A 
ATOM     99  C   UNL     1       7.315  -2.173  -0.469  1.00  0.00     0.256 C 
ATOM    100  H   UNL     1       7.157  -2.745  -2.496  1.00  0.00     0.170 HD
ATOM    101  O   UNL     1       7.450  -3.252   0.086  1.00  0.00    -0.269 OA
ENDBRANCH  85  88
ENDBRANCH  82  85
ENDBRANCH  78  80
ENDBRANCH  77  78
ENDBRANCH  76  77
ENDBRANCH  75  76
ENDBRANCH  74  75
ENDBRANCH  73  74
ENDBRANCH   1  73
TORSDOF 22
