REMARK SMILES O=C(C[C@@H]1CN(C(=O)NCc2cccs2)CCO1)OCCOCCOCCOC(=O)c1ccc(-c2c3nc(c(-c4cccc(S(=O)(=O)[O-])c4F)c4ccc([nH]4)c(-c4cccc(S(=O)(=O)[O-])c4F)c4nc(c(-c5cccc(S(=O)(=O)[O-])c5F)c5ccc2[nH]5)C=C4)C=C3)cc1
REMARK SMILES IDX 23 1 22 2 21 3 20 4 19 5 2 6 1 7 3 8 4 9 5 10 18 11 6 12
REMARK SMILES IDX 17 13 16 14 7 15 8 16 9 17 10 19 11 20 12 21 15 22 13 23
REMARK SMILES IDX 14 24 24 25 25 26 26 27 27 28 28 29 29 30 30 31 31 32 32 33
REMARK SMILES IDX 93 34 33 35 92 36 34 37 35 38 36 39 86 40 37 41 91 42 85 43
REMARK SMILES IDX 87 44 38 45 90 46 84 47 83 48 39 50 71 51 51 52 70 53 52 54
REMARK SMILES IDX 55 55 69 56 88 57 53 58 54 59 68 61 89 62 56 63 40 64 41 65
REMARK SMILES IDX 49 66 42 67 44 68 50 69 43 70 45 71 46 72 47 73 48 74 72 75
REMARK SMILES IDX 73 76 81 77 74 78 76 79 82 80 75 81 77 82 78 83 79 84 80 85
REMARK SMILES IDX 57 86 58 87 66 88 59 89 61 90 67 91 60 92 62 93 63 94 64 95
REMARK SMILES IDX 65 96
REMARK H PARENT 9 18 87 49 55 60
REMARK Flexibility Score: inf
ROOT
ATOM      1  C   UNL     1       2.763   2.113  -1.340  1.00  0.00     0.188 C 
ENDROOT
BRANCH   1   2
ATOM      2  O   UNL     1       4.155   1.936  -1.229  1.00  0.00    -0.376 OA
BRANCH   2   3
ATOM      3  C   UNL     1       4.619   0.808  -0.529  1.00  0.00     0.202 C 
BRANCH   3   4
ATOM      4  C   UNL     1       3.829  -0.496  -0.611  1.00  0.00     0.261 C 
BRANCH   4   5
ATOM      5  O   UNL     1       2.406  -0.506  -0.372  1.00  0.00    -0.463 OA
BRANCH   5   6
ATOM      6  C   UNL     1       1.719  -0.225   0.752  1.00  0.00     0.308 C 
ATOM      7  O   UNL     1       0.527  -0.515   0.817  1.00  0.00    -0.252 OA
BRANCH   6   8
ATOM      8  C   UNL     1       2.398   0.495   1.877  1.00  0.00     0.156 C 
BRANCH   8   9
ATOM      9  C   UNL     1       3.487  -0.297   2.567  1.00  0.00     0.149 C 
ATOM     10  C   UNL     1       3.176  -1.799   2.706  1.00  0.00     0.154 C 
ATOM     11  O   UNL     1       3.681   0.302   3.861  1.00  0.00    -0.374 OA
ATOM     12  N   UNL     1       4.303  -2.440   3.375  1.00  0.00    -0.320 N 
ATOM     13  C   UNL     1       4.763  -0.323   4.567  1.00  0.00     0.182 C 
ATOM     14  C   UNL     1       4.518  -1.832   4.706  1.00  0.00     0.150 C 
BRANCH  12  15
ATOM     15  C   UNL     1       5.202  -3.359   2.942  1.00  0.00     0.317 C 
ATOM     16  O   UNL     1       6.092  -3.778   3.693  1.00  0.00    -0.249 OA
ATOM     17  N   UNL     1       5.263  -3.886   1.715  1.00  0.00    -0.333 N 
ATOM     18  H   UNL     1       6.035  -4.495   1.665  1.00  0.00     0.165 HD
BRANCH  17  19
ATOM     19  C   UNL     1       4.587  -3.870   0.434  1.00  0.00     0.164 C 
BRANCH  19  20
ATOM     20  C   UNL     1       5.568  -3.488  -0.650  1.00  0.00     0.024 A 
ATOM     21  C   UNL     1       6.509  -2.470  -0.670  1.00  0.00     0.017 A 
ATOM     22  S   UNL     1       5.549  -4.327  -2.149  1.00  0.00    -0.147 S 
ATOM     23  C   UNL     1       7.140  -2.326  -1.941  1.00  0.00     0.012 A 
ATOM     24  C   UNL     1       6.720  -3.286  -2.833  1.00  0.00     0.065 A 
ENDBRANCH  19  20
ENDBRANCH  17  19
ENDBRANCH  12  15
ENDBRANCH   8   9
ENDBRANCH   6   8
ENDBRANCH   5   6
ENDBRANCH   4   5
ENDBRANCH   3   4
ENDBRANCH   2   3
ENDBRANCH   1   2
BRANCH   1  25
ATOM     25  C   UNL     1       2.155   1.603  -2.655  1.00  0.00     0.188 C 
BRANCH  25  26
ATOM     26  O   UNL     1       2.983   0.886  -3.559  1.00  0.00    -0.376 OA
BRANCH  26  27
ATOM     27  C   UNL     1       4.244   1.426  -3.940  1.00  0.00     0.202 C 
BRANCH  27  28
ATOM     28  C   UNL     1       4.423   2.926  -4.260  1.00  0.00     0.261 C 
BRANCH  28  29
ATOM     29  O   UNL     1       4.000   3.860  -3.248  1.00  0.00    -0.460 OA
BRANCH  29  30
ATOM     30  C   UNL     1       2.937   4.647  -3.565  1.00  0.00     0.338 C 
ATOM     31  O   UNL     1       2.337   4.658  -4.620  1.00  0.00    -0.246 OA
BRANCH  30  32
ATOM     32  C   UNL     1       2.440   5.359  -2.357  1.00  0.00     0.060 A 
ATOM     33  C   UNL     1       1.117   5.112  -1.956  1.00  0.00     0.016 A 
ATOM     34  C   UNL     1       3.240   6.234  -1.619  1.00  0.00     0.016 A 
ATOM     35  C   UNL     1       0.584   5.753  -0.837  1.00  0.00     0.010 A 
ATOM     36  C   UNL     1       2.688   6.913  -0.520  1.00  0.00     0.010 A 
ATOM     37  C   UNL     1       1.347   6.701  -0.145  1.00  0.00    -0.014 A 
BRANCH  37  38
ATOM     38  C   UNL     1       0.654   7.611   0.805  1.00  0.00     0.031 A 
ATOM     39  C   UNL     1       0.162   8.938   0.286  1.00  0.00     0.074 A 
ATOM     40  C   UNL     1       0.399   7.258   2.078  1.00  0.00     0.049 A 
ATOM     41  N   UNL     1      -0.525   9.868   0.897  1.00  0.00    -0.248 NA
ATOM     42  C   UNL     1       0.486   9.255  -1.116  1.00  0.00     0.031 C 
ATOM     43  C   UNL     1       0.811   6.007   2.711  1.00  0.00     0.029 A 
ATOM     44  N   UNL     1      -0.263   7.936   3.074  1.00  0.00    -0.354 N 
ATOM     45  C   UNL     1      -0.712  10.878  -0.040  1.00  0.00     0.074 A 
ATOM     46  C   UNL     1      -0.041  10.462  -1.252  1.00  0.00     0.031 C 
ATOM     47  C   UNL     1       0.420   6.021   3.999  1.00  0.00     0.029 A 
ATOM     48  C   UNL     1      -0.261   7.284   4.285  1.00  0.00     0.049 A 
ATOM     49  H   UNL     1      -0.698   8.809   2.934  1.00  0.00     0.167 HD
ATOM     50  C   UNL     1      -1.397  12.040   0.084  1.00  0.00     0.034 A 
ATOM     51  C   UNL     1      -0.740   7.668   5.487  1.00  0.00     0.034 A 
ATOM     52  C   UNL     1      -2.062  12.464   1.286  1.00  0.00     0.049 A 
ATOM     53  C   UNL     1      -1.472   8.983   5.608  1.00  0.00     0.074 A 
ATOM     54  C   UNL     1      -2.797  13.617   1.501  1.00  0.00     0.029 A 
ATOM     55  N   UNL     1      -2.062  11.764   2.481  1.00  0.00    -0.354 N 
ATOM     56  N   UNL     1      -1.738   9.873   4.682  1.00  0.00    -0.248 NA
ATOM     57  C   UNL     1      -2.007   9.326   6.935  1.00  0.00     0.031 C 
ATOM     58  C   UNL     1      -3.215  13.628   2.836  1.00  0.00     0.029 A 
ATOM     59  C   UNL     1      -2.776  12.462   3.441  1.00  0.00     0.049 A 
ATOM     60  H   UNL     1      -1.619  10.896   2.627  1.00  0.00     0.167 HD
ATOM     61  C   UNL     1      -2.496  10.861   5.306  1.00  0.00     0.074 A 
ATOM     62  C   UNL     1      -2.676  10.441   6.680  1.00  0.00     0.031 C 
ATOM     63  C   UNL     1      -2.985  12.019   4.795  1.00  0.00     0.034 A 
BRANCH  50  64
ATOM     64  C   UNL     1      -1.486  12.927  -1.131  1.00  0.00     0.023 A 
ATOM     65  C   UNL     1      -2.294  12.537  -2.219  1.00  0.00     0.012 A 
ATOM     66  C   UNL     1      -0.820  14.167  -1.173  1.00  0.00     0.148 A 
ATOM     67  C   UNL     1      -2.415  13.354  -3.342  1.00  0.00     0.002 A 
ATOM     68  C   UNL     1      -0.982  14.996  -2.276  1.00  0.00     0.091 A 
ATOM     69  F   UNL     1      -0.039  14.508  -0.138  1.00  0.00    -0.205 F 
ATOM     70  C   UNL     1      -1.769  14.587  -3.365  1.00  0.00     0.022 A 
BRANCH  68  71
ATOM     71  S   UNL     1      -0.257  16.637  -2.373  1.00  0.00     0.127 S 
ATOM     72  O   UNL     1       0.708  16.469  -3.459  1.00  0.00    -0.237 OA
ATOM     73  O   UNL     1      -1.416  17.463  -2.710  1.00  0.00    -0.237 OA
ATOM     74  O   UNL     1       0.323  16.901  -1.064  1.00  0.00    -0.744 OA
ENDBRANCH  68  71
ENDBRANCH  50  64
BRANCH  51  75
ATOM     75  C   UNL     1      -0.556   6.795   6.684  1.00  0.00     0.023 A 
ATOM     76  C   UNL     1      -1.672   6.203   7.307  1.00  0.00     0.012 A 
ATOM     77  C   UNL     1       0.727   6.571   7.221  1.00  0.00     0.148 A 
ATOM     78  C   UNL     1      -1.518   5.440   8.466  1.00  0.00     0.002 A 
ATOM     79  C   UNL     1       0.880   5.760   8.339  1.00  0.00     0.091 A 
ATOM     80  F   UNL     1       1.775   7.162   6.630  1.00  0.00    -0.205 F 
ATOM     81  C   UNL     1      -0.243   5.210   8.976  1.00  0.00     0.022 A 
BRANCH  79  82
ATOM     82  S   UNL     1       2.493   5.309   8.986  1.00  0.00     0.127 S 
ATOM     83  O   UNL     1       2.526   6.043  10.249  1.00  0.00    -0.237 OA
ATOM     84  O   UNL     1       2.369   3.857   9.120  1.00  0.00    -0.237 OA
ATOM     85  O   UNL     1       3.455   5.738   7.980  1.00  0.00    -0.744 OA
ENDBRANCH  79  82
ENDBRANCH  51  75
BRANCH  63  86
ATOM     86  C   UNL     1      -3.793  12.903   5.715  1.00  0.00     0.023 A 
ATOM     87  C   UNL     1      -3.163  13.574   6.782  1.00  0.00     0.012 A 
ATOM     88  C   UNL     1      -5.172  13.100   5.498  1.00  0.00     0.148 A 
ATOM     89  C   UNL     1      -3.900  14.378   7.652  1.00  0.00     0.002 A 
ATOM     90  C   UNL     1      -5.889  13.947   6.336  1.00  0.00     0.091 A 
ATOM     91  F   UNL     1      -5.762  12.447   4.487  1.00  0.00    -0.205 F 
ATOM     92  C   UNL     1      -5.259  14.572   7.424  1.00  0.00     0.022 A 
BRANCH  90  93
ATOM     93  S   UNL     1      -7.623  14.332   6.062  1.00  0.00     0.127 S 
ATOM     94  O   UNL     1      -8.270  13.571   7.130  1.00  0.00    -0.237 OA
ATOM     95  O   UNL     1      -7.652  15.783   6.244  1.00  0.00    -0.237 OA
ATOM     96  O   UNL     1      -7.922  13.888   4.707  1.00  0.00    -0.744 OA
ENDBRANCH  90  93
ENDBRANCH  63  86
ENDBRANCH  37  38
ENDBRANCH  30  32
ENDBRANCH  29  30
ENDBRANCH  28  29
ENDBRANCH  27  28
ENDBRANCH  26  27
ENDBRANCH  25  26
ENDBRANCH   1  25
TORSDOF 24
