REMARK SMILES CC1(CNS(=O)(=O)Cc2ccc(C(=O)OCCOCCOCCOC(=O)c3ccc(-c4c5nc(c(-c6cccc(S(=O)(=O)[O-])c6F)c6ccc([nH]6)c(-c6cccc(S(=O)(=O)[O-])c6F)c6nc(c(-c7cccc(S(=O)(=O)[O-])c7F)c7ccc4[nH]7)C=C6)C=C5)cc3)cc2)COC1
REMARK SMILES IDX 19 1 18 2 17 3 16 4 15 5 13 6 14 7 12 8 9 9 10 10 91 11
REMARK SMILES IDX 11 12 90 13 8 14 5 15 6 16 7 17 4 18 3 20 2 21 1 22 92 23
REMARK SMILES IDX 94 24 93 25 20 26 21 27 22 28 23 29 24 30 25 31 26 32 27 33
REMARK SMILES IDX 28 34 89 35 29 36 88 37 30 38 31 39 32 40 82 41 33 42 87 43
REMARK SMILES IDX 81 44 83 45 34 46 86 47 80 48 79 49 35 51 67 52 47 53 66 54
REMARK SMILES IDX 48 55 51 56 65 57 84 58 49 59 50 60 64 62 85 63 52 64 36 65
REMARK SMILES IDX 37 66 45 67 38 68 40 69 46 70 39 71 41 72 42 73 43 74 44 75
REMARK SMILES IDX 68 76 69 77 77 78 70 79 72 80 78 81 71 82 73 83 74 84 75 85
REMARK SMILES IDX 76 86 53 87 54 88 62 89 55 90 57 91 63 92 56 93 58 94 59 95
REMARK SMILES IDX 60 96 61 97
REMARK H PARENT 4 19 83 50 51 61
REMARK Flexibility Score: inf
ROOT
ATOM      1  C   UNL     1       0.920  -7.504  -1.400  1.00  0.00     0.188 C 
ENDROOT
BRANCH   1   2
ATOM      2  O   UNL     1       1.631  -8.072  -2.475  1.00  0.00    -0.376 OA
BRANCH   2   3
ATOM      3  C   UNL     1       1.344  -7.676  -3.804  1.00  0.00     0.202 C 
BRANCH   3   4
ATOM      4  C   UNL     1       0.760  -6.310  -4.219  1.00  0.00     0.261 C 
BRANCH   4   5
ATOM      5  O   UNL     1       0.258  -5.453  -3.194  1.00  0.00    -0.460 OA
BRANCH   5   6
ATOM      6  C   UNL     1      -1.083  -5.490  -2.983  1.00  0.00     0.338 C 
ATOM      7  O   UNL     1      -1.892  -6.180  -3.564  1.00  0.00    -0.246 OA
BRANCH   6   8
ATOM      8  C   UNL     1      -1.399  -4.649  -1.804  1.00  0.00     0.060 A 
ATOM      9  C   UNL     1      -2.115  -3.045   0.395  1.00  0.00    -0.032 A 
ATOM     10  C   UNL     1      -2.674  -4.321   0.230  1.00  0.00     0.006 A 
ATOM     11  C   UNL     1      -1.115  -2.646  -0.500  1.00  0.00     0.006 A 
ATOM     12  C   UNL     1      -2.327  -5.115  -0.868  1.00  0.00     0.016 A 
ATOM     13  C   UNL     1      -0.766  -3.425  -1.601  1.00  0.00     0.016 A 
BRANCH   9  14
ATOM     14  C   UNL     1      -2.570  -2.171   1.538  1.00  0.00     0.189 C 
BRANCH  14  15
ATOM     15  S   UNL     1      -3.107  -0.529   0.988  1.00  0.00     0.215 S 
ATOM     16  O   UNL     1      -3.591   0.213   2.133  1.00  0.00    -0.212 OA
ATOM     17  O   UNL     1      -3.917  -0.635  -0.207  1.00  0.00    -0.212 OA
BRANCH  15  18
ATOM     18  N   UNL     1      -1.690   0.256   0.495  1.00  0.00    -0.214 NA
ATOM     19  H   UNL     1      -1.194  -0.378  -0.133  1.00  0.00     0.141 HD
BRANCH  18  20
ATOM     20  C   UNL     1      -0.737   0.673   1.542  1.00  0.00     0.110 C 
BRANCH  20  21
ATOM     21  C   UNL     1       0.595   1.156   0.956  1.00  0.00     0.028 C 
ATOM     22  C   UNL     1       1.311   0.150   0.066  1.00  0.00     0.018 C 
ATOM     23  C   UNL     1       1.505   1.765   2.041  1.00  0.00     0.170 C 
ATOM     24  C   UNL     1       0.564   2.594   0.408  1.00  0.00     0.170 C 
ATOM     25  O   UNL     1       1.135   3.108   1.637  1.00  0.00    -0.380 OA
ENDBRANCH  20  21
ENDBRANCH  18  20
ENDBRANCH  15  18
ENDBRANCH  14  15
ENDBRANCH   9  14
ENDBRANCH   6   8
ENDBRANCH   5   6
ENDBRANCH   4   5
ENDBRANCH   3   4
ENDBRANCH   2   3
ENDBRANCH   1   2
BRANCH   1  26
ATOM     26  C   UNL     1       1.649  -6.314  -0.742  1.00  0.00     0.188 C 
BRANCH  26  27
ATOM     27  O   UNL     1       2.820  -5.783  -1.342  1.00  0.00    -0.376 OA
BRANCH  27  28
ATOM     28  C   UNL     1       3.903  -6.647  -1.663  1.00  0.00     0.202 C 
BRANCH  28  29
ATOM     29  C   UNL     1       4.344  -7.833  -0.778  1.00  0.00     0.261 C 
BRANCH  29  30
ATOM     30  O   UNL     1       3.324  -8.555  -0.078  1.00  0.00    -0.460 OA
BRANCH  30  31
ATOM     31  C   UNL     1       3.250  -8.312   1.254  1.00  0.00     0.338 C 
ATOM     32  O   UNL     1       3.945  -7.549   1.902  1.00  0.00    -0.246 OA
BRANCH  31  33
ATOM     33  C   UNL     1       2.053  -8.976   1.806  1.00  0.00     0.060 A 
ATOM     34  C   UNL     1       1.032  -8.172   2.334  1.00  0.00     0.016 A 
ATOM     35  C   UNL     1       1.964 -10.367   1.867  1.00  0.00     0.016 A 
ATOM     36  C   UNL     1      -0.064  -8.757   2.963  1.00  0.00     0.010 A 
ATOM     37  C   UNL     1       0.873 -10.951   2.519  1.00  0.00     0.010 A 
ATOM     38  C   UNL     1      -0.121 -10.148   3.108  1.00  0.00    -0.014 A 
BRANCH  38  39
ATOM     39  C   UNL     1      -1.101 -10.735   4.053  1.00  0.00     0.031 A 
ATOM     40  C   UNL     1      -0.626 -11.122   5.429  1.00  0.00     0.074 A 
ATOM     41  C   UNL     1      -2.392 -10.900   3.713  1.00  0.00     0.049 A 
ATOM     42  N   UNL     1      -1.291 -11.664   6.415  1.00  0.00    -0.248 NA
ATOM     43  C   UNL     1       0.793 -10.865   5.730  1.00  0.00     0.031 C 
ATOM     44  C   UNL     1      -2.977 -10.551   2.420  1.00  0.00     0.029 A 
ATOM     45  N   UNL     1      -3.438 -11.427   4.428  1.00  0.00    -0.354 N 
ATOM     46  C   UNL     1      -0.369 -11.845   7.439  1.00  0.00     0.074 A 
ATOM     47  C   UNL     1       0.906 -11.367   6.951  1.00  0.00     0.031 C 
ATOM     48  C   UNL     1      -4.276 -10.901   2.423  1.00  0.00     0.029 A 
ATOM     49  C   UNL     1      -4.604 -11.520   3.706  1.00  0.00     0.049 A 
ATOM     50  H   UNL     1      -3.361 -11.710   5.367  1.00  0.00     0.167 HD
ATOM     51  C   UNL     1      -0.564 -12.351   8.679  1.00  0.00     0.034 A 
ATOM     52  C   UNL     1      -5.792 -12.065   4.038  1.00  0.00     0.034 A 
ATOM     53  C   UNL     1      -1.834 -12.816   9.167  1.00  0.00     0.049 A 
ATOM     54  C   UNL     1      -5.978 -12.649   5.416  1.00  0.00     0.074 A 
ATOM     55  C   UNL     1      -2.144 -13.310  10.422  1.00  0.00     0.029 A 
ATOM     56  N   UNL     1      -3.000 -12.862   8.420  1.00  0.00    -0.354 N 
ATOM     57  N   UNL     1      -5.124 -12.719   6.408  1.00  0.00    -0.248 NA
ATOM     58  C   UNL     1      -7.306 -13.196   5.731  1.00  0.00     0.031 C 
ATOM     59  C   UNL     1      -3.489 -13.692  10.420  1.00  0.00     0.029 A 
ATOM     60  C   UNL     1      -4.030 -13.386   9.182  1.00  0.00     0.049 A 
ATOM     61  H   UNL     1      -3.084 -12.566   7.485  1.00  0.00     0.167 HD
ATOM     62  C   UNL     1      -5.824 -13.270   7.478  1.00  0.00     0.074 A 
ATOM     63  C   UNL     1      -7.176 -13.502   7.015  1.00  0.00     0.031 C 
ATOM     64  C   UNL     1      -5.386 -13.562   8.728  1.00  0.00     0.034 A 
BRANCH  51  65
ATOM     65  C   UNL     1       0.626 -12.425   9.599  1.00  0.00     0.023 A 
ATOM     66  C   UNL     1       1.179 -11.242  10.132  1.00  0.00     0.012 A 
ATOM     67  C   UNL     1       1.170 -13.670   9.971  1.00  0.00     0.148 A 
ATOM     68  C   UNL     1       2.276 -11.295  10.992  1.00  0.00     0.002 A 
ATOM     69  C   UNL     1       2.231 -13.717  10.867  1.00  0.00     0.091 A 
ATOM     70  F   UNL     1       0.646 -14.781   9.436  1.00  0.00    -0.205 F 
ATOM     71  C   UNL     1       2.794 -12.532  11.367  1.00  0.00     0.022 A 
BRANCH  69  72
ATOM     72  S   UNL     1       2.915 -15.261  11.477  1.00  0.00     0.127 S 
ATOM     73  O   UNL     1       4.239 -15.263  10.857  1.00  0.00    -0.237 OA
ATOM     74  O   UNL     1       2.919 -15.043  12.924  1.00  0.00    -0.237 OA
ATOM     75  O   UNL     1       2.013 -16.310  11.022  1.00  0.00    -0.744 OA
ENDBRANCH  69  72
ENDBRANCH  51  65
BRANCH  52  76
ATOM     76  C   UNL     1      -6.916 -12.065   3.058  1.00  0.00     0.023 A 
ATOM     77  C   UNL     1      -8.057 -11.278   3.303  1.00  0.00     0.012 A 
ATOM     78  C   UNL     1      -6.859 -12.848   1.888  1.00  0.00     0.148 A 
ATOM     79  C   UNL     1      -9.139 -11.299   2.421  1.00  0.00     0.002 A 
ATOM     80  C   UNL     1      -7.915 -12.820   0.986  1.00  0.00     0.091 A 
ATOM     81  F   UNL     1      -5.770 -13.600   1.681  1.00  0.00    -0.205 F 
ATOM     82  C   UNL     1      -9.064 -12.062   1.259  1.00  0.00     0.022 A 
BRANCH  80  83
ATOM     83  S   UNL     1      -7.859 -13.676  -0.592  1.00  0.00     0.127 S 
ATOM     84  O   UNL     1      -8.885 -14.700  -0.413  1.00  0.00    -0.237 OA
ATOM     85  O   UNL     1      -8.211 -12.606  -1.525  1.00  0.00    -0.237 OA
ATOM     86  O   UNL     1      -6.494 -14.168  -0.726  1.00  0.00    -0.744 OA
ENDBRANCH  80  83
ENDBRANCH  52  76
BRANCH  64  87
ATOM     87  C   UNL     1      -6.389 -14.101   9.717  1.00  0.00     0.023 A 
ATOM     88  C   UNL     1      -6.909 -15.402   9.571  1.00  0.00     0.012 A 
ATOM     89  C   UNL     1      -6.769 -13.328  10.834  1.00  0.00     0.148 A 
ATOM     90  C   UNL     1      -7.824 -15.908  10.495  1.00  0.00     0.002 A 
ATOM     91  C   UNL     1      -7.636 -13.859  11.780  1.00  0.00     0.091 A 
ATOM     92  F   UNL     1      -6.277 -12.086  10.949  1.00  0.00    -0.205 F 
ATOM     93  C   UNL     1      -8.178 -15.142  11.604  1.00  0.00     0.022 A 
BRANCH  91  94
ATOM     94  S   UNL     1      -8.065 -12.985  13.290  1.00  0.00     0.127 S 
ATOM     95  O   UNL     1      -9.452 -12.604  13.029  1.00  0.00    -0.237 OA
ATOM     96  O   UNL     1      -7.899 -14.024  14.307  1.00  0.00    -0.237 OA
ATOM     97  O   UNL     1      -7.122 -11.880  13.396  1.00  0.00    -0.744 OA
ENDBRANCH  91  94
ENDBRANCH  64  87
ENDBRANCH  38  39
ENDBRANCH  31  33
ENDBRANCH  30  31
ENDBRANCH  29  30
ENDBRANCH  28  29
ENDBRANCH  27  28
ENDBRANCH  26  27
ENDBRANCH   1  26
TORSDOF 25
