REMARK SMILES [NH3+][C@H]1CN(C(=O)OCC2c3ccccc3-c3ccccc32)C[C@@H]1C(=O)OCCOCCOCCOC(=O)c1ccc(-c2c3nc(c(-c4cccc(S(=O)(=O)[O-])c4F)c4ccc([nH]4)c(-c4cccc(S(=O)(=O)[O-])c4F)c4nc(c(-c5cccc(S(=O)(=O)[O-])c5F)c5ccc2[nH]5)C=C4)C=C3)cc1
REMARK SMILES IDX 30 1 29 2 28 3 27 4 26 5 24 6 25 7 23 8 2 9 3 10 4 11 22 12
REMARK SMILES IDX 1 13 5 17 6 18 7 19 8 20 9 21 10 22 21 23 11 24 15 25 16 26
REMARK SMILES IDX 20 27 12 28 14 29 17 30 19 31 13 32 18 33 31 34 32 35 33 36
REMARK SMILES IDX 34 37 35 38 36 39 37 40 38 41 39 42 100 43 40 44 99 45 41 46
REMARK SMILES IDX 42 47 43 48 93 49 44 50 98 51 92 52 94 53 45 54 97 55 91 56
REMARK SMILES IDX 90 57 46 59 78 60 58 61 77 62 59 63 62 64 76 65 95 66 60 67
REMARK SMILES IDX 61 68 75 70 96 71 63 72 47 73 48 74 56 75 49 76 51 77 57 78
REMARK SMILES IDX 50 79 52 80 53 81 54 82 55 83 79 84 80 85 88 86 81 87 83 88
REMARK SMILES IDX 89 89 82 90 84 91 85 92 86 93 87 94 64 95 65 96 73 97 66 98
REMARK SMILES IDX 68 99 74 100 67 101 69 102 70 103 71 104 72 105
REMARK H PARENT 1 14 1 15 1 16 94 58 62 69
REMARK Flexibility Score: inf
ROOT
ATOM      1  C   UNL     1       3.370   0.464  -0.307  1.00  0.00     0.188 C 
ENDROOT
BRANCH   1   2
ATOM      2  O   UNL     1       4.768   0.580  -0.164  1.00  0.00    -0.376 OA
BRANCH   2   3
ATOM      3  C   UNL     1       5.472  -0.295   0.690  1.00  0.00     0.202 C 
BRANCH   3   4
ATOM      4  C   UNL     1       4.935  -0.699   2.073  1.00  0.00     0.261 C 
BRANCH   4   5
ATOM      5  O   UNL     1       3.511  -0.643   2.271  1.00  0.00    -0.463 OA
BRANCH   5   6
ATOM      6  C   UNL     1       3.074   0.491   2.885  1.00  0.00     0.316 C 
ATOM      7  O   UNL     1       3.833   1.379   3.244  1.00  0.00    -0.252 OA
BRANCH   6   8
ATOM      8  C   UNL     1       1.568   0.464   3.145  1.00  0.00     0.178 C 
ATOM      9  C   UNL     1       0.591   0.677   1.956  1.00  0.00     0.216 C 
ATOM     10  C   UNL     1       0.519   2.211   1.776  1.00  0.00     0.188 C 
ATOM     11  N   UNL     1       1.056   2.733   3.001  1.00  0.00    -0.301 N 
ATOM     12  C   UNL     1       1.269   1.692   3.988  1.00  0.00     0.145 C 
BRANCH   9  13
ATOM     13  N   UNL     1      -0.738   0.106   2.270  1.00  0.00    -0.353 N 
ATOM     14  H   UNL     1      -1.367   0.254   1.480  1.00  0.00     0.344 HD
ATOM     15  H   UNL     1      -1.119   0.566   3.097  1.00  0.00     0.344 HD
ATOM     16  H   UNL     1      -0.646  -0.894   2.448  1.00  0.00     0.344 HD
ENDBRANCH   9  13
BRANCH  11  17
ATOM     17  C   UNL     1       1.608   3.984   3.094  1.00  0.00     0.410 C 
ATOM     18  O   UNL     1       2.527   4.271   3.837  1.00  0.00    -0.224 OA
BRANCH  17  19
ATOM     19  O   UNL     1       0.865   4.871   2.377  1.00  0.00    -0.448 OA
BRANCH  19  20
ATOM     20  C   UNL     1       0.972   6.230   2.840  1.00  0.00     0.248 C 
BRANCH  20  21
ATOM     21  C   UNL     1      -0.009   6.515   4.005  1.00  0.00     0.088 C 
ATOM     22  C   UNL     1       0.400   5.856   5.319  1.00  0.00    -0.029 A 
ATOM     23  C   UNL     1       0.074   7.981   4.403  1.00  0.00    -0.029 A 
ATOM     24  C   UNL     1       0.223   4.544   5.721  1.00  0.00     0.005 A 
ATOM     25  C   UNL     1       1.016   6.797   6.165  1.00  0.00    -0.014 A 
ATOM     26  C   UNL     1       0.779   8.115   5.621  1.00  0.00    -0.014 A 
ATOM     27  C   UNL     1      -0.489   9.072   3.771  1.00  0.00     0.005 A 
ATOM     28  C   UNL     1       0.825   4.129   6.908  1.00  0.00     0.000 A 
ATOM     29  C   UNL     1       1.606   6.393   7.350  1.00  0.00     0.009 A 
ATOM     30  C   UNL     1       0.995   9.363   6.177  1.00  0.00     0.009 A 
ATOM     31  C   UNL     1      -0.339  10.318   4.379  1.00  0.00     0.000 A 
ATOM     32  C   UNL     1       1.534   5.042   7.703  1.00  0.00     0.001 A 
ATOM     33  C   UNL     1       0.428  10.470   5.546  1.00  0.00     0.001 A 
ENDBRANCH  20  21
ENDBRANCH  19  20
ENDBRANCH  17  19
ENDBRANCH  11  17
ENDBRANCH   6   8
ENDBRANCH   5   6
ENDBRANCH   4   5
ENDBRANCH   3   4
ENDBRANCH   2   3
ENDBRANCH   1   2
BRANCH   1  34
ATOM     34  C   UNL     1       2.708  -0.923  -0.466  1.00  0.00     0.188 C 
BRANCH  34  35
ATOM     35  O   UNL     1       3.539  -2.031  -0.693  1.00  0.00    -0.376 OA
BRANCH  35  36
ATOM     36  C   UNL     1       4.108  -2.255  -1.963  1.00  0.00     0.202 C 
BRANCH  36  37
ATOM     37  C   UNL     1       3.781  -1.476  -3.252  1.00  0.00     0.261 C 
BRANCH  37  38
ATOM     38  O   UNL     1       3.266  -0.143  -3.155  1.00  0.00    -0.460 OA
BRANCH  38  39
ATOM     39  C   UNL     1       1.950   0.011  -3.459  1.00  0.00     0.338 C 
ATOM     40  O   UNL     1       1.155  -0.878  -3.713  1.00  0.00    -0.246 OA
BRANCH  39  41
ATOM     41  C   UNL     1       1.544   1.423  -3.267  1.00  0.00     0.060 A 
ATOM     42  C   UNL     1       0.561   1.724  -2.312  1.00  0.00     0.016 A 
ATOM     43  C   UNL     1       2.088   2.437  -4.055  1.00  0.00     0.016 A 
ATOM     44  C   UNL     1       0.103   3.039  -2.160  1.00  0.00     0.010 A 
ATOM     45  C   UNL     1       1.613   3.748  -3.915  1.00  0.00     0.010 A 
ATOM     46  C   UNL     1       0.599   4.056  -2.988  1.00  0.00    -0.014 A 
BRANCH  46  47
ATOM     47  C   UNL     1      -0.043   5.401  -3.013  1.00  0.00     0.031 A 
ATOM     48  C   UNL     1      -1.069   5.689  -4.078  1.00  0.00     0.074 A 
ATOM     49  C   UNL     1       0.330   6.379  -2.165  1.00  0.00     0.049 A 
ATOM     50  N   UNL     1      -1.714   6.798  -4.332  1.00  0.00    -0.248 NA
ATOM     51  C   UNL     1      -1.397   4.580  -4.990  1.00  0.00     0.031 C 
ATOM     52  C   UNL     1       1.342   6.242  -1.124  1.00  0.00     0.029 A 
ATOM     53  N   UNL     1      -0.067   7.696  -2.076  1.00  0.00    -0.354 N 
ATOM     54  C   UNL     1      -2.480   6.540  -5.463  1.00  0.00     0.074 A 
ATOM     55  C   UNL     1      -2.230   5.165  -5.838  1.00  0.00     0.031 C 
ATOM     56  C   UNL     1       1.521   7.437  -0.532  1.00  0.00     0.029 A 
ATOM     57  C   UNL     1       0.644   8.431  -1.149  1.00  0.00     0.049 A 
ATOM     58  H   UNL     1      -0.792   8.077  -2.623  1.00  0.00     0.167 HD
ATOM     59  C   UNL     1      -3.312   7.371  -6.135  1.00  0.00     0.034 A 
ATOM     60  C   UNL     1       0.602   9.750  -0.849  1.00  0.00     0.034 A 
ATOM     61  C   UNL     1      -3.570   8.736  -5.764  1.00  0.00     0.049 A 
ATOM     62  C   UNL     1      -0.388  10.632  -1.594  1.00  0.00     0.074 A 
ATOM     63  C   UNL     1      -4.438   9.638  -6.356  1.00  0.00     0.029 A 
ATOM     64  N   UNL     1      -2.945   9.405  -4.726  1.00  0.00    -0.354 N 
ATOM     65  N   UNL     1      -1.277  10.305  -2.502  1.00  0.00    -0.248 NA
ATOM     66  C   UNL     1      -0.411  12.063  -1.244  1.00  0.00     0.031 C 
ATOM     67  C   UNL     1      -4.306  10.866  -5.701  1.00  0.00     0.029 A 
ATOM     68  C   UNL     1      -3.393  10.714  -4.671  1.00  0.00     0.049 A 
ATOM     69  H   UNL     1      -2.281   9.010  -4.116  1.00  0.00     0.167 HD
ATOM     70  C   UNL     1      -1.986  11.471  -2.787  1.00  0.00     0.074 A 
ATOM     71  C   UNL     1      -1.472  12.497  -1.909  1.00  0.00     0.031 C 
ATOM     72  C   UNL     1      -2.943  11.696  -3.722  1.00  0.00     0.034 A 
BRANCH  59  73
ATOM     73  C   UNL     1      -4.010   6.831  -7.355  1.00  0.00     0.023 A 
ATOM     74  C   UNL     1      -5.052   5.893  -7.212  1.00  0.00     0.012 A 
ATOM     75  C   UNL     1      -3.678   7.308  -8.638  1.00  0.00     0.148 A 
ATOM     76  C   UNL     1      -5.731   5.414  -8.331  1.00  0.00     0.002 A 
ATOM     77  C   UNL     1      -4.393   6.864  -9.743  1.00  0.00     0.091 A 
ATOM     78  F   UNL     1      -2.671   8.186  -8.753  1.00  0.00    -0.205 F 
ATOM     79  C   UNL     1      -5.410   5.907  -9.593  1.00  0.00     0.022 A 
BRANCH  77  80
ATOM     80  S   UNL     1      -4.115   7.502 -11.398  1.00  0.00     0.127 S 
ATOM     81  O   UNL     1      -3.559   6.331 -12.075  1.00  0.00    -0.237 OA
ATOM     82  O   UNL     1      -5.469   7.864 -11.817  1.00  0.00    -0.237 OA
ATOM     83  O   UNL     1      -3.202   8.627 -11.250  1.00  0.00    -0.744 OA
ENDBRANCH  77  80
ENDBRANCH  59  73
BRANCH  60  84
ATOM     84  C   UNL     1       1.470  10.341   0.228  1.00  0.00     0.023 A 
ATOM     85  C   UNL     1       0.872  11.069   1.276  1.00  0.00     0.012 A 
ATOM     86  C   UNL     1       2.876  10.242   0.216  1.00  0.00     0.148 A 
ATOM     87  C   UNL     1       1.639  11.738   2.232  1.00  0.00     0.002 A 
ATOM     88  C   UNL     1       3.630  10.816   1.239  1.00  0.00     0.091 A 
ATOM     89  F   UNL     1       3.459   9.586  -0.796  1.00  0.00    -0.205 F 
ATOM     90  C   UNL     1       3.016  11.587   2.233  1.00  0.00     0.022 A 
BRANCH  88  91
ATOM     91  S   UNL     1       5.405  10.597   1.387  1.00  0.00     0.127 S 
ATOM     92  O   UNL     1       5.878  11.981   1.404  1.00  0.00    -0.237 OA
ATOM     93  O   UNL     1       5.511   9.897   2.666  1.00  0.00    -0.237 OA
ATOM     94  O   UNL     1       5.807   9.821   0.223  1.00  0.00    -0.744 OA
ENDBRANCH  88  91
ENDBRANCH  60  84
BRANCH  72  95
ATOM     95  C   UNL     1      -3.548  13.079  -3.801  1.00  0.00     0.023 A 
ATOM     96  C   UNL     1      -2.770  14.169  -4.245  1.00  0.00     0.012 A 
ATOM     97  C   UNL     1      -4.908  13.287  -3.494  1.00  0.00     0.148 A 
ATOM     98  C   UNL     1      -3.319  15.448  -4.331  1.00  0.00     0.002 A 
ATOM     99  C   UNL     1      -5.464  14.553  -3.640  1.00  0.00     0.091 A 
ATOM    100  F   UNL     1      -5.633  12.244  -3.065  1.00  0.00    -0.205 F 
ATOM    101  C   UNL     1      -4.667  15.638  -4.040  1.00  0.00     0.022 A 
BRANCH  99 102
ATOM    102  S   UNL     1      -7.213  14.877  -3.389  1.00  0.00     0.127 S 
ATOM    103  O   UNL     1      -7.194  15.693  -2.176  1.00  0.00    -0.237 OA
ATOM    104  O   UNL     1      -7.569  15.604  -4.608  1.00  0.00    -0.237 OA
ATOM    105  O   UNL     1      -7.850  13.574  -3.253  1.00  0.00    -0.744 OA
ENDBRANCH  99 102
ENDBRANCH  72  95
ENDBRANCH  46  47
ENDBRANCH  39  41
ENDBRANCH  38  39
ENDBRANCH  37  38
ENDBRANCH  36  37
ENDBRANCH  35  36
ENDBRANCH  34  35
ENDBRANCH   1  34
TORSDOF 25
