REMARK SMILES O=C(COc1ccc(Br)cc1/C=C1\C(=O)Nc2ccc(Br)cc21)OCCOCCOCCOC(=O)c1ccc(-c2c3nc(c(-c4cccc(S(=O)(=O)[O-])c4F)c4ccc([nH]4)c(-c4cccc(S(=O)(=O)[O-])c4F)c4nc(c(-c5cccc(S(=O)(=O)[O-])c5F)c5ccc2[nH]5)C=C4)C=C3)cc1
REMARK SMILES IDX 28 1 27 2 26 3 25 4 24 5 2 6 1 7 3 8 4 9 5 10 6 11 11 12
REMARK SMILES IDX 7 13 10 14 8 15 9 16 12 17 13 18 14 19 23 20 15 21 16 22
REMARK SMILES IDX 17 23 22 24 18 26 20 27 19 28 21 29 29 30 30 31 31 32 32 33
REMARK SMILES IDX 33 34 34 35 35 36 36 37 37 38 98 39 38 40 97 41 39 42 40 43
REMARK SMILES IDX 41 44 91 45 42 46 96 47 90 48 92 49 43 50 95 51 89 52 88 53
REMARK SMILES IDX 44 55 76 56 56 57 75 58 57 59 60 60 74 61 93 62 58 63 59 64
REMARK SMILES IDX 73 66 94 67 61 68 45 69 46 70 54 71 47 72 49 73 55 74 48 75
REMARK SMILES IDX 50 76 51 77 52 78 53 79 77 80 78 81 86 82 79 83 81 84 87 85
REMARK SMILES IDX 80 86 82 87 83 88 84 89 85 90 62 91 63 92 71 93 64 94 66 95
REMARK SMILES IDX 72 96 65 97 67 98 68 99 69 100 70 101
REMARK H PARENT 16 25 92 54 60 65
REMARK Flexibility Score: inf
ROOT
ATOM      1  C   UNL     1       3.710   1.629   1.440  1.00  0.00     0.188 C 
ENDROOT
BRANCH   1   2
ATOM      2  O   UNL     1       4.954   1.546   0.757  1.00  0.00    -0.376 OA
BRANCH   2   3
ATOM      3  C   UNL     1       5.356   0.264   0.313  1.00  0.00     0.202 C 
BRANCH   3   4
ATOM      4  C   UNL     1       4.576  -0.194  -0.914  1.00  0.00     0.261 C 
BRANCH   4   5
ATOM      5  O   UNL     1       3.161  -0.380  -0.694  1.00  0.00    -0.461 OA
BRANCH   5   6
ATOM      6  C   UNL     1       2.593  -1.240   0.182  1.00  0.00     0.344 C 
ATOM      7  O   UNL     1       1.395  -1.135   0.440  1.00  0.00    -0.248 OA
BRANCH   6   8
ATOM      8  C   UNL     1       3.467  -2.294   0.859  1.00  0.00     0.351 C 
BRANCH   8   9
ATOM      9  O   UNL     1       4.420  -2.979   0.031  1.00  0.00    -0.481 OA
BRANCH   9  10
ATOM     10  C   UNL     1       3.736  -3.979  -0.634  1.00  0.00     0.127 A 
ATOM     11  C   UNL     1       2.930  -3.584  -1.717  1.00  0.00     0.048 A 
ATOM     12  C   UNL     1       3.679  -5.272  -0.085  1.00  0.00     0.018 A 
ATOM     13  C   UNL     1       1.894  -4.401  -2.139  1.00  0.00     0.019 A 
ATOM     14  C   UNL     1       2.552  -6.015  -0.461  1.00  0.00     0.027 A 
ATOM     15  C   UNL     1       1.678  -5.594  -1.470  1.00  0.00     0.018 A 
ATOM     16  Br  UNL     1       0.174  -6.653  -1.904  1.00  0.00    -0.051 Br
BRANCH  12  17
ATOM     17  C   UNL     1       4.684  -5.733   0.922  1.00  0.00     0.026 C 
ATOM     18  C   UNL     1       4.854  -6.958   1.463  1.00  0.00     0.050 C 
ATOM     19  C   UNL     1       3.982  -8.161   1.244  1.00  0.00     0.256 C 
ATOM     20  C   UNL     1       5.560  -7.226   2.727  1.00  0.00     0.012 A 
ATOM     21  O   UNL     1       3.618  -8.646   0.190  1.00  0.00    -0.269 OA
ATOM     22  N   UNL     1       3.777  -8.658   2.517  1.00  0.00    -0.321 N 
ATOM     23  C   UNL     1       4.735  -8.148   3.390  1.00  0.00     0.049 A 
ATOM     24  C   UNL     1       6.779  -6.875   3.275  1.00  0.00     0.026 A 
ATOM     25  H   UNL     1       3.059  -9.282   2.770  1.00  0.00     0.170 HD
ATOM     26  C   UNL     1       4.974  -8.592   4.670  1.00  0.00     0.028 A 
ATOM     27  C   UNL     1       7.090  -7.403   4.538  1.00  0.00     0.018 A 
ATOM     28  C   UNL     1       6.177  -8.202   5.255  1.00  0.00     0.018 A 
ATOM     29  Br  UNL     1       8.811  -7.111   5.276  1.00  0.00    -0.051 Br
ENDBRANCH  12  17
ENDBRANCH   9  10
ENDBRANCH   8   9
ENDBRANCH   6   8
ENDBRANCH   5   6
ENDBRANCH   4   5
ENDBRANCH   3   4
ENDBRANCH   2   3
ENDBRANCH   1   2
BRANCH   1  30
ATOM     30  C   UNL     1       2.678   2.504   0.706  1.00  0.00     0.188 C 
BRANCH  30  31
ATOM     31  O   UNL     1       3.091   3.680   0.010  1.00  0.00    -0.376 OA
BRANCH  31  32
ATOM     32  C   UNL     1       4.311   4.322   0.345  1.00  0.00     0.202 C 
BRANCH  32  33
ATOM     33  C   UNL     1       4.342   5.109   1.659  1.00  0.00     0.261 C 
BRANCH  33  34
ATOM     34  O   UNL     1       4.097   4.308   2.826  1.00  0.00    -0.460 OA
BRANCH  34  35
ATOM     35  C   UNL     1       2.862   4.434   3.376  1.00  0.00     0.338 C 
ATOM     36  O   UNL     1       1.980   5.193   3.010  1.00  0.00    -0.246 OA
BRANCH  35  37
ATOM     37  C   UNL     1       2.655   3.394   4.416  1.00  0.00     0.060 A 
ATOM     38  C   UNL     1       3.655   3.043   5.327  1.00  0.00     0.016 A 
ATOM     39  C   UNL     1       1.401   2.771   4.486  1.00  0.00     0.016 A 
ATOM     40  C   UNL     1       3.378   2.108   6.335  1.00  0.00     0.010 A 
ATOM     41  C   UNL     1       1.127   1.837   5.492  1.00  0.00     0.010 A 
ATOM     42  C   UNL     1       2.103   1.519   6.445  1.00  0.00    -0.014 A 
BRANCH  42  43
ATOM     43  C   UNL     1       1.744   0.756   7.670  1.00  0.00     0.031 A 
ATOM     44  C   UNL     1       1.631  -0.740   7.701  1.00  0.00     0.074 A 
ATOM     45  C   UNL     1       1.482   1.456   8.793  1.00  0.00     0.049 A 
ATOM     46  N   UNL     1       1.482  -1.520   8.741  1.00  0.00    -0.248 NA
ATOM     47  C   UNL     1       1.678  -1.455   6.417  1.00  0.00     0.031 C 
ATOM     48  C   UNL     1       1.455   2.917   8.881  1.00  0.00     0.029 A 
ATOM     49  N   UNL     1       1.192   1.039  10.069  1.00  0.00    -0.354 N 
ATOM     50  C   UNL     1       1.417  -2.816   8.247  1.00  0.00     0.074 A 
ATOM     51  C   UNL     1       1.526  -2.718   6.806  1.00  0.00     0.031 C 
ATOM     52  C   UNL     1       1.195   3.275  10.148  1.00  0.00     0.029 A 
ATOM     53  C   UNL     1       1.038   2.072  10.962  1.00  0.00     0.049 A 
ATOM     54  H   UNL     1       1.102   0.091  10.319  1.00  0.00     0.167 HD
ATOM     55  C   UNL     1       1.309  -3.975   8.937  1.00  0.00     0.034 A 
ATOM     56  C   UNL     1       0.828   2.065  12.293  1.00  0.00     0.034 A 
ATOM     57  C   UNL     1       1.236  -4.078  10.372  1.00  0.00     0.049 A 
ATOM     58  C   UNL     1       0.765   0.764  13.037  1.00  0.00     0.074 A 
ATOM     59  C   UNL     1       1.245  -5.228  11.146  1.00  0.00     0.029 A 
ATOM     60  N   UNL     1       1.128  -3.011  11.246  1.00  0.00    -0.354 N 
ATOM     61  N   UNL     1       0.915  -0.452  12.573  1.00  0.00    -0.248 NA
ATOM     62  C   UNL     1       0.543   0.830  14.490  1.00  0.00     0.031 C 
ATOM     63  C   UNL     1       1.139  -4.856  12.488  1.00  0.00     0.029 A 
ATOM     64  C   UNL     1       1.062  -3.475  12.549  1.00  0.00     0.049 A 
ATOM     65  H   UNL     1       1.101  -2.063  10.981  1.00  0.00     0.167 HD
ATOM     66  C   UNL     1       0.833  -1.292  13.677  1.00  0.00     0.074 A 
ATOM     67  C   UNL     1       0.627  -0.449  14.836  1.00  0.00     0.031 C 
ATOM     68  C   UNL     1       0.912  -2.643  13.712  1.00  0.00     0.034 A 
BRANCH  55  69
ATOM     69  C   UNL     1       1.379  -5.273   8.184  1.00  0.00     0.023 A 
ATOM     70  C   UNL     1       2.654  -5.809   7.916  1.00  0.00     0.012 A 
ATOM     71  C   UNL     1       0.230  -6.049   7.940  1.00  0.00     0.148 A 
ATOM     72  C   UNL     1       2.788  -7.107   7.431  1.00  0.00     0.002 A 
ATOM     73  C   UNL     1       0.373  -7.348   7.464  1.00  0.00     0.091 A 
ATOM     74  F   UNL     1      -0.971  -5.513   8.199  1.00  0.00    -0.205 F 
ATOM     75  C   UNL     1       1.650  -7.879   7.215  1.00  0.00     0.022 A 
BRANCH  73  76
ATOM     76  S   UNL     1      -1.025  -8.448   7.213  1.00  0.00     0.127 S 
ATOM     77  O   UNL     1      -1.124  -8.459   5.754  1.00  0.00    -0.237 OA
ATOM     78  O   UNL     1      -0.544  -9.701   7.797  1.00  0.00    -0.237 OA
ATOM     79  O   UNL     1      -2.144  -7.839   7.917  1.00  0.00    -0.744 OA
ENDBRANCH  73  76
ENDBRANCH  55  69
BRANCH  56  80
ATOM     80  C   UNL     1       0.789   3.362  13.018  1.00  0.00     0.023 A 
ATOM     81  C   UNL     1       1.928   3.774  13.735  1.00  0.00     0.012 A 
ATOM     82  C   UNL     1      -0.324   4.217  12.928  1.00  0.00     0.148 A 
ATOM     83  C   UNL     1       1.958   5.020  14.359  1.00  0.00     0.002 A 
ATOM     84  C   UNL     1      -0.273   5.472  13.521  1.00  0.00     0.091 A 
ATOM     85  F   UNL     1      -1.391   3.796  12.236  1.00  0.00    -0.205 F 
ATOM     86  C   UNL     1       0.863   5.872  14.244  1.00  0.00     0.022 A 
BRANCH  84  87
ATOM     87  S   UNL     1      -1.590   6.681  13.349  1.00  0.00     0.127 S 
ATOM     88  O   UNL     1      -2.019   6.854  14.735  1.00  0.00    -0.237 OA
ATOM     89  O   UNL     1      -0.872   7.821  12.779  1.00  0.00    -0.237 OA
ATOM     90  O   UNL     1      -2.573   6.075  12.462  1.00  0.00    -0.744 OA
ENDBRANCH  84  87
ENDBRANCH  56  80
BRANCH  68  91
ATOM     91  C   UNL     1       0.788  -3.339  15.040  1.00  0.00     0.023 A 
ATOM     92  C   UNL     1      -0.491  -3.548  15.589  1.00  0.00     0.012 A 
ATOM     93  C   UNL     1       1.914  -3.921  15.655  1.00  0.00     0.148 A 
ATOM     94  C   UNL     1      -0.649  -4.329  16.733  1.00  0.00     0.002 A 
ATOM     95  C   UNL     1       1.746  -4.725  16.776  1.00  0.00     0.091 A 
ATOM     96  F   UNL     1       3.120  -3.704  15.111  1.00  0.00    -0.205 F 
ATOM     97  C   UNL     1       0.465  -4.927  17.319  1.00  0.00     0.022 A 
BRANCH  95  98
ATOM     98  S   UNL     1       3.105  -5.605  17.556  1.00  0.00     0.127 S 
ATOM     99  O   UNL     1       3.137  -4.990  18.883  1.00  0.00    -0.237 OA
ATOM    100  O   UNL     1       2.628  -6.988  17.535  1.00  0.00    -0.237 OA
ATOM    101  O   UNL     1       4.278  -5.351  16.731  1.00  0.00    -0.744 OA
ENDBRANCH  95  98
ENDBRANCH  68  91
ENDBRANCH  42  43
ENDBRANCH  35  37
ENDBRANCH  34  35
ENDBRANCH  33  34
ENDBRANCH  32  33
ENDBRANCH  31  32
ENDBRANCH  30  31
ENDBRANCH   1  30
TORSDOF 23
