REMARK SMILES CC[NH+]1CCN(c2ccc(NS(=O)(=O)c3cccc(F)c3)cc2C(=O)OCCOCCOCCOC(=O)c2ccc(-c3c4nc(c(-c5cccc(S(=O)(=O)[O-])c5F)c5ccc([nH]5)c(-c5cccc(S(=O)(=O)[O-])c5F)c5nc(c(-c6cccc(S(=O)(=O)[O-])c6F)c6ccc3[nH]6)C=C5)C=C4)cc2)CC1
REMARK SMILES IDX 30 1 29 2 28 3 27 4 26 5 24 6 25 7 23 8 7 9 8 10 9 11 22 12
REMARK SMILES IDX 10 13 6 14 3 15 4 16 102 17 5 19 101 20 2 21 1 22 11 23
REMARK SMILES IDX 12 25 13 26 14 27 15 28 16 29 21 30 17 31 19 32 18 33 20 34
REMARK SMILES IDX 31 35 32 36 33 37 34 38 35 39 36 40 37 41 38 42 39 43 100 44
REMARK SMILES IDX 40 45 99 46 41 47 42 48 43 49 93 50 44 51 98 52 92 53 94 54
REMARK SMILES IDX 45 55 97 56 91 57 90 58 46 60 78 61 58 62 77 63 59 64 62 65
REMARK SMILES IDX 76 66 95 67 60 68 61 69 75 71 96 72 63 73 47 74 48 75 56 76
REMARK SMILES IDX 49 77 51 78 57 79 50 80 52 81 53 82 54 83 55 84 79 85 80 86
REMARK SMILES IDX 88 87 81 88 83 89 89 90 82 91 84 92 85 93 86 94 87 95 64 96
REMARK SMILES IDX 65 97 73 98 66 99 68 100 74 101 67 102 69 103 70 104 71 105
REMARK SMILES IDX 72 106
REMARK H PARENT 3 18 11 24 94 59 62 70
REMARK Flexibility Score: inf
ROOT
ATOM      1  C   UNL     1       4.487   3.835  -5.106  1.00  0.00     0.188 C 
ENDROOT
BRANCH   1   2
ATOM      2  O   UNL     1       4.540   2.487  -5.576  1.00  0.00    -0.376 OA
BRANCH   2   3
ATOM      3  C   UNL     1       4.424   1.438  -4.612  1.00  0.00     0.202 C 
BRANCH   3   4
ATOM      4  C   UNL     1       5.331   1.554  -3.385  1.00  0.00     0.261 C 
BRANCH   4   5
ATOM      5  O   UNL     1       4.847   2.612  -2.541  1.00  0.00    -0.460 OA
BRANCH   5   6
ATOM      6  C   UNL     1       5.705   3.085  -1.606  1.00  0.00     0.340 C 
ATOM      7  O   UNL     1       6.787   2.625  -1.323  1.00  0.00    -0.246 OA
BRANCH   6   8
ATOM      8  C   UNL     1       5.187   4.385  -1.098  1.00  0.00     0.085 A 
ATOM      9  C   UNL     1       3.886   4.607  -0.567  1.00  0.00     0.052 A 
ATOM     10  C   UNL     1       3.591   5.959  -0.281  1.00  0.00     0.029 A 
ATOM     11  C   UNL     1       4.452   7.016  -0.584  1.00  0.00     0.029 A 
ATOM     12  C   UNL     1       6.098   5.454  -1.325  1.00  0.00     0.044 A 
ATOM     13  C   UNL     1       5.714   6.768  -1.093  1.00  0.00     0.050 A 
BRANCH   9  14
ATOM     14  N   UNL     1       2.892   3.658  -0.357  1.00  0.00    -0.360 N 
ATOM     15  N   UNL     1       0.768   1.625  -0.866  1.00  0.00    -0.332 N 
ATOM     16  C   UNL     1       0.535   3.074  -1.053  1.00  0.00     0.283 C 
ATOM     17  C   UNL     1       2.220   1.379  -1.031  1.00  0.00     0.283 C 
ATOM     18  H   UNL     1       0.272   1.076  -1.568  1.00  0.00     0.348 HD
ATOM     19  C   UNL     1       1.459   4.035  -0.258  1.00  0.00     0.178 C 
ATOM     20  C   UNL     1       3.125   2.228  -0.105  1.00  0.00     0.178 C 
BRANCH  15  21
ATOM     21  C   UNL     1       0.219   1.157   0.410  1.00  0.00     0.258 C 
ATOM     22  C   UNL     1       0.397  -0.343   0.617  1.00  0.00     0.071 C 
ENDBRANCH  15  21
ENDBRANCH   9  14
BRANCH  13  23
ATOM     23  N   UNL     1       6.566   7.881  -1.388  1.00  0.00    -0.280 N 
ATOM     24  H   UNL     1       6.664   8.205  -2.312  1.00  0.00     0.180 HD
BRANCH  23  25
ATOM     25  S   UNL     1       7.409   8.637  -0.110  1.00  0.00     0.261 S 
ATOM     26  O   UNL     1       8.480   7.745   0.279  1.00  0.00    -0.201 OA
ATOM     27  O   UNL     1       7.691   9.989  -0.541  1.00  0.00    -0.201 OA
BRANCH  25  28
ATOM     28  C   UNL     1       6.278   8.735   1.256  1.00  0.00     0.090 A 
ATOM     29  C   UNL     1       5.525   9.896   1.472  1.00  0.00     0.022 A 
ATOM     30  C   UNL     1       6.176   7.646   2.127  1.00  0.00     0.061 A 
ATOM     31  C   UNL     1       4.624   9.944   2.539  1.00  0.00     0.004 A 
ATOM     32  C   UNL     1       5.265   7.705   3.170  1.00  0.00     0.124 A 
ATOM     33  C   UNL     1       4.487   8.839   3.383  1.00  0.00     0.039 A 
ATOM     34  F   UNL     1       5.122   6.648   3.980  1.00  0.00    -0.207 F 
ENDBRANCH  25  28
ENDBRANCH  23  25
ENDBRANCH  13  23
ENDBRANCH   6   8
ENDBRANCH   5   6
ENDBRANCH   4   5
ENDBRANCH   3   4
ENDBRANCH   2   3
ENDBRANCH   1   2
BRANCH   1  35
ATOM     35  C   UNL     1       3.219   4.263  -4.341  1.00  0.00     0.188 C 
BRANCH  35  36
ATOM     36  O   UNL     1       2.227   3.263  -4.313  1.00  0.00    -0.376 OA
BRANCH  36  37
ATOM     37  C   UNL     1       1.125   3.315  -5.194  1.00  0.00     0.202 C 
BRANCH  37  38
ATOM     38  C   UNL     1       1.210   3.804  -6.649  1.00  0.00     0.261 C 
BRANCH  38  39
ATOM     39  O   UNL     1       2.257   4.710  -6.990  1.00  0.00    -0.460 OA
BRANCH  39  40
ATOM     40  C   UNL     1       2.038   6.027  -6.774  1.00  0.00     0.338 C 
ATOM     41  O   UNL     1       1.060   6.537  -6.260  1.00  0.00    -0.246 OA
BRANCH  40  42
ATOM     42  C   UNL     1       3.304   6.725  -7.087  1.00  0.00     0.060 A 
ATOM     43  C   UNL     1       3.894   7.537  -6.109  1.00  0.00     0.016 A 
ATOM     44  C   UNL     1       3.926   6.534  -8.325  1.00  0.00     0.016 A 
ATOM     45  C   UNL     1       5.098   8.188  -6.383  1.00  0.00     0.010 A 
ATOM     46  C   UNL     1       5.119   7.198  -8.602  1.00  0.00     0.010 A 
ATOM     47  C   UNL     1       5.692   8.051  -7.645  1.00  0.00    -0.014 A 
BRANCH  47  48
ATOM     48  C   UNL     1       6.787   8.956  -8.059  1.00  0.00     0.031 A 
ATOM     49  C   UNL     1       6.412  10.219  -8.784  1.00  0.00     0.074 A 
ATOM     50  C   UNL     1       8.077   8.640  -7.851  1.00  0.00     0.049 A 
ATOM     51  N   UNL     1       7.181  11.126  -9.323  1.00  0.00    -0.248 NA
ATOM     52  C   UNL     1       4.970  10.489  -8.926  1.00  0.00     0.031 C 
ATOM     53  C   UNL     1       8.556   7.441  -7.166  1.00  0.00     0.029 A 
ATOM     54  N   UNL     1       9.222   9.293  -8.232  1.00  0.00    -0.354 N 
ATOM     55  C   UNL     1       6.321  12.060  -9.886  1.00  0.00     0.074 A 
ATOM     56  C   UNL     1       4.971  11.609  -9.633  1.00  0.00     0.031 C 
ATOM     57  C   UNL     1       9.901   7.428  -7.204  1.00  0.00     0.029 A 
ATOM     58  C   UNL     1      10.374   8.603  -7.934  1.00  0.00     0.049 A 
ATOM     59  H   UNL     1       9.220  10.171  -8.676  1.00  0.00     0.167 HD
ATOM     60  C   UNL     1       6.627  13.203 -10.542  1.00  0.00     0.034 A 
ATOM     61  C   UNL     1      11.657   8.885  -8.238  1.00  0.00     0.034 A 
ATOM     62  C   UNL     1       7.967  13.650 -10.789  1.00  0.00     0.049 A 
ATOM     63  C   UNL     1      11.970  10.152  -8.995  1.00  0.00     0.074 A 
ATOM     64  C   UNL     1       8.386  14.803 -11.428  1.00  0.00     0.029 A 
ATOM     65  N   UNL     1       9.109  12.959 -10.414  1.00  0.00    -0.354 N 
ATOM     66  N   UNL     1      11.152  11.086  -9.419  1.00  0.00    -0.248 NA
ATOM     67  C   UNL     1      13.386  10.420  -9.291  1.00  0.00     0.031 C 
ATOM     68  C   UNL     1       9.785  14.803 -11.448  1.00  0.00     0.029 A 
ATOM     69  C   UNL     1      10.234  13.659 -10.808  1.00  0.00     0.049 A 
ATOM     70  H   UNL     1       9.117  12.098  -9.937  1.00  0.00     0.167 HD
ATOM     71  C   UNL     1      11.954  12.069  -9.990  1.00  0.00     0.074 A 
ATOM     72  C   UNL     1      13.324  11.622  -9.849  1.00  0.00     0.031 C 
ATOM     73  C   UNL     1      11.591  13.230 -10.590  1.00  0.00     0.034 A 
BRANCH  60  74
ATOM     74  C   UNL     1       5.483  14.061 -11.005  1.00  0.00     0.023 A 
ATOM     75  C   UNL     1       4.763  14.819 -10.059  1.00  0.00     0.012 A 
ATOM     76  C   UNL     1       5.141  14.146 -12.368  1.00  0.00     0.148 A 
ATOM     77  C   UNL     1       3.702  15.630 -10.459  1.00  0.00     0.002 A 
ATOM     78  C   UNL     1       4.106  14.986 -12.764  1.00  0.00     0.091 A 
ATOM     79  F   UNL     1       5.817  13.393 -13.246  1.00  0.00    -0.205 F 
ATOM     80  C   UNL     1       3.381  15.721 -11.811  1.00  0.00     0.022 A 
BRANCH  78  81
ATOM     81  S   UNL     1       3.659  15.220 -14.487  1.00  0.00     0.127 S 
ATOM     82  O   UNL     1       2.398  14.484 -14.567  1.00  0.00    -0.237 OA
ATOM     83  O   UNL     1       3.523  16.674 -14.577  1.00  0.00    -0.237 OA
ATOM     84  O   UNL     1       4.759  14.665 -15.264  1.00  0.00    -0.744 OA
ENDBRANCH  78  81
ENDBRANCH  60  74
BRANCH  61  85
ATOM     85  C   UNL     1      12.752   7.978  -7.790  1.00  0.00     0.023 A 
ATOM     86  C   UNL     1      13.642   8.415  -6.790  1.00  0.00     0.012 A 
ATOM     87  C   UNL     1      12.917   6.692  -8.340  1.00  0.00     0.148 A 
ATOM     88  C   UNL     1      14.695   7.602  -6.367  1.00  0.00     0.002 A 
ATOM     89  C   UNL     1      13.938   5.867  -7.880  1.00  0.00     0.091 A 
ATOM     90  F   UNL     1      12.075   6.301  -9.307  1.00  0.00    -0.205 F 
ATOM     91  C   UNL     1      14.837   6.326  -6.905  1.00  0.00     0.022 A 
BRANCH  89  92
ATOM     92  S   UNL     1      14.123   4.169  -8.435  1.00  0.00     0.127 S 
ATOM     93  O   UNL     1      15.274   4.268  -9.327  1.00  0.00    -0.237 OA
ATOM     94  O   UNL     1      14.375   3.462  -7.179  1.00  0.00    -0.237 OA
ATOM     95  O   UNL     1      12.855   3.828  -9.067  1.00  0.00    -0.744 OA
ENDBRANCH  89  92
ENDBRANCH  61  85
BRANCH  73  96
ATOM     96  C   UNL     1      12.683  14.133 -11.098  1.00  0.00     0.023 A 
ATOM     97  C   UNL     1      13.366  13.805 -12.285  1.00  0.00     0.012 A 
ATOM     98  C   UNL     1      12.952  15.360 -10.459  1.00  0.00     0.148 A 
ATOM     99  C   UNL     1      14.316  14.675 -12.817  1.00  0.00     0.002 A 
ATOM    100  C   UNL     1      13.868  16.242 -11.019  1.00  0.00     0.091 A 
ATOM    101  F   UNL     1      12.303  15.644  -9.320  1.00  0.00    -0.205 F 
ATOM    102  C   UNL     1      14.557  15.898 -12.193  1.00  0.00     0.022 A 
BRANCH 100 103
ATOM    103  S   UNL     1      14.166  17.877 -10.338  1.00  0.00     0.127 S 
ATOM    104  O   UNL     1      15.476  17.705  -9.712  1.00  0.00    -0.237 OA
ATOM    105  O   UNL     1      14.169  18.719 -11.535  1.00  0.00    -0.237 OA
ATOM    106  O   UNL     1      13.063  18.137  -9.422  1.00  0.00    -0.744 OA
ENDBRANCH 100 103
ENDBRANCH  73  96
ENDBRANCH  47  48
ENDBRANCH  40  42
ENDBRANCH  39  40
ENDBRANCH  38  39
ENDBRANCH  37  38
ENDBRANCH  36  37
ENDBRANCH  35  36
ENDBRANCH   1  35
TORSDOF 25
