REMARK SMILES C/C(=N\NC(N)=S)c1nnn(-c2ccc(C(=O)OCCOCCOCCOC(=O)c3ccc(-c4c5nc(c(-c6cccc(S(=O)(=O)[O-])c6F)c6ccc([nH]6)c(-c6cccc(S(=O)(=O)[O-])c6F)c6nc(c(-c7cccc(S(=O)(=O)[O-])c7F)c7ccc4[nH]7)C=C6)C=C5)cc3)cc2)c1C
REMARK SMILES IDX 22 1 21 2 20 3 19 4 18 5 16 6 17 7 15 8 12 9 13 10 94 11
REMARK SMILES IDX 14 12 93 13 11 14 8 15 9 16 95 17 10 18 96 19 2 20 1 21 3 22
REMARK SMILES IDX 4 23 5 25 7 26 6 27 23 30 24 31 25 32 26 33 27 34 28 35
REMARK SMILES IDX 29 36 30 37 31 38 92 39 32 40 91 41 33 42 34 43 35 44 85 45
REMARK SMILES IDX 36 46 90 47 84 48 86 49 37 50 89 51 83 52 82 53 38 55 70 56
REMARK SMILES IDX 50 57 69 58 51 59 54 60 68 61 87 62 52 63 53 64 67 66 88 67
REMARK SMILES IDX 55 68 39 69 40 70 48 71 41 72 43 73 49 74 42 75 44 76 45 77
REMARK SMILES IDX 46 78 47 79 71 80 72 81 80 82 73 83 75 84 81 85 74 86 76 87
REMARK SMILES IDX 77 88 78 89 79 90 56 91 57 92 65 93 58 94 60 95 66 96 59 97
REMARK SMILES IDX 61 98 62 99 63 100 64 101
REMARK H PARENT 4 24 6 28 6 29 86 54 54 65
REMARK Flexibility Score: inf
ROOT
ATOM      1  C   UNL     1       7.284  -8.816   1.966  1.00  0.00     0.188 C 
ENDROOT
BRANCH   1   2
ATOM      2  O   UNL     1       8.606  -9.190   1.595  1.00  0.00    -0.376 OA
BRANCH   2   3
ATOM      3  C   UNL     1       9.672  -8.256   1.715  1.00  0.00     0.202 C 
BRANCH   3   4
ATOM      4  C   UNL     1       9.548  -6.877   1.046  1.00  0.00     0.261 C 
BRANCH   4   5
ATOM      5  O   UNL     1       8.360  -6.150   1.394  1.00  0.00    -0.460 OA
BRANCH   5   6
ATOM      6  C   UNL     1       7.474  -5.947   0.396  1.00  0.00     0.338 C 
ATOM      7  O   UNL     1       7.630  -6.197  -0.793  1.00  0.00    -0.246 OA
BRANCH   6   8
ATOM      8  C   UNL     1       6.181  -5.481   0.943  1.00  0.00     0.060 A 
ATOM      9  C   UNL     1       3.716  -4.458   1.700  1.00  0.00     0.067 A 
ATOM     10  C   UNL     1       3.763  -5.473   0.740  1.00  0.00     0.029 A 
ATOM     11  C   UNL     1       4.871  -4.061   2.386  1.00  0.00     0.029 A 
ATOM     12  C   UNL     1       5.005  -5.960   0.343  1.00  0.00     0.018 A 
ATOM     13  C   UNL     1       6.109  -4.582   2.013  1.00  0.00     0.018 A 
BRANCH   9  14
ATOM     14  N   UNL     1       2.547  -3.671   1.779  1.00  0.00    -0.217 N 
ATOM     15  C   UNL     1       1.125  -2.069   1.381  1.00  0.00     0.132 A 
ATOM     16  N   UNL     1       0.432  -3.237   1.541  1.00  0.00    -0.128 NA
ATOM     17  C   UNL     1       2.478  -2.310   1.515  1.00  0.00     0.071 A 
ATOM     18  N   UNL     1       1.309  -4.214   1.726  1.00  0.00    -0.061 NA
ATOM     19  C   UNL     1       3.645  -1.448   1.209  1.00  0.00     0.069 C 
BRANCH  15  20
ATOM     20  C   UNL     1       0.498  -0.855   0.899  1.00  0.00     0.087 C 
ATOM     21  C   UNL     1       0.296  -0.750  -0.593  1.00  0.00     0.071 C 
ATOM     22  N   UNL     1       0.178   0.024   1.804  1.00  0.00    -0.176 NA
BRANCH  22  23
ATOM     23  N   UNL     1      -0.436   1.180   1.421  1.00  0.00    -0.254 N 
ATOM     24  H   UNL     1      -1.402   1.255   1.599  1.00  0.00     0.193 HD
BRANCH  23  25
ATOM     25  C   UNL     1       0.174   2.255   0.807  1.00  0.00     0.184 C 
ATOM     26  S   UNL     1       1.741   2.400   0.266  1.00  0.00    -0.040 S 
BRANCH  25  27
ATOM     27  N   UNL     1      -0.678   3.309   0.634  1.00  0.00    -0.375 N 
ATOM     28  H   UNL     1      -1.610   3.245   0.946  1.00  0.00     0.159 HD
ATOM     29  H   UNL     1      -0.361   4.131   0.196  1.00  0.00     0.159 HD
ENDBRANCH  25  27
ENDBRANCH  23  25
ENDBRANCH  22  23
ENDBRANCH  15  20
ENDBRANCH   9  14
ENDBRANCH   6   8
ENDBRANCH   5   6
ENDBRANCH   4   5
ENDBRANCH   3   4
ENDBRANCH   2   3
ENDBRANCH   1   2
BRANCH   1  30
ATOM     30  C   UNL     1       7.024  -7.999   3.252  1.00  0.00     0.188 C 
BRANCH  30  31
ATOM     31  O   UNL     1       8.183  -7.436   3.846  1.00  0.00    -0.376 OA
BRANCH  31  32
ATOM     32  C   UNL     1       8.541  -7.890   5.144  1.00  0.00     0.202 C 
BRANCH  32  33
ATOM     33  C   UNL     1       8.892  -9.368   5.323  1.00  0.00     0.261 C 
BRANCH  33  34
ATOM     34  O   UNL     1       8.058 -10.276   4.622  1.00  0.00    -0.460 OA
BRANCH  34  35
ATOM     35  C   UNL     1       6.844 -10.491   5.155  1.00  0.00     0.338 C 
ATOM     36  O   UNL     1       6.290  -9.816   6.019  1.00  0.00    -0.246 OA
BRANCH  35  37
ATOM     37  C   UNL     1       6.293 -11.713   4.568  1.00  0.00     0.060 A 
ATOM     38  C   UNL     1       4.931 -11.968   4.745  1.00  0.00     0.016 A 
ATOM     39  C   UNL     1       7.178 -12.692   4.090  1.00  0.00     0.016 A 
ATOM     40  C   UNL     1       4.492 -13.270   4.640  1.00  0.00     0.010 A 
ATOM     41  C   UNL     1       6.744 -13.992   4.006  1.00  0.00     0.010 A 
ATOM     42  C   UNL     1       5.429 -14.272   4.371  1.00  0.00    -0.014 A 
BRANCH  42  43
ATOM     43  C   UNL     1       5.030 -15.644   4.591  1.00  0.00     0.031 A 
ATOM     44  C   UNL     1       4.330 -16.297   3.472  1.00  0.00     0.074 A 
ATOM     45  C   UNL     1       5.399 -16.299   5.709  1.00  0.00     0.049 A 
ATOM     46  N   UNL     1       3.121 -16.752   3.459  1.00  0.00    -0.248 NA
ATOM     47  C   UNL     1       5.027 -16.369   2.181  1.00  0.00     0.031 C 
ATOM     48  C   UNL     1       6.373 -15.855   6.713  1.00  0.00     0.029 A 
ATOM     49  N   UNL     1       5.101 -17.570   6.096  1.00  0.00    -0.354 N 
ATOM     50  C   UNL     1       2.984 -17.372   2.223  1.00  0.00     0.074 A 
ATOM     51  C   UNL     1       4.104 -16.955   1.420  1.00  0.00     0.031 C 
ATOM     52  C   UNL     1       6.773 -16.925   7.434  1.00  0.00     0.029 A 
ATOM     53  C   UNL     1       5.999 -18.083   7.022  1.00  0.00     0.049 A 
ATOM     54  H   UNL     1       4.328 -18.074   5.753  1.00  0.00     0.167 HD
ATOM     55  C   UNL     1       2.101 -18.385   2.028  1.00  0.00     0.034 A 
ATOM     56  C   UNL     1       6.160 -19.387   7.346  1.00  0.00     0.034 A 
ATOM     57  C   UNL     1       1.122 -18.475   3.077  1.00  0.00     0.049 A 
ATOM     58  C   UNL     1       4.946 -20.117   6.912  1.00  0.00     0.074 A 
ATOM     59  C   UNL     1       0.175 -17.628   3.613  1.00  0.00     0.029 A 
ATOM     60  N   UNL     1       1.260 -19.510   3.969  1.00  0.00    -0.354 N 
ATOM     61  N   UNL     1       3.774 -19.988   7.467  1.00  0.00    -0.248 NA
ATOM     62  C   UNL     1       4.950 -20.755   5.605  1.00  0.00     0.031 C 
ATOM     63  C   UNL     1       0.098 -17.975   4.992  1.00  0.00     0.029 A 
ATOM     64  C   UNL     1       0.997 -19.019   5.219  1.00  0.00     0.049 A 
ATOM     65  H   UNL     1       1.503 -20.438   3.748  1.00  0.00     0.167 HD
ATOM     66  C   UNL     1       2.873 -20.124   6.418  1.00  0.00     0.074 A 
ATOM     67  C   UNL     1       3.642 -20.737   5.341  1.00  0.00     0.031 C 
ATOM     68  C   UNL     1       1.679 -19.457   6.420  1.00  0.00     0.034 A 
BRANCH  55  69
ATOM     69  C   UNL     1       2.329 -19.516   1.062  1.00  0.00     0.023 A 
ATOM     70  C   UNL     1       1.224 -20.328   0.732  1.00  0.00     0.012 A 
ATOM     71  C   UNL     1       3.607 -19.971   0.668  1.00  0.00     0.148 A 
ATOM     72  C   UNL     1       1.388 -21.543   0.060  1.00  0.00     0.002 A 
ATOM     73  C   UNL     1       3.754 -21.129  -0.085  1.00  0.00     0.091 A 
ATOM     74  F   UNL     1       4.708 -19.369   1.133  1.00  0.00    -0.205 F 
ATOM     75  C   UNL     1       2.651 -21.936  -0.367  1.00  0.00     0.022 A 
BRANCH  73  76
ATOM     76  S   UNL     1       5.362 -21.604  -0.725  1.00  0.00     0.127 S 
ATOM     77  O   UNL     1       5.828 -22.530   0.300  1.00  0.00    -0.237 OA
ATOM     78  O   UNL     1       5.015 -22.219  -2.007  1.00  0.00    -0.237 OA
ATOM     79  O   UNL     1       6.093 -20.348  -0.852  1.00  0.00    -0.744 OA
ENDBRANCH  73  76
ENDBRANCH  55  69
BRANCH  56  80
ATOM     80  C   UNL     1       7.378 -20.089   7.810  1.00  0.00     0.023 A 
ATOM     81  C   UNL     1       7.251 -21.307   8.504  1.00  0.00     0.012 A 
ATOM     82  C   UNL     1       8.666 -19.699   7.377  1.00  0.00     0.148 A 
ATOM     83  C   UNL     1       8.365 -22.121   8.739  1.00  0.00     0.002 A 
ATOM     84  C   UNL     1       9.774 -20.501   7.633  1.00  0.00     0.091 A 
ATOM     85  F   UNL     1       8.795 -18.592   6.633  1.00  0.00    -0.205 F 
ATOM     86  C   UNL     1       9.625 -21.720   8.303  1.00  0.00     0.022 A 
BRANCH  84  87
ATOM     87  S   UNL     1      11.427 -20.030   7.106  1.00  0.00     0.127 S 
ATOM     88  O   UNL     1      12.239 -20.402   8.267  1.00  0.00    -0.237 OA
ATOM     89  O   UNL     1      11.623 -20.870   5.929  1.00  0.00    -0.237 OA
ATOM     90  O   UNL     1      11.366 -18.594   6.863  1.00  0.00    -0.744 OA
ENDBRANCH  84  87
ENDBRANCH  56  80
BRANCH  68  91
ATOM     91  C   UNL     1       1.202 -18.847   7.716  1.00  0.00     0.023 A 
ATOM     92  C   UNL     1       1.942 -17.852   8.386  1.00  0.00     0.012 A 
ATOM     93  C   UNL     1      -0.093 -19.152   8.175  1.00  0.00     0.148 A 
ATOM     94  C   UNL     1       1.421 -17.201   9.506  1.00  0.00     0.002 A 
ATOM     95  C   UNL     1      -0.628 -18.467   9.261  1.00  0.00     0.091 A 
ATOM     96  F   UNL     1      -0.795 -20.094   7.527  1.00  0.00    -0.205 F 
ATOM     97  C   UNL     1       0.131 -17.499   9.937  1.00  0.00     0.022 A 
BRANCH  95  98
ATOM     98  S   UNL     1      -2.333 -18.710   9.769  1.00  0.00     0.127 S 
ATOM     99  O   UNL     1      -2.195 -19.660  10.870  1.00  0.00    -0.237 OA
ATOM    100  O   UNL     1      -2.744 -17.364  10.173  1.00  0.00    -0.237 OA
ATOM    101  O   UNL     1      -3.026 -19.206   8.585  1.00  0.00    -0.744 OA
ENDBRANCH  95  98
ENDBRANCH  68  91
ENDBRANCH  42  43
ENDBRANCH  35  37
ENDBRANCH  34  35
ENDBRANCH  33  34
ENDBRANCH  32  33
ENDBRANCH  31  32
ENDBRANCH  30  31
ENDBRANCH   1  30
TORSDOF 25
