REMARK SMILES C[C@@H](Oc1ccc(/C=C2\C(=O)[NH+]=C(OCCOCCOCCOC(=O)c3ccc(-c4c5nc(c(-c6cccc(S(=O)(=O)[O-])c6F)c6ccc([nH]6)c(-c6cccc(S(=O)(=O)[O-])c6F)c6nc(c(-c7cccc(S(=O)(=O)[O-])c7F)c7ccc4[nH]7)C=C6)C=C5)cc3)N(c3ccc4c(c3)OCO4)C2=O)cc1)C(=O)[O-]
REMARK SMILES IDX 18 1 17 2 16 3 15 4 14 5 13 6 8 7 9 8 10 9 99 10 11 11 12 12
REMARK SMILES IDX 89 13 100 14 7 16 4 17 5 18 102 19 6 20 101 21 3 22 2 23
REMARK SMILES IDX 1 24 103 25 104 26 105 27 90 28 91 29 95 30 92 31 94 32
REMARK SMILES IDX 93 33 96 34 98 35 97 36 19 37 20 38 21 39 22 40 23 41 24 42
REMARK SMILES IDX 25 43 26 44 27 45 88 46 28 47 87 48 29 49 30 50 31 51 81 52
REMARK SMILES IDX 32 53 86 54 80 55 82 56 33 57 85 58 79 59 78 60 34 62 66 63
REMARK SMILES IDX 46 64 65 65 47 66 50 67 64 68 83 69 48 70 49 71 63 73 84 74
REMARK SMILES IDX 51 75 35 76 36 77 44 78 37 79 39 80 45 81 38 82 40 83 41 84
REMARK SMILES IDX 42 85 43 86 67 87 68 88 76 89 69 90 71 91 77 92 70 93 72 94
REMARK SMILES IDX 73 95 74 96 75 97 52 98 53 99 61 100 54 101 56 102 62 103
REMARK SMILES IDX 55 104 57 105 58 106 59 107 60 108
REMARK H PARENT 12 15 82 61 50 72
REMARK Flexibility Score: inf
ROOT
ATOM      1  C   UNL     1       8.427   5.207   6.095  1.00  0.00     0.188 C 
ENDROOT
BRANCH   1   2
ATOM      2  O   UNL     1       9.477   5.836   5.370  1.00  0.00    -0.376 OA
BRANCH   2   3
ATOM      3  C   UNL     1       9.474   7.261   5.458  1.00  0.00     0.202 C 
BRANCH   3   4
ATOM      4  C   UNL     1       9.976   7.845   4.131  1.00  0.00     0.266 C 
BRANCH   4   5
ATOM      5  O   UNL     1       9.067   7.691   3.007  1.00  0.00    -0.428 OA
BRANCH   5   6
ATOM      6  C   UNL     1       8.427   6.498   2.855  1.00  0.00     0.465 C 
ATOM      7  C   UNL     1       6.363   3.257   1.686  1.00  0.00     0.032 C 
ATOM      8  C   UNL     1       7.051   4.214   2.348  1.00  0.00     0.155 C 
ATOM      9  C   UNL     1       6.529   5.270   3.231  1.00  0.00     0.349 C 
ATOM     10  C   UNL     1       8.531   4.199   2.171  1.00  0.00     0.357 C 
ATOM     11  O   UNL     1       5.650   5.054   4.053  1.00  0.00    -0.240 OA
ATOM     12  N   UNL     1       7.179   6.470   3.173  1.00  0.00    -0.171 N 
ATOM     13  N   UNL     1       9.157   5.416   2.397  1.00  0.00    -0.123 N 
ATOM     14  O   UNL     1       9.103   3.176   1.801  1.00  0.00    -0.240 OA
ATOM     15  H   UNL     1       6.699   7.306   3.374  1.00  0.00     0.319 HD
BRANCH   7  16
ATOM     16  C   UNL     1       4.932   2.914   1.501  1.00  0.00    -0.024 A 
ATOM     17  C   UNL     1       2.272   2.108   0.946  1.00  0.00     0.120 A 
ATOM     18  C   UNL     1       2.528   3.076   1.909  1.00  0.00     0.047 A 
ATOM     19  C   UNL     1       3.326   1.550   0.238  1.00  0.00     0.047 A 
ATOM     20  C   UNL     1       3.847   3.472   2.185  1.00  0.00     0.012 A 
ATOM     21  C   UNL     1       4.640   1.938   0.527  1.00  0.00     0.012 A 
BRANCH  17  22
ATOM     22  O   UNL     1       0.974   1.828   0.629  1.00  0.00    -0.485 OA
BRANCH  22  23
ATOM     23  C   UNL     1       0.543   0.539   1.091  1.00  0.00     0.216 C 
ATOM     24  C   UNL     1       0.655  -0.508  -0.012  1.00  0.00     0.059 C 
BRANCH  23  25
ATOM     25  C   UNL     1      -0.922   0.648   1.496  1.00  0.00     0.082 C 
ATOM     26  O   UNL     1      -1.425   0.194   2.514  1.00  0.00    -0.546 OA
ATOM     27  O   UNL     1      -1.706   1.270   0.588  1.00  0.00    -0.546 OA
ENDBRANCH  23  25
ENDBRANCH  22  23
ENDBRANCH  17  22
ENDBRANCH   7  16
BRANCH  13  28
ATOM     28  C   UNL     1      10.536   5.517   2.054  1.00  0.00     0.144 A 
ATOM     29  C   UNL     1      11.474   4.652   2.667  1.00  0.00     0.056 A 
ATOM     30  C   UNL     1      10.961   6.446   1.093  1.00  0.00     0.103 A 
ATOM     31  C   UNL     1      12.829   4.713   2.337  1.00  0.00     0.055 A 
ATOM     32  C   UNL     1      12.298   6.451   0.758  1.00  0.00     0.170 A 
ATOM     33  C   UNL     1      13.206   5.613   1.366  1.00  0.00     0.166 A 
ATOM     34  O   UNL     1      12.878   7.236  -0.190  1.00  0.00    -0.453 OA
ATOM     35  O   UNL     1      14.466   5.782   0.883  1.00  0.00    -0.454 OA
ATOM     36  C   UNL     1      14.200   6.655  -0.234  1.00  0.00     0.468 C 
ENDBRANCH  13  28
ENDBRANCH   5   6
ENDBRANCH   4   5
ENDBRANCH   3   4
ENDBRANCH   2   3
ENDBRANCH   1   2
BRANCH   1  37
ATOM     37  C   UNL     1       8.585   5.119   7.616  1.00  0.00     0.188 C 
BRANCH  37  38
ATOM     38  O   UNL     1       9.824   5.532   8.174  1.00  0.00    -0.376 OA
BRANCH  38  39
ATOM     39  C   UNL     1      10.986   4.777   7.824  1.00  0.00     0.202 C 
BRANCH  39  40
ATOM     40  C   UNL     1      10.923   3.278   8.126  1.00  0.00     0.261 C 
BRANCH  40  41
ATOM     41  O   UNL     1      10.599   2.544   6.928  1.00  0.00    -0.460 OA
BRANCH  41  42
ATOM     42  C   UNL     1       9.505   1.751   6.981  1.00  0.00     0.338 C 
ATOM     43  O   UNL     1       8.708   1.655   7.898  1.00  0.00    -0.246 OA
BRANCH  42  44
ATOM     44  C   UNL     1       9.358   1.020   5.709  1.00  0.00     0.060 A 
ATOM     45  C   UNL     1       8.106   1.008   5.082  1.00  0.00     0.016 A 
ATOM     46  C   UNL     1      10.413   0.252   5.208  1.00  0.00     0.016 A 
ATOM     47  C   UNL     1       7.893   0.186   3.973  1.00  0.00     0.010 A 
ATOM     48  C   UNL     1      10.194  -0.576   4.107  1.00  0.00     0.010 A 
ATOM     49  C   UNL     1       8.924  -0.641   3.509  1.00  0.00    -0.014 A 
BRANCH  49  50
ATOM     50  C   UNL     1       8.663  -1.682   2.487  1.00  0.00     0.031 A 
ATOM     51  C   UNL     1       8.375  -3.087   2.933  1.00  0.00     0.074 A 
ATOM     52  C   UNL     1       8.767  -1.396   1.178  1.00  0.00     0.049 A 
ATOM     53  N   UNL     1       8.232  -4.170   2.215  1.00  0.00    -0.248 NA
ATOM     54  C   UNL     1       8.243  -3.303   4.384  1.00  0.00     0.031 C 
ATOM     55  C   UNL     1       9.079  -0.080   0.631  1.00  0.00     0.029 A 
ATOM     56  N   UNL     1       8.674  -2.209   0.076  1.00  0.00    -0.354 N 
ATOM     57  C   UNL     1       8.022  -5.199   3.122  1.00  0.00     0.074 A 
ATOM     58  C   UNL     1       8.057  -4.614   4.445  1.00  0.00     0.031 C 
ATOM     59  C   UNL     1       9.201  -0.179  -0.703  1.00  0.00     0.029 A 
ATOM     60  C   UNL     1       9.000  -1.572  -1.098  1.00  0.00     0.049 A 
ATOM     61  H   UNL     1       8.401  -3.154   0.121  1.00  0.00     0.167 HD
ATOM     62  C   UNL     1       7.802  -6.512   2.876  1.00  0.00     0.034 A 
ATOM     63  C   UNL     1       9.156  -2.063  -2.343  1.00  0.00     0.034 A 
ATOM     64  C   UNL     1       7.747  -7.091   1.562  1.00  0.00     0.049 A 
ATOM     65  C   UNL     1       8.907  -3.526  -2.596  1.00  0.00     0.074 A 
ATOM     66  C   UNL     1       7.467  -8.398   1.206  1.00  0.00     0.029 A 
ATOM     67  N   UNL     1       7.990  -6.399   0.386  1.00  0.00    -0.354 N 
ATOM     68  N   UNL     1       8.559  -4.460  -1.744  1.00  0.00    -0.248 NA
ATOM     69  C   UNL     1       9.043  -3.998  -3.982  1.00  0.00     0.031 C 
ATOM     70  C   UNL     1       7.544  -8.497  -0.188  1.00  0.00     0.029 A 
ATOM     71  C   UNL     1       7.873  -7.251  -0.698  1.00  0.00     0.049 A 
ATOM     72  H   UNL     1       8.214  -5.441   0.330  1.00  0.00     0.167 HD
ATOM     73  C   UNL     1       8.412  -5.624  -2.491  1.00  0.00     0.074 A 
ATOM     74  C   UNL     1       8.689  -5.272  -3.869  1.00  0.00     0.031 C 
ATOM     75  C   UNL     1       8.095  -6.873  -2.071  1.00  0.00     0.034 A 
BRANCH  62  76
ATOM     76  C   UNL     1       7.550  -7.401   4.062  1.00  0.00     0.023 A 
ATOM     77  C   UNL     1       6.282  -7.379   4.676  1.00  0.00     0.012 A 
ATOM     78  C   UNL     1       8.541  -8.271   4.551  1.00  0.00     0.148 A 
ATOM     79  C   UNL     1       6.011  -8.194   5.774  1.00  0.00     0.002 A 
ATOM     80  C   UNL     1       8.254  -9.102   5.630  1.00  0.00     0.091 A 
ATOM     81  F   UNL     1       9.754  -8.256   3.979  1.00  0.00    -0.205 F 
ATOM     82  C   UNL     1       6.994  -9.061   6.246  1.00  0.00     0.022 A 
BRANCH  80  83
ATOM     83  S   UNL     1       9.462 -10.279   6.249  1.00  0.00     0.127 S 
ATOM     84  O   UNL     1      10.157  -9.490   7.264  1.00  0.00    -0.237 OA
ATOM     85  O   UNL     1       8.623 -11.353   6.783  1.00  0.00    -0.237 OA
ATOM     86  O   UNL     1      10.249 -10.662   5.083  1.00  0.00    -0.744 OA
ENDBRANCH  80  83
ENDBRANCH  62  76
BRANCH  63  87
ATOM     87  C   UNL     1       9.532  -1.138  -3.448  1.00  0.00     0.023 A 
ATOM     88  C   UNL     1       8.561  -0.771  -4.398  1.00  0.00     0.012 A 
ATOM     89  C   UNL     1      10.819  -0.569  -3.520  1.00  0.00     0.148 A 
ATOM     90  C   UNL     1       8.868   0.140  -5.409  1.00  0.00     0.002 A 
ATOM     91  C   UNL     1      11.104   0.374  -4.501  1.00  0.00     0.091 A 
ATOM     92  F   UNL     1      11.733  -0.948  -2.616  1.00  0.00    -0.205 F 
ATOM     93  C   UNL     1      10.133   0.722  -5.453  1.00  0.00     0.022 A 
BRANCH  91  94
ATOM     94  S   UNL     1      12.663   1.266  -4.561  1.00  0.00     0.127 S 
ATOM     95  O   UNL     1      13.286   0.699  -5.753  1.00  0.00    -0.237 OA
ATOM     96  O   UNL     1      12.215   2.652  -4.702  1.00  0.00    -0.237 OA
ATOM     97  O   UNL     1      13.332   0.978  -3.300  1.00  0.00    -0.744 OA
ENDBRANCH  91  94
ENDBRANCH  63  87
BRANCH  75  98
ATOM     98  C   UNL     1       8.016  -7.962  -3.107  1.00  0.00     0.023 A 
ATOM     99  C   UNL     1       9.205  -8.536  -3.594  1.00  0.00     0.012 A 
ATOM    100  C   UNL     1       6.774  -8.477  -3.527  1.00  0.00     0.148 A 
ATOM    101  C   UNL     1       9.161  -9.600  -4.495  1.00  0.00     0.002 A 
ATOM    102  C   UNL     1       6.738  -9.560  -4.399  1.00  0.00     0.091 A 
ATOM    103  F   UNL     1       5.652  -7.901  -3.072  1.00  0.00    -0.205 F 
ATOM    104  C   UNL     1       7.929 -10.119  -4.888  1.00  0.00     0.022 A 
BRANCH 102 105
ATOM    105  S   UNL     1       5.188 -10.331  -4.883  1.00  0.00     0.127 S 
ATOM    106  O   UNL     1       4.921  -9.689  -6.168  1.00  0.00    -0.237 OA
ATOM    107  O   UNL     1       5.549 -11.747  -4.972  1.00  0.00    -0.237 OA
ATOM    108  O   UNL     1       4.250 -10.022  -3.811  1.00  0.00    -0.744 OA
ENDBRANCH 102 105
ENDBRANCH  75  98
ENDBRANCH  49  50
ENDBRANCH  42  44
ENDBRANCH  41  42
ENDBRANCH  40  41
ENDBRANCH  39  40
ENDBRANCH  38  39
ENDBRANCH  37  38
ENDBRANCH   1  37
TORSDOF 24
