REMARK SMILES COc1ccc(C2=NN(C(=O)CCC(=O)OCCOCCOCCOC(=O)c3ccc(-c4c5nc(c(-c6cccc(S(=O)(=O)[O-])c6F)c6ccc([nH]6)c(-c6cccc(S(=O)(=O)[O-])c6F)c6nc(c(-c7cccc(S(=O)(=O)[O-])c7F)c7ccc4[nH]7)C=C6)C=C5)cc3)[C@H](c3ccc(Cl)cc3Cl)C2)cc1
REMARK SMILES IDX 20 1 19 2 18 3 17 4 16 5 14 6 15 7 13 8 12 9 10 10 11 11
REMARK SMILES IDX 9 12 7 13 8 14 100 15 91 16 6 17 3 18 4 19 102 20 5 21
REMARK SMILES IDX 101 22 2 23 1 24 92 25 93 26 98 27 94 28 97 29 99 30 95 31
REMARK SMILES IDX 96 32 21 33 22 34 23 35 24 36 25 37 26 38 27 39 28 40 29 41
REMARK SMILES IDX 90 42 30 43 89 44 31 45 32 46 33 47 83 48 34 49 88 50 82 51
REMARK SMILES IDX 84 52 35 53 87 54 81 55 80 56 36 58 68 59 48 60 67 61 49 62
REMARK SMILES IDX 52 63 66 64 85 65 50 66 51 67 65 69 86 70 53 71 37 72 38 73
REMARK SMILES IDX 46 74 39 75 41 76 47 77 40 78 42 79 43 80 44 81 45 82 69 83
REMARK SMILES IDX 70 84 78 85 71 86 73 87 79 88 72 89 74 90 75 91 76 92 77 93
REMARK SMILES IDX 54 94 55 95 63 96 56 97 58 98 64 99 57 100 59 101 60 102
REMARK SMILES IDX 61 103 62 104
REMARK H PARENT 84 57 52 68
REMARK Flexibility Score: inf
ROOT
ATOM      1  C   UNL     1       3.046   9.806  -4.229  1.00  0.00     0.188 C 
ENDROOT
BRANCH   1   2
ATOM      2  O   UNL     1       4.314   9.314  -4.835  1.00  0.00    -0.376 OA
BRANCH   2   3
ATOM      3  C   UNL     1       5.538   8.613  -4.496  1.00  0.00     0.202 C 
BRANCH   3   4
ATOM      4  C   UNL     1       5.861   7.787  -3.236  1.00  0.00     0.261 C 
BRANCH   4   5
ATOM      5  O   UNL     1       5.275   8.308  -2.069  1.00  0.00    -0.463 OA
BRANCH   5   6
ATOM      6  C   UNL     1       5.614   9.568  -1.755  1.00  0.00     0.306 C 
ATOM      7  O   UNL     1       6.718  10.044  -1.916  1.00  0.00    -0.252 OA
BRANCH   6   8
ATOM      8  C   UNL     1       4.417  10.320  -1.228  1.00  0.00     0.132 C 
BRANCH   8   9
ATOM      9  C   UNL     1       3.012   9.723  -1.458  1.00  0.00     0.114 C 
BRANCH   9  10
ATOM     10  C   UNL     1       2.897   8.230  -1.792  1.00  0.00     0.243 C 
ATOM     11  O   UNL     1       2.869   7.575  -0.718  1.00  0.00    -0.273 OA
BRANCH  10  12
ATOM     12  N   UNL     1       2.748   7.547  -3.051  1.00  0.00    -0.225 N 
ATOM     13  C   UNL     1       2.119   5.466  -3.536  1.00  0.00     0.071 C 
ATOM     14  N   UNL     1       2.216   6.339  -2.623  1.00  0.00    -0.174 NA
ATOM     15  C   UNL     1       2.599   5.854  -4.884  1.00  0.00     0.091 C 
ATOM     16  C   UNL     1       2.795   7.488  -4.885  1.00  0.00     0.149 C 
BRANCH  13  17
ATOM     17  C   UNL     1       1.661   4.115  -3.143  1.00  0.00    -0.002 A 
ATOM     18  C   UNL     1       0.803   1.752  -1.885  1.00  0.00     0.118 A 
ATOM     19  C   UNL     1      -0.112   2.579  -2.548  1.00  0.00     0.047 A 
ATOM     20  C   UNL     1       2.151   2.109  -1.858  1.00  0.00     0.047 A 
ATOM     21  C   UNL     1       0.307   3.774  -3.158  1.00  0.00     0.014 A 
ATOM     22  C   UNL     1       2.576   3.292  -2.476  1.00  0.00     0.014 A 
BRANCH  18  23
ATOM     23  O   UNL     1       0.283   0.611  -1.334  1.00  0.00    -0.497 OA
ATOM     24  C   UNL     1       0.903   0.161  -0.132  1.00  0.00     0.278 C 
ENDBRANCH  18  23
ENDBRANCH  13  17
BRANCH  16  25
ATOM     25  C   UNL     1       2.219   8.811  -6.209  1.00  0.00    -0.004 A 
ATOM     26  C   UNL     1       2.658   8.543  -7.442  1.00  0.00     0.009 A 
ATOM     27  C   UNL     1       1.194   9.980  -6.423  1.00  0.00     0.047 A 
ATOM     28  C   UNL     1       1.980   8.930  -8.689  1.00  0.00     0.021 A 
ATOM     29  C   UNL     1       0.540  10.349  -7.650  1.00  0.00     0.041 A 
ATOM     30  Cl  UNL     1       0.943  11.532  -5.466  1.00  0.00    -0.084 Cl
ATOM     31  C   UNL     1       0.898   9.749  -8.798  1.00  0.00     0.042 A 
ATOM     32  Cl  UNL     1       0.154  10.070 -10.304  1.00  0.00    -0.084 Cl
ENDBRANCH  16  25
ENDBRANCH  10  12
ENDBRANCH   9  10
ENDBRANCH   8   9
ENDBRANCH   6   8
ENDBRANCH   5   6
ENDBRANCH   4   5
ENDBRANCH   3   4
ENDBRANCH   2   3
ENDBRANCH   1   2
BRANCH   1  33
ATOM     33  C   UNL     1       1.250   9.009  -4.149  1.00  0.00     0.188 C 
BRANCH  33  34
ATOM     34  O   UNL     1       0.626   7.599  -4.985  1.00  0.00    -0.376 OA
BRANCH  34  35
ATOM     35  C   UNL     1       0.626   6.966  -6.559  1.00  0.00     0.202 C 
BRANCH  35  36
ATOM     36  C   UNL     1       1.869   6.028  -7.621  1.00  0.00     0.261 C 
BRANCH  36  37
ATOM     37  O   UNL     1       2.676   6.550  -8.902  1.00  0.00    -0.460 OA
BRANCH  37  38
ATOM     38  C   UNL     1       4.107   6.706  -8.986  1.00  0.00     0.338 C 
ATOM     39  O   UNL     1       4.855   6.051  -8.266  1.00  0.00    -0.246 OA
BRANCH  38  40
ATOM     40  C   UNL     1       4.624   8.117  -9.600  1.00  0.00     0.060 A 
ATOM     41  C   UNL     1       5.099   9.119  -8.708  1.00  0.00     0.016 A 
ATOM     42  C   UNL     1       4.407   8.577 -10.906  1.00  0.00     0.016 A 
ATOM     43  C   UNL     1       5.150  10.508  -9.045  1.00  0.00     0.010 A 
ATOM     44  C   UNL     1       4.632   9.962 -11.277  1.00  0.00     0.010 A 
ATOM     45  C   UNL     1       5.009  10.969 -10.360  1.00  0.00    -0.014 A 
BRANCH  45  46
ATOM     46  C   UNL     1       5.406  12.394 -10.789  1.00  0.00     0.031 A 
ATOM     47  C   UNL     1       4.591  13.248 -11.762  1.00  0.00     0.074 A 
ATOM     48  C   UNL     1       6.588  12.943 -10.399  1.00  0.00     0.049 A 
ATOM     49  N   UNL     1       4.983  14.235 -12.542  1.00  0.00    -0.248 NA
ATOM     50  C   UNL     1       3.146  12.992 -11.832  1.00  0.00     0.031 C 
ATOM     51  C   UNL     1       7.492  12.416  -9.377  1.00  0.00     0.029 A 
ATOM     52  N   UNL     1       7.275  14.053 -10.878  1.00  0.00    -0.354 N 
ATOM     53  C   UNL     1       3.862  14.656 -13.260  1.00  0.00     0.074 A 
ATOM     54  C   UNL     1       2.754  13.855 -12.768  1.00  0.00     0.031 C 
ATOM     55  C   UNL     1       8.615  13.143  -9.343  1.00  0.00     0.029 A 
ATOM     56  C   UNL     1       8.577  14.126 -10.415  1.00  0.00     0.049 A 
ATOM     57  H   UNL     1       6.877  14.719 -11.484  1.00  0.00     0.167 HD
ATOM     58  C   UNL     1       3.759  15.598 -14.240  1.00  0.00     0.034 A 
ATOM     59  C   UNL     1       9.667  14.807 -10.835  1.00  0.00     0.034 A 
ATOM     60  C   UNL     1       4.833  16.451 -14.700  1.00  0.00     0.049 A 
ATOM     61  C   UNL     1       9.583  15.742 -12.009  1.00  0.00     0.074 A 
ATOM     62  C   UNL     1       4.805  17.409 -15.707  1.00  0.00     0.029 A 
ATOM     63  N   UNL     1       6.120  16.467 -14.190  1.00  0.00    -0.354 N 
ATOM     64  N   UNL     1       8.537  16.081 -12.718  1.00  0.00    -0.248 NA
ATOM     65  C   UNL     1      10.831  16.400 -12.436  1.00  0.00     0.031 C 
ATOM     66  C   UNL     1       6.080  17.972 -15.829  1.00  0.00     0.029 A 
ATOM     67  C   UNL     1       6.894  17.399 -14.868  1.00  0.00     0.049 A 
ATOM     68  H   UNL     1       6.440  15.899 -13.452  1.00  0.00     0.167 HD
ATOM     69  C   UNL     1       8.990  17.022 -13.638  1.00  0.00     0.074 A 
ATOM     70  C   UNL     1      10.403  17.206 -13.398  1.00  0.00     0.031 C 
ATOM     71  C   UNL     1       8.283  17.663 -14.599  1.00  0.00     0.034 A 
BRANCH  58  72
ATOM     72  C   UNL     1       2.430  15.760 -14.952  1.00  0.00     0.023 A 
ATOM     73  C   UNL     1       1.369  16.456 -14.341  1.00  0.00     0.012 A 
ATOM     74  C   UNL     1       2.281  15.320 -16.287  1.00  0.00     0.148 A 
ATOM     75  C   UNL     1       0.172  16.674 -15.029  1.00  0.00     0.002 A 
ATOM     76  C   UNL     1       1.100  15.574 -16.979  1.00  0.00     0.091 A 
ATOM     77  F   UNL     1       3.304  14.671 -16.862  1.00  0.00    -0.205 F 
ATOM     78  C   UNL     1       0.040  16.240 -16.347  1.00  0.00     0.022 A 
BRANCH  76  79
ATOM     79  S   UNL     1       0.869  15.124 -18.705  1.00  0.00     0.127 S 
ATOM     80  O   UNL     1      -0.057  13.998 -18.594  1.00  0.00    -0.237 OA
ATOM     81  O   UNL     1       0.283  16.340 -19.270  1.00  0.00    -0.237 OA
ATOM     82  O   UNL     1       2.193  14.797 -19.216  1.00  0.00    -0.744 OA
ENDBRANCH  76  79
ENDBRANCH  58  72
BRANCH  59  83
ATOM     83  C   UNL     1      10.987  14.581 -10.164  1.00  0.00     0.023 A 
ATOM     84  C   UNL     1      11.583  15.623  -9.430  1.00  0.00     0.012 A 
ATOM     85  C   UNL     1      11.648  13.338 -10.251  1.00  0.00     0.148 A 
ATOM     86  C   UNL     1      12.823  15.440  -8.815  1.00  0.00     0.002 A 
ATOM     87  C   UNL     1      12.850  13.142  -9.581  1.00  0.00     0.091 A 
ATOM     88  F   UNL     1      11.081  12.364 -10.978  1.00  0.00    -0.205 F 
ATOM     89  C   UNL     1      13.449  14.197  -8.878  1.00  0.00     0.022 A 
BRANCH  87  90
ATOM     90  S   UNL     1      13.656  11.538  -9.494  1.00  0.00     0.127 S 
ATOM     91  O   UNL     1      14.843  11.754 -10.316  1.00  0.00    -0.237 OA
ATOM     92  O   UNL     1      13.914  11.408  -8.059  1.00  0.00    -0.237 OA
ATOM     93  O   UNL     1      12.689  10.582 -10.017  1.00  0.00    -0.744 OA
ENDBRANCH  87  90
ENDBRANCH  59  83
BRANCH  71  94
ATOM     94  C   UNL     1       8.984  18.703 -15.436  1.00  0.00     0.023 A 
ATOM     95  C   UNL     1       9.886  18.316 -16.446  1.00  0.00     0.012 A 
ATOM     96  C   UNL     1       8.671  20.070 -15.281  1.00  0.00     0.148 A 
ATOM     97  C   UNL     1      10.474  19.270 -17.279  1.00  0.00     0.002 A 
ATOM     98  C   UNL     1       9.225  21.011 -16.143  1.00  0.00     0.091 A 
ATOM     99  F   UNL     1       7.830  20.423 -14.299  1.00  0.00    -0.205 F 
ATOM    100  C   UNL     1      10.133  20.614 -17.137  1.00  0.00     0.022 A 
BRANCH  98 101
ATOM    101  S   UNL     1       8.775  22.751 -16.098  1.00  0.00     0.127 S 
ATOM    102  O   UNL     1      10.022  23.371 -15.653  1.00  0.00    -0.237 OA
ATOM    103  O   UNL     1       8.427  23.015 -17.494  1.00  0.00    -0.237 OA
ATOM    104  O   UNL     1       7.662  22.857 -15.164  1.00  0.00    -0.744 OA
ENDBRANCH  98 101
ENDBRANCH  71  94
ENDBRANCH  45  46
ENDBRANCH  38  40
ENDBRANCH  37  38
ENDBRANCH  36  37
ENDBRANCH  35  36
ENDBRANCH  34  35
ENDBRANCH  33  34
ENDBRANCH   1  33
TORSDOF 26
