REMARK SMILES CCc1cc(C(=O)c2[nH]c3cc(Cl)ccc3c2CC(=O)OCCOCCOCCOC(=O)c2ccc(-c3c4nc(c(-c5cccc(S(=O)(=O)[O-])c5F)c5ccc([nH]5)c(-c5cccc(S(=O)(=O)[O-])c5F)c5nc(c(-c6cccc(S(=O)(=O)[O-])c6F)c6ccc3[nH]6)C=C5)C=C4)cc2)ncc1Cl
REMARK SMILES IDX 25 1 24 2 23 3 22 4 21 5 19 6 20 7 18 8 17 9 8 10 9 11 10 12
REMARK SMILES IDX 16 14 11 15 15 16 12 17 14 18 13 19 6 20 7 21 5 22 3 23 4 24
REMARK SMILES IDX 98 25 97 26 99 27 96 28 2 29 1 30 26 31 27 32 28 33 29 34
REMARK SMILES IDX 30 35 31 36 32 37 33 38 34 39 95 40 35 41 94 42 36 43 37 44
REMARK SMILES IDX 38 45 88 46 39 47 93 48 87 49 89 50 40 51 92 52 86 53 85 54
REMARK SMILES IDX 41 56 73 57 53 58 72 59 54 60 57 61 71 62 90 63 55 64 56 65
REMARK SMILES IDX 70 67 91 68 58 69 42 70 43 71 51 72 44 73 46 74 52 75 45 76
REMARK SMILES IDX 47 77 48 78 49 79 50 80 74 81 75 82 83 83 76 84 78 85 84 86
REMARK SMILES IDX 77 87 79 88 80 89 81 90 82 91 59 92 60 93 68 94 61 95 63 96
REMARK SMILES IDX 69 97 62 98 64 99 65 100 66 101 67 102
REMARK H PARENT 9 13 89 55 57 66
REMARK Flexibility Score: inf
ROOT
ATOM      1  C   UNL     1       3.568  -3.852  -8.069  1.00  0.00     0.188 C 
ENDROOT
BRANCH   1   2
ATOM      2  O   UNL     1       4.123  -4.284  -9.307  1.00  0.00    -0.376 OA
BRANCH   2   3
ATOM      3  C   UNL     1       4.824  -3.326 -10.087  1.00  0.00     0.202 C 
BRANCH   3   4
ATOM      4  C   UNL     1       4.001  -2.118 -10.535  1.00  0.00     0.261 C 
BRANCH   4   5
ATOM      5  O   UNL     1       3.657  -1.254  -9.427  1.00  0.00    -0.463 OA
BRANCH   5   6
ATOM      6  C   UNL     1       2.511  -0.547  -9.590  1.00  0.00     0.310 C 
ATOM      7  O   UNL     1       1.878  -0.535 -10.646  1.00  0.00    -0.252 OA
BRANCH   6   8
ATOM      8  C   UNL     1       1.993   0.188  -8.368  1.00  0.00     0.161 C 
BRANCH   8   9
ATOM      9  C   UNL     1       2.921   0.552  -7.228  1.00  0.00     0.000 A 
ATOM     10  C   UNL     1       2.926   0.024  -5.929  1.00  0.00     0.093 A 
ATOM     11  N   UNL     1       3.957   0.630  -5.248  1.00  0.00    -0.351 N 
ATOM     12  C   UNL     1       4.356   1.760  -5.916  1.00  0.00     0.048 A 
ATOM     13  H   UNL     1       4.349   0.302  -4.407  1.00  0.00     0.167 HD
ATOM     14  C   UNL     1       3.752   1.724  -7.173  1.00  0.00     0.004 A 
ATOM     15  C   UNL     1       5.173   2.813  -5.487  1.00  0.00     0.047 A 
ATOM     16  C   UNL     1       3.974   2.804  -8.051  1.00  0.00     0.012 A 
ATOM     17  C   UNL     1       5.323   3.895  -6.357  1.00  0.00     0.043 A 
ATOM     18  C   UNL     1       4.738   3.896  -7.620  1.00  0.00     0.021 A 
ATOM     19  Cl  UNL     1       6.220   5.271  -5.836  1.00  0.00    -0.084 Cl
BRANCH  10  20
ATOM     20  C   UNL     1       2.054  -0.986  -5.361  1.00  0.00     0.227 C 
ATOM     21  O   UNL     1       1.375  -1.729  -6.065  1.00  0.00    -0.285 OA
BRANCH  20  22
ATOM     22  C   UNL     1       1.923  -1.129  -3.876  1.00  0.00     0.113 A 
ATOM     23  C   UNL     1       0.945  -0.447  -1.773  1.00  0.00    -0.026 A 
ATOM     24  C   UNL     1       1.347  -0.133  -3.092  1.00  0.00     0.037 A 
ATOM     25  C   UNL     1       1.093  -1.772  -1.339  1.00  0.00     0.062 A 
ATOM     26  C   UNL     1       1.765  -2.661  -2.162  1.00  0.00     0.132 A 
ATOM     27  Cl  UNL     1       0.420  -2.376   0.125  1.00  0.00    -0.082 Cl
ATOM     28  N   UNL     1       2.217  -2.356  -3.400  1.00  0.00    -0.251 NA
BRANCH  23  29
ATOM     29  C   UNL     1       0.312   0.626  -0.915  1.00  0.00     0.034 C 
ATOM     30  C   UNL     1       1.056   0.885   0.393  1.00  0.00     0.009 C 
ENDBRANCH  23  29
ENDBRANCH  20  22
ENDBRANCH  10  20
ENDBRANCH   8   9
ENDBRANCH   6   8
ENDBRANCH   5   6
ENDBRANCH   4   5
ENDBRANCH   3   4
ENDBRANCH   2   3
ENDBRANCH   1   2
BRANCH   1  31
ATOM     31  C   UNL     1       4.451  -3.002  -7.131  1.00  0.00     0.188 C 
BRANCH  31  32
ATOM     32  O   UNL     1       5.865  -3.154  -7.189  1.00  0.00    -0.376 OA
BRANCH  32  33
ATOM     33  C   UNL     1       6.374  -4.478  -7.084  1.00  0.00     0.202 C 
BRANCH  33  34
ATOM     34  C   UNL     1       6.073  -5.160  -5.754  1.00  0.00     0.261 C 
BRANCH  34  35
ATOM     35  O   UNL     1       4.683  -5.525  -5.674  1.00  0.00    -0.460 OA
BRANCH  35  36
ATOM     36  C   UNL     1       4.144  -5.409  -4.440  1.00  0.00     0.338 C 
ATOM     37  O   UNL     1       4.724  -5.090  -3.415  1.00  0.00    -0.246 OA
BRANCH  36  38
ATOM     38  C   UNL     1       2.703  -5.715  -4.462  1.00  0.00     0.060 A 
ATOM     39  C   UNL     1       1.806  -4.780  -4.969  1.00  0.00     0.016 A 
ATOM     40  C   UNL     1       2.231  -6.800  -3.730  1.00  0.00     0.016 A 
ATOM     41  C   UNL     1       0.462  -4.825  -4.597  1.00  0.00     0.010 A 
ATOM     42  C   UNL     1       0.864  -6.902  -3.449  1.00  0.00     0.010 A 
ATOM     43  C   UNL     1      -0.025  -5.871  -3.805  1.00  0.00    -0.014 A 
BRANCH  43  44
ATOM     44  C   UNL     1      -1.417  -5.844  -3.268  1.00  0.00     0.031 A 
ATOM     45  C   UNL     1      -1.660  -5.908  -1.776  1.00  0.00     0.074 A 
ATOM     46  C   UNL     1      -2.474  -5.745  -4.100  1.00  0.00     0.049 A 
ATOM     47  N   UNL     1      -2.788  -6.032  -1.123  1.00  0.00    -0.248 NA
ATOM     48  C   UNL     1      -0.480  -5.809  -0.900  1.00  0.00     0.031 C 
ATOM     49  C   UNL     1      -2.400  -5.606  -5.555  1.00  0.00     0.029 A 
ATOM     50  N   UNL     1      -3.824  -5.775  -3.840  1.00  0.00    -0.354 N 
ATOM     51  C   UNL     1      -2.451  -6.062   0.227  1.00  0.00     0.074 A 
ATOM     52  C   UNL     1      -1.013  -5.943   0.305  1.00  0.00     0.031 C 
ATOM     53  C   UNL     1      -3.641  -5.575  -6.059  1.00  0.00     0.029 A 
ATOM     54  C   UNL     1      -4.596  -5.787  -4.979  1.00  0.00     0.049 A 
ATOM     55  H   UNL     1      -4.201  -5.786  -2.930  1.00  0.00     0.167 HD
ATOM     56  C   UNL     1      -3.260  -6.179   1.307  1.00  0.00     0.034 A 
ATOM     57  C   UNL     1      -5.913  -6.017  -5.151  1.00  0.00     0.034 A 
ATOM     58  C   UNL     1      -4.689  -6.313   1.237  1.00  0.00     0.049 A 
ATOM     59  C   UNL     1      -6.774  -6.281  -3.949  1.00  0.00     0.074 A 
ATOM     60  C   UNL     1      -5.592  -6.460   2.275  1.00  0.00     0.029 A 
ATOM     61  N   UNL     1      -5.422  -6.343   0.062  1.00  0.00    -0.354 N 
ATOM     62  N   UNL     1      -6.447  -6.261  -2.680  1.00  0.00    -0.248 NA
ATOM     63  C   UNL     1      -8.188  -6.593  -4.201  1.00  0.00     0.031 C 
ATOM     64  C   UNL     1      -6.868  -6.623   1.723  1.00  0.00     0.029 A 
ATOM     65  C   UNL     1      -6.763  -6.538   0.344  1.00  0.00     0.049 A 
ATOM     66  H   UNL     1      -5.045  -6.239  -0.842  1.00  0.00     0.167 HD
ATOM     67  C   UNL     1      -7.618  -6.531  -1.981  1.00  0.00     0.074 A 
ATOM     68  C   UNL     1      -8.666  -6.689  -2.968  1.00  0.00     0.031 C 
ATOM     69  C   UNL     1      -7.804  -6.652  -0.644  1.00  0.00     0.034 A 
BRANCH  56  70
ATOM     70  C   UNL     1      -2.611  -6.184   2.667  1.00  0.00     0.023 A 
ATOM     71  C   UNL     1      -2.148  -4.978   3.229  1.00  0.00     0.012 A 
ATOM     72  C   UNL     1      -2.500  -7.380   3.405  1.00  0.00     0.148 A 
ATOM     73  C   UNL     1      -1.563  -4.965   4.496  1.00  0.00     0.002 A 
ATOM     74  C   UNL     1      -1.945  -7.354   4.679  1.00  0.00     0.091 A 
ATOM     75  F   UNL     1      -2.926  -8.519   2.842  1.00  0.00    -0.205 F 
ATOM     76  C   UNL     1      -1.470  -6.149   5.223  1.00  0.00     0.022 A 
BRANCH  74  77
ATOM     77  S   UNL     1      -1.822  -8.818   5.713  1.00  0.00     0.127 S 
ATOM     78  O   UNL     1      -0.378  -9.048   5.726  1.00  0.00    -0.237 OA
ATOM     79  O   UNL     1      -2.376  -8.345   6.982  1.00  0.00    -0.237 OA
ATOM     80  O   UNL     1      -2.611  -9.846   5.051  1.00  0.00    -0.744 OA
ENDBRANCH  74  77
ENDBRANCH  56  70
BRANCH  57  81
ATOM     81  C   UNL     1      -6.483  -6.046  -6.529  1.00  0.00     0.023 A 
ATOM     82  C   UNL     1      -7.391  -5.049  -6.932  1.00  0.00     0.012 A 
ATOM     83  C   UNL     1      -6.098  -7.038  -7.454  1.00  0.00     0.148 A 
ATOM     84  C   UNL     1      -7.915  -5.048  -8.226  1.00  0.00     0.002 A 
ATOM     85  C   UNL     1      -6.571  -6.992  -8.759  1.00  0.00     0.091 A 
ATOM     86  F   UNL     1      -5.258  -7.999  -7.043  1.00  0.00    -0.205 F 
ATOM     87  C   UNL     1      -7.493  -6.008  -9.143  1.00  0.00     0.022 A 
BRANCH  85  88
ATOM     88  S   UNL     1      -5.964  -8.102 -10.035  1.00  0.00     0.127 S 
ATOM     89  O   UNL     1      -7.099  -9.002 -10.213  1.00  0.00    -0.237 OA
ATOM     90  O   UNL     1      -5.726  -7.183 -11.149  1.00  0.00    -0.237 OA
ATOM     91  O   UNL     1      -4.755  -8.702  -9.488  1.00  0.00    -0.744 OA
ENDBRANCH  85  88
ENDBRANCH  57  81
BRANCH  69  92
ATOM     92  C   UNL     1      -9.200  -6.937  -0.158  1.00  0.00     0.023 A 
ATOM     93  C   UNL     1      -9.759  -8.217  -0.340  1.00  0.00     0.012 A 
ATOM     94  C   UNL     1      -9.930  -5.955   0.540  1.00  0.00     0.148 A 
ATOM     95  C   UNL     1     -11.037  -8.506   0.139  1.00  0.00     0.002 A 
ATOM     96  C   UNL     1     -11.181  -6.266   1.058  1.00  0.00     0.091 A 
ATOM     97  F   UNL     1      -9.389  -4.737   0.684  1.00  0.00    -0.205 F 
ATOM     98  C   UNL     1     -11.742  -7.536   0.848  1.00  0.00     0.022 A 
BRANCH  96  99
ATOM     99  S   UNL     1     -12.114  -5.110   2.068  1.00  0.00     0.127 S 
ATOM    100  O   UNL     1     -13.166  -4.689   1.146  1.00  0.00    -0.237 OA
ATOM    101  O   UNL     1     -12.572  -5.958   3.170  1.00  0.00    -0.237 OA
ATOM    102  O   UNL     1     -11.171  -4.071   2.461  1.00  0.00    -0.744 OA
ENDBRANCH  96  99
ENDBRANCH  69  92
ENDBRANCH  43  44
ENDBRANCH  36  38
ENDBRANCH  35  36
ENDBRANCH  34  35
ENDBRANCH  33  34
ENDBRANCH  32  33
ENDBRANCH  31  32
ENDBRANCH   1  31
TORSDOF 24
