REMARK SMILES COc1cccc([C@@H]2CC(c3cccc(C)c3)=NN2C(=O)CCC(=O)OCCOCCOCCOC(=O)c2ccc(-c3c4nc(c(-c5cccc(S(=O)(=O)[O-])c5F)c5ccc([nH]5)c(-c5cccc(S(=O)(=O)[O-])c5F)c5nc(c(-c6cccc(S(=O)(=O)[O-])c6F)c6ccc3[nH]6)C=C5)C=C4)cc2)c1
REMARK SMILES IDX 30 1 29 2 28 3 27 4 26 5 24 6 25 7 23 8 22 9 20 10 21 11
REMARK SMILES IDX 19 12 8 13 9 14 10 15 18 16 7 17 3 18 4 19 101 20 5 21 6 22
REMARK SMILES IDX 2 23 1 24 11 25 12 26 17 27 13 28 15 29 14 30 16 31 31 32
REMARK SMILES IDX 32 33 33 34 34 35 35 36 36 37 37 38 38 39 39 40 100 41 40 42
REMARK SMILES IDX 99 43 41 44 42 45 43 46 93 47 44 48 98 49 92 50 94 51 45 52
REMARK SMILES IDX 97 53 91 54 90 55 46 57 78 58 58 59 77 60 59 61 62 62 76 63
REMARK SMILES IDX 95 64 60 65 61 66 75 68 96 69 63 70 47 71 48 72 56 73 49 74
REMARK SMILES IDX 51 75 57 76 50 77 52 78 53 79 54 80 55 81 79 82 80 83 88 84
REMARK SMILES IDX 81 85 83 86 89 87 82 88 84 89 85 90 86 91 87 92 64 93 65 94
REMARK SMILES IDX 73 95 66 96 68 97 74 98 67 99 69 100 70 101 71 102 72 103
REMARK H PARENT 94 56 62 67
REMARK Flexibility Score: inf
ROOT
ATOM      1  C   UNL     1       3.047   0.421  -5.713  1.00  0.00     0.188 C 
ENDROOT
BRANCH   1   2
ATOM      2  O   UNL     1       2.372   1.610  -5.231  1.00  0.00    -0.376 OA
BRANCH   2   3
ATOM      3  C   UNL     1       1.199   1.656  -4.377  1.00  0.00     0.202 C 
BRANCH   3   4
ATOM      4  C   UNL     1       1.281   1.193  -2.891  1.00  0.00     0.261 C 
BRANCH   4   5
ATOM      5  O   UNL     1       1.904  -0.079  -2.777  1.00  0.00    -0.463 OA
BRANCH   5   6
ATOM      6  C   UNL     1       1.163  -1.103  -3.244  1.00  0.00     0.306 C 
ATOM      7  O   UNL     1      -0.037  -1.054  -3.470  1.00  0.00    -0.252 OA
BRANCH   6   8
ATOM      8  C   UNL     1       2.020  -2.306  -3.488  1.00  0.00     0.132 C 
BRANCH   8   9
ATOM      9  C   UNL     1       3.443  -2.027  -3.976  1.00  0.00     0.114 C 
BRANCH   9  10
ATOM     10  C   UNL     1       4.381  -1.203  -3.078  1.00  0.00     0.243 C 
ATOM     11  O   UNL     1       4.833  -1.930  -2.160  1.00  0.00    -0.273 OA
BRANCH  10  12
ATOM     12  N   UNL     1       4.820   0.139  -3.176  1.00  0.00    -0.225 N 
ATOM     13  C   UNL     1       4.467   1.671  -3.725  1.00  0.00     0.147 C 
ATOM     14  C   UNL     1       5.074   2.532  -2.588  1.00  0.00     0.091 C 
ATOM     15  C   UNL     1       5.994   1.544  -1.952  1.00  0.00     0.071 C 
ATOM     16  N   UNL     1       5.855   0.305  -2.257  1.00  0.00    -0.174 NA
BRANCH  13  17
ATOM     17  C   UNL     1       4.563   2.469  -5.359  1.00  0.00    -0.019 A 
ATOM     18  C   UNL     1       4.164   5.367  -6.238  1.00  0.00     0.119 A 
ATOM     19  C   UNL     1       5.366   5.234  -7.514  1.00  0.00     0.046 A 
ATOM     20  C   UNL     1       3.765   4.049  -5.159  1.00  0.00     0.052 A 
ATOM     21  C   UNL     1       6.194   3.703  -7.841  1.00  0.00     0.004 A 
ATOM     22  C   UNL     1       5.745   2.257  -6.835  1.00  0.00     0.006 A 
BRANCH  18  23
ATOM     23  O   UNL     1       3.254   6.404  -6.362  1.00  0.00    -0.497 OA
ATOM     24  C   UNL     1       1.908   5.904  -6.481  1.00  0.00     0.278 C 
ENDBRANCH  18  23
ENDBRANCH  13  17
BRANCH  15  25
ATOM     25  C   UNL     1       6.963   1.907  -0.923  1.00  0.00    -0.002 A 
ATOM     26  C   UNL     1       8.323   1.724  -1.175  1.00  0.00     0.010 A 
ATOM     27  C   UNL     1       6.492   2.189   0.358  1.00  0.00     0.013 A 
ATOM     28  C   UNL     1       9.233   1.892  -0.135  1.00  0.00     0.001 A 
ATOM     29  C   UNL     1       7.401   2.326   1.410  1.00  0.00    -0.050 A 
ATOM     30  C   UNL     1       8.774   2.196   1.150  1.00  0.00     0.003 A 
ATOM     31  C   UNL     1       6.914   2.556   2.808  1.00  0.00     0.044 C 
ENDBRANCH  15  25
ENDBRANCH  10  12
ENDBRANCH   9  10
ENDBRANCH   8   9
ENDBRANCH   6   8
ENDBRANCH   5   6
ENDBRANCH   4   5
ENDBRANCH   3   4
ENDBRANCH   2   3
ENDBRANCH   1   2
BRANCH   1  32
ATOM     32  C   UNL     1       4.848   0.138  -5.884  1.00  0.00     0.188 C 
BRANCH  32  33
ATOM     33  O   UNL     1       6.183   0.763  -5.095  1.00  0.00    -0.376 OA
BRANCH  33  34
ATOM     34  C   UNL     1       6.858   2.307  -5.039  1.00  0.00     0.202 C 
BRANCH  34  35
ATOM     35  C   UNL     1       5.977   3.871  -5.703  1.00  0.00     0.261 C 
BRANCH  35  36
ATOM     36  O   UNL     1       4.427   3.555  -6.967  1.00  0.00    -0.460 OA
BRANCH  36  37
ATOM     37  C   UNL     1       3.934   2.851  -8.167  1.00  0.00     0.338 C 
ATOM     38  O   UNL     1       4.579   2.086  -8.906  1.00  0.00    -0.246 OA
BRANCH  37  39
ATOM     39  C   UNL     1       2.570   2.963  -8.633  1.00  0.00     0.060 A 
ATOM     40  C   UNL     1       1.951   1.726  -8.902  1.00  0.00     0.016 A 
ATOM     41  C   UNL     1       2.156   4.119  -9.285  1.00  0.00     0.016 A 
ATOM     42  C   UNL     1       0.885   1.640  -9.764  1.00  0.00     0.010 A 
ATOM     43  C   UNL     1       1.064   4.044 -10.141  1.00  0.00     0.010 A 
ATOM     44  C   UNL     1       0.446   2.805 -10.383  1.00  0.00    -0.014 A 
BRANCH  44  45
ATOM     45  C   UNL     1      -0.644   2.693 -11.352  1.00  0.00     0.031 A 
ATOM     46  C   UNL     1      -0.337   2.795 -12.808  1.00  0.00     0.074 A 
ATOM     47  C   UNL     1      -1.879   2.516 -10.860  1.00  0.00     0.049 A 
ATOM     48  N   UNL     1      -1.163   2.860 -13.812  1.00  0.00    -0.248 NA
ATOM     49  C   UNL     1       1.086   2.857 -13.187  1.00  0.00     0.031 C 
ATOM     50  C   UNL     1      -2.206   2.391  -9.435  1.00  0.00     0.029 A 
ATOM     51  N   UNL     1      -3.084   2.444 -11.491  1.00  0.00    -0.354 N 
ATOM     52  C   UNL     1      -0.369   3.035 -14.937  1.00  0.00     0.074 A 
ATOM     53  C   UNL     1       1.007   3.061 -14.494  1.00  0.00     0.031 C 
ATOM     54  C   UNL     1      -3.536   2.298  -9.299  1.00  0.00     0.029 A 
ATOM     55  C   UNL     1      -4.143   2.394 -10.618  1.00  0.00     0.049 A 
ATOM     56  H   UNL     1      -3.186   2.429 -12.470  1.00  0.00     0.167 HD
ATOM     57  C   UNL     1      -0.775   3.158 -16.222  1.00  0.00     0.034 A 
ATOM     58  C   UNL     1      -5.460   2.457 -10.874  1.00  0.00     0.034 A 
ATOM     59  C   UNL     1      -2.159   3.079 -16.605  1.00  0.00     0.049 A 
ATOM     60  C   UNL     1      -5.876   2.546 -12.313  1.00  0.00     0.074 A 
ATOM     61  C   UNL     1      -2.711   3.128 -17.870  1.00  0.00     0.029 A 
ATOM     62  N   UNL     1      -3.212   2.928 -15.709  1.00  0.00    -0.354 N 
ATOM     63  N   UNL     1      -5.120   2.630 -13.383  1.00  0.00    -0.248 NA
ATOM     64  C   UNL     1      -7.314   2.508 -12.588  1.00  0.00     0.031 C 
ATOM     65  C   UNL     1      -4.100   3.019 -17.736  1.00  0.00     0.029 A 
ATOM     66  C   UNL     1      -4.412   2.878 -16.391  1.00  0.00     0.049 A 
ATOM     67  H   UNL     1      -3.115   2.866 -14.732  1.00  0.00     0.167 HD
ATOM     68  C   UNL     1      -5.986   2.620 -14.465  1.00  0.00     0.074 A 
ATOM     69  C   UNL     1      -7.325   2.502 -13.915  1.00  0.00     0.031 C 
ATOM     70  C   UNL     1      -5.714   2.712 -15.790  1.00  0.00     0.034 A 
BRANCH  57  71
ATOM     71  C   UNL     1       0.279   3.370 -17.276  1.00  0.00     0.023 A 
ATOM     72  C   UNL     1       1.162   2.322 -17.610  1.00  0.00     0.012 A 
ATOM     73  C   UNL     1       0.385   4.600 -17.956  1.00  0.00     0.148 A 
ATOM     74  C   UNL     1       2.157   2.506 -18.570  1.00  0.00     0.002 A 
ATOM     75  C   UNL     1       1.350   4.762 -18.945  1.00  0.00     0.091 A 
ATOM     76  F   UNL     1      -0.445   5.595 -17.611  1.00  0.00    -0.205 F 
ATOM     77  C   UNL     1       2.245   3.722 -19.243  1.00  0.00     0.022 A 
BRANCH  75  78
ATOM     78  S   UNL     1       1.499   6.263 -19.921  1.00  0.00     0.127 S 
ATOM     79  O   UNL     1       2.773   6.801 -19.445  1.00  0.00    -0.237 OA
ATOM     80  O   UNL     1       1.533   5.737 -21.287  1.00  0.00    -0.237 OA
ATOM     81  O   UNL     1       0.327   7.067 -19.608  1.00  0.00    -0.744 OA
ENDBRANCH  75  78
ENDBRANCH  57  71
BRANCH  58  82
ATOM     82  C   UNL     1      -6.433   2.378  -9.754  1.00  0.00     0.023 A 
ATOM     83  C   UNL     1      -7.201   1.210  -9.592  1.00  0.00     0.012 A 
ATOM     84  C   UNL     1      -6.545   3.412  -8.803  1.00  0.00     0.148 A 
ATOM     85  C   UNL     1      -8.085   1.085  -8.520  1.00  0.00     0.002 A 
ATOM     86  C   UNL     1      -7.390   3.260  -7.709  1.00  0.00     0.091 A 
ATOM     87  F   UNL     1      -5.802   4.516  -8.972  1.00  0.00    -0.205 F 
ATOM     88  C   UNL     1      -8.173   2.103  -7.575  1.00  0.00     0.022 A 
BRANCH  86  89
ATOM     89  S   UNL     1      -7.459   4.461  -6.374  1.00  0.00     0.127 S 
ATOM     90  O   UNL     1      -8.742   5.113  -6.626  1.00  0.00    -0.237 OA
ATOM     91  O   UNL     1      -7.426   3.604  -5.188  1.00  0.00    -0.237 OA
ATOM     92  O   UNL     1      -6.277   5.297  -6.538  1.00  0.00    -0.744 OA
ENDBRANCH  86  89
ENDBRANCH  58  82
BRANCH  70  93
ATOM     93  C   UNL     1      -6.887   2.655 -16.726  1.00  0.00     0.023 A 
ATOM     94  C   UNL     1      -7.742   3.767 -16.843  1.00  0.00     0.012 A 
ATOM     95  C   UNL     1      -7.090   1.526 -17.542  1.00  0.00     0.148 A 
ATOM     96  C   UNL     1      -8.805   3.745 -17.741  1.00  0.00     0.002 A 
ATOM     97  C   UNL     1      -8.120   1.533 -18.472  1.00  0.00     0.091 A 
ATOM     98  F   UNL     1      -6.274   0.472 -17.393  1.00  0.00    -0.205 F 
ATOM     99  C   UNL     1      -8.985   2.635 -18.564  1.00  0.00     0.022 A 
BRANCH  97 100
ATOM    100  S   UNL     1      -8.359   0.192 -19.642  1.00  0.00     0.127 S 
ATOM    101  O   UNL     1      -9.549  -0.463 -19.103  1.00  0.00    -0.237 OA
ATOM    102  O   UNL     1      -8.573   0.912 -20.898  1.00  0.00    -0.237 OA
ATOM    103  O   UNL     1      -7.136  -0.598 -19.601  1.00  0.00    -0.744 OA
ENDBRANCH  97 100
ENDBRANCH  70  93
ENDBRANCH  44  45
ENDBRANCH  37  39
ENDBRANCH  36  37
ENDBRANCH  35  36
ENDBRANCH  34  35
ENDBRANCH  33  34
ENDBRANCH  32  33
ENDBRANCH   1  32
TORSDOF 26
