REMARK SMILES Cc1ccc(C(=O)N2C[C@@H](C(=O)OCCOCCOCCOC(=O)c3ccc(-c4c5nc(c(-c6cccc(S(=O)(=O)[O-])c6F)c6ccc([nH]6)c(-c6cccc(S(=O)(=O)[O-])c6F)c6nc(c(-c7cccc(S(=O)(=O)[O-])c7F)c7ccc4[nH]7)C=C6)C=C5)cc3)C[C@H](C(=O)N3CCOCC3)C2)cc1F
REMARK SMILES IDX 18 1 17 2 16 3 15 4 14 5 13 6 11 7 12 8 10 9 8 10 9 11 98 12
REMARK SMILES IDX 89 13 88 14 6 15 7 16 5 17 1 18 2 19 3 20 100 21 4 22 99 23
REMARK SMILES IDX 101 24 90 25 91 26 92 27 93 28 97 29 94 30 96 31 95 32 19 33
REMARK SMILES IDX 20 34 21 35 22 36 23 37 24 38 25 39 26 40 87 41 27 42 86 43
REMARK SMILES IDX 28 44 29 45 30 46 80 47 31 48 85 49 79 50 81 51 32 52 84 53
REMARK SMILES IDX 78 54 77 55 33 57 65 58 45 59 64 60 46 61 49 62 63 63 82 64
REMARK SMILES IDX 47 65 48 66 62 68 83 69 50 70 34 71 35 72 43 73 36 74 38 75
REMARK SMILES IDX 44 76 37 77 39 78 40 79 41 80 42 81 66 82 67 83 75 84 68 85
REMARK SMILES IDX 70 86 76 87 69 88 71 89 72 90 73 91 74 92 51 93 52 94 60 95
REMARK SMILES IDX 53 96 55 97 61 98 54 99 56 100 57 101 58 102 59 103
REMARK H PARENT 81 56 49 67
REMARK Flexibility Score: inf
ROOT
ATOM      1  C   UNL     1     -10.117  -2.501   0.946  1.00  0.00     0.188 C 
ENDROOT
BRANCH   1   2
ATOM      2  C   UNL     1      -9.189  -3.358   1.807  1.00  0.00     0.188 C 
BRANCH   2   3
ATOM      3  O   UNL     1      -9.472  -3.379   3.203  1.00  0.00    -0.376 OA
BRANCH   3   4
ATOM      4  C   UNL     1      -9.936  -2.151   3.759  1.00  0.00     0.202 C 
BRANCH   4   5
ATOM      5  C   UNL     1      -8.901  -1.009   3.839  1.00  0.00     0.261 C 
BRANCH   5   6
ATOM      6  O   UNL     1      -8.094  -0.813   2.654  1.00  0.00    -0.463 OA
BRANCH   6   7
ATOM      7  C   UNL     1      -6.909  -1.457   2.661  1.00  0.00     0.310 C 
ATOM      8  O   UNL     1      -6.447  -2.033   3.644  1.00  0.00    -0.252 OA
BRANCH   7   9
ATOM      9  C   UNL     1      -6.156  -1.453   1.342  1.00  0.00     0.119 C 
ATOM     10  N   UNL     1      -4.034  -0.692   0.472  1.00  0.00    -0.337 N 
ATOM     11  C   UNL     1      -4.978  -0.543   1.554  1.00  0.00     0.135 C 
ATOM     12  C   UNL     1      -4.514  -0.384  -0.875  1.00  0.00     0.133 C 
ATOM     13  C   UNL     1      -5.830  -1.125  -1.212  1.00  0.00     0.099 C 
ATOM     14  C   UNL     1      -6.822  -1.179  -0.020  1.00  0.00     0.032 C 
BRANCH  10  15
ATOM     15  C   UNL     1      -2.774  -1.165   0.780  1.00  0.00     0.254 C 
ATOM     16  O   UNL     1      -2.565  -2.022   1.634  1.00  0.00    -0.269 OA
BRANCH  15  17
ATOM     17  C   UNL     1      -1.615  -0.432   0.231  1.00  0.00     0.042 A 
ATOM     18  C   UNL     1       1.968   1.867  -0.227  1.00  0.00     0.047 C 
ATOM     19  C   UNL     1       0.703   1.069  -0.163  1.00  0.00    -0.015 A 
ATOM     20  C   UNL     1      -0.539   1.708  -0.112  1.00  0.00     0.007 A 
ATOM     21  C   UNL     1       0.758  -0.327  -0.071  1.00  0.00     0.126 A 
ATOM     22  C   UNL     1      -1.694   0.960   0.090  1.00  0.00     0.014 A 
ATOM     23  C   UNL     1      -0.387  -1.085   0.130  1.00  0.00     0.053 A 
ATOM     24  F   UNL     1       1.947  -0.947  -0.111  1.00  0.00    -0.207 F 
ENDBRANCH  15  17
ENDBRANCH  10  15
BRANCH  13  25
ATOM     25  C   UNL     1      -5.442  -2.361  -2.058  1.00  0.00     0.227 C 
ATOM     26  O   UNL     1      -5.235  -2.183  -3.267  1.00  0.00    -0.275 OA
ATOM     27  N   UNL     1      -5.026  -3.532  -1.473  1.00  0.00    -0.338 N 
ATOM     28  C   UNL     1      -5.732  -4.331  -0.478  1.00  0.00     0.148 C 
ATOM     29  C   UNL     1      -3.885  -4.252  -2.049  1.00  0.00     0.148 C 
ATOM     30  C   UNL     1      -4.754  -4.790   0.614  1.00  0.00     0.181 C 
ATOM     31  C   UNL     1      -2.947  -4.670  -0.911  1.00  0.00     0.181 C 
ATOM     32  O   UNL     1      -3.638  -5.499   0.041  1.00  0.00    -0.378 OA
ENDBRANCH  13  25
ENDBRANCH   7   9
ENDBRANCH   6   7
ENDBRANCH   5   6
ENDBRANCH   4   5
ENDBRANCH   3   4
ENDBRANCH   2   3
ENDBRANCH   1   2
BRANCH   1  33
ATOM     33  O   UNL     1     -10.310  -1.139   1.309  1.00  0.00    -0.376 OA
BRANCH  33  34
ATOM     34  C   UNL     1     -11.300  -0.376   0.600  1.00  0.00     0.202 C 
BRANCH  34  35
ATOM     35  C   UNL     1     -12.729  -0.941   0.396  1.00  0.00     0.261 C 
BRANCH  35  36
ATOM     36  O   UNL     1     -12.808  -2.311   0.030  1.00  0.00    -0.460 OA
BRANCH  36  37
ATOM     37  C   UNL     1     -12.061  -2.606  -1.040  1.00  0.00     0.338 C 
ATOM     38  O   UNL     1     -11.451  -1.823  -1.774  1.00  0.00    -0.246 OA
BRANCH  37  39
ATOM     39  C   UNL     1     -11.794  -4.035  -1.091  1.00  0.00     0.060 A 
ATOM     40  C   UNL     1     -10.693  -4.407  -1.885  1.00  0.00     0.016 A 
ATOM     41  C   UNL     1     -12.826  -4.890  -0.733  1.00  0.00     0.016 A 
ATOM     42  C   UNL     1     -10.863  -5.459  -2.729  1.00  0.00     0.010 A 
ATOM     43  C   UNL     1     -13.008  -5.926  -1.587  1.00  0.00     0.010 A 
ATOM     44  C   UNL     1     -12.098  -6.068  -2.652  1.00  0.00    -0.014 A 
BRANCH  44  45
ATOM     45  C   UNL     1     -12.634  -6.799  -3.755  1.00  0.00     0.031 A 
ATOM     46  C   UNL     1     -12.458  -8.238  -3.675  1.00  0.00     0.074 A 
ATOM     47  C   UNL     1     -13.476  -6.091  -4.539  1.00  0.00     0.049 A 
ATOM     48  N   UNL     1     -12.645  -9.035  -4.653  1.00  0.00    -0.248 NA
ATOM     49  C   UNL     1     -11.947  -8.911  -2.474  1.00  0.00     0.031 C 
ATOM     50  C   UNL     1     -14.608  -6.556  -5.315  1.00  0.00     0.029 A 
ATOM     51  N   UNL     1     -13.328  -4.752  -4.916  1.00  0.00    -0.354 N 
ATOM     52  C   UNL     1     -12.770 -10.278  -4.087  1.00  0.00     0.074 A 
ATOM     53  C   UNL     1     -12.123 -10.193  -2.803  1.00  0.00     0.031 C 
ATOM     54  C   UNL     1     -14.907  -5.633  -6.248  1.00  0.00     0.029 A 
ATOM     55  C   UNL     1     -13.854  -4.628  -6.218  1.00  0.00     0.049 A 
ATOM     56  H   UNL     1     -12.930  -4.032  -4.374  1.00  0.00     0.167 HD
ATOM     57  C   UNL     1     -13.620 -11.155  -4.681  1.00  0.00     0.034 A 
ATOM     58  C   UNL     1     -13.005  -4.355  -7.258  1.00  0.00     0.034 A 
ATOM     59  C   UNL     1     -14.230 -10.539  -5.856  1.00  0.00     0.049 A 
ATOM     60  C   UNL     1     -12.843  -5.532  -8.204  1.00  0.00     0.074 A 
ATOM     61  C   UNL     1     -15.457  -9.946  -6.103  1.00  0.00     0.029 A 
ATOM     62  N   UNL     1     -13.402 -10.138  -6.881  1.00  0.00    -0.354 N 
ATOM     63  N   UNL     1     -13.239  -6.744  -7.925  1.00  0.00    -0.248 NA
ATOM     64  C   UNL     1     -12.170  -5.463  -9.499  1.00  0.00     0.031 C 
ATOM     65  C   UNL     1     -15.355  -9.214  -7.322  1.00  0.00     0.029 A 
ATOM     66  C   UNL     1     -14.068  -9.362  -7.799  1.00  0.00     0.049 A 
ATOM     67  H   UNL     1     -12.450 -10.378  -6.949  1.00  0.00     0.167 HD
ATOM     68  C   UNL     1     -12.950  -7.585  -8.963  1.00  0.00     0.074 A 
ATOM     69  C   UNL     1     -12.222  -6.747  -9.900  1.00  0.00     0.031 C 
ATOM     70  C   UNL     1     -13.322  -8.900  -8.953  1.00  0.00     0.034 A 
BRANCH  57  71
ATOM     71  C   UNL     1     -14.090 -12.451  -4.090  1.00  0.00     0.023 A 
ATOM     72  C   UNL     1     -13.408 -13.135  -3.062  1.00  0.00     0.012 A 
ATOM     73  C   UNL     1     -15.260 -13.065  -4.581  1.00  0.00     0.148 A 
ATOM     74  C   UNL     1     -13.894 -14.328  -2.510  1.00  0.00     0.002 A 
ATOM     75  C   UNL     1     -15.731 -14.259  -4.048  1.00  0.00     0.091 A 
ATOM     76  F   UNL     1     -15.948 -12.508  -5.584  1.00  0.00    -0.205 F 
ATOM     77  C   UNL     1     -15.060 -14.894  -3.005  1.00  0.00     0.022 A 
BRANCH  75  78
ATOM     78  S   UNL     1     -17.218 -14.967  -4.751  1.00  0.00     0.127 S 
ATOM     79  O   UNL     1     -18.229 -13.958  -4.450  1.00  0.00    -0.237 OA
ATOM     80  O   UNL     1     -16.863 -15.151  -6.154  1.00  0.00    -0.237 OA
ATOM     81  O   UNL     1     -17.373 -16.216  -4.003  1.00  0.00    -0.744 OA
ENDBRANCH  75  78
ENDBRANCH  57  71
BRANCH  58  82
ATOM     82  C   UNL     1     -11.915  -3.409  -6.847  1.00  0.00     0.023 A 
ATOM     83  C   UNL     1     -10.655  -3.907  -6.472  1.00  0.00     0.012 A 
ATOM     84  C   UNL     1     -12.311  -2.135  -6.373  1.00  0.00     0.148 A 
ATOM     85  C   UNL     1      -9.878  -3.213  -5.533  1.00  0.00     0.002 A 
ATOM     86  C   UNL     1     -11.562  -1.483  -5.396  1.00  0.00     0.091 A 
ATOM     87  F   UNL     1     -13.498  -1.643  -6.767  1.00  0.00    -0.205 F 
ATOM     88  C   UNL     1     -10.351  -2.028  -4.959  1.00  0.00     0.022 A 
BRANCH  86  89
ATOM     89  S   UNL     1     -12.283  -0.058  -4.563  1.00  0.00     0.127 S 
ATOM     90  O   UNL     1     -12.508   0.885  -5.654  1.00  0.00    -0.237 OA
ATOM     91  O   UNL     1     -13.482  -0.618  -3.940  1.00  0.00    -0.237 OA
ATOM     92  O   UNL     1     -11.247   0.377  -3.624  1.00  0.00    -0.744 OA
ENDBRANCH  86  89
ENDBRANCH  58  82
BRANCH  70  93
ATOM     93  C   UNL     1     -12.941  -9.917  -9.995  1.00  0.00     0.023 A 
ATOM     94  C   UNL     1     -12.703 -11.264  -9.611  1.00  0.00     0.012 A 
ATOM     95  C   UNL     1     -12.843  -9.627 -11.356  1.00  0.00     0.148 A 
ATOM     96  C   UNL     1     -12.288 -12.244 -10.510  1.00  0.00     0.002 A 
ATOM     97  C   UNL     1     -12.356 -10.586 -12.242  1.00  0.00     0.091 A 
ATOM     98  F   UNL     1     -13.255  -8.437 -11.814  1.00  0.00    -0.205 F 
ATOM     99  C   UNL     1     -12.077 -11.893 -11.830  1.00  0.00     0.022 A 
BRANCH  97 100
ATOM    100  S   UNL     1     -11.951 -10.066 -13.903  1.00  0.00     0.127 S 
ATOM    101  O   UNL     1     -13.237  -9.652 -14.451  1.00  0.00    -0.237 OA
ATOM    102  O   UNL     1     -10.973  -9.005 -13.667  1.00  0.00    -0.237 OA
ATOM    103  O   UNL     1     -11.391 -11.273 -14.510  1.00  0.00    -0.744 OA
ENDBRANCH  97 100
ENDBRANCH  70  93
ENDBRANCH  44  45
ENDBRANCH  37  39
ENDBRANCH  36  37
ENDBRANCH  35  36
ENDBRANCH  34  35
ENDBRANCH  33  34
ENDBRANCH   1  33
TORSDOF 23
