REMARK SMILES O=C(OCCOCCOCCOC(=O)[C@@H]1CCC[N@@H+](Cc2cccc3ccccc23)C1)c1ccc(-c2c3nc(c(-c4cccc(S(=O)(=O)[O-])c4F)c4ccc([nH]4)c(-c4cccc(S(=O)(=O)[O-])c4F)c4nc(c(-c5cccc(S(=O)(=O)[O-])c5F)c5ccc2[nH]5)C=C4)C=C3)cc1
REMARK SMILES IDX 7 1 6 2 5 3 4 4 3 5 2 6 1 7 32 8 33 9 94 10 34 11 93 12
REMARK SMILES IDX 35 13 36 14 37 15 87 16 38 17 92 18 86 19 88 20 39 21 91 22
REMARK SMILES IDX 85 23 84 24 40 26 72 27 52 28 71 29 53 30 56 31 70 32 89 33
REMARK SMILES IDX 54 34 55 35 69 37 90 38 57 39 41 40 42 41 50 42 43 43 45 44
REMARK SMILES IDX 51 45 44 46 46 47 47 48 48 49 49 50 73 51 74 52 82 53 75 54
REMARK SMILES IDX 77 55 83 56 76 57 78 58 79 59 80 60 81 61 58 62 59 63 67 64
REMARK SMILES IDX 60 65 62 66 68 67 61 68 63 69 64 70 65 71 66 72 8 73 9 74
REMARK SMILES IDX 10 75 11 76 12 77 13 78 14 79 15 80 16 81 31 82 17 83 19 84
REMARK SMILES IDX 18 85 20 87 21 88 22 89 30 90 23 91 25 92 29 93 24 94 26 95
REMARK SMILES IDX 28 96 27 97
REMARK H PARENT 88 25 56 36 19 86
REMARK Flexibility Score: inf
ROOT
ATOM      1  C   UNL     1       3.068   1.694   0.230  1.00  0.00     0.188 C 
ENDROOT
BRANCH   1   2
ATOM      2  O   UNL     1       4.470   1.640   0.009  1.00  0.00    -0.376 OA
BRANCH   2   3
ATOM      3  C   UNL     1       4.924   1.417  -1.320  1.00  0.00     0.202 C 
BRANCH   3   4
ATOM      4  C   UNL     1       4.734   0.007  -1.921  1.00  0.00     0.261 C 
BRANCH   4   5
ATOM      5  O   UNL     1       3.443  -0.578  -1.703  1.00  0.00    -0.460 OA
BRANCH   5   6
ATOM      6  C   UNL     1       3.067  -1.464  -0.744  1.00  0.00     0.338 C 
ATOM      7  O   UNL     1       1.971  -2.011  -0.869  1.00  0.00    -0.246 OA
BRANCH   6   8
ATOM      8  C   UNL     1       3.868  -1.758   0.493  1.00  0.00     0.060 A 
ATOM      9  C   UNL     1       5.069  -1.154   0.861  1.00  0.00     0.016 A 
ATOM     10  C   UNL     1       3.332  -2.695   1.389  1.00  0.00     0.016 A 
ATOM     11  C   UNL     1       5.740  -1.480   2.034  1.00  0.00     0.010 A 
ATOM     12  C   UNL     1       3.955  -2.971   2.613  1.00  0.00     0.010 A 
ATOM     13  C   UNL     1       5.191  -2.383   2.927  1.00  0.00    -0.014 A 
BRANCH  13  14
ATOM     14  C   UNL     1       6.003  -2.838   4.077  1.00  0.00     0.031 A 
ATOM     15  C   UNL     1       6.451  -4.267   4.073  1.00  0.00     0.074 A 
ATOM     16  C   UNL     1       6.419  -1.997   5.048  1.00  0.00     0.049 A 
ATOM     17  N   UNL     1       7.191  -4.891   4.945  1.00  0.00    -0.248 NA
ATOM     18  C   UNL     1       6.085  -5.084   2.899  1.00  0.00     0.031 C 
ATOM     19  C   UNL     1       6.244  -0.547   5.068  1.00  0.00     0.029 A 
ATOM     20  N   UNL     1       7.030  -2.248   6.250  1.00  0.00    -0.354 N 
ATOM     21  C   UNL     1       7.423  -6.143   4.399  1.00  0.00     0.074 A 
ATOM     22  C   UNL     1       6.654  -6.242   3.183  1.00  0.00     0.031 C 
ATOM     23  C   UNL     1       6.514  -0.070   6.293  1.00  0.00     0.029 A 
ATOM     24  C   UNL     1       7.003  -1.167   7.106  1.00  0.00     0.049 A 
ATOM     25  H   UNL     1       7.445  -3.111   6.478  1.00  0.00     0.167 HD
ATOM     26  C   UNL     1       8.282  -7.090   4.827  1.00  0.00     0.034 A 
ATOM     27  C   UNL     1       7.355  -1.070   8.400  1.00  0.00     0.034 A 
ATOM     28  C   UNL     1       9.037  -6.972   6.038  1.00  0.00     0.049 A 
ATOM     29  C   UNL     1       8.142  -2.216   8.963  1.00  0.00     0.074 A 
ATOM     30  C   UNL     1       9.920  -7.874   6.595  1.00  0.00     0.029 A 
ATOM     31  N   UNL     1       8.976  -5.879   6.892  1.00  0.00    -0.354 N 
ATOM     32  N   UNL     1       8.434  -3.361   8.394  1.00  0.00    -0.248 NA
ATOM     33  C   UNL     1       8.765  -2.013  10.274  1.00  0.00     0.031 C 
ATOM     34  C   UNL     1      10.363  -7.343   7.811  1.00  0.00     0.029 A 
ATOM     35  C   UNL     1       9.790  -6.091   7.987  1.00  0.00     0.049 A 
ATOM     36  H   UNL     1       8.434  -5.072   6.738  1.00  0.00     0.167 HD
ATOM     37  C   UNL     1       9.347  -3.978   9.231  1.00  0.00     0.074 A 
ATOM     38  C   UNL     1       9.546  -3.082  10.356  1.00  0.00     0.031 C 
ATOM     39  C   UNL     1       9.980  -5.167   9.076  1.00  0.00     0.034 A 
BRANCH  26  40
ATOM     40  C   UNL     1       8.441  -8.295   3.947  1.00  0.00     0.023 A 
ATOM     41  C   UNL     1       9.107  -8.171   2.707  1.00  0.00     0.012 A 
ATOM     42  C   UNL     1       7.887  -9.530   4.317  1.00  0.00     0.148 A 
ATOM     43  C   UNL     1       9.179  -9.252   1.830  1.00  0.00     0.002 A 
ATOM     44  C   UNL     1       8.002 -10.615   3.459  1.00  0.00     0.091 A 
ATOM     45  F   UNL     1       7.232  -9.610   5.484  1.00  0.00    -0.205 F 
ATOM     46  C   UNL     1       8.632 -10.475   2.209  1.00  0.00     0.022 A 
BRANCH  44  47
ATOM     47  S   UNL     1       7.376 -12.244   3.869  1.00  0.00     0.127 S 
ATOM     48  O   UNL     1       6.362 -12.442   2.836  1.00  0.00    -0.237 OA
ATOM     49  O   UNL     1       8.570 -13.071   3.725  1.00  0.00    -0.237 OA
ATOM     50  O   UNL     1       6.856 -12.146   5.231  1.00  0.00    -0.744 OA
ENDBRANCH  44  47
ENDBRANCH  26  40
BRANCH  27  51
ATOM     51  C   UNL     1       7.098   0.174   9.181  1.00  0.00     0.023 A 
ATOM     52  C   UNL     1       8.158   1.044   9.495  1.00  0.00     0.012 A 
ATOM     53  C   UNL     1       5.797   0.490   9.627  1.00  0.00     0.148 A 
ATOM     54  C   UNL     1       7.942   2.175  10.286  1.00  0.00     0.002 A 
ATOM     55  C   UNL     1       5.582   1.636  10.388  1.00  0.00     0.091 A 
ATOM     56  F   UNL     1       4.797  -0.345   9.313  1.00  0.00    -0.205 F 
ATOM     57  C   UNL     1       6.657   2.471  10.732  1.00  0.00     0.022 A 
BRANCH  55  58
ATOM     58  S   UNL     1       3.951   2.142  10.949  1.00  0.00     0.127 S 
ATOM     59  O   UNL     1       4.031   1.877  12.383  1.00  0.00    -0.237 OA
ATOM     60  O   UNL     1       3.931   3.559  10.585  1.00  0.00    -0.237 OA
ATOM     61  O   UNL     1       3.006   1.319  10.205  1.00  0.00    -0.744 OA
ENDBRANCH  55  58
ENDBRANCH  27  51
BRANCH  39  62
ATOM     62  C   UNL     1      10.970  -5.550  10.136  1.00  0.00     0.023 A 
ATOM     63  C   UNL     1      10.519  -5.905  11.421  1.00  0.00     0.012 A 
ATOM     64  C   UNL     1      12.342  -5.619   9.832  1.00  0.00     0.148 A 
ATOM     65  C   UNL     1      11.427  -6.285  12.405  1.00  0.00     0.002 A 
ATOM     66  C   UNL     1      13.234  -6.061  10.797  1.00  0.00     0.091 A 
ATOM     67  F   UNL     1      12.748  -5.253   8.607  1.00  0.00    -0.205 F 
ATOM     68  C   UNL     1      12.781  -6.377  12.089  1.00  0.00     0.022 A 
BRANCH  66  69
ATOM     69  S   UNL     1      14.974  -6.323  10.444  1.00  0.00     0.127 S 
ATOM     70  O   UNL     1      15.594  -5.217  11.172  1.00  0.00    -0.237 OA
ATOM     71  O   UNL     1      15.209  -7.645  11.024  1.00  0.00    -0.237 OA
ATOM     72  O   UNL     1      15.103  -6.268   8.995  1.00  0.00    -0.744 OA
ENDBRANCH  66  69
ENDBRANCH  39  62
ENDBRANCH  13  14
ENDBRANCH   6   8
ENDBRANCH   5   6
ENDBRANCH   4   5
ENDBRANCH   3   4
ENDBRANCH   2   3
ENDBRANCH   1   2
BRANCH   1  73
ATOM     73  C   UNL     1       2.315   3.026   0.101  1.00  0.00     0.188 C 
BRANCH  73  74
ATOM     74  O   UNL     1       2.978   4.231  -0.233  1.00  0.00    -0.376 OA
BRANCH  74  75
ATOM     75  C   UNL     1       4.249   4.494   0.329  1.00  0.00     0.202 C 
BRANCH  75  76
ATOM     76  C   UNL     1       4.453   4.480   1.851  1.00  0.00     0.261 C 
BRANCH  76  77
ATOM     77  O   UNL     1       3.818   3.425   2.591  1.00  0.00    -0.463 OA
BRANCH  77  78
ATOM     78  C   UNL     1       2.700   3.791   3.276  1.00  0.00     0.314 C 
ATOM     79  O   UNL     1       2.135   4.873   3.134  1.00  0.00    -0.252 OA
BRANCH  78  80
ATOM     80  C   UNL     1       2.181   2.739   4.242  1.00  0.00     0.154 C 
ATOM     81  C   UNL     1       3.243   1.860   4.894  1.00  0.00     0.027 C 
ATOM     82  C   UNL     1       0.950   1.971   3.707  1.00  0.00     0.277 C 
ATOM     83  C   UNL     1       3.374   0.507   4.228  1.00  0.00     0.062 C 
ATOM     84  N   UNL     1       1.213   0.659   3.092  1.00  0.00    -0.330 N 
ATOM     85  C   UNL     1       2.052  -0.162   3.962  1.00  0.00     0.262 C 
ATOM     86  H   UNL     1       1.710   0.874   2.227  1.00  0.00     0.348 HD
BRANCH  84  87
ATOM     87  C   UNL     1       0.002  -0.100   2.662  1.00  0.00     0.299 C 
BRANCH  87  88
ATOM     88  C   UNL     1      -0.624  -1.021   3.716  1.00  0.00     0.014 A 
ATOM     89  C   UNL     1      -1.240  -0.401   4.818  1.00  0.00     0.010 A 
ATOM     90  C   UNL     1      -0.453  -2.446   3.723  1.00  0.00    -0.010 A 
ATOM     91  C   UNL     1      -1.526  -1.114   5.974  1.00  0.00     0.001 A 
ATOM     92  C   UNL     1      -0.739  -3.154   4.922  1.00  0.00    -0.018 A 
ATOM     93  C   UNL     1      -0.005  -3.223   2.626  1.00  0.00     0.009 A 
ATOM     94  C   UNL     1      -1.244  -2.473   6.035  1.00  0.00     0.009 A 
ATOM     95  C   UNL     1      -0.507  -4.537   5.013  1.00  0.00     0.009 A 
ATOM     96  C   UNL     1       0.192  -4.608   2.721  1.00  0.00     0.001 A 
ATOM     97  C   UNL     1      -0.041  -5.262   3.921  1.00  0.00     0.001 A 
ENDBRANCH  87  88
ENDBRANCH  84  87
ENDBRANCH  78  80
ENDBRANCH  77  78
ENDBRANCH  76  77
ENDBRANCH  75  76
ENDBRANCH  74  75
ENDBRANCH  73  74
ENDBRANCH   1  73
TORSDOF 22
