REMARK SMILES CC(C)(C)NS(=O)(=O)c1csc(C(=O)Nc2ccccc2C(=O)OCCOCCOCCOC(=O)c2ccc(-c3c4nc(c(-c5cccc(S(=O)(=O)[O-])c5F)c5ccc([nH]5)c(-c5cccc(S(=O)(=O)[O-])c5F)c5nc(c(-c6cccc(S(=O)(=O)[O-])c6F)c6ccc3[nH]6)C=C5)C=C4)cc2)c1
REMARK SMILES IDX 28 1 27 2 26 3 25 4 24 5 22 6 23 7 21 8 16 9 17 10 18 11
REMARK SMILES IDX 20 12 19 13 15 14 13 15 14 16 12 18 9 19 10 20 99 21 11 22
REMARK SMILES IDX 6 23 7 24 8 25 5 26 2 28 1 29 3 30 4 31 29 32 30 33 31 34
REMARK SMILES IDX 32 35 33 36 34 37 35 38 36 39 37 40 98 41 38 42 97 43 39 44
REMARK SMILES IDX 40 45 41 46 91 47 42 48 96 49 90 50 92 51 43 52 95 53 89 54
REMARK SMILES IDX 88 55 44 57 76 58 56 59 75 60 57 61 60 62 74 63 93 64 58 65
REMARK SMILES IDX 59 66 73 68 94 69 61 70 45 71 46 72 54 73 47 74 49 75 55 76
REMARK SMILES IDX 48 77 50 78 51 79 52 80 53 81 77 82 78 83 86 84 79 85 81 86
REMARK SMILES IDX 87 87 80 88 82 89 83 90 84 91 85 92 62 93 63 94 71 95 64 96
REMARK SMILES IDX 66 97 72 98 65 99 67 100 68 101 69 102 70 103
REMARK H PARENT 15 17 5 27 92 56 60 67
REMARK Flexibility Score: inf
ROOT
ATOM      1  C   UNL     1       8.286  -0.908   1.433  1.00  0.00     0.188 C 
ENDROOT
BRANCH   1   2
ATOM      2  O   UNL     1       8.297  -2.270   1.790  1.00  0.00    -0.376 OA
BRANCH   2   3
ATOM      3  C   UNL     1       7.087  -2.997   1.760  1.00  0.00     0.202 C 
BRANCH   3   4
ATOM      4  C   UNL     1       5.809  -2.535   1.050  1.00  0.00     0.261 C 
BRANCH   4   5
ATOM      5  O   UNL     1       5.872  -1.477   0.085  1.00  0.00    -0.460 OA
BRANCH   5   6
ATOM      6  C   UNL     1       5.424  -0.274   0.528  1.00  0.00     0.340 C 
ATOM      7  O   UNL     1       5.152  -0.025   1.693  1.00  0.00    -0.246 OA
BRANCH   6   8
ATOM      8  C   UNL     1       5.369   0.765  -0.544  1.00  0.00     0.083 A 
ATOM      9  C   UNL     1       5.128   0.545  -1.917  1.00  0.00     0.056 A 
ATOM     10  C   UNL     1       5.237   1.646  -2.792  1.00  0.00     0.027 A 
ATOM     11  C   UNL     1       5.475   2.941  -2.320  1.00  0.00     0.002 A 
ATOM     12  C   UNL     1       5.610   2.079  -0.084  1.00  0.00     0.018 A 
ATOM     13  C   UNL     1       5.649   3.160  -0.961  1.00  0.00     0.001 A 
BRANCH   9  14
ATOM     14  N   UNL     1       4.735  -0.657  -2.557  1.00  0.00    -0.320 N 
ATOM     15  C   UNL     1       3.965  -1.743  -2.168  1.00  0.00     0.265 C 
ATOM     16  O   UNL     1       3.958  -2.714  -2.929  1.00  0.00    -0.268 OA
ATOM     17  H   UNL     1       5.083  -0.738  -3.474  1.00  0.00     0.170 HD
BRANCH  15  18
ATOM     18  C   UNL     1       3.144  -1.667  -0.971  1.00  0.00     0.094 A 
ATOM     19  C   UNL     1       2.295  -0.855   1.031  1.00  0.00     0.093 A 
ATOM     20  C   UNL     1       2.203  -2.211   1.249  1.00  0.00     0.087 A 
ATOM     21  C   UNL     1       2.677  -0.557  -0.305  1.00  0.00     0.047 A 
ATOM     22  S   UNL     1       2.603  -3.092  -0.173  1.00  0.00    -0.137 S 
BRANCH  19  23
ATOM     23  S   UNL     1       1.994   0.380   2.200  1.00  0.00     0.241 S 
ATOM     24  O   UNL     1       2.771   1.523   1.769  1.00  0.00    -0.207 OA
ATOM     25  O   UNL     1       2.179  -0.259   3.477  1.00  0.00    -0.207 OA
BRANCH  23  26
ATOM     26  N   UNL     1       0.375   0.810   2.094  1.00  0.00    -0.206 NA
ATOM     27  H   UNL     1      -0.152  -0.023   2.356  1.00  0.00     0.141 HD
BRANCH  26  28
ATOM     28  C   UNL     1      -0.263   1.320   0.848  1.00  0.00     0.025 C 
ATOM     29  C   UNL     1      -0.320   0.256  -0.257  1.00  0.00     0.028 C 
ATOM     30  C   UNL     1       0.398   2.605   0.338  1.00  0.00     0.028 C 
ATOM     31  C   UNL     1      -1.714   1.619   1.251  1.00  0.00     0.028 C 
ENDBRANCH  26  28
ENDBRANCH  23  26
ENDBRANCH  19  23
ENDBRANCH  15  18
ENDBRANCH   9  14
ENDBRANCH   6   8
ENDBRANCH   5   6
ENDBRANCH   4   5
ENDBRANCH   3   4
ENDBRANCH   2   3
ENDBRANCH   1   2
BRANCH   1  32
ATOM     32  C   UNL     1       8.520  -0.636  -0.073  1.00  0.00     0.188 C 
BRANCH  32  33
ATOM     33  O   UNL     1       8.638  -1.714  -0.984  1.00  0.00    -0.376 OA
BRANCH  33  34
ATOM     34  C   UNL     1       9.554  -2.752  -0.670  1.00  0.00     0.202 C 
BRANCH  34  35
ATOM     35  C   UNL     1      10.943  -2.464  -0.047  1.00  0.00     0.261 C 
BRANCH  35  36
ATOM     36  O   UNL     1      11.043  -1.387   0.906  1.00  0.00    -0.460 OA
BRANCH  36  37
ATOM     37  C   UNL     1      11.587  -0.224   0.457  1.00  0.00     0.338 C 
ATOM     38  O   UNL     1      12.082  -0.037  -0.643  1.00  0.00    -0.246 OA
BRANCH  37  39
ATOM     39  C   UNL     1      11.246   0.892   1.387  1.00  0.00     0.060 A 
ATOM     40  C   UNL     1      10.505   1.977   0.881  1.00  0.00     0.016 A 
ATOM     41  C   UNL     1      11.618   0.878   2.731  1.00  0.00     0.016 A 
ATOM     42  C   UNL     1      10.175   3.060   1.696  1.00  0.00     0.010 A 
ATOM     43  C   UNL     1      11.324   1.990   3.539  1.00  0.00     0.010 A 
ATOM     44  C   UNL     1      10.646   3.107   3.011  1.00  0.00    -0.014 A 
BRANCH  44  45
ATOM     45  C   UNL     1      10.683   4.424   3.704  1.00  0.00     0.031 A 
ATOM     46  C   UNL     1      11.973   5.206   3.647  1.00  0.00     0.074 A 
ATOM     47  C   UNL     1       9.609   4.957   4.315  1.00  0.00     0.049 A 
ATOM     48  N   UNL     1      12.260   6.380   4.148  1.00  0.00    -0.248 NA
ATOM     49  C   UNL     1      13.090   4.574   2.924  1.00  0.00     0.031 C 
ATOM     50  C   UNL     1       8.293   4.331   4.424  1.00  0.00     0.029 A 
ATOM     51  N   UNL     1       9.469   6.154   4.978  1.00  0.00    -0.354 N 
ATOM     52  C   UNL     1      13.594   6.610   3.830  1.00  0.00     0.074 A 
ATOM     53  C   UNL     1      14.065   5.450   3.108  1.00  0.00     0.031 C 
ATOM     54  C   UNL     1       7.486   5.137   5.138  1.00  0.00     0.029 A 
ATOM     55  C   UNL     1       8.232   6.326   5.554  1.00  0.00     0.049 A 
ATOM     56  H   UNL     1      10.187   6.825   5.034  1.00  0.00     0.167 HD
ATOM     57  C   UNL     1      14.362   7.692   4.099  1.00  0.00     0.034 A 
ATOM     58  C   UNL     1       7.764   7.317   6.341  1.00  0.00     0.034 A 
ATOM     59  C   UNL     1      13.900   8.855   4.806  1.00  0.00     0.049 A 
ATOM     60  C   UNL     1       8.651   8.497   6.661  1.00  0.00     0.074 A 
ATOM     61  C   UNL     1      14.594  10.018   5.092  1.00  0.00     0.029 A 
ATOM     62  N   UNL     1      12.638   8.997   5.358  1.00  0.00    -0.354 N 
ATOM     63  N   UNL     1       9.874   8.749   6.261  1.00  0.00    -0.248 NA
ATOM     64  C   UNL     1       8.075   9.550   7.513  1.00  0.00     0.031 C 
ATOM     65  C   UNL     1      13.764  10.845   5.855  1.00  0.00     0.029 A 
ATOM     66  C   UNL     1      12.536  10.220   5.998  1.00  0.00     0.049 A 
ATOM     67  H   UNL     1      11.919   8.327   5.303  1.00  0.00     0.167 HD
ATOM     68  C   UNL     1      10.198  10.001   6.778  1.00  0.00     0.074 A 
ATOM     69  C   UNL     1       9.032  10.467   7.498  1.00  0.00     0.031 C 
ATOM     70  C   UNL     1      11.358  10.698   6.676  1.00  0.00     0.034 A 
BRANCH  57  71
ATOM     71  C   UNL     1      15.791   7.667   3.621  1.00  0.00     0.023 A 
ATOM     72  C   UNL     1      16.076   7.761   2.243  1.00  0.00     0.012 A 
ATOM     73  C   UNL     1      16.853   7.589   4.543  1.00  0.00     0.148 A 
ATOM     74  C   UNL     1      17.394   7.740   1.788  1.00  0.00     0.002 A 
ATOM     75  C   UNL     1      18.164   7.621   4.085  1.00  0.00     0.091 A 
ATOM     76  F   UNL     1      16.561   7.477   5.846  1.00  0.00    -0.205 F 
ATOM     77  C   UNL     1      18.437   7.681   2.709  1.00  0.00     0.022 A 
BRANCH  75  78
ATOM     78  S   UNL     1      19.577   7.635   5.193  1.00  0.00     0.127 S 
ATOM     79  O   UNL     1      20.177   6.330   4.923  1.00  0.00    -0.237 OA
ATOM     80  O   UNL     1      20.346   8.775   4.692  1.00  0.00    -0.237 OA
ATOM     81  O   UNL     1      19.037   7.806   6.535  1.00  0.00    -0.744 OA
ENDBRANCH  75  78
ENDBRANCH  57  71
BRANCH  58  82
ATOM     82  C   UNL     1       6.372   7.259   6.879  1.00  0.00     0.023 A 
ATOM     83  C   UNL     1       5.414   8.197   6.446  1.00  0.00     0.012 A 
ATOM     84  C   UNL     1       6.002   6.295   7.837  1.00  0.00     0.148 A 
ATOM     85  C   UNL     1       4.125   8.199   6.982  1.00  0.00     0.002 A 
ATOM     86  C   UNL     1       4.701   6.267   8.325  1.00  0.00     0.091 A 
ATOM     87  F   UNL     1       6.933   5.425   8.253  1.00  0.00    -0.205 F 
ATOM     88  C   UNL     1       3.766   7.229   7.914  1.00  0.00     0.022 A 
BRANCH  86  89
ATOM     89  S   UNL     1       4.114   4.991   9.445  1.00  0.00     0.127 S 
ATOM     90  O   UNL     1       3.855   5.757  10.661  1.00  0.00    -0.237 OA
ATOM     91  O   UNL     1       2.918   4.514   8.751  1.00  0.00    -0.237 OA
ATOM     92  O   UNL     1       5.193   4.016   9.534  1.00  0.00    -0.744 OA
ENDBRANCH  86  89
ENDBRANCH  58  82
BRANCH  70  93
ATOM     93  C   UNL     1      11.417  12.065   7.315  1.00  0.00     0.023 A 
ATOM     94  C   UNL     1      11.407  12.196   8.718  1.00  0.00     0.012 A 
ATOM     95  C   UNL     1      11.535  13.223   6.518  1.00  0.00     0.148 A 
ATOM     96  C   UNL     1      11.459  13.455   9.316  1.00  0.00     0.002 A 
ATOM     97  C   UNL     1      11.644  14.471   7.122  1.00  0.00     0.091 A 
ATOM     98  F   UNL     1      11.532  13.085   5.184  1.00  0.00    -0.205 F 
ATOM     99  C   UNL     1      11.588  14.591   8.519  1.00  0.00     0.022 A 
BRANCH  97 100
ATOM    100  S   UNL     1      11.913  15.977   6.180  1.00  0.00     0.127 S 
ATOM    101  O   UNL     1      10.616  16.640   6.302  1.00  0.00    -0.237 OA
ATOM    102  O   UNL     1      12.998  16.618   6.924  1.00  0.00    -0.237 OA
ATOM    103  O   UNL     1      12.274  15.551   4.834  1.00  0.00    -0.744 OA
ENDBRANCH  97 100
ENDBRANCH  70  93
ENDBRANCH  44  45
ENDBRANCH  37  39
ENDBRANCH  36  37
ENDBRANCH  35  36
ENDBRANCH  34  35
ENDBRANCH  33  34
ENDBRANCH  32  33
ENDBRANCH   1  32
TORSDOF 25
