REMARK SMILES CC(C)C[C@H](NS(=O)(=O)N1C[C@@H](C)C[C@H](C)C1)C(=O)OCCOCCOCCOC(=O)c1ccc(-c2c3nc(c(-c4cccc(S(=O)(=O)[O-])c4F)c4ccc([nH]4)c(-c4cccc(S(=O)(=O)[O-])c4F)c4nc(c(-c5cccc(S(=O)(=O)[O-])c5F)c5ccc2[nH]5)C=C4)C=C3)cc1
REMARK SMILES IDX 24 1 23 2 22 3 21 4 20 5 18 6 19 7 5 8 4 9 2 10 1 11 3 12
REMARK SMILES IDX 6 13 7 15 8 16 9 17 10 18 11 19 17 20 12 21 15 22 13 23
REMARK SMILES IDX 14 24 16 25 25 26 26 27 27 28 28 29 29 30 30 31 31 32 32 33
REMARK SMILES IDX 33 34 94 35 34 36 93 37 35 38 36 39 37 40 87 41 38 42 92 43
REMARK SMILES IDX 86 44 88 45 39 46 91 47 85 48 84 49 40 51 72 52 52 53 71 54
REMARK SMILES IDX 53 55 56 56 70 57 89 58 54 59 55 60 69 62 90 63 57 64 41 65
REMARK SMILES IDX 42 66 50 67 43 68 45 69 51 70 44 71 46 72 47 73 48 74 49 75
REMARK SMILES IDX 73 76 74 77 82 78 75 79 77 80 83 81 76 82 78 83 79 84 80 85
REMARK SMILES IDX 81 86 58 87 59 88 67 89 60 90 62 91 68 92 61 93 63 94 64 95
REMARK SMILES IDX 65 96 66 97
REMARK H PARENT 6 14 88 50 56 61
REMARK Flexibility Score: inf
ROOT
ATOM      1  C   UNL     1      -4.263   0.334   0.597  1.00  0.00     0.188 C 
ENDROOT
BRANCH   1   2
ATOM      2  O   UNL     1      -5.607   0.060   0.276  1.00  0.00    -0.376 OA
BRANCH   2   3
ATOM      3  C   UNL     1      -5.957  -0.702  -0.864  1.00  0.00     0.202 C 
BRANCH   3   4
ATOM      4  C   UNL     1      -5.032  -1.102  -2.034  1.00  0.00     0.261 C 
BRANCH   4   5
ATOM      5  O   UNL     1      -3.619  -1.214  -1.820  1.00  0.00    -0.462 OA
BRANCH   5   6
ATOM      6  C   UNL     1      -2.897  -0.117  -2.195  1.00  0.00     0.324 C 
ATOM      7  O   UNL     1      -3.412   0.922  -2.594  1.00  0.00    -0.250 OA
BRANCH   6   8
ATOM      8  C   UNL     1      -1.372  -0.343  -2.119  1.00  0.00     0.181 C 
BRANCH   8   9
ATOM      9  C   UNL     1      -0.894  -0.642  -3.538  1.00  0.00     0.035 C 
BRANCH   9  10
ATOM     10  C   UNL     1      -1.258   0.435  -4.584  1.00  0.00    -0.015 C 
ATOM     11  C   UNL     1      -0.827   1.847  -4.173  1.00  0.00     0.007 C 
ATOM     12  C   UNL     1      -0.641   0.071  -5.931  1.00  0.00     0.007 C 
ENDBRANCH   9  10
ENDBRANCH   8   9
BRANCH   8  13
ATOM     13  N   UNL     1      -1.049  -1.405  -1.143  1.00  0.00    -0.188 NA
ATOM     14  H   UNL     1      -1.688  -2.168  -1.368  1.00  0.00     0.143 HD
BRANCH  13  15
ATOM     15  S   UNL     1       0.410  -2.137  -0.898  1.00  0.00     0.280 S 
ATOM     16  O   UNL     1       0.202  -2.943   0.278  1.00  0.00    -0.195 OA
ATOM     17  O   UNL     1       0.796  -2.743  -2.151  1.00  0.00    -0.195 OA
BRANCH  15  18
ATOM     18  N   UNL     1       1.458  -0.871  -0.525  1.00  0.00    -0.188 NA
ATOM     19  C   UNL     1       2.172  -0.913   0.787  1.00  0.00     0.106 C 
ATOM     20  C   UNL     1       2.348  -0.346  -1.588  1.00  0.00     0.106 C 
ATOM     21  C   UNL     1       3.479  -1.733   0.737  1.00  0.00     0.001 C 
ATOM     22  C   UNL     1       3.561  -1.267  -1.772  1.00  0.00     0.001 C 
ATOM     23  C   UNL     1       3.240  -3.244   0.784  1.00  0.00     0.009 C 
ATOM     24  C   UNL     1       4.359  -1.346  -0.465  1.00  0.00     0.009 C 
ATOM     25  C   UNL     1       4.437  -0.793  -2.929  1.00  0.00     0.009 C 
ENDBRANCH  15  18
ENDBRANCH  13  15
ENDBRANCH   8  13
ENDBRANCH   6   8
ENDBRANCH   5   6
ENDBRANCH   4   5
ENDBRANCH   3   4
ENDBRANCH   2   3
ENDBRANCH   1   2
BRANCH   1  26
ATOM     26  C   UNL     1      -3.390  -0.848   1.035  1.00  0.00     0.188 C 
BRANCH  26  27
ATOM     27  O   UNL     1      -3.897  -2.143   0.816  1.00  0.00    -0.376 OA
BRANCH  27  28
ATOM     28  C   UNL     1      -4.874  -2.648   1.717  1.00  0.00     0.202 C 
BRANCH  28  29
ATOM     29  C   UNL     1      -5.359  -1.961   3.021  1.00  0.00     0.261 C 
BRANCH  29  30
ATOM     30  O   UNL     1      -4.963  -0.610   3.288  1.00  0.00    -0.460 OA
BRANCH  30  31
ATOM     31  C   UNL     1      -3.923  -0.446   4.147  1.00  0.00     0.338 C 
ATOM     32  O   UNL     1      -3.318  -1.324   4.737  1.00  0.00    -0.246 OA
BRANCH  31  33
ATOM     33  C   UNL     1      -3.462   0.960   4.072  1.00  0.00     0.060 A 
ATOM     34  C   UNL     1      -2.193   1.231   3.531  1.00  0.00     0.016 A 
ATOM     35  C   UNL     1      -4.261   1.999   4.546  1.00  0.00     0.016 A 
ATOM     36  C   UNL     1      -1.705   2.536   3.496  1.00  0.00     0.010 A 
ATOM     37  C   UNL     1      -3.755   3.303   4.544  1.00  0.00     0.010 A 
ATOM     38  C   UNL     1      -2.459   3.570   4.061  1.00  0.00    -0.014 A 
BRANCH  38  39
ATOM     39  C   UNL     1      -1.800   4.858   4.391  1.00  0.00     0.031 A 
ATOM     40  C   UNL     1      -1.300   5.049   5.798  1.00  0.00     0.074 A 
ATOM     41  C   UNL     1      -1.643   5.836   3.482  1.00  0.00     0.049 A 
ATOM     42  N   UNL     1      -0.742   6.093   6.350  1.00  0.00    -0.248 NA
ATOM     43  C   UNL     1      -1.463   3.902   6.709  1.00  0.00     0.031 C 
ATOM     44  C   UNL     1      -2.055   5.769   2.083  1.00  0.00     0.029 A 
ATOM     45  N   UNL     1      -1.112   7.095   3.620  1.00  0.00    -0.354 N 
ATOM     46  C   UNL     1      -0.530   5.748   7.680  1.00  0.00     0.074 A 
ATOM     47  C   UNL     1      -1.027   4.402   7.854  1.00  0.00     0.031 C 
ATOM     48  C   UNL     1      -1.786   6.949   1.494  1.00  0.00     0.029 A 
ATOM     49  C   UNL     1      -1.212   7.861   2.483  1.00  0.00     0.049 A 
ATOM     50  H   UNL     1      -0.700   7.419   4.453  1.00  0.00     0.167 HD
ATOM     51  C   UNL     1       0.032   6.481   8.670  1.00  0.00     0.034 A 
ATOM     52  C   UNL     1      -0.895   9.155   2.273  1.00  0.00     0.034 A 
ATOM     53  C   UNL     1       0.533   7.816   8.496  1.00  0.00     0.049 A 
ATOM     54  C   UNL     1      -0.300   9.965   3.399  1.00  0.00     0.074 A 
ATOM     55  C   UNL     1       1.165   8.626   9.423  1.00  0.00     0.029 A 
ATOM     56  N   UNL     1       0.440   8.548   7.322  1.00  0.00    -0.354 N 
ATOM     57  N   UNL     1      -0.012   9.595   4.624  1.00  0.00    -0.248 NA
ATOM     58  C   UNL     1       0.045  11.363   3.101  1.00  0.00     0.031 C 
ATOM     59  C   UNL     1       1.412   9.865   8.822  1.00  0.00     0.029 A 
ATOM     60  C   UNL     1       0.988   9.807   7.504  1.00  0.00     0.049 A 
ATOM     61  H   UNL     1       0.044   8.221   6.483  1.00  0.00     0.167 HD
ATOM     62  C   UNL     1       0.594  10.695   5.225  1.00  0.00     0.074 A 
ATOM     63  C   UNL     1       0.636  11.743   4.226  1.00  0.00     0.031 C 
ATOM     64  C   UNL     1       1.071  10.826   6.488  1.00  0.00     0.034 A 
BRANCH  51  65
ATOM     65  C   UNL     1       0.118   5.848  10.036  1.00  0.00     0.023 A 
ATOM     66  C   UNL     1       0.989   4.762  10.261  1.00  0.00     0.012 A 
ATOM     67  C   UNL     1      -0.659   6.341  11.102  1.00  0.00     0.148 A 
ATOM     68  C   UNL     1       1.047   4.145  11.510  1.00  0.00     0.002 A 
ATOM     69  C   UNL     1      -0.555   5.756  12.358  1.00  0.00     0.091 A 
ATOM     70  F   UNL     1      -1.500   7.358  10.866  1.00  0.00    -0.205 F 
ATOM     71  C   UNL     1       0.282   4.647  12.559  1.00  0.00     0.022 A 
BRANCH  69  72
ATOM     72  S   UNL     1      -1.433   6.387  13.792  1.00  0.00     0.127 S 
ATOM     73  O   UNL     1      -2.442   5.349  14.001  1.00  0.00    -0.237 OA
ATOM     74  O   UNL     1      -0.378   6.425  14.805  1.00  0.00    -0.237 OA
ATOM     75  O   UNL     1      -1.948   7.693  13.405  1.00  0.00    -0.744 OA
ENDBRANCH  69  72
ENDBRANCH  51  65
BRANCH  52  76
ATOM     76  C   UNL     1      -1.090   9.762   0.926  1.00  0.00     0.023 A 
ATOM     77  C   UNL     1       0.036  10.107   0.152  1.00  0.00     0.012 A 
ATOM     78  C   UNL     1      -2.378   9.988   0.403  1.00  0.00     0.148 A 
ATOM     79  C   UNL     1      -0.116  10.690  -1.106  1.00  0.00     0.002 A 
ATOM     80  C   UNL     1      -2.523  10.520  -0.873  1.00  0.00     0.091 A 
ATOM     81  F   UNL     1      -3.435   9.664   1.160  1.00  0.00    -0.205 F 
ATOM     82  C   UNL     1      -1.394  10.888  -1.622  1.00  0.00     0.022 A 
BRANCH  80  83
ATOM     83  S   UNL     1      -4.121  10.707  -1.671  1.00  0.00     0.127 S 
ATOM     84  O   UNL     1      -4.207  12.157  -1.831  1.00  0.00    -0.237 OA
ATOM     85  O   UNL     1      -3.921   9.961  -2.913  1.00  0.00    -0.237 OA
ATOM     86  O   UNL     1      -5.092  10.119  -0.759  1.00  0.00    -0.744 OA
ENDBRANCH  80  83
ENDBRANCH  52  76
BRANCH  64  87
ATOM     87  C   UNL     1       1.753  12.121   6.856  1.00  0.00     0.023 A 
ATOM     88  C   UNL     1       1.006  13.307   7.001  1.00  0.00     0.012 A 
ATOM     89  C   UNL     1       3.136  12.140   7.129  1.00  0.00     0.148 A 
ATOM     90  C   UNL     1       1.633  14.498   7.370  1.00  0.00     0.002 A 
ATOM     91  C   UNL     1       3.743  13.317   7.551  1.00  0.00     0.091 A 
ATOM     92  F   UNL     1       3.835  11.007   6.970  1.00  0.00    -0.205 F 
ATOM     93  C   UNL     1       2.996  14.501   7.656  1.00  0.00     0.022 A 
BRANCH  91  94
ATOM     94  S   UNL     1       5.470  13.387   8.040  1.00  0.00     0.127 S 
ATOM     95  O   UNL     1       6.065  14.127   6.928  1.00  0.00    -0.237 OA
ATOM     96  O   UNL     1       5.405  14.128   9.300  1.00  0.00    -0.237 OA
ATOM     97  O   UNL     1       5.907  12.004   8.175  1.00  0.00    -0.744 OA
ENDBRANCH  91  94
ENDBRANCH  64  87
ENDBRANCH  38  39
ENDBRANCH  31  33
ENDBRANCH  30  31
ENDBRANCH  29  30
ENDBRANCH  28  29
ENDBRANCH  27  28
ENDBRANCH  26  27
ENDBRANCH   1  26
TORSDOF 25
