REMARK SMILES O=C(Cc1c[nH]c(=S)n(-c2ccc(Cl)c(C(F)(F)F)c2)c1=O)OCCOCCOCCOC(=O)c1ccc(-c2c3nc(c(-c4cccc(S(=O)(=O)[O-])c4F)c4ccc([nH]4)c(-c4cccc(S(=O)(=O)[O-])c4F)c4nc(c(-c5cccc(S(=O)(=O)[O-])c5F)c5ccc2[nH]5)C=C4)C=C3)cc1
REMARK SMILES IDX 27 1 26 2 25 3 24 4 23 5 2 6 1 7 3 8 4 9 5 10 21 11 6 12
REMARK SMILES IDX 9 13 22 14 7 15 8 17 10 18 11 19 20 20 12 21 15 22 13 23
REMARK SMILES IDX 14 24 16 25 17 26 18 27 19 28 28 29 29 30 30 31 31 32 32 33
REMARK SMILES IDX 33 34 34 35 35 36 36 37 97 38 37 39 96 40 38 41 39 42 40 43
REMARK SMILES IDX 90 44 41 45 95 46 89 47 91 48 42 49 94 50 88 51 87 52 43 54
REMARK SMILES IDX 75 55 55 56 74 57 56 58 59 59 73 60 92 61 57 62 58 63 72 65
REMARK SMILES IDX 93 66 60 67 44 68 45 69 53 70 46 71 48 72 54 73 47 74 49 75
REMARK SMILES IDX 50 76 51 77 52 78 76 79 77 80 85 81 78 82 80 83 86 84 79 85
REMARK SMILES IDX 81 86 82 87 83 88 84 89 61 90 62 91 70 92 63 93 65 94 71 95
REMARK SMILES IDX 64 96 66 97 67 98 68 99 69 100
REMARK H PARENT 6 16 91 53 59 64
REMARK Flexibility Score: inf
ROOT
ATOM      1  C   UNL     1       3.309   1.869  -0.916  1.00  0.00     0.188 C 
ENDROOT
BRANCH   1   2
ATOM      2  O   UNL     1       4.623   1.375  -1.081  1.00  0.00    -0.376 OA
BRANCH   2   3
ATOM      3  C   UNL     1       5.048   0.359  -0.203  1.00  0.00     0.202 C 
BRANCH   3   4
ATOM      4  C   UNL     1       4.354  -0.978  -0.433  1.00  0.00     0.261 C 
BRANCH   4   5
ATOM      5  O   UNL     1       2.911  -1.007  -0.331  1.00  0.00    -0.463 OA
BRANCH   5   6
ATOM      6  C   UNL     1       2.046  -0.670   0.649  1.00  0.00     0.310 C 
ATOM      7  O   UNL     1       0.841  -0.687   0.395  1.00  0.00    -0.252 OA
BRANCH   6   8
ATOM      8  C   UNL     1       2.528  -0.105   1.986  1.00  0.00     0.165 C 
BRANCH   8   9
ATOM      9  C   UNL     1       3.631  -0.831   2.671  1.00  0.00     0.045 A 
ATOM     10  C   UNL     1       4.650  -0.263   3.324  1.00  0.00     0.095 A 
ATOM     11  C   UNL     1       3.570  -2.302   2.611  1.00  0.00     0.262 A 
ATOM     12  N   UNL     1       5.660  -1.018   3.848  1.00  0.00    -0.338 N 
ATOM     13  N   UNL     1       4.725  -2.981   2.980  1.00  0.00    -0.253 N 
ATOM     14  O   UNL     1       2.544  -2.837   2.195  1.00  0.00    -0.269 OA
ATOM     15  C   UNL     1       5.770  -2.383   3.683  1.00  0.00     0.184 A 
ATOM     16  H   UNL     1       6.353  -0.559   4.376  1.00  0.00     0.168 HD
ATOM     17  S   UNL     1       7.122  -3.141   4.319  1.00  0.00    -0.040 S 
BRANCH  13  18
ATOM     18  C   UNL     1       4.701  -4.359   2.653  1.00  0.00     0.052 A 
ATOM     19  C   UNL     1       5.093  -4.752   1.370  1.00  0.00     0.028 A 
ATOM     20  C   UNL     1       3.922  -5.209   3.442  1.00  0.00     0.041 A 
ATOM     21  C   UNL     1       4.698  -5.996   0.882  1.00  0.00     0.023 A 
ATOM     22  C   UNL     1       3.493  -6.451   2.948  1.00  0.00     0.076 A 
ATOM     23  C   UNL     1       3.897  -6.838   1.663  1.00  0.00     0.053 A 
ATOM     24  Cl  UNL     1       3.398  -8.333   0.961  1.00  0.00    -0.084 Cl
BRANCH  22  25
ATOM     25  C   UNL     1       2.557  -7.284   3.776  1.00  0.00     0.417 C 
ATOM     26  F   UNL     1       1.370  -7.534   3.159  1.00  0.00    -0.166 F 
ATOM     27  F   UNL     1       3.083  -8.496   4.104  1.00  0.00    -0.166 F 
ATOM     28  F   UNL     1       2.231  -6.700   4.965  1.00  0.00    -0.166 F 
ENDBRANCH  22  25
ENDBRANCH  13  18
ENDBRANCH   8   9
ENDBRANCH   6   8
ENDBRANCH   5   6
ENDBRANCH   4   5
ENDBRANCH   3   4
ENDBRANCH   2   3
ENDBRANCH   1   2
BRANCH   1  29
ATOM     29  C   UNL     1       2.458   1.806  -2.192  1.00  0.00     0.188 C 
BRANCH  29  30
ATOM     30  O   UNL     1       3.091   1.638  -3.454  1.00  0.00    -0.376 OA
BRANCH  30  31
ATOM     31  C   UNL     1       4.371   2.207  -3.677  1.00  0.00     0.202 C 
BRANCH  31  32
ATOM     32  C   UNL     1       4.548   3.725  -3.501  1.00  0.00     0.261 C 
BRANCH  32  33
ATOM     33  O   UNL     1       4.192   4.268  -2.212  1.00  0.00    -0.460 OA
BRANCH  33  34
ATOM     34  C   UNL     1       3.044   5.000  -2.164  1.00  0.00     0.338 C 
ATOM     35  O   UNL     1       2.308   5.249  -3.098  1.00  0.00    -0.246 OA
BRANCH  34  36
ATOM     36  C   UNL     1       2.695   5.327  -0.752  1.00  0.00     0.060 A 
ATOM     37  C   UNL     1       3.579   6.017   0.077  1.00  0.00     0.016 A 
ATOM     38  C   UNL     1       1.429   4.961  -0.266  1.00  0.00     0.016 A 
ATOM     39  C   UNL     1       3.171   6.386   1.369  1.00  0.00     0.010 A 
ATOM     40  C   UNL     1       1.028   5.322   1.030  1.00  0.00     0.010 A 
ATOM     41  C   UNL     1       1.882   6.072   1.849  1.00  0.00    -0.014 A 
BRANCH  41  42
ATOM     42  C   UNL     1       1.375   6.738   3.085  1.00  0.00     0.031 A 
ATOM     43  C   UNL     1       1.189   6.026   4.395  1.00  0.00     0.074 A 
ATOM     44  C   UNL     1       1.066   8.049   3.005  1.00  0.00     0.049 A 
ATOM     45  N   UNL     1       0.927   6.540   5.571  1.00  0.00    -0.248 NA
ATOM     46  C   UNL     1       1.302   4.560   4.396  1.00  0.00     0.031 C 
ATOM     47  C   UNL     1       1.097   8.840   1.773  1.00  0.00     0.029 A 
ATOM     48  N   UNL     1       0.672   8.948   3.966  1.00  0.00    -0.354 N 
ATOM     49  C   UNL     1       0.853   5.473   6.456  1.00  0.00     0.074 A 
ATOM     50  C   UNL     1       1.071   4.272   5.675  1.00  0.00     0.031 C 
ATOM     51  C   UNL     1       0.771  10.109   2.056  1.00  0.00     0.029 A 
ATOM     52  C   UNL     1       0.496  10.225   3.486  1.00  0.00     0.049 A 
ATOM     53  H   UNL     1       0.529   8.701   4.909  1.00  0.00     0.167 HD
ATOM     54  C   UNL     1       0.648   5.497   7.796  1.00  0.00     0.034 A 
ATOM     55  C   UNL     1       0.168  11.371   4.115  1.00  0.00     0.034 A 
ATOM     56  C   UNL     1       0.425   6.691   8.571  1.00  0.00     0.049 A 
ATOM     57  C   UNL     1      -0.026  11.376   5.603  1.00  0.00     0.074 A 
ATOM     58  C   UNL     1       0.287   6.805   9.945  1.00  0.00     0.029 A 
ATOM     59  N   UNL     1       0.283   7.967   8.051  1.00  0.00    -0.354 N 
ATOM     60  N   UNL     1       0.094  10.381   6.446  1.00  0.00    -0.248 NA
ATOM     61  C   UNL     1      -0.370  12.661   6.234  1.00  0.00     0.031 C 
ATOM     62  C   UNL     1       0.044   8.145  10.254  1.00  0.00     0.029 A 
ATOM     63  C   UNL     1       0.050   8.870   9.075  1.00  0.00     0.049 A 
ATOM     64  H   UNL     1       0.341   8.198   7.096  1.00  0.00     0.167 HD
ATOM     65  C   UNL     1      -0.147  10.918   7.705  1.00  0.00     0.074 A 
ATOM     66  C   UNL     1      -0.403  12.331   7.520  1.00  0.00     0.031 C 
ATOM     67  C   UNL     1      -0.165  10.283   8.900  1.00  0.00     0.034 A 
BRANCH  54  68
ATOM     68  C   UNL     1       0.743   4.205   8.564  1.00  0.00     0.023 A 
ATOM     69  C   UNL     1       2.023   3.699   8.868  1.00  0.00     0.012 A 
ATOM     70  C   UNL     1      -0.396   3.596   9.127  1.00  0.00     0.148 A 
ATOM     71  C   UNL     1       2.170   2.604   9.718  1.00  0.00     0.002 A 
ATOM     72  C   UNL     1      -0.240   2.518   9.993  1.00  0.00     0.091 A 
ATOM     73  F   UNL     1      -1.601   4.102   8.831  1.00  0.00    -0.205 F 
ATOM     74  C   UNL     1       1.041   2.021  10.287  1.00  0.00     0.022 A 
BRANCH  72  75
ATOM     75  S   UNL     1      -1.619   1.721  10.825  1.00  0.00     0.127 S 
ATOM     76  O   UNL     1      -1.562   0.375  10.255  1.00  0.00    -0.237 OA
ATOM     77  O   UNL     1      -1.220   1.806  12.229  1.00  0.00    -0.237 OA
ATOM     78  O   UNL     1      -2.803   2.491  10.472  1.00  0.00    -0.744 OA
ENDBRANCH  72  75
ENDBRANCH  54  68
BRANCH  55  79
ATOM     79  C   UNL     1       0.075  12.624   3.321  1.00  0.00     0.023 A 
ATOM     80  C   UNL     1       1.117  13.568   3.388  1.00  0.00     0.012 A 
ATOM     81  C   UNL     1      -0.998  12.837   2.434  1.00  0.00     0.148 A 
ATOM     82  C   UNL     1       1.090  14.708   2.585  1.00  0.00     0.002 A 
ATOM     83  C   UNL     1      -0.999  13.954   1.609  1.00  0.00     0.091 A 
ATOM     84  F   UNL     1      -1.973  11.918   2.391  1.00  0.00    -0.205 F 
ATOM     85  C   UNL     1       0.040  14.895   1.689  1.00  0.00     0.022 A 
BRANCH  83  86
ATOM     86  S   UNL     1      -2.255  14.231   0.356  1.00  0.00     0.127 S 
ATOM     87  O   UNL     1      -2.873  15.469   0.824  1.00  0.00    -0.237 OA
ATOM     88  O   UNL     1      -1.442  14.365  -0.853  1.00  0.00    -0.237 OA
ATOM     89  O   UNL     1      -3.112  13.054   0.386  1.00  0.00    -0.744 OA
ENDBRANCH  83  86
ENDBRANCH  55  79
BRANCH  67  90
ATOM     90  C   UNL     1      -0.470  11.081  10.138  1.00  0.00     0.023 A 
ATOM     91  C   UNL     1      -1.810  11.377  10.452  1.00  0.00     0.012 A 
ATOM     92  C   UNL     1       0.545  11.374  11.071  1.00  0.00     0.148 A 
ATOM     93  C   UNL     1      -2.138  11.947  11.682  1.00  0.00     0.002 A 
ATOM     94  C   UNL     1       0.207  11.914  12.306  1.00  0.00     0.091 A 
ATOM     95  F   UNL     1       1.812  11.081  10.745  1.00  0.00    -0.205 F 
ATOM     96  C   UNL     1      -1.133  12.201  12.613  1.00  0.00     0.022 A 
BRANCH  94  97
ATOM     97  S   UNL     1       1.418  12.212  13.601  1.00  0.00     0.127 S 
ATOM     98  O   UNL     1       1.295  13.656  13.796  1.00  0.00    -0.237 OA
ATOM     99  O   UNL     1       0.898  11.400  14.700  1.00  0.00    -0.237 OA
ATOM    100  O   UNL     1       2.700  11.774  13.066  1.00  0.00    -0.744 OA
ENDBRANCH  94  97
ENDBRANCH  67  90
ENDBRANCH  41  42
ENDBRANCH  34  36
ENDBRANCH  33  34
ENDBRANCH  32  33
ENDBRANCH  31  32
ENDBRANCH  30  31
ENDBRANCH  29  30
ENDBRANCH   1  29
TORSDOF 23
