REMARK SMILES CCOc1cc([C@@H]2[NH2+][C@H](C(=O)OCCOCCOCCOC(=O)c3ccc(-c4c5nc(c(-c6cccc(S(=O)(=O)[O-])c6F)c6ccc([nH]6)c(-c6cccc(S(=O)(=O)[O-])c6F)c6nc(c(-c7cccc(S(=O)(=O)[O-])c7F)c7ccc4[nH]7)C=C6)C=C5)cc3)CS2)ccc1OCc1ccc(Cl)cc1
REMARK SMILES IDX 16 1 15 2 14 3 13 4 12 5 10 6 11 7 9 8 7 9 8 10 88 11 87 14
REMARK SMILES IDX 6 15 4 16 5 17 91 18 90 19 89 20 3 21 2 22 1 23 92 24 93 25
REMARK SMILES IDX 94 26 95 27 100 28 96 29 99 30 97 31 98 32 17 33 18 34 19 35
REMARK SMILES IDX 20 36 21 37 22 38 23 39 24 40 25 41 86 42 26 43 85 44 27 45
REMARK SMILES IDX 28 46 29 47 79 48 30 49 84 50 78 51 80 52 31 53 83 54 77 55
REMARK SMILES IDX 76 56 32 58 64 59 44 60 63 61 45 62 48 63 62 64 81 65 46 66
REMARK SMILES IDX 47 67 61 69 82 70 49 71 33 72 34 73 42 74 35 75 37 76 43 77
REMARK SMILES IDX 36 78 38 79 39 80 40 81 41 82 65 83 66 84 74 85 67 86 69 87
REMARK SMILES IDX 75 88 68 89 70 90 71 91 72 92 73 93 50 94 51 95 59 96 52 97
REMARK SMILES IDX 54 98 60 99 53 100 55 101 56 102 57 103 58 104
REMARK H PARENT 8 12 8 13 80 57 48 68
REMARK Flexibility Score: inf
ROOT
ATOM      1  C   UNL     1       4.756   1.398  -3.734  1.00  0.00     0.188 C 
ENDROOT
BRANCH   1   2
ATOM      2  O   UNL     1       5.019  -0.001  -3.659  1.00  0.00    -0.376 OA
BRANCH   2   3
ATOM      3  C   UNL     1       5.529  -0.372  -2.373  1.00  0.00     0.202 C 
BRANCH   3   4
ATOM      4  C   UNL     1       6.834   0.333  -1.944  1.00  0.00     0.261 C 
BRANCH   4   5
ATOM      5  O   UNL     1       6.664   1.770  -1.837  1.00  0.00    -0.459 OA
BRANCH   5   6
ATOM      6  C   UNL     1       7.509   2.557  -2.554  1.00  0.00     0.365 C 
ATOM      7  O   UNL     1       8.566   2.161  -3.036  1.00  0.00    -0.245 OA
BRANCH   6   8
ATOM      8  C   UNL     1       7.050   4.024  -2.700  1.00  0.00     0.304 C 
ATOM      9  C   UNL     1       4.943   4.927  -1.831  1.00  0.00     0.274 C 
ATOM     10  N   UNL     1       5.585   4.219  -2.948  1.00  0.00    -0.319 N 
ATOM     11  S   UNL     1       6.216   6.005  -1.129  1.00  0.00    -0.087 SA
ATOM     12  H   UNL     1       5.463   4.764  -3.802  1.00  0.00     0.348 HD
ATOM     13  H   UNL     1       5.150   3.301  -3.041  1.00  0.00     0.348 HD
ATOM     14  C   UNL     1       7.568   4.871  -1.549  1.00  0.00     0.153 C 
BRANCH   9  15
ATOM     15  C   UNL     1       4.288   3.928  -0.878  1.00  0.00     0.024 A 
ATOM     16  C   UNL     1       2.596   2.169  -0.588  1.00  0.00     0.161 A 
ATOM     17  C   UNL     1       3.010   3.377  -1.176  1.00  0.00     0.061 A 
ATOM     18  C   UNL     1       3.482   1.503   0.271  1.00  0.00     0.161 A 
ATOM     19  C   UNL     1       4.658   2.121   0.682  1.00  0.00     0.051 A 
ATOM     20  C   UNL     1       5.036   3.341   0.150  1.00  0.00     0.015 A 
BRANCH  16  21
ATOM     21  O   UNL     1       1.472   1.516  -1.011  1.00  0.00    -0.490 OA
BRANCH  21  22
ATOM     22  C   UNL     1       0.209   2.101  -0.670  1.00  0.00     0.226 C 
ATOM     23  C   UNL     1      -0.817   0.968  -0.588  1.00  0.00     0.049 C 
ENDBRANCH  21  22
ENDBRANCH  16  21
BRANCH  18  24
ATOM     24  O   UNL     1       3.384   0.227   0.746  1.00  0.00    -0.485 OA
BRANCH  24  25
ATOM     25  C   UNL     1       2.131  -0.205   1.249  1.00  0.00     0.265 C 
BRANCH  25  26
ATOM     26  C   UNL     1       1.729   0.460   2.551  1.00  0.00    -0.011 A 
ATOM     27  C   UNL     1       1.593   1.853   2.685  1.00  0.00     0.009 A 
ATOM     28  C   UNL     1       1.458  -0.336   3.669  1.00  0.00     0.009 A 
ATOM     29  C   UNL     1       1.215   2.439   3.890  1.00  0.00     0.021 A 
ATOM     30  C   UNL     1       1.077   0.246   4.880  1.00  0.00     0.021 A 
ATOM     31  C   UNL     1       0.958   1.630   4.986  1.00  0.00     0.041 A 
ATOM     32  Cl  UNL     1       0.487   2.344   6.476  1.00  0.00    -0.084 Cl
ENDBRANCH  25  26
ENDBRANCH  24  25
ENDBRANCH  18  24
ENDBRANCH   9  15
ENDBRANCH   6   8
ENDBRANCH   5   6
ENDBRANCH   4   5
ENDBRANCH   3   4
ENDBRANCH   2   3
ENDBRANCH   1   2
BRANCH   1  33
ATOM     33  C   UNL     1       3.602   1.755  -4.636  1.00  0.00     0.188 C 
BRANCH  33  34
ATOM     34  O   UNL     1       2.334   1.678  -3.979  1.00  0.00    -0.376 OA
BRANCH  34  35
ATOM     35  C   UNL     1       1.797   0.359  -3.933  1.00  0.00     0.202 C 
BRANCH  35  36
ATOM     36  C   UNL     1       0.842   0.079  -5.094  1.00  0.00     0.261 C 
BRANCH  36  37
ATOM     37  O   UNL     1       1.478   0.286  -6.357  1.00  0.00    -0.460 OA
BRANCH  37  38
ATOM     38  C   UNL     1       1.397   1.562  -6.843  1.00  0.00     0.338 C 
ATOM     39  O   UNL     1       0.687   2.454  -6.463  1.00  0.00    -0.246 OA
BRANCH  38  40
ATOM     40  C   UNL     1       2.523   1.728  -7.795  1.00  0.00     0.060 A 
ATOM     41  C   UNL     1       3.278   2.911  -7.734  1.00  0.00     0.016 A 
ATOM     42  C   UNL     1       2.878   0.700  -8.671  1.00  0.00     0.016 A 
ATOM     43  C   UNL     1       4.380   3.078  -8.570  1.00  0.00     0.010 A 
ATOM     44  C   UNL     1       3.959   0.877  -9.526  1.00  0.00     0.010 A 
ATOM     45  C   UNL     1       4.684   2.080  -9.504  1.00  0.00    -0.014 A 
BRANCH  45  46
ATOM     46  C   UNL     1       5.537   2.392 -10.666  1.00  0.00     0.031 A 
ATOM     47  C   UNL     1       4.836   2.895 -11.897  1.00  0.00     0.074 A 
ATOM     48  C   UNL     1       6.859   2.155 -10.654  1.00  0.00     0.049 A 
ATOM     49  N   UNL     1       5.308   3.106 -13.094  1.00  0.00    -0.248 NA
ATOM     50  C   UNL     1       3.394   3.180 -11.758  1.00  0.00     0.031 C 
ATOM     51  C   UNL     1       7.624   1.666  -9.509  1.00  0.00     0.029 A 
ATOM     52  N   UNL     1       7.782   2.254 -11.662  1.00  0.00    -0.354 N 
ATOM     53  C   UNL     1       4.219   3.512 -13.856  1.00  0.00     0.074 A 
ATOM     54  C   UNL     1       3.061   3.513 -12.993  1.00  0.00     0.031 C 
ATOM     55  C   UNL     1       8.898   1.467  -9.892  1.00  0.00     0.029 A 
ATOM     56  C   UNL     1       9.026   1.786 -11.312  1.00  0.00     0.049 A 
ATOM     57  H   UNL     1       7.574   2.625 -12.551  1.00  0.00     0.167 HD
ATOM     58  C   UNL     1       4.189   3.861 -15.161  1.00  0.00     0.034 A 
ATOM     59  C   UNL     1      10.125   1.609 -12.072  1.00  0.00     0.034 A 
ATOM     60  C   UNL     1       5.348   3.851 -16.005  1.00  0.00     0.049 A 
ATOM     61  C   UNL     1      10.062   1.988 -13.532  1.00  0.00     0.074 A 
ATOM     62  C   UNL     1       5.449   4.215 -17.334  1.00  0.00     0.029 A 
ATOM     63  N   UNL     1       6.609   3.441 -15.599  1.00  0.00    -0.354 N 
ATOM     64  N   UNL     1       9.056   2.481 -14.216  1.00  0.00    -0.248 NA
ATOM     65  C   UNL     1      11.292   1.816 -14.317  1.00  0.00     0.031 C 
ATOM     66  C   UNL     1       6.771   4.002 -17.738  1.00  0.00     0.029 A 
ATOM     67  C   UNL     1       7.497   3.536 -16.652  1.00  0.00     0.049 A 
ATOM     68  H   UNL     1       6.837   3.128 -14.693  1.00  0.00     0.167 HD
ATOM     69  C   UNL     1       9.541   2.713 -15.499  1.00  0.00     0.074 A 
ATOM     70  C   UNL     1      10.937   2.322 -15.491  1.00  0.00     0.031 C 
ATOM     71  C   UNL     1       8.895   3.193 -16.591  1.00  0.00     0.034 A 
BRANCH  58  72
ATOM     72  C   UNL     1       2.866   4.291 -15.734  1.00  0.00     0.023 A 
ATOM     73  C   UNL     1       2.315   5.534 -15.359  1.00  0.00     0.012 A 
ATOM     74  C   UNL     1       2.178   3.478 -16.654  1.00  0.00     0.148 A 
ATOM     75  C   UNL     1       1.085   5.947 -15.867  1.00  0.00     0.002 A 
ATOM     76  C   UNL     1       0.974   3.917 -17.191  1.00  0.00     0.091 A 
ATOM     77  F   UNL     1       2.703   2.286 -16.971  1.00  0.00    -0.205 F 
ATOM     78  C   UNL     1       0.420   5.144 -16.790  1.00  0.00     0.022 A 
BRANCH  76  79
ATOM     79  S   UNL     1       0.075   2.991 -18.440  1.00  0.00     0.127 S 
ATOM     80  O   UNL     1      -1.113   2.571 -17.699  1.00  0.00    -0.237 OA
ATOM     81  O   UNL     1      -0.171   4.013 -19.458  1.00  0.00    -0.237 OA
ATOM     82  O   UNL     1       0.961   1.915 -18.859  1.00  0.00    -0.744 OA
ENDBRANCH  76  79
ENDBRANCH  58  72
BRANCH  59  83
ATOM     83  C   UNL     1      11.383   1.084 -11.468  1.00  0.00     0.023 A 
ATOM     84  C   UNL     1      12.498   1.936 -11.343  1.00  0.00     0.012 A 
ATOM     85  C   UNL     1      11.482  -0.245 -11.010  1.00  0.00     0.148 A 
ATOM     86  C   UNL     1      13.697   1.468 -10.803  1.00  0.00     0.002 A 
ATOM     87  C   UNL     1      12.664  -0.691 -10.426  1.00  0.00     0.091 A 
ATOM     88  F   UNL     1      10.419  -1.048 -11.153  1.00  0.00    -0.205 F 
ATOM     89  C   UNL     1      13.777   0.159 -10.336  1.00  0.00     0.022 A 
BRANCH  87  90
ATOM     90  S   UNL     1      12.823  -2.324  -9.693  1.00  0.00     0.127 S 
ATOM     91  O   UNL     1      13.712  -2.991 -10.641  1.00  0.00    -0.237 OA
ATOM     92  O   UNL     1      13.426  -2.016  -8.396  1.00  0.00    -0.237 OA
ATOM     93  O   UNL     1      11.468  -2.853  -9.615  1.00  0.00    -0.744 OA
ENDBRANCH  87  90
ENDBRANCH  59  83
BRANCH  71  94
ATOM     94  C   UNL     1       9.694   3.372 -17.854  1.00  0.00     0.023 A 
ATOM     95  C   UNL     1      10.075   2.247 -18.609  1.00  0.00     0.012 A 
ATOM     96  C   UNL     1       9.979   4.664 -18.339  1.00  0.00     0.148 A 
ATOM     97  C   UNL     1      10.755   2.404 -19.816  1.00  0.00     0.002 A 
ATOM     98  C   UNL     1      10.610   4.814 -19.567  1.00  0.00     0.091 A 
ATOM     99  F   UNL     1       9.619   5.720 -17.595  1.00  0.00    -0.205 F 
ATOM    100  C   UNL     1      11.010   3.685 -20.300  1.00  0.00     0.022 A 
BRANCH  98 101
ATOM    101  S   UNL     1      10.884   6.423 -20.316  1.00  0.00     0.127 S 
ATOM    102  O   UNL     1      12.329   6.579 -20.165  1.00  0.00    -0.237 OA
ATOM    103  O   UNL     1      10.434   6.206 -21.691  1.00  0.00    -0.237 OA
ATOM    104  O   UNL     1      10.071   7.363 -19.556  1.00  0.00    -0.744 OA
ENDBRANCH  98 101
ENDBRANCH  71  94
ENDBRANCH  45  46
ENDBRANCH  38  40
ENDBRANCH  37  38
ENDBRANCH  36  37
ENDBRANCH  35  36
ENDBRANCH  34  35
ENDBRANCH  33  34
ENDBRANCH   1  33
TORSDOF 26
