REMARK SMILES C[NH2+][C@@]1(C(=O)OCCOCCOCCOC(=O)c2ccc(-c3c4nc(c(-c5cccc(S(=O)(=O)[O-])c5F)c5ccc([nH]5)c(-c5cccc(S(=O)(=O)[O-])c5F)c5nc(c(-c6cccc(S(=O)(=O)[O-])c6F)c6ccc3[nH]6)C=C5)C=C4)cc2)CC[C@H](n2ccc(C)n2)C1
REMARK SMILES IDX 11 1 10 2 9 3 8 4 7 5 6 6 4 7 5 8 3 9 81 10 90 11 82 12
REMARK SMILES IDX 83 13 2 14 1 15 84 18 85 19 89 20 86 21 87 22 88 23 12 24
REMARK SMILES IDX 13 25 14 26 15 27 16 28 17 29 18 30 19 31 80 32 20 33 79 34
REMARK SMILES IDX 21 35 22 36 23 37 73 38 24 39 78 40 72 41 74 42 25 43 77 44
REMARK SMILES IDX 71 45 70 46 26 48 58 49 38 50 57 51 39 52 42 53 56 54 75 55
REMARK SMILES IDX 40 56 41 57 55 59 76 60 43 61 27 62 28 63 36 64 29 65 31 66
REMARK SMILES IDX 37 67 30 68 32 69 33 70 34 71 35 72 59 73 60 74 68 75 61 76
REMARK SMILES IDX 63 77 69 78 62 79 64 80 65 81 66 82 67 83 44 84 45 85 53 86
REMARK SMILES IDX 46 87 48 88 54 89 47 90 49 91 50 92 51 93 52 94
REMARK H PARENT 2 16 2 17 74 47 42 58
REMARK Flexibility Score: inf
ROOT
ATOM      1  C   UNL     1      -0.695  -0.845   2.626  1.00  0.00     0.188 C 
ENDROOT
BRANCH   1   2
ATOM      2  C   UNL     1      -0.301   0.423   3.395  1.00  0.00     0.188 C 
BRANCH   2   3
ATOM      3  O   UNL     1      -1.156   0.883   4.423  1.00  0.00    -0.376 OA
BRANCH   3   4
ATOM      4  C   UNL     1      -2.484   1.250   4.067  1.00  0.00     0.202 C 
BRANCH   4   5
ATOM      5  C   UNL     1      -2.705   2.184   2.871  1.00  0.00     0.261 C 
BRANCH   5   6
ATOM      6  O   UNL     1      -2.326   1.637   1.589  1.00  0.00    -0.459 OA
BRANCH   6   7
ATOM      7  C   UNL     1      -1.395   2.343   0.894  1.00  0.00     0.368 C 
ATOM      8  O   UNL     1      -0.819   3.339   1.328  1.00  0.00    -0.245 OA
BRANCH   7   9
ATOM      9  C   UNL     1      -1.155   1.837  -0.559  1.00  0.00     0.196 C 
ATOM     10  C   UNL     1      -1.860   2.838  -1.490  1.00  0.00     0.083 C 
ATOM     11  C   UNL     1      -1.812   0.509  -0.962  1.00  0.00     0.108 C 
ATOM     12  C   UNL     1      -3.309   2.380  -1.481  1.00  0.00     0.034 C 
ATOM     13  C   UNL     1      -3.240   0.845  -1.459  1.00  0.00     0.114 C 
BRANCH   9  14
ATOM     14  N   UNL     1       0.299   1.923  -0.863  1.00  0.00    -0.334 N 
ATOM     15  C   UNL     1       1.107   0.801  -0.408  1.00  0.00     0.331 C 
ATOM     16  H   UNL     1       0.404   1.995  -1.875  1.00  0.00     0.347 HD
ATOM     17  H   UNL     1       0.641   2.737  -0.352  1.00  0.00     0.347 HD
ENDBRANCH   9  14
BRANCH  13  18
ATOM     18  N   UNL     1      -4.324   0.219  -0.721  1.00  0.00    -0.269 N 
ATOM     19  C   UNL     1      -5.620   0.651  -0.625  1.00  0.00     0.109 A 
ATOM     20  N   UNL     1      -4.141  -0.980  -0.144  1.00  0.00    -0.178 NA
ATOM     21  C   UNL     1      -6.266  -0.256   0.181  1.00  0.00     0.045 A 
ATOM     22  C   UNL     1      -5.296  -1.239   0.472  1.00  0.00     0.059 A 
ATOM     23  C   UNL     1      -5.441  -2.443   1.323  1.00  0.00     0.069 C 
ENDBRANCH  13  18
ENDBRANCH   7   9
ENDBRANCH   6   7
ENDBRANCH   5   6
ENDBRANCH   4   5
ENDBRANCH   3   4
ENDBRANCH   2   3
ENDBRANCH   1   2
BRANCH   1  24
ATOM     24  O   UNL     1      -2.037  -1.301   2.710  1.00  0.00    -0.376 OA
BRANCH  24  25
ATOM     25  C   UNL     1      -2.315  -2.122   3.847  1.00  0.00     0.202 C 
BRANCH  25  26
ATOM     26  C   UNL     1      -2.000  -3.606   3.620  1.00  0.00     0.261 C 
BRANCH  26  27
ATOM     27  O   UNL     1      -0.583  -3.805   3.528  1.00  0.00    -0.460 OA
BRANCH  27  28
ATOM     28  C   UNL     1      -0.115  -4.127   2.288  1.00  0.00     0.338 C 
ATOM     29  O   UNL     1      -0.761  -4.520   1.342  1.00  0.00    -0.246 OA
BRANCH  28  30
ATOM     30  C   UNL     1       1.303  -3.702   2.201  1.00  0.00     0.060 A 
ATOM     31  C   UNL     1       1.720  -3.070   1.020  1.00  0.00     0.016 A 
ATOM     32  C   UNL     1       2.191  -3.852   3.270  1.00  0.00     0.016 A 
ATOM     33  C   UNL     1       3.038  -2.630   0.886  1.00  0.00     0.010 A 
ATOM     34  C   UNL     1       3.512  -3.420   3.134  1.00  0.00     0.010 A 
ATOM     35  C   UNL     1       3.949  -2.842   1.929  1.00  0.00    -0.014 A 
BRANCH  35  36
ATOM     36  C   UNL     1       5.402  -2.671   1.691  1.00  0.00     0.031 A 
ATOM     37  C   UNL     1       6.197  -3.891   1.314  1.00  0.00     0.074 A 
ATOM     38  C   UNL     1       6.009  -1.480   1.837  1.00  0.00     0.049 A 
ATOM     39  N   UNL     1       7.483  -4.019   1.125  1.00  0.00    -0.248 NA
ATOM     40  C   UNL     1       5.434  -5.139   1.133  1.00  0.00     0.031 C 
ATOM     41  C   UNL     1       5.345  -0.228   2.192  1.00  0.00     0.029 A 
ATOM     42  N   UNL     1       7.336  -1.143   1.733  1.00  0.00    -0.354 N 
ATOM     43  C   UNL     1       7.688  -5.361   0.831  1.00  0.00     0.074 A 
ATOM     44  C   UNL     1       6.397  -6.010   0.876  1.00  0.00     0.031 C 
ATOM     45  C   UNL     1       6.275   0.737   2.312  1.00  0.00     0.029 A 
ATOM     46  C   UNL     1       7.598   0.165   2.069  1.00  0.00     0.049 A 
ATOM     47  H   UNL     1       8.032  -1.776   1.446  1.00  0.00     0.167 HD
ATOM     48  C   UNL     1       8.845  -5.998   0.539  1.00  0.00     0.034 A 
ATOM     49  C   UNL     1       8.776   0.811   2.191  1.00  0.00     0.034 A 
ATOM     50  C   UNL     1      10.127  -5.352   0.494  1.00  0.00     0.049 A 
ATOM     51  C   UNL     1      10.057   0.070   1.896  1.00  0.00     0.074 A 
ATOM     52  C   UNL     1      11.356  -5.902   0.176  1.00  0.00     0.029 A 
ATOM     53  N   UNL     1      10.348  -4.018   0.794  1.00  0.00    -0.354 N 
ATOM     54  N   UNL     1      10.226  -1.171   1.505  1.00  0.00    -0.248 NA
ATOM     55  C   UNL     1      11.311   0.828   2.031  1.00  0.00     0.031 C 
ATOM     56  C   UNL     1      12.326  -4.904   0.314  1.00  0.00     0.029 A 
ATOM     57  C   UNL     1      11.696  -3.726   0.682  1.00  0.00     0.049 A 
ATOM     58  H   UNL     1       9.650  -3.372   1.049  1.00  0.00     0.167 HD
ATOM     59  C   UNL     1      11.595  -1.329   1.309  1.00  0.00     0.074 A 
ATOM     60  C   UNL     1      12.209  -0.053   1.609  1.00  0.00     0.031 C 
ATOM     61  C   UNL     1      12.284  -2.434   0.928  1.00  0.00     0.034 A 
BRANCH  48  62
ATOM     62  C   UNL     1       8.769  -7.470   0.236  1.00  0.00     0.023 A 
ATOM     63  C   UNL     1       8.205  -7.905  -0.981  1.00  0.00     0.012 A 
ATOM     64  C   UNL     1       9.282  -8.419   1.140  1.00  0.00     0.148 A 
ATOM     65  C   UNL     1       8.123  -9.264  -1.279  1.00  0.00     0.002 A 
ATOM     66  C   UNL     1       9.238  -9.770   0.816  1.00  0.00     0.091 A 
ATOM     67  F   UNL     1       9.789  -7.986   2.303  1.00  0.00    -0.205 F 
ATOM     68  C   UNL     1       8.648 -10.195  -0.386  1.00  0.00     0.022 A 
BRANCH  66  69
ATOM     69  S   UNL     1       9.953 -11.040   1.865  1.00  0.00     0.127 S 
ATOM     70  O   UNL     1       8.757 -11.723   2.358  1.00  0.00    -0.237 OA
ATOM     71  O   UNL     1      10.747 -11.814   0.910  1.00  0.00    -0.237 OA
ATOM     72  O   UNL     1      10.731 -10.338   2.875  1.00  0.00    -0.744 OA
ENDBRANCH  66  69
ENDBRANCH  48  62
BRANCH  49  73
ATOM     73  C   UNL     1       8.806   2.248   2.591  1.00  0.00     0.023 A 
ATOM     74  C   UNL     1       9.222   3.220   1.660  1.00  0.00     0.012 A 
ATOM     75  C   UNL     1       8.432   2.655   3.886  1.00  0.00     0.148 A 
ATOM     76  C   UNL     1       9.296   4.566   2.022  1.00  0.00     0.002 A 
ATOM     77  C   UNL     1       8.458   4.004   4.224  1.00  0.00     0.091 A 
ATOM     78  F   UNL     1       8.058   1.714   4.764  1.00  0.00    -0.205 F 
ATOM     79  C   UNL     1       8.906   4.959   3.299  1.00  0.00     0.022 A 
BRANCH  77  80
ATOM     80  S   UNL     1       7.864   4.615   5.805  1.00  0.00     0.127 S 
ATOM     81  O   UNL     1       9.102   5.063   6.437  1.00  0.00    -0.237 OA
ATOM     82  O   UNL     1       6.960   5.689   5.391  1.00  0.00    -0.237 OA
ATOM     83  O   UNL     1       7.202   3.485   6.441  1.00  0.00    -0.744 OA
ENDBRANCH  77  80
ENDBRANCH  49  73
BRANCH  61  84
ATOM     84  C   UNL     1      13.777  -2.312   0.762  1.00  0.00     0.023 A 
ATOM     85  C   UNL     1      14.606  -2.200   1.896  1.00  0.00     0.012 A 
ATOM     86  C   UNL     1      14.364  -2.400  -0.517  1.00  0.00     0.148 A 
ATOM     87  C   UNL     1      15.993  -2.147   1.757  1.00  0.00     0.002 A 
ATOM     88  C   UNL     1      15.748  -2.398  -0.643  1.00  0.00     0.091 A 
ATOM     89  F   UNL     1      13.558  -2.490  -1.585  1.00  0.00    -0.205 F 
ATOM     90  C   UNL     1      16.563  -2.259   0.491  1.00  0.00     0.022 A 
BRANCH  88  91
ATOM     91  S   UNL     1      16.571  -2.639  -2.222  1.00  0.00     0.127 S 
ATOM     92  O   UNL     1      17.096  -1.302  -2.492  1.00  0.00    -0.237 OA
ATOM     93  O   UNL     1      17.588  -3.639  -1.892  1.00  0.00    -0.237 OA
ATOM     94  O   UNL     1      15.544  -3.105  -3.144  1.00  0.00    -0.744 OA
ENDBRANCH  88  91
ENDBRANCH  61  84
ENDBRANCH  35  36
ENDBRANCH  28  30
ENDBRANCH  27  28
ENDBRANCH  26  27
ENDBRANCH  25  26
ENDBRANCH  24  25
ENDBRANCH   1  24
TORSDOF 22
