REMARK SMILES O=C(OCCOCCOCCOC(=O)[C@H]1[NH2+]CC[C@@H]1c1cc(Br)ccc1F)c1ccc(-c2c3nc(c(-c4cccc(S(=O)(=O)[O-])c4F)c4ccc([nH]4)c(-c4cccc(S(=O)(=O)[O-])c4F)c4nc(c(-c5cccc(S(=O)(=O)[O-])c5F)c5ccc2[nH]5)C=C4)C=C3)cc1
REMARK SMILES IDX 7 1 6 2 5 3 4 4 3 5 2 6 1 7 28 8 29 9 90 10 30 11 89 12
REMARK SMILES IDX 31 13 32 14 33 15 83 16 34 17 88 18 82 19 84 20 35 21 87 22
REMARK SMILES IDX 81 23 80 24 36 26 68 27 48 28 67 29 49 30 52 31 66 32 85 33
REMARK SMILES IDX 50 34 51 35 65 37 86 38 53 39 37 40 38 41 46 42 39 43 41 44
REMARK SMILES IDX 47 45 40 46 42 47 43 48 44 49 45 50 69 51 70 52 78 53 71 54
REMARK SMILES IDX 73 55 79 56 72 57 74 58 75 59 76 60 77 61 54 62 55 63 63 64
REMARK SMILES IDX 56 65 58 66 64 67 57 68 59 69 60 70 61 71 62 72 8 73 9 74
REMARK SMILES IDX 10 75 11 76 12 77 13 78 14 79 15 80 16 81 19 82 17 83 18 86
REMARK SMILES IDX 20 87 21 88 26 89 22 90 25 91 27 92 23 93 24 94
REMARK H PARENT 84 25 52 36 16 84 16 85
REMARK Flexibility Score: inf
ROOT
ATOM      1  C   UNL     1       3.328  -1.421   1.284  1.00  0.00     0.188 C 
ENDROOT
BRANCH   1   2
ATOM      2  O   UNL     1       4.112  -0.893   2.364  1.00  0.00    -0.376 OA
BRANCH   2   3
ATOM      3  C   UNL     1       5.352  -0.337   1.920  1.00  0.00     0.202 C 
BRANCH   3   4
ATOM      4  C   UNL     1       5.215   1.132   1.485  1.00  0.00     0.261 C 
BRANCH   4   5
ATOM      5  O   UNL     1       3.954   1.363   0.828  1.00  0.00    -0.460 OA
BRANCH   5   6
ATOM      6  C   UNL     1       3.856   1.980  -0.368  1.00  0.00     0.338 C 
ATOM      7  O   UNL     1       3.250   3.035  -0.492  1.00  0.00    -0.246 OA
BRANCH   6   8
ATOM      8  C   UNL     1       4.186   1.137  -1.558  1.00  0.00     0.060 A 
ATOM      9  C   UNL     1       5.066   0.055  -1.529  1.00  0.00     0.016 A 
ATOM     10  C   UNL     1       3.537   1.435  -2.766  1.00  0.00     0.016 A 
ATOM     11  C   UNL     1       5.329  -0.698  -2.670  1.00  0.00     0.010 A 
ATOM     12  C   UNL     1       3.745   0.645  -3.901  1.00  0.00     0.010 A 
ATOM     13  C   UNL     1       4.699  -0.384  -3.872  1.00  0.00    -0.014 A 
BRANCH  13  14
ATOM     14  C   UNL     1       5.283  -0.903  -5.132  1.00  0.00     0.031 A 
ATOM     15  C   UNL     1       6.023   0.087  -5.992  1.00  0.00     0.074 A 
ATOM     16  C   UNL     1       5.237  -2.208  -5.456  1.00  0.00     0.049 A 
ATOM     17  N   UNL     1       6.562  -0.072  -7.169  1.00  0.00    -0.248 NA
ATOM     18  C   UNL     1       6.144   1.458  -5.462  1.00  0.00     0.031 C 
ATOM     19  C   UNL     1       4.586  -3.255  -4.668  1.00  0.00     0.029 A 
ATOM     20  N   UNL     1       5.755  -2.878  -6.534  1.00  0.00    -0.354 N 
ATOM     21  C   UNL     1       7.003   1.192  -7.545  1.00  0.00     0.074 A 
ATOM     22  C   UNL     1       6.632   2.111  -6.499  1.00  0.00     0.031 C 
ATOM     23  C   UNL     1       4.750  -4.439  -5.286  1.00  0.00     0.029 A 
ATOM     24  C   UNL     1       5.484  -4.228  -6.532  1.00  0.00     0.049 A 
ATOM     25  H   UNL     1       6.273  -2.435  -7.244  1.00  0.00     0.167 HD
ATOM     26  C   UNL     1       7.694   1.552  -8.649  1.00  0.00     0.034 A 
ATOM     27  C   UNL     1       5.789  -5.170  -7.446  1.00  0.00     0.034 A 
ATOM     28  C   UNL     1       8.135   0.611  -9.632  1.00  0.00     0.049 A 
ATOM     29  C   UNL     1       6.577  -4.748  -8.665  1.00  0.00     0.074 A 
ATOM     30  C   UNL     1       8.876   0.838 -10.773  1.00  0.00     0.029 A 
ATOM     31  N   UNL     1       7.878  -0.751  -9.573  1.00  0.00    -0.354 N 
ATOM     32  N   UNL     1       7.042  -3.560  -8.978  1.00  0.00    -0.248 NA
ATOM     33  C   UNL     1       6.905  -5.794  -9.644  1.00  0.00     0.031 C 
ATOM     34  C   UNL     1       9.047  -0.389 -11.421  1.00  0.00     0.029 A 
ATOM     35  C   UNL     1       8.443  -1.382 -10.662  1.00  0.00     0.049 A 
ATOM     36  H   UNL     1       7.368  -1.200  -8.861  1.00  0.00     0.167 HD
ATOM     37  C   UNL     1       7.745  -3.722 -10.167  1.00  0.00     0.074 A 
ATOM     38  C   UNL     1       7.662  -5.129 -10.507  1.00  0.00     0.031 C 
ATOM     39  C   UNL     1       8.387  -2.798 -10.924  1.00  0.00     0.034 A 
BRANCH  26  40
ATOM     40  C   UNL     1       8.000   3.016  -8.817  1.00  0.00     0.023 A 
ATOM     41  C   UNL     1       8.913   3.657  -7.952  1.00  0.00     0.012 A 
ATOM     42  C   UNL     1       7.337   3.770  -9.803  1.00  0.00     0.148 A 
ATOM     43  C   UNL     1       9.110   5.035  -8.023  1.00  0.00     0.002 A 
ATOM     44  C   UNL     1       7.581   5.133  -9.904  1.00  0.00     0.091 A 
ATOM     45  F   UNL     1       6.457   3.147 -10.599  1.00  0.00    -0.205 F 
ATOM     46  C   UNL     1       8.448   5.772  -9.001  1.00  0.00     0.022 A 
BRANCH  44  47
ATOM     47  S   UNL     1       6.837   6.161 -11.173  1.00  0.00     0.127 S 
ATOM     48  O   UNL     1       5.984   7.042 -10.379  1.00  0.00    -0.237 OA
ATOM     49  O   UNL     1       8.007   6.809 -11.762  1.00  0.00    -0.237 OA
ATOM     50  O   UNL     1       6.128   5.250 -12.066  1.00  0.00    -0.744 OA
ENDBRANCH  44  47
ENDBRANCH  26  40
BRANCH  27  51
ATOM     51  C   UNL     1       5.384  -6.595  -7.245  1.00  0.00     0.023 A 
ATOM     52  C   UNL     1       6.371  -7.585  -7.062  1.00  0.00     0.012 A 
ATOM     53  C   UNL     1       4.028  -6.980  -7.244  1.00  0.00     0.148 A 
ATOM     54  C   UNL     1       6.019  -8.930  -6.926  1.00  0.00     0.002 A 
ATOM     55  C   UNL     1       3.681  -8.314  -7.055  1.00  0.00     0.091 A 
ATOM     56  F   UNL     1       3.099  -6.033  -7.437  1.00  0.00    -0.205 F 
ATOM     57  C   UNL     1       4.675  -9.294  -6.915  1.00  0.00     0.022 A 
BRANCH  55  58
ATOM     58  S   UNL     1       1.972  -8.854  -6.919  1.00  0.00     0.127 S 
ATOM     59  O   UNL     1       1.778  -9.555  -8.186  1.00  0.00    -0.237 OA
ATOM     60  O   UNL     1       2.017  -9.717  -5.738  1.00  0.00    -0.237 OA
ATOM     61  O   UNL     1       1.187  -7.639  -6.740  1.00  0.00    -0.744 OA
ENDBRANCH  55  58
ENDBRANCH  27  51
BRANCH  39  62
ATOM     62  C   UNL     1       9.093  -3.273 -12.163  1.00  0.00     0.023 A 
ATOM     63  C   UNL     1       8.348  -3.624 -13.305  1.00  0.00     0.012 A 
ATOM     64  C   UNL     1      10.500  -3.236 -12.232  1.00  0.00     0.148 A 
ATOM     65  C   UNL     1       8.995  -3.950 -14.494  1.00  0.00     0.002 A 
ATOM     66  C   UNL     1      11.135  -3.506 -13.435  1.00  0.00     0.091 A 
ATOM     67  F   UNL     1      11.185  -2.912 -11.125  1.00  0.00    -0.205 F 
ATOM     68  C   UNL     1      10.386  -3.875 -14.564  1.00  0.00     0.022 A 
BRANCH  66  69
ATOM     69  S   UNL     1      12.907  -3.314 -13.649  1.00  0.00     0.127 S 
ATOM     70  O   UNL     1      13.342  -4.703 -13.787  1.00  0.00    -0.237 OA
ATOM     71  O   UNL     1      12.986  -2.523 -14.877  1.00  0.00    -0.237 OA
ATOM     72  O   UNL     1      13.385  -2.627 -12.456  1.00  0.00    -0.744 OA
ENDBRANCH  66  69
ENDBRANCH  39  62
ENDBRANCH  13  14
ENDBRANCH   6   8
ENDBRANCH   5   6
ENDBRANCH   4   5
ENDBRANCH   3   4
ENDBRANCH   2   3
ENDBRANCH   1   2
BRANCH   1  73
ATOM     73  C   UNL     1       2.089  -2.157   1.797  1.00  0.00     0.188 C 
BRANCH  73  74
ATOM     74  O   UNL     1       2.255  -3.265   2.680  1.00  0.00    -0.376 OA
BRANCH  74  75
ATOM     75  C   UNL     1       3.531  -3.874   2.756  1.00  0.00     0.202 C 
BRANCH  75  76
ATOM     76  C   UNL     1       3.997  -4.704   1.553  1.00  0.00     0.261 C 
BRANCH  76  77
ATOM     77  O   UNL     1       3.485  -4.309   0.274  1.00  0.00    -0.459 OA
BRANCH  77  78
ATOM     78  C   UNL     1       2.301  -4.884  -0.092  1.00  0.00     0.365 C 
ATOM     79  O   UNL     1       1.589  -5.550   0.652  1.00  0.00    -0.245 OA
BRANCH  78  80
ATOM     80  C   UNL     1       2.073  -4.745  -1.605  1.00  0.00     0.301 C 
ATOM     81  N   UNL     1       2.202  -6.117  -2.179  1.00  0.00    -0.334 N 
ATOM     82  C   UNL     1       0.674  -4.253  -2.014  1.00  0.00     0.098 C 
ATOM     83  C   UNL     1       1.227  -6.242  -3.269  1.00  0.00     0.262 C 
ATOM     84  H   UNL     1       2.010  -6.813  -1.459  1.00  0.00     0.347 HD
ATOM     85  H   UNL     1       3.148  -6.268  -2.529  1.00  0.00     0.347 HD
ATOM     86  C   UNL     1       0.529  -4.906  -3.392  1.00  0.00     0.076 C 
BRANCH  82  87
ATOM     87  C   UNL     1       0.338  -2.773  -2.120  1.00  0.00    -0.001 A 
ATOM     88  C   UNL     1      -0.962  -2.402  -2.539  1.00  0.00     0.023 A 
ATOM     89  C   UNL     1       1.228  -1.740  -1.844  1.00  0.00     0.127 A 
ATOM     90  C   UNL     1      -1.325  -1.060  -2.699  1.00  0.00     0.018 A 
ATOM     91  C   UNL     1       0.843  -0.402  -1.949  1.00  0.00     0.041 A 
ATOM     92  F   UNL     1       2.479  -2.002  -1.449  1.00  0.00    -0.207 F 
ATOM     93  Br  UNL     1      -3.058  -0.610  -3.303  1.00  0.00    -0.051 Br
ATOM     94  C   UNL     1      -0.422  -0.051  -2.405  1.00  0.00     0.019 A 
ENDBRANCH  82  87
ENDBRANCH  78  80
ENDBRANCH  77  78
ENDBRANCH  76  77
ENDBRANCH  75  76
ENDBRANCH  74  75
ENDBRANCH  73  74
ENDBRANCH   1  73
TORSDOF 21
