REMARK SMILES CCN(CC(C)(C)O)C(=O)Nc1ccc(C(=O)OCCOCCOCCOC(=O)c2ccc(-c3c4nc(c(-c5cccc(S(=O)(=O)[O-])c5F)c5ccc([nH]5)c(-c5cccc(S(=O)(=O)[O-])c5F)c5nc(c(-c6cccc(S(=O)(=O)[O-])c6F)c6ccc3[nH]6)C=C5)C=C4)cc2)c(O)c1
REMARK SMILES IDX 22 1 21 2 20 3 19 4 18 5 16 6 17 7 15 8 12 9 13 10 95 11
REMARK SMILES IDX 14 12 93 13 11 14 9 15 10 16 3 18 2 19 1 20 4 21 5 22 6 23
REMARK SMILES IDX 7 24 8 25 94 27 23 29 24 30 25 31 26 32 27 33 28 34 29 35
REMARK SMILES IDX 30 36 31 37 92 38 32 39 91 40 33 41 34 42 35 43 85 44 36 45
REMARK SMILES IDX 90 46 84 47 86 48 37 49 89 50 83 51 82 52 38 54 70 55 50 56
REMARK SMILES IDX 69 57 51 58 54 59 68 60 87 61 52 62 53 63 67 65 88 66 55 67
REMARK SMILES IDX 39 68 40 69 48 70 41 71 43 72 49 73 42 74 44 75 45 76 46 77
REMARK SMILES IDX 47 78 71 79 72 80 80 81 73 82 75 83 81 84 74 85 76 86 77 87
REMARK SMILES IDX 78 88 79 89 56 90 57 91 65 92 58 93 60 94 66 95 59 96 61 97
REMARK SMILES IDX 62 98 63 99 64 100
REMARK H PARENT 11 17 8 26 94 28 86 53 54 64
REMARK Flexibility Score: inf
ROOT
ATOM      1  C   UNL     1      -2.480   6.661  -4.430  1.00  0.00     0.188 C 
ENDROOT
BRANCH   1   2
ATOM      2  O   UNL     1      -3.299   7.550  -5.168  1.00  0.00    -0.376 OA
BRANCH   2   3
ATOM      3  C   UNL     1      -2.695   8.440  -6.104  1.00  0.00     0.202 C 
BRANCH   3   4
ATOM      4  C   UNL     1      -1.233   8.887  -5.953  1.00  0.00     0.261 C 
BRANCH   4   5
ATOM      5  O   UNL     1      -0.314   7.782  -5.924  1.00  0.00    -0.460 OA
BRANCH   5   6
ATOM      6  C   UNL     1       0.828   8.036  -5.246  1.00  0.00     0.341 C 
ATOM      7  O   UNL     1       1.276   9.139  -4.947  1.00  0.00    -0.246 OA
BRANCH   6   8
ATOM      8  C   UNL     1       1.297   6.784  -4.643  1.00  0.00     0.101 A 
ATOM      9  C   UNL     1       2.027   4.423  -3.251  1.00  0.00     0.046 A 
ATOM     10  C   UNL     1       1.313   5.438  -2.650  1.00  0.00     0.027 A 
ATOM     11  C   UNL     1       2.410   4.629  -4.587  1.00  0.00     0.073 A 
ATOM     12  C   UNL     1       0.961   6.612  -3.306  1.00  0.00     0.022 A 
ATOM     13  C   UNL     1       2.019   5.785  -5.290  1.00  0.00     0.132 A 
BRANCH   9  14
ATOM     14  N   UNL     1       2.494   3.275  -2.587  1.00  0.00    -0.308 N 
ATOM     15  C   UNL     1       2.377   2.586  -1.429  1.00  0.00     0.321 C 
ATOM     16  O   UNL     1       3.350   1.843  -1.219  1.00  0.00    -0.248 OA
ATOM     17  H   UNL     1       3.133   2.807  -3.172  1.00  0.00     0.171 HD
BRANCH  15  18
ATOM     18  N   UNL     1       1.297   2.554  -0.589  1.00  0.00    -0.322 N 
BRANCH  18  19
ATOM     19  C   UNL     1       1.319   1.532   0.481  1.00  0.00     0.118 C 
ATOM     20  C   UNL     1       1.288   0.098  -0.048  1.00  0.00     0.027 C 
ENDBRANCH  18  19
BRANCH  18  21
ATOM     21  C   UNL     1       0.065   3.348  -0.607  1.00  0.00     0.155 C 
BRANCH  21  22
ATOM     22  C   UNL     1       0.012   4.516   0.450  1.00  0.00     0.077 C 
ATOM     23  C   UNL     1       1.362   5.166   0.818  1.00  0.00     0.043 C 
ATOM     24  C   UNL     1      -1.028   5.561  -0.001  1.00  0.00     0.043 C 
BRANCH  22  25
ATOM     25  O   UNL     1      -0.474   3.967   1.688  1.00  0.00    -0.389 OA
ATOM     26  H   UNL     1       0.151   3.300   2.014  1.00  0.00     0.211 HD
ENDBRANCH  22  25
ENDBRANCH  21  22
ENDBRANCH  18  21
ENDBRANCH  15  18
ENDBRANCH   9  14
BRANCH  13  27
ATOM     27  O   UNL     1       2.385   5.860  -6.604  1.00  0.00    -0.507 OA
ATOM     28  H   UNL     1       2.149   6.609  -7.114  1.00  0.00     0.293 HD
ENDBRANCH  13  27
ENDBRANCH   6   8
ENDBRANCH   5   6
ENDBRANCH   4   5
ENDBRANCH   3   4
ENDBRANCH   2   3
ENDBRANCH   1   2
BRANCH   1  29
ATOM     29  C   UNL     1      -1.980   5.382  -5.126  1.00  0.00     0.188 C 
BRANCH  29  30
ATOM     30  O   UNL     1      -1.851   5.360  -6.529  1.00  0.00    -0.376 OA
BRANCH  30  31
ATOM     31  C   UNL     1      -3.005   5.291  -7.352  1.00  0.00     0.202 C 
BRANCH  31  32
ATOM     32  C   UNL     1      -4.401   4.793  -6.921  1.00  0.00     0.261 C 
BRANCH  32  33
ATOM     33  O   UNL     1      -4.717   4.779  -5.528  1.00  0.00    -0.460 OA
BRANCH  33  34
ATOM     34  C   UNL     1      -4.727   3.552  -4.956  1.00  0.00     0.338 C 
ATOM     35  O   UNL     1      -4.462   2.483  -5.496  1.00  0.00    -0.246 OA
BRANCH  34  36
ATOM     36  C   UNL     1      -4.932   3.688  -3.506  1.00  0.00     0.060 A 
ATOM     37  C   UNL     1      -3.878   3.344  -2.648  1.00  0.00     0.016 A 
ATOM     38  C   UNL     1      -6.173   4.067  -2.994  1.00  0.00     0.016 A 
ATOM     39  C   UNL     1      -4.073   3.357  -1.269  1.00  0.00     0.010 A 
ATOM     40  C   UNL     1      -6.371   4.060  -1.610  1.00  0.00     0.010 A 
ATOM     41  C   UNL     1      -5.331   3.677  -0.744  1.00  0.00    -0.014 A 
BRANCH  41  42
ATOM     42  C   UNL     1      -5.593   3.457   0.698  1.00  0.00     0.031 A 
ATOM     43  C   UNL     1      -6.245   2.173   1.130  1.00  0.00     0.074 A 
ATOM     44  C   UNL     1      -5.248   4.381   1.612  1.00  0.00     0.049 A 
ATOM     45  N   UNL     1      -6.572   1.777   2.331  1.00  0.00    -0.248 NA
ATOM     46  C   UNL     1      -6.579   1.213   0.065  1.00  0.00     0.031 C 
ATOM     47  C   UNL     1      -4.626   5.668   1.315  1.00  0.00     0.029 A 
ATOM     48  N   UNL     1      -5.394   4.383   2.977  1.00  0.00    -0.354 N 
ATOM     49  C   UNL     1      -7.185   0.541   2.167  1.00  0.00     0.074 A 
ATOM     50  C   UNL     1      -7.180   0.250   0.750  1.00  0.00     0.031 C 
ATOM     51  C   UNL     1      -4.448   6.342   2.464  1.00  0.00     0.029 A 
ATOM     52  C   UNL     1      -4.985   5.553   3.571  1.00  0.00     0.049 A 
ATOM     53  H   UNL     1      -5.756   3.620   3.482  1.00  0.00     0.167 HD
ATOM     54  C   UNL     1      -7.702  -0.280   3.111  1.00  0.00     0.034 A 
ATOM     55  C   UNL     1      -5.064   5.953   4.856  1.00  0.00     0.034 A 
ATOM     56  C   UNL     1      -7.695   0.002   4.521  1.00  0.00     0.049 A 
ATOM     57  C   UNL     1      -5.651   5.020   5.885  1.00  0.00     0.074 A 
ATOM     58  C   UNL     1      -8.150  -0.794   5.558  1.00  0.00     0.029 A 
ATOM     59  N   UNL     1      -7.228   1.175   5.092  1.00  0.00    -0.354 N 
ATOM     60  N   UNL     1      -6.109   3.801   5.731  1.00  0.00    -0.248 NA
ATOM     61  C   UNL     1      -5.705   5.508   7.271  1.00  0.00     0.031 C 
ATOM     62  C   UNL     1      -7.991  -0.086   6.754  1.00  0.00     0.029 A 
ATOM     63  C   UNL     1      -7.399   1.133   6.466  1.00  0.00     0.049 A 
ATOM     64  H   UNL     1      -6.833   1.927   4.595  1.00  0.00     0.167 HD
ATOM     65  C   UNL     1      -6.473   3.365   7.001  1.00  0.00     0.074 A 
ATOM     66  C   UNL     1      -6.158   4.441   7.917  1.00  0.00     0.031 C 
ATOM     67  C   UNL     1      -7.031   2.187   7.375  1.00  0.00     0.034 A 
BRANCH  54  68
ATOM     68  C   UNL     1      -8.322  -1.571   2.650  1.00  0.00     0.023 A 
ATOM     69  C   UNL     1      -7.500  -2.625   2.203  1.00  0.00     0.012 A 
ATOM     70  C   UNL     1      -9.716  -1.760   2.718  1.00  0.00     0.148 A 
ATOM     71  C   UNL     1      -8.060  -3.839   1.803  1.00  0.00     0.002 A 
ATOM     72  C   UNL     1     -10.262  -2.986   2.361  1.00  0.00     0.091 A 
ATOM     73  F   UNL     1     -10.480  -0.735   3.123  1.00  0.00    -0.205 F 
ATOM     74  C   UNL     1      -9.437  -4.022   1.894  1.00  0.00     0.022 A 
BRANCH  72  75
ATOM     75  S   UNL     1     -12.014  -3.346   2.518  1.00  0.00     0.127 S 
ATOM     76  O   UNL     1     -12.425  -3.428   1.117  1.00  0.00    -0.237 OA
ATOM     77  O   UNL     1     -12.002  -4.627   3.225  1.00  0.00    -0.237 OA
ATOM     78  O   UNL     1     -12.588  -2.241   3.272  1.00  0.00    -0.744 OA
ENDBRANCH  72  75
ENDBRANCH  54  68
BRANCH  55  79
ATOM     79  C   UNL     1      -4.571   7.303   5.253  1.00  0.00     0.023 A 
ATOM     80  C   UNL     1      -3.448   7.418   6.096  1.00  0.00     0.012 A 
ATOM     81  C   UNL     1      -5.215   8.472   4.805  1.00  0.00     0.148 A 
ATOM     82  C   UNL     1      -3.001   8.672   6.516  1.00  0.00     0.002 A 
ATOM     83  C   UNL     1      -4.727   9.718   5.176  1.00  0.00     0.091 A 
ATOM     84  F   UNL     1      -6.293   8.341   4.019  1.00  0.00    -0.205 F 
ATOM     85  C   UNL     1      -3.633   9.821   6.048  1.00  0.00     0.022 A 
BRANCH  83  86
ATOM     86  S   UNL     1      -5.395  11.247   4.512  1.00  0.00     0.127 S 
ATOM     87  O   UNL     1      -6.072  11.809   5.676  1.00  0.00    -0.237 OA
ATOM     88  O   UNL     1      -4.179  11.951   4.103  1.00  0.00    -0.237 OA
ATOM     89  O   UNL     1      -6.256  10.850   3.406  1.00  0.00    -0.744 OA
ENDBRANCH  83  86
ENDBRANCH  55  79
BRANCH  67  90
ATOM     90  C   UNL     1      -7.296   1.969   8.844  1.00  0.00     0.023 A 
ATOM     91  C   UNL     1      -8.329   2.677   9.489  1.00  0.00     0.012 A 
ATOM     92  C   UNL     1      -6.561   1.009   9.568  1.00  0.00     0.148 A 
ATOM     93  C   UNL     1      -8.601   2.461  10.840  1.00  0.00     0.002 A 
ATOM     94  C   UNL     1      -6.873   0.761  10.900  1.00  0.00     0.091 A 
ATOM     95  F   UNL     1      -5.569   0.357   8.944  1.00  0.00    -0.205 F 
ATOM     96  C   UNL     1      -7.882   1.496  11.541  1.00  0.00     0.022 A 
BRANCH  94  97
ATOM     97  S   UNL     1      -6.067  -0.533  11.851  1.00  0.00     0.127 S 
ATOM     98  O   UNL     1      -5.195   0.243  12.730  1.00  0.00    -0.237 OA
ATOM     99  O   UNL     1      -7.197  -1.175  12.523  1.00  0.00    -0.237 OA
ATOM    100  O   UNL     1      -5.386  -1.378  10.879  1.00  0.00    -0.744 OA
ENDBRANCH  94  97
ENDBRANCH  67  90
ENDBRANCH  41  42
ENDBRANCH  34  36
ENDBRANCH  33  34
ENDBRANCH  32  33
ENDBRANCH  31  32
ENDBRANCH  30  31
ENDBRANCH  29  30
ENDBRANCH   1  29
TORSDOF 27
