REMARK SMILES O=C(C[C@H]1CN(C(=O)NCc2ccc(Br)cc2)CCO1)OCCOCCOCCOC(=O)c1ccc(-c2c3nc(c(-c4cccc(S(=O)(=O)[O-])c4F)c4ccc([nH]4)c(-c4cccc(S(=O)(=O)[O-])c4F)c4nc(c(-c5cccc(S(=O)(=O)[O-])c5F)c5ccc2[nH]5)C=C4)C=C3)cc1
REMARK SMILES IDX 25 1 24 2 23 3 22 4 21 5 2 6 1 7 3 8 4 9 5 10 20 11 6 12
REMARK SMILES IDX 19 13 18 14 7 15 8 16 9 17 10 19 11 20 12 21 17 22 13 23
REMARK SMILES IDX 16 24 14 25 15 26 26 27 27 28 28 29 29 30 30 31 31 32 32 33
REMARK SMILES IDX 33 34 34 35 95 36 35 37 94 38 36 39 37 40 38 41 88 42 39 43
REMARK SMILES IDX 93 44 87 45 89 46 40 47 92 48 86 49 85 50 41 52 73 53 53 54
REMARK SMILES IDX 72 55 54 56 57 57 71 58 90 59 55 60 56 61 70 63 91 64 58 65
REMARK SMILES IDX 42 66 43 67 51 68 44 69 46 70 52 71 45 72 47 73 48 74 49 75
REMARK SMILES IDX 50 76 74 77 75 78 83 79 76 80 78 81 84 82 77 83 79 84 80 85
REMARK SMILES IDX 81 86 82 87 59 88 60 89 68 90 61 91 63 92 69 93 62 94 64 95
REMARK SMILES IDX 65 96 66 97 67 98
REMARK H PARENT 9 18 89 51 57 62
REMARK Flexibility Score: inf
ROOT
ATOM      1  C   UNL     1       0.822  -0.958  -3.589  1.00  0.00     0.188 C 
ENDROOT
BRANCH   1   2
ATOM      2  O   UNL     1       0.290  -0.820  -2.284  1.00  0.00    -0.376 OA
BRANCH   2   3
ATOM      3  C   UNL     1       1.152  -0.518  -1.209  1.00  0.00     0.202 C 
BRANCH   3   4
ATOM      4  C   UNL     1       1.630   0.931  -1.186  1.00  0.00     0.261 C 
BRANCH   4   5
ATOM      5  O   UNL     1       2.219   1.444  -2.394  1.00  0.00    -0.463 OA
BRANCH   5   6
ATOM      6  C   UNL     1       3.354   1.058  -2.998  1.00  0.00     0.308 C 
ATOM      7  O   UNL     1       3.751   1.679  -3.983  1.00  0.00    -0.252 OA
BRANCH   6   8
ATOM      8  C   UNL     1       4.038  -0.207  -2.572  1.00  0.00     0.156 C 
BRANCH   8   9
ATOM      9  C   UNL     1       4.939  -0.127  -1.354  1.00  0.00     0.149 C 
ATOM     10  C   UNL     1       5.759  -1.437  -1.246  1.00  0.00     0.154 C 
ATOM     11  O   UNL     1       5.801   1.016  -1.384  1.00  0.00    -0.374 OA
ATOM     12  N   UNL     1       6.688  -1.519  -2.375  1.00  0.00    -0.320 N 
ATOM     13  C   UNL     1       6.733   0.966  -2.479  1.00  0.00     0.182 C 
ATOM     14  C   UNL     1       7.553  -0.333  -2.470  1.00  0.00     0.150 C 
BRANCH  12  15
ATOM     15  C   UNL     1       6.564  -2.325  -3.472  1.00  0.00     0.317 C 
ATOM     16  O   UNL     1       7.034  -2.001  -4.566  1.00  0.00    -0.249 OA
ATOM     17  N   UNL     1       5.864  -3.476  -3.440  1.00  0.00    -0.334 N 
ATOM     18  H   UNL     1       5.433  -3.699  -4.296  1.00  0.00     0.165 HD
BRANCH  17  19
ATOM     19  C   UNL     1       5.619  -4.456  -2.388  1.00  0.00     0.153 C 
BRANCH  19  20
ATOM     20  C   UNL     1       4.207  -5.008  -2.424  1.00  0.00    -0.029 A 
ATOM     21  C   UNL     1       3.988  -6.376  -2.194  1.00  0.00     0.007 A 
ATOM     22  C   UNL     1       3.086  -4.193  -2.638  1.00  0.00     0.007 A 
ATOM     23  C   UNL     1       2.697  -6.914  -2.174  1.00  0.00     0.016 A 
ATOM     24  C   UNL     1       1.789  -4.717  -2.568  1.00  0.00     0.016 A 
ATOM     25  C   UNL     1       1.601  -6.074  -2.322  1.00  0.00     0.017 A 
ATOM     26  Br  UNL     1      -0.149  -6.772  -2.143  1.00  0.00    -0.051 Br
ENDBRANCH  19  20
ENDBRANCH  17  19
ENDBRANCH  12  15
ENDBRANCH   8   9
ENDBRANCH   6   8
ENDBRANCH   5   6
ENDBRANCH   4   5
ENDBRANCH   3   4
ENDBRANCH   2   3
ENDBRANCH   1   2
BRANCH   1  27
ATOM     27  C   UNL     1       0.233   0.014  -4.624  1.00  0.00     0.188 C 
BRANCH  27  28
ATOM     28  O   UNL     1      -1.085   0.528  -4.481  1.00  0.00    -0.376 OA
BRANCH  28  29
ATOM     29  C   UNL     1      -2.013  -0.138  -3.645  1.00  0.00     0.202 C 
BRANCH  29  30
ATOM     30  C   UNL     1      -2.506  -1.525  -4.086  1.00  0.00     0.261 C 
BRANCH  30  31
ATOM     31  O   UNL     1      -1.501  -2.509  -4.397  1.00  0.00    -0.460 OA
BRANCH  31  32
ATOM     32  C   UNL     1      -1.200  -2.681  -5.715  1.00  0.00     0.338 C 
ATOM     33  O   UNL     1      -1.650  -2.058  -6.653  1.00  0.00    -0.246 OA
BRANCH  32  34
ATOM     34  C   UNL     1      -0.143  -3.719  -5.854  1.00  0.00     0.060 A 
ATOM     35  C   UNL     1       1.085  -3.421  -6.469  1.00  0.00     0.016 A 
ATOM     36  C   UNL     1      -0.398  -5.019  -5.434  1.00  0.00     0.016 A 
ATOM     37  C   UNL     1       2.045  -4.431  -6.692  1.00  0.00     0.010 A 
ATOM     38  C   UNL     1       0.564  -6.015  -5.647  1.00  0.00     0.010 A 
ATOM     39  C   UNL     1       1.782  -5.753  -6.313  1.00  0.00    -0.014 A 
BRANCH  39  40
ATOM     40  C   UNL     1       2.607  -6.940  -6.726  1.00  0.00     0.031 A 
ATOM     41  C   UNL     1       1.942  -7.984  -7.588  1.00  0.00     0.074 A 
ATOM     42  C   UNL     1       3.855  -7.201  -6.285  1.00  0.00     0.049 A 
ATOM     43  N   UNL     1       2.299  -9.217  -7.834  1.00  0.00    -0.248 NA
ATOM     44  C   UNL     1       0.683  -7.579  -8.236  1.00  0.00     0.031 C 
ATOM     45  C   UNL     1       4.700  -6.292  -5.528  1.00  0.00     0.029 A 
ATOM     46  N   UNL     1       4.602  -8.362  -6.353  1.00  0.00    -0.354 N 
ATOM     47  C   UNL     1       1.291  -9.746  -8.629  1.00  0.00     0.074 A 
ATOM     48  C   UNL     1       0.274  -8.724  -8.755  1.00  0.00     0.031 C 
ATOM     49  C   UNL     1       5.791  -6.955  -5.100  1.00  0.00     0.029 A 
ATOM     50  C   UNL     1       5.709  -8.346  -5.531  1.00  0.00     0.049 A 
ATOM     51  H   UNL     1       4.367  -9.124  -6.931  1.00  0.00     0.167 HD
ATOM     52  C   UNL     1       1.231 -10.947  -9.250  1.00  0.00     0.034 A 
ATOM     53  C   UNL     1       6.539  -9.335  -5.132  1.00  0.00     0.034 A 
ATOM     54  C   UNL     1       2.263 -11.943  -9.193  1.00  0.00     0.049 A 
ATOM     55  C   UNL     1       6.415 -10.707  -5.740  1.00  0.00     0.074 A 
ATOM     56  C   UNL     1       2.344 -13.137  -9.888  1.00  0.00     0.029 A 
ATOM     57  N   UNL     1       3.389 -11.869  -8.392  1.00  0.00    -0.354 N 
ATOM     58  N   UNL     1       5.526 -11.149  -6.593  1.00  0.00    -0.248 NA
ATOM     59  C   UNL     1       7.456 -11.691  -5.399  1.00  0.00     0.031 C 
ATOM     60  C   UNL     1       3.506 -13.801  -9.482  1.00  0.00     0.029 A 
ATOM     61  C   UNL     1       4.167 -13.001  -8.565  1.00  0.00     0.049 A 
ATOM     62  H   UNL     1       3.605 -11.122  -7.788  1.00  0.00     0.167 HD
ATOM     63  C   UNL     1       5.958 -12.417  -6.970  1.00  0.00     0.074 A 
ATOM     64  C   UNL     1       7.163 -12.692  -6.220  1.00  0.00     0.031 C 
ATOM     65  C   UNL     1       5.410 -13.254  -7.884  1.00  0.00     0.034 A 
BRANCH  52  66
ATOM     66  C   UNL     1       0.017 -11.216 -10.099  1.00  0.00     0.023 A 
ATOM     67  C   UNL     1      -0.189 -10.469 -11.278  1.00  0.00     0.012 A 
ATOM     68  C   UNL     1      -0.914 -12.205  -9.736  1.00  0.00     0.148 A 
ATOM     69  C   UNL     1      -1.337 -10.652 -12.044  1.00  0.00     0.002 A 
ATOM     70  C   UNL     1      -2.027 -12.424 -10.537  1.00  0.00     0.091 A 
ATOM     71  F   UNL     1      -0.710 -12.895  -8.604  1.00  0.00    -0.205 F 
ATOM     72  C   UNL     1      -2.251 -11.635 -11.678  1.00  0.00     0.022 A 
BRANCH  70  73
ATOM     73  S   UNL     1      -3.213 -13.730 -10.205  1.00  0.00     0.127 S 
ATOM     74  O   UNL     1      -4.373 -12.966  -9.750  1.00  0.00    -0.237 OA
ATOM     75  O   UNL     1      -3.367 -14.347 -11.523  1.00  0.00    -0.237 OA
ATOM     76  O   UNL     1      -2.595 -14.588  -9.203  1.00  0.00    -0.744 OA
ENDBRANCH  70  73
ENDBRANCH  52  66
BRANCH  53  77
ATOM     77  C   UNL     1       7.608  -9.067  -4.125  1.00  0.00     0.023 A 
ATOM     78  C   UNL     1       8.948  -8.956  -4.540  1.00  0.00     0.012 A 
ATOM     79  C   UNL     1       7.302  -8.953  -2.755  1.00  0.00     0.148 A 
ATOM     80  C   UNL     1       9.968  -8.766  -3.605  1.00  0.00     0.002 A 
ATOM     81  C   UNL     1       8.317  -8.713  -1.834  1.00  0.00     0.091 A 
ATOM     82  F   UNL     1       6.024  -9.091  -2.379  1.00  0.00    -0.205 F 
ATOM     83  C   UNL     1       9.654  -8.638  -2.255  1.00  0.00     0.022 A 
BRANCH  81  84
ATOM     84  S   UNL     1       7.999  -8.424  -0.090  1.00  0.00     0.127 S 
ATOM     85  O   UNL     1       8.730  -9.520   0.539  1.00  0.00    -0.237 OA
ATOM     86  O   UNL     1       8.585  -7.097   0.099  1.00  0.00    -0.237 OA
ATOM     87  O   UNL     1       6.550  -8.467   0.056  1.00  0.00    -0.744 OA
ENDBRANCH  81  84
ENDBRANCH  53  77
BRANCH  65  88
ATOM     88  C   UNL     1       6.152 -14.516  -8.242  1.00  0.00     0.023 A 
ATOM     89  C   UNL     1       6.192 -15.605  -7.351  1.00  0.00     0.012 A 
ATOM     90  C   UNL     1       6.715 -14.653  -9.528  1.00  0.00     0.148 A 
ATOM     91  C   UNL     1       6.796 -16.805  -7.730  1.00  0.00     0.002 A 
ATOM     92  C   UNL     1       7.266 -15.867  -9.917  1.00  0.00     0.091 A 
ATOM     93  F   UNL     1       6.687 -13.596 -10.353  1.00  0.00    -0.205 F 
ATOM     94  C   UNL     1       7.318 -16.941  -9.016  1.00  0.00     0.022 A 
BRANCH  92  95
ATOM     95  S   UNL     1       7.862 -16.166 -11.586  1.00  0.00     0.127 S 
ATOM     96  O   UNL     1       9.303 -16.284 -11.372  1.00  0.00    -0.237 OA
ATOM     97  O   UNL     1       7.192 -17.420 -11.932  1.00  0.00    -0.237 OA
ATOM     98  O   UNL     1       7.443 -15.017 -12.378  1.00  0.00    -0.744 OA
ENDBRANCH  92  95
ENDBRANCH  65  88
ENDBRANCH  39  40
ENDBRANCH  32  34
ENDBRANCH  31  32
ENDBRANCH  30  31
ENDBRANCH  29  30
ENDBRANCH  28  29
ENDBRANCH  27  28
ENDBRANCH   1  27
TORSDOF 24
