REMARK SMILES COc1ccc(-n2nc(C(=O)OCCOCCOCCOC(=O)c3ccc(-c4c5nc(c(-c6cccc(S(=O)(=O)[O-])c6F)c6ccc([nH]6)c(-c6cccc(S(=O)(=O)[O-])c6F)c6nc(c(-c7cccc(S(=O)(=O)[O-])c7F)c7ccc4[nH]7)C=C6)C=C5)cc3)c(=O)cc2C)cc1
REMARK SMILES IDX 17 1 16 2 15 3 14 4 13 5 12 6 10 7 11 8 9 9 7 10 8 11 90 12
REMARK SMILES IDX 89 13 91 14 87 15 88 16 6 17 3 18 4 19 93 20 5 21 92 22 2 23
REMARK SMILES IDX 1 24 18 25 19 26 20 27 21 28 22 29 23 30 24 31 25 32 86 33
REMARK SMILES IDX 26 34 85 35 27 36 28 37 29 38 79 39 30 40 84 41 78 42 80 43
REMARK SMILES IDX 31 44 83 45 77 46 76 47 32 49 64 50 44 51 63 52 45 53 48 54
REMARK SMILES IDX 62 55 81 56 46 57 47 58 61 60 82 61 49 62 33 63 34 64 42 65
REMARK SMILES IDX 35 66 37 67 43 68 36 69 38 70 39 71 40 72 41 73 65 74 66 75
REMARK SMILES IDX 74 76 67 77 69 78 75 79 68 80 70 81 71 82 72 83 73 84 50 85
REMARK SMILES IDX 51 86 59 87 52 88 54 89 60 90 53 91 55 92 56 93 57 94 58 95
REMARK H PARENT 80 48 48 59
REMARK Flexibility Score: inf
ROOT
ATOM      1  C   UNL     1      -0.719  10.055   0.395  1.00  0.00     0.188 C 
ENDROOT
BRANCH   1   2
ATOM      2  C   UNL     1      -1.197   9.356   1.687  1.00  0.00     0.188 C 
BRANCH   2   3
ATOM      3  O   UNL     1      -1.558  10.140   2.813  1.00  0.00    -0.376 OA
BRANCH   3   4
ATOM      4  C   UNL     1      -0.616  11.042   3.378  1.00  0.00     0.202 C 
BRANCH   4   5
ATOM      5  C   UNL     1       0.847  10.620   3.556  1.00  0.00     0.261 C 
BRANCH   5   6
ATOM      6  O   UNL     1       1.411  10.062   2.365  1.00  0.00    -0.458 OA
BRANCH   6   7
ATOM      7  C   UNL     1       2.185   8.970   2.540  1.00  0.00     0.363 C 
ATOM      8  O   UNL     1       2.583   8.494   3.579  1.00  0.00    -0.244 OA
BRANCH   7   9
ATOM      9  C   UNL     1       2.476   8.338   1.195  1.00  0.00     0.216 A 
ATOM     10  N   UNL     1       2.324   6.529  -0.213  1.00  0.00    -0.237 N 
ATOM     11  N   UNL     1       1.988   7.149   0.968  1.00  0.00    -0.156 NA
ATOM     12  C   UNL     1       3.149   7.101  -1.187  1.00  0.00     0.044 A 
ATOM     13  C   UNL     1       3.629   8.347  -1.062  1.00  0.00     0.078 A 
ATOM     14  C   UNL     1       3.529   6.321  -2.424  1.00  0.00     0.067 C 
ATOM     15  C   UNL     1       3.310   9.061   0.177  1.00  0.00     0.215 A 
ATOM     16  O   UNL     1       3.724  10.191   0.389  1.00  0.00    -0.287 OA
BRANCH  10  17
ATOM     17  C   UNL     1       1.849   5.190  -0.301  1.00  0.00     0.065 A 
ATOM     18  C   UNL     1       0.955   2.537  -0.596  1.00  0.00     0.119 A 
ATOM     19  C   UNL     1       0.099   3.604  -0.873  1.00  0.00     0.048 A 
ATOM     20  C   UNL     1       2.257   2.791  -0.170  1.00  0.00     0.048 A 
ATOM     21  C   UNL     1       0.537   4.923  -0.712  1.00  0.00     0.032 A 
ATOM     22  C   UNL     1       2.700   4.111  -0.021  1.00  0.00     0.032 A 
BRANCH  18  23
ATOM     23  O   UNL     1       0.446   1.292  -0.840  1.00  0.00    -0.497 OA
ATOM     24  C   UNL     1       0.884   0.271   0.051  1.00  0.00     0.278 C 
ENDBRANCH  18  23
ENDBRANCH  10  17
ENDBRANCH   7   9
ENDBRANCH   6   7
ENDBRANCH   5   6
ENDBRANCH   4   5
ENDBRANCH   3   4
ENDBRANCH   2   3
ENDBRANCH   1   2
BRANCH   1  25
ATOM     25  O   UNL     1      -0.513  11.447   0.438  1.00  0.00    -0.376 OA
BRANCH  25  26
ATOM     26  C   UNL     1      -1.599  12.353   0.333  1.00  0.00     0.202 C 
BRANCH  26  27
ATOM     27  C   UNL     1      -3.080  11.995   0.099  1.00  0.00     0.261 C 
BRANCH  27  28
ATOM     28  O   UNL     1      -3.473  10.628   0.193  1.00  0.00    -0.460 OA
BRANCH  28  29
ATOM     29  C   UNL     1      -3.694  10.002  -0.989  1.00  0.00     0.338 C 
ATOM     30  O   UNL     1      -3.541  10.461  -2.108  1.00  0.00    -0.246 OA
BRANCH  29  31
ATOM     31  C   UNL     1      -3.973   8.581  -0.717  1.00  0.00     0.060 A 
ATOM     32  C   UNL     1      -3.040   7.627  -1.141  1.00  0.00     0.016 A 
ATOM     33  C   UNL     1      -5.147   8.194  -0.069  1.00  0.00     0.016 A 
ATOM     34  C   UNL     1      -3.289   6.274  -0.931  1.00  0.00     0.010 A 
ATOM     35  C   UNL     1      -5.402   6.833   0.124  1.00  0.00     0.010 A 
ATOM     36  C   UNL     1      -4.484   5.867  -0.326  1.00  0.00    -0.014 A 
BRANCH  36  37
ATOM     37  C   UNL     1      -4.841   4.430  -0.317  1.00  0.00     0.031 A 
ATOM     38  C   UNL     1      -5.757   3.911  -1.391  1.00  0.00     0.074 A 
ATOM     39  C   UNL     1      -4.347   3.595   0.615  1.00  0.00     0.049 A 
ATOM     40  N   UNL     1      -6.234   2.707  -1.562  1.00  0.00    -0.248 NA
ATOM     41  C   UNL     1      -6.188   4.882  -2.411  1.00  0.00     0.031 C 
ATOM     42  C   UNL     1      -3.426   3.971   1.685  1.00  0.00     0.029 A 
ATOM     43  N   UNL     1      -4.576   2.257   0.819  1.00  0.00    -0.354 N 
ATOM     44  C   UNL     1      -7.042   2.779  -2.690  1.00  0.00     0.074 A 
ATOM     45  C   UNL     1      -6.996   4.146  -3.160  1.00  0.00     0.031 C 
ATOM     46  C   UNL     1      -3.195   2.894   2.457  1.00  0.00     0.029 A 
ATOM     47  C   UNL     1      -3.972   1.764   1.952  1.00  0.00     0.049 A 
ATOM     48  H   UNL     1      -5.121   1.704   0.213  1.00  0.00     0.167 HD
ATOM     49  C   UNL     1      -7.749   1.793  -3.289  1.00  0.00     0.034 A 
ATOM     50  C   UNL     1      -4.063   0.548   2.527  1.00  0.00     0.034 A 
ATOM     51  C   UNL     1      -7.785   0.432  -2.828  1.00  0.00     0.049 A 
ATOM     52  C   UNL     1      -4.902  -0.519   1.869  1.00  0.00     0.074 A 
ATOM     53  C   UNL     1      -8.449  -0.646  -3.386  1.00  0.00     0.029 A 
ATOM     54  N   UNL     1      -7.144  -0.037  -1.693  1.00  0.00    -0.354 N 
ATOM     55  N   UNL     1      -5.577  -0.466   0.745  1.00  0.00    -0.248 NA
ATOM     56  C   UNL     1      -4.969  -1.824   2.544  1.00  0.00     0.031 C 
ATOM     57  C   UNL     1      -8.234  -1.761  -2.570  1.00  0.00     0.029 A 
ATOM     58  C   UNL     1      -7.408  -1.385  -1.522  1.00  0.00     0.049 A 
ATOM     59  H   UNL     1      -6.582   0.509  -1.096  1.00  0.00     0.167 HD
ATOM     60  C   UNL     1      -6.114  -1.737   0.560  1.00  0.00     0.074 A 
ATOM     61  C   UNL     1      -5.670  -2.543   1.677  1.00  0.00     0.031 C 
ATOM     62  C   UNL     1      -6.913  -2.192  -0.437  1.00  0.00     0.034 A 
BRANCH  49  63
ATOM     63  C   UNL     1      -8.536   2.150  -4.520  1.00  0.00     0.023 A 
ATOM     64  C   UNL     1      -7.862   2.393  -5.734  1.00  0.00     0.012 A 
ATOM     65  C   UNL     1      -9.943   2.195  -4.487  1.00  0.00     0.148 A 
ATOM     66  C   UNL     1      -8.576   2.704  -6.891  1.00  0.00     0.002 A 
ATOM     67  C   UNL     1     -10.649   2.462  -5.654  1.00  0.00     0.091 A 
ATOM     68  F   UNL     1     -10.562   1.986  -3.317  1.00  0.00    -0.205 F 
ATOM     69  C   UNL     1      -9.967   2.727  -6.853  1.00  0.00     0.022 A 
BRANCH  67  70
ATOM     70  S   UNL     1     -12.443   2.441  -5.725  1.00  0.00     0.127 S 
ATOM     71  O   UNL     1     -12.747   3.857  -5.926  1.00  0.00    -0.237 OA
ATOM     72  O   UNL     1     -12.693   1.593  -6.891  1.00  0.00    -0.237 OA
ATOM     73  O   UNL     1     -12.891   1.881  -4.458  1.00  0.00    -0.744 OA
ENDBRANCH  67  70
ENDBRANCH  49  63
BRANCH  50  74
ATOM     74  C   UNL     1      -3.331   0.260   3.794  1.00  0.00     0.023 A 
ATOM     75  C   UNL     1      -2.266  -0.661   3.788  1.00  0.00     0.012 A 
ATOM     76  C   UNL     1      -3.694   0.882   5.004  1.00  0.00     0.148 A 
ATOM     77  C   UNL     1      -1.599  -0.984   4.971  1.00  0.00     0.002 A 
ATOM     78  C   UNL     1      -2.991   0.597   6.168  1.00  0.00     0.091 A 
ATOM     79  F   UNL     1      -4.725   1.739   4.994  1.00  0.00    -0.205 F 
ATOM     80  C   UNL     1      -1.954  -0.349   6.158  1.00  0.00     0.022 A 
BRANCH  78  81
ATOM     81  S   UNL     1      -3.307   1.446   7.720  1.00  0.00     0.127 S 
ATOM     82  O   UNL     1      -3.914   0.387   8.521  1.00  0.00    -0.237 OA
ATOM     83  O   UNL     1      -1.957   1.833   8.132  1.00  0.00    -0.237 OA
ATOM     84  O   UNL     1      -4.177   2.565   7.385  1.00  0.00    -0.744 OA
ENDBRANCH  78  81
ENDBRANCH  50  74
BRANCH  62  85
ATOM     85  C   UNL     1      -7.332  -3.639  -0.399  1.00  0.00     0.023 A 
ATOM     86  C   UNL     1      -8.277  -4.073   0.552  1.00  0.00     0.012 A 
ATOM     87  C   UNL     1      -6.851  -4.552  -1.360  1.00  0.00     0.148 A 
ATOM     88  C   UNL     1      -8.710  -5.399   0.568  1.00  0.00     0.002 A 
ATOM     89  C   UNL     1      -7.326  -5.858  -1.370  1.00  0.00     0.091 A 
ATOM     90  F   UNL     1      -5.941  -4.125  -2.248  1.00  0.00    -0.205 F 
ATOM     91  C   UNL     1      -8.245  -6.287  -0.399  1.00  0.00     0.022 A 
BRANCH  89  92
ATOM     92  S   UNL     1      -6.858  -7.044  -2.636  1.00  0.00     0.127 S 
ATOM     93  O   UNL     1      -5.990  -7.952  -1.887  1.00  0.00    -0.237 OA
ATOM     94  O   UNL     1      -8.149  -7.614  -3.020  1.00  0.00    -0.237 OA
ATOM     95  O   UNL     1      -6.201  -6.275  -3.684  1.00  0.00    -0.744 OA
ENDBRANCH  89  92
ENDBRANCH  62  85
ENDBRANCH  36  37
ENDBRANCH  29  31
ENDBRANCH  28  29
ENDBRANCH  27  28
ENDBRANCH  26  27
ENDBRANCH  25  26
ENDBRANCH   1  25
TORSDOF 22
