REMARK SMILES COc1cccc([C@@H]2[NH2+][C@@](CCSC)(C(=O)OCCOCCOCCOC(=O)c3ccc(-c4c5nc(c(-c6cccc(S(=O)(=O)[O-])c6F)c6ccc([nH]6)c(-c6cccc(S(=O)(=O)[O-])c6F)c6nc(c(-c7cccc(S(=O)(=O)[O-])c7F)c7ccc4[nH]7)C=C6)C=C5)cc3)[C@@H]3C(=O)N(C(C)C)C(=O)[C@@H]32)c1O
REMARK SMILES IDX 21 1 20 2 19 3 18 4 17 5 15 6 16 7 10 8 8 9 9 10 101 11
REMARK SMILES IDX 92 14 99 15 93 16 95 17 100 18 94 19 7 20 3 21 4 22 102 23
REMARK SMILES IDX 5 24 6 25 2 26 1 27 103 28 11 30 12 31 13 32 14 33 96 34
REMARK SMILES IDX 97 35 98 36 22 37 23 38 24 39 25 40 26 41 27 42 28 43 29 44
REMARK SMILES IDX 30 45 91 46 31 47 90 48 32 49 33 50 34 51 84 52 35 53 89 54
REMARK SMILES IDX 83 55 85 56 36 57 88 58 82 59 81 60 37 62 69 63 49 64 68 65
REMARK SMILES IDX 50 66 53 67 67 68 86 69 51 70 52 71 66 73 87 74 54 75 38 76
REMARK SMILES IDX 39 77 47 78 40 79 42 80 48 81 41 82 43 83 44 84 45 85 46 86
REMARK SMILES IDX 70 87 71 88 79 89 72 90 74 91 80 92 73 93 75 94 76 95 77 96
REMARK SMILES IDX 78 97 55 98 56 99 64 100 57 101 59 102 65 103 58 104 60 105
REMARK SMILES IDX 61 106 62 107 63 108
REMARK H PARENT 9 12 9 13 103 29 85 61 53 72
REMARK Flexibility Score: inf
ROOT
ATOM      1  C   UNL     1       2.827   2.080  -0.271  1.00  0.00     0.188 C 
ENDROOT
BRANCH   1   2
ATOM      2  O   UNL     1       1.451   1.910  -0.571  1.00  0.00    -0.376 OA
BRANCH   2   3
ATOM      3  C   UNL     1       0.899   0.598  -0.455  1.00  0.00     0.202 C 
BRANCH   3   4
ATOM      4  C   UNL     1       1.758  -0.606  -0.880  1.00  0.00     0.261 C 
BRANCH   4   5
ATOM      5  O   UNL     1       2.946  -0.780  -0.071  1.00  0.00    -0.459 OA
BRANCH   5   6
ATOM      6  C   UNL     1       3.980  -1.371  -0.706  1.00  0.00     0.369 C 
ATOM      7  O   UNL     1       3.880  -1.888  -1.818  1.00  0.00    -0.245 OA
BRANCH   6   8
ATOM      8  C   UNL     1       5.352  -1.383   0.076  1.00  0.00     0.208 C 
ATOM      9  C   UNL     1       5.078  -3.542   0.967  1.00  0.00     0.232 C 
ATOM     10  N   UNL     1       5.824  -2.780  -0.050  1.00  0.00    -0.324 N 
ATOM     11  C   UNL     1       5.133  -2.648   2.201  1.00  0.00     0.161 C 
ATOM     12  H   UNL     1       5.623  -3.140  -0.983  1.00  0.00     0.347 HD
ATOM     13  H   UNL     1       6.832  -2.852   0.086  1.00  0.00     0.347 HD
ATOM     14  C   UNL     1       5.330  -1.239   1.622  1.00  0.00     0.171 C 
ATOM     15  C   UNL     1       6.316  -2.845   3.106  1.00  0.00     0.240 C 
ATOM     16  C   UNL     1       6.660  -0.810   2.217  1.00  0.00     0.240 C 
ATOM     17  N   UNL     1       7.228  -1.853   2.892  1.00  0.00    -0.279 N 
ATOM     18  O   UNL     1       6.411  -3.749   3.926  1.00  0.00    -0.274 OA
ATOM     19  O   UNL     1       7.116   0.321   2.112  1.00  0.00    -0.274 OA
BRANCH   9  20
ATOM     20  C   UNL     1       5.567  -4.965   1.009  1.00  0.00     0.056 A 
ATOM     21  C   UNL     1       5.167  -7.343   0.609  1.00  0.00     0.161 A 
ATOM     22  C   UNL     1       6.522  -7.597   0.844  1.00  0.00     0.050 A 
ATOM     23  C   UNL     1       4.693  -6.032   0.737  1.00  0.00     0.166 A 
ATOM     24  C   UNL     1       7.395  -6.564   1.169  1.00  0.00     0.005 A 
ATOM     25  C   UNL     1       6.923  -5.258   1.230  1.00  0.00     0.014 A 
BRANCH  21  26
ATOM     26  O   UNL     1       4.436  -8.460   0.306  1.00  0.00    -0.493 OA
ATOM     27  C   UNL     1       3.289  -8.296  -0.522  1.00  0.00     0.278 C 
ENDBRANCH  21  26
BRANCH  23  28
ATOM     28  O   UNL     1       3.358  -5.741   0.650  1.00  0.00    -0.504 OA
ATOM     29  H   UNL     1       2.741  -6.423   0.470  1.00  0.00     0.293 HD
ENDBRANCH  23  28
ENDBRANCH   9  20
BRANCH   8  30
ATOM     30  C   UNL     1       6.236  -0.359  -0.701  1.00  0.00     0.093 C 
BRANCH  30  31
ATOM     31  C   UNL     1       7.753  -0.578  -0.774  1.00  0.00     0.076 C 
BRANCH  31  32
ATOM     32  S   UNL     1       8.324  -1.563  -2.207  1.00  0.00    -0.165 SA
ATOM     33  C   UNL     1       8.414  -3.213  -1.473  1.00  0.00     0.085 C 
ENDBRANCH  31  32
ENDBRANCH  30  31
ENDBRANCH   8  30
BRANCH  17  34
ATOM     34  C   UNL     1       8.589  -1.901   3.450  1.00  0.00     0.087 C 
ATOM     35  C   UNL     1       9.655  -1.867   2.352  1.00  0.00     0.031 C 
ATOM     36  C   UNL     1       8.868  -0.823   4.492  1.00  0.00     0.031 C 
ENDBRANCH  17  34
ENDBRANCH   6   8
ENDBRANCH   5   6
ENDBRANCH   4   5
ENDBRANCH   3   4
ENDBRANCH   2   3
ENDBRANCH   1   2
BRANCH   1  37
ATOM     37  C   UNL     1       3.286   1.675   1.130  1.00  0.00     0.188 C 
BRANCH  37  38
ATOM     38  O   UNL     1       2.365   0.932   1.898  1.00  0.00    -0.376 OA
BRANCH  38  39
ATOM     39  C   UNL     1       1.648   1.544   2.961  1.00  0.00     0.202 C 
BRANCH  39  40
ATOM     40  C   UNL     1       1.320   3.049   3.004  1.00  0.00     0.261 C 
BRANCH  40  41
ATOM     41  O   UNL     1       2.352   3.966   2.618  1.00  0.00    -0.460 OA
BRANCH  41  42
ATOM     42  C   UNL     1       3.470   4.027   3.383  1.00  0.00     0.338 C 
ATOM     43  O   UNL     1       3.659   3.453   4.442  1.00  0.00    -0.246 OA
BRANCH  42  44
ATOM     44  C   UNL     1       4.519   4.667   2.543  1.00  0.00     0.060 A 
ATOM     45  C   UNL     1       5.722   3.975   2.321  1.00  0.00     0.016 A 
ATOM     46  C   UNL     1       4.264   5.862   1.866  1.00  0.00     0.016 A 
ATOM     47  C   UNL     1       6.673   4.484   1.432  1.00  0.00     0.010 A 
ATOM     48  C   UNL     1       5.229   6.384   1.001  1.00  0.00     0.010 A 
ATOM     49  C   UNL     1       6.446   5.710   0.795  1.00  0.00    -0.014 A 
BRANCH  49  50
ATOM     50  C   UNL     1       7.538   6.396   0.063  1.00  0.00     0.031 A 
ATOM     51  C   UNL     1       8.341   7.429   0.802  1.00  0.00     0.074 A 
ATOM     52  C   UNL     1       7.785   6.155  -1.237  1.00  0.00     0.049 A 
ATOM     53  N   UNL     1       9.270   8.234   0.360  1.00  0.00    -0.248 NA
ATOM     54  C   UNL     1       8.047   7.575   2.238  1.00  0.00     0.031 C 
ATOM     55  C   UNL     1       7.093   5.170  -2.064  1.00  0.00     0.029 A 
ATOM     56  N   UNL     1       8.671   6.756  -2.098  1.00  0.00    -0.354 N 
ATOM     57  C   UNL     1       9.650   9.004   1.451  1.00  0.00     0.074 A 
ATOM     58  C   UNL     1       8.847   8.575   2.575  1.00  0.00     0.031 C 
ATOM     59  C   UNL     1       7.555   5.259  -3.324  1.00  0.00     0.029 A 
ATOM     60  C   UNL     1       8.550   6.329  -3.399  1.00  0.00     0.049 A 
ATOM     61  H   UNL     1       9.330   7.429  -1.810  1.00  0.00     0.167 HD
ATOM     62  C   UNL     1      10.590   9.976   1.518  1.00  0.00     0.034 A 
ATOM     63  C   UNL     1       9.148   6.774  -4.523  1.00  0.00     0.034 A 
ATOM     64  C   UNL     1      11.391  10.402   0.404  1.00  0.00     0.049 A 
ATOM     65  C   UNL     1      10.148   7.902  -4.437  1.00  0.00     0.074 A 
ATOM     66  C   UNL     1      12.405  11.343   0.384  1.00  0.00     0.029 A 
ATOM     67  N   UNL     1      11.255   9.933  -0.894  1.00  0.00    -0.354 N 
ATOM     68  N   UNL     1      10.588   8.540  -3.379  1.00  0.00    -0.248 NA
ATOM     69  C   UNL     1      10.748   8.357  -5.701  1.00  0.00     0.031 C 
ATOM     70  C   UNL     1      12.855  11.471  -0.934  1.00  0.00     0.029 A 
ATOM     71  C   UNL     1      12.145  10.586  -1.730  1.00  0.00     0.049 A 
ATOM     72  H   UNL     1      10.618   9.239  -1.179  1.00  0.00     0.167 HD
ATOM     73  C   UNL     1      11.531   9.451  -3.845  1.00  0.00     0.074 A 
ATOM     74  C   UNL     1      11.617   9.266  -5.278  1.00  0.00     0.031 C 
ATOM     75  C   UNL     1      12.251  10.369  -3.151  1.00  0.00     0.034 A 
BRANCH  62  76
ATOM     76  C   UNL     1      10.802  10.638   2.853  1.00  0.00     0.023 A 
ATOM     77  C   UNL     1      11.429   9.926   3.896  1.00  0.00     0.012 A 
ATOM     78  C   UNL     1      10.402  11.971   3.067  1.00  0.00     0.148 A 
ATOM     79  C   UNL     1      11.620  10.517   5.144  1.00  0.00     0.002 A 
ATOM     80  C   UNL     1      10.637  12.568   4.300  1.00  0.00     0.091 A 
ATOM     81  F   UNL     1       9.782  12.622   2.073  1.00  0.00    -0.205 F 
ATOM     82  C   UNL     1      11.233  11.840   5.342  1.00  0.00     0.022 A 
BRANCH  80  83
ATOM     83  S   UNL     1      10.242  14.289   4.628  1.00  0.00     0.127 S 
ATOM     84  O   UNL     1       9.080  14.163   5.507  1.00  0.00    -0.237 OA
ATOM     85  O   UNL     1      11.458  14.763   5.290  1.00  0.00    -0.237 OA
ATOM     86  O   UNL     1       9.984  14.896   3.330  1.00  0.00    -0.744 OA
ENDBRANCH  80  83
ENDBRANCH  62  76
BRANCH  63  87
ATOM     87  C   UNL     1       8.831   6.143  -5.836  1.00  0.00     0.023 A 
ATOM     88  C   UNL     1       9.811   5.372  -6.490  1.00  0.00     0.012 A 
ATOM     89  C   UNL     1       7.563   6.290  -6.433  1.00  0.00     0.148 A 
ATOM     90  C   UNL     1       9.543   4.778  -7.724  1.00  0.00     0.002 A 
ATOM     91  C   UNL     1       7.285   5.653  -7.636  1.00  0.00     0.091 A 
ATOM     92  F   UNL     1       6.650   7.044  -5.804  1.00  0.00    -0.205 F 
ATOM     93  C   UNL     1       8.279   4.909  -8.292  1.00  0.00     0.022 A 
BRANCH  91  94
ATOM     94  S   UNL     1       5.653   5.669  -8.387  1.00  0.00     0.127 S 
ATOM     95  O   UNL     1       5.895   6.426  -9.613  1.00  0.00    -0.237 OA
ATOM     96  O   UNL     1       5.399   4.242  -8.584  1.00  0.00    -0.237 OA
ATOM     97  O   UNL     1       4.777   6.310  -7.416  1.00  0.00    -0.744 OA
ENDBRANCH  91  94
ENDBRANCH  63  87
BRANCH  75  98
ATOM     98  C   UNL     1      13.209  11.244  -3.921  1.00  0.00     0.023 A 
ATOM     99  C   UNL     1      12.708  12.264  -4.753  1.00  0.00     0.012 A 
ATOM    100  C   UNL     1      14.603  11.111  -3.756  1.00  0.00     0.148 A 
ATOM    101  C   UNL     1      13.577  13.118  -5.432  1.00  0.00     0.002 A 
ATOM    102  C   UNL     1      15.462  11.997  -4.398  1.00  0.00     0.091 A 
ATOM    103  F   UNL     1      15.063  10.127  -2.970  1.00  0.00    -0.205 F 
ATOM    104  C   UNL     1      14.951  12.993  -5.246  1.00  0.00     0.022 A 
BRANCH 102 105
ATOM    105  S   UNL     1      17.241  11.975  -4.146  1.00  0.00     0.127 S 
ATOM    106  O   UNL     1      17.721  11.506  -5.446  1.00  0.00    -0.237 OA
ATOM    107  O   UNL     1      17.531  13.381  -3.861  1.00  0.00    -0.237 OA
ATOM    108  O   UNL     1      17.480  11.069  -3.031  1.00  0.00    -0.744 OA
ENDBRANCH 102 105
ENDBRANCH  75  98
ENDBRANCH  49  50
ENDBRANCH  42  44
ENDBRANCH  41  42
ENDBRANCH  40  41
ENDBRANCH  39  40
ENDBRANCH  38  39
ENDBRANCH  37  38
ENDBRANCH   1  37
TORSDOF 27
