REMARK SMILES O=C(OCCOCCOCCOC(=O)[C@H]1CC(=O)N(c2cccc(OC(F)(F)F)c2)C1)c1ccc(-c2c3nc(c(-c4cccc(S(=O)(=O)[O-])c4F)c4ccc([nH]4)c(-c4cccc(S(=O)(=O)[O-])c4F)c4nc(c(-c5cccc(S(=O)(=O)[O-])c5F)c5ccc2[nH]5)C=C4)C=C3)cc1
REMARK SMILES IDX 7 1 6 2 5 3 4 4 3 5 2 6 1 7 32 8 33 9 94 10 34 11 93 12
REMARK SMILES IDX 35 13 36 14 37 15 87 16 38 17 92 18 86 19 88 20 39 21 91 22
REMARK SMILES IDX 85 23 84 24 40 26 72 27 52 28 71 29 53 30 56 31 70 32 89 33
REMARK SMILES IDX 54 34 55 35 69 37 90 38 57 39 41 40 42 41 50 42 43 43 45 44
REMARK SMILES IDX 51 45 44 46 46 47 47 48 48 49 49 50 73 51 74 52 82 53 75 54
REMARK SMILES IDX 77 55 83 56 76 57 78 58 79 59 80 60 81 61 58 62 59 63 67 64
REMARK SMILES IDX 60 65 62 66 68 67 61 68 63 69 64 70 65 71 66 72 8 73 9 74
REMARK SMILES IDX 10 75 11 76 12 77 13 78 14 79 15 80 16 81 31 82 17 83 19 84
REMARK SMILES IDX 18 85 20 86 21 87 30 88 22 89 24 90 23 91 25 92 26 93 27 94
REMARK SMILES IDX 28 95 29 96
REMARK H PARENT 88 25 56 36
REMARK Flexibility Score: inf
ROOT
ATOM      1  C   UNL     1       2.877   3.068   2.784  1.00  0.00     0.188 C 
ENDROOT
BRANCH   1   2
ATOM      2  O   UNL     1       2.519   4.453   2.718  1.00  0.00    -0.376 OA
BRANCH   2   3
ATOM      3  C   UNL     1       2.220   5.023   3.999  1.00  0.00     0.202 C 
BRANCH   3   4
ATOM      4  C   UNL     1       0.863   4.624   4.606  1.00  0.00     0.261 C 
BRANCH   4   5
ATOM      5  O   UNL     1       0.367   3.359   4.137  1.00  0.00    -0.460 OA
BRANCH   5   6
ATOM      6  C   UNL     1      -0.385   3.080   3.040  1.00  0.00     0.338 C 
ATOM      7  O   UNL     1      -0.737   1.913   2.872  1.00  0.00    -0.246 OA
BRANCH   6   8
ATOM      8  C   UNL     1      -0.804   4.098   2.022  1.00  0.00     0.060 A 
ATOM      9  C   UNL     1      -0.307   5.397   1.933  1.00  0.00     0.016 A 
ATOM     10  C   UNL     1      -1.774   3.712   1.077  1.00  0.00     0.016 A 
ATOM     11  C   UNL     1      -0.839   6.329   1.057  1.00  0.00     0.010 A 
ATOM     12  C   UNL     1      -2.289   4.633   0.154  1.00  0.00     0.010 A 
ATOM     13  C   UNL     1      -1.868   5.967   0.199  1.00  0.00    -0.014 A 
BRANCH  13  14
ATOM     14  C   UNL     1      -2.650   7.070  -0.395  1.00  0.00     0.031 A 
ATOM     15  C   UNL     1      -3.995   7.353   0.227  1.00  0.00     0.074 A 
ATOM     16  C   UNL     1      -2.090   7.890  -1.307  1.00  0.00     0.049 A 
ATOM     17  N   UNL     1      -4.886   8.247  -0.095  1.00  0.00    -0.248 NA
ATOM     18  C   UNL     1      -4.375   6.536   1.399  1.00  0.00     0.031 C 
ATOM     19  C   UNL     1      -0.732   7.757  -1.851  1.00  0.00     0.029 A 
ATOM     20  N   UNL     1      -2.588   8.992  -1.949  1.00  0.00    -0.354 N 
ATOM     21  C   UNL     1      -5.931   8.084   0.811  1.00  0.00     0.074 A 
ATOM     22  C   UNL     1      -5.581   6.996   1.688  1.00  0.00     0.031 C 
ATOM     23  C   UNL     1      -0.531   8.697  -2.791  1.00  0.00     0.029 A 
ATOM     24  C   UNL     1      -1.760   9.462  -2.948  1.00  0.00     0.049 A 
ATOM     25  H   UNL     1      -3.451   9.408  -1.721  1.00  0.00     0.167 HD
ATOM     26  C   UNL     1      -7.072   8.803   0.909  1.00  0.00     0.034 A 
ATOM     27  C   UNL     1      -2.029  10.332  -3.941  1.00  0.00     0.034 A 
ATOM     28  C   UNL     1      -7.370   9.883   0.013  1.00  0.00     0.049 A 
ATOM     29  C   UNL     1      -3.389  10.968  -3.936  1.00  0.00     0.074 A 
ATOM     30  C   UNL     1      -8.468  10.719  -0.005  1.00  0.00     0.029 A 
ATOM     31  N   UNL     1      -6.553  10.259  -1.046  1.00  0.00    -0.354 N 
ATOM     32  N   UNL     1      -4.378  10.792  -3.091  1.00  0.00    -0.248 NA
ATOM     33  C   UNL     1      -3.648  11.959  -4.984  1.00  0.00     0.031 C 
ATOM     34  C   UNL     1      -8.332  11.575  -1.103  1.00  0.00     0.029 A 
ATOM     35  C   UNL     1      -7.125  11.307  -1.736  1.00  0.00     0.049 A 
ATOM     36  H   UNL     1      -5.691   9.839  -1.271  1.00  0.00     0.167 HD
ATOM     37  C   UNL     1      -5.359  11.698  -3.465  1.00  0.00     0.074 A 
ATOM     38  C   UNL     1      -4.851  12.393  -4.635  1.00  0.00     0.031 C 
ATOM     39  C   UNL     1      -6.553  11.967  -2.882  1.00  0.00     0.034 A 
BRANCH  26  40
ATOM     40  C   UNL     1      -8.052   8.434   1.994  1.00  0.00     0.023 A 
ATOM     41  C   UNL     1      -7.743   8.684   3.348  1.00  0.00     0.012 A 
ATOM     42  C   UNL     1      -9.289   7.840   1.671  1.00  0.00     0.148 A 
ATOM     43  C   UNL     1      -8.630   8.316   4.362  1.00  0.00     0.002 A 
ATOM     44  C   UNL     1     -10.185   7.516   2.684  1.00  0.00     0.091 A 
ATOM     45  F   UNL     1      -9.556   7.584   0.384  1.00  0.00    -0.205 F 
ATOM     46  C   UNL     1      -9.852   7.740   4.030  1.00  0.00     0.022 A 
BRANCH  44  47
ATOM     47  S   UNL     1     -11.812   6.828   2.358  1.00  0.00     0.127 S 
ATOM     48  O   UNL     1     -11.683   5.483   2.920  1.00  0.00    -0.237 OA
ATOM     49  O   UNL     1     -12.681   7.725   3.122  1.00  0.00    -0.237 OA
ATOM     50  O   UNL     1     -11.994   6.884   0.915  1.00  0.00    -0.744 OA
ENDBRANCH  44  47
ENDBRANCH  26  40
BRANCH  27  51
ATOM     51  C   UNL     1      -1.046  10.633  -5.023  1.00  0.00     0.023 A 
ATOM     52  C   UNL     1      -0.076  11.629  -4.812  1.00  0.00     0.012 A 
ATOM     53  C   UNL     1      -1.098   9.986  -6.278  1.00  0.00     0.148 A 
ATOM     54  C   UNL     1       0.826  11.973  -5.823  1.00  0.00     0.002 A 
ATOM     55  C   UNL     1      -0.183  10.320  -7.276  1.00  0.00     0.091 A 
ATOM     56  F   UNL     1      -2.062   9.081  -6.491  1.00  0.00    -0.205 F 
ATOM     57  C   UNL     1       0.777  11.316  -7.050  1.00  0.00     0.022 A 
BRANCH  55  58
ATOM     58  S   UNL     1      -0.164   9.546  -8.901  1.00  0.00     0.127 S 
ATOM     59  O   UNL     1      -0.194  10.703  -9.794  1.00  0.00    -0.237 OA
ATOM     60  O   UNL     1       1.112   8.831  -8.871  1.00  0.00    -0.237 OA
ATOM     61  O   UNL     1      -1.347   8.700  -8.953  1.00  0.00    -0.744 OA
ENDBRANCH  55  58
ENDBRANCH  27  51
BRANCH  39  62
ATOM     62  C   UNL     1      -7.322  13.123  -3.447  1.00  0.00     0.023 A 
ATOM     63  C   UNL     1      -8.002  13.002  -4.672  1.00  0.00     0.012 A 
ATOM     64  C   UNL     1      -7.391  14.324  -2.717  1.00  0.00     0.148 A 
ATOM     65  C   UNL     1      -8.711  14.086  -5.184  1.00  0.00     0.002 A 
ATOM     66  C   UNL     1      -8.148  15.377  -3.204  1.00  0.00     0.091 A 
ATOM     67  F   UNL     1      -6.710  14.415  -1.565  1.00  0.00    -0.205 F 
ATOM     68  C   UNL     1      -8.795  15.266  -4.445  1.00  0.00     0.022 A 
BRANCH  66  69
ATOM     69  S   UNL     1      -8.393  16.882  -2.259  1.00  0.00     0.127 S 
ATOM     70  O   UNL     1      -7.529  17.824  -2.968  1.00  0.00    -0.237 OA
ATOM     71  O   UNL     1      -9.826  17.122  -2.425  1.00  0.00    -0.237 OA
ATOM     72  O   UNL     1      -7.992  16.568  -0.894  1.00  0.00    -0.744 OA
ENDBRANCH  66  69
ENDBRANCH  39  62
ENDBRANCH  13  14
ENDBRANCH   6   8
ENDBRANCH   5   6
ENDBRANCH   4   5
ENDBRANCH   3   4
ENDBRANCH   2   3
ENDBRANCH   1   2
BRANCH   1  73
ATOM     73  C   UNL     1       4.047   2.703   1.869  1.00  0.00     0.188 C 
BRANCH  73  74
ATOM     74  O   UNL     1       5.317   3.287   2.152  1.00  0.00    -0.376 OA
BRANCH  74  75
ATOM     75  C   UNL     1       5.376   4.698   2.328  1.00  0.00     0.202 C 
BRANCH  75  76
ATOM     76  C   UNL     1       5.134   5.596   1.107  1.00  0.00     0.261 C 
BRANCH  76  77
ATOM     77  O   UNL     1       4.026   5.208   0.283  1.00  0.00    -0.463 OA
BRANCH  77  78
ATOM     78  C   UNL     1       4.365   4.554  -0.856  1.00  0.00     0.311 C 
ATOM     79  O   UNL     1       5.514   4.328  -1.221  1.00  0.00    -0.252 OA
BRANCH  78  80
ATOM     80  C   UNL     1       3.184   4.162  -1.690  1.00  0.00     0.128 C 
ATOM     81  C   UNL     1       1.872   3.784  -1.028  1.00  0.00     0.117 C 
ATOM     82  C   UNL     1       2.784   5.332  -2.550  1.00  0.00     0.141 C 
ATOM     83  C   UNL     1       0.882   4.038  -2.150  1.00  0.00     0.227 C 
ATOM     84  N   UNL     1       1.488   4.942  -3.042  1.00  0.00    -0.311 N 
ATOM     85  O   UNL     1      -0.205   3.494  -2.212  1.00  0.00    -0.274 OA
BRANCH  84  86
ATOM     86  C   UNL     1       0.941   5.440  -4.253  1.00  0.00     0.047 A 
ATOM     87  C   UNL     1       1.769   6.081  -5.191  1.00  0.00     0.026 A 
ATOM     88  C   UNL     1      -0.421   5.311  -4.556  1.00  0.00     0.073 A 
ATOM     89  C   UNL     1       1.266   6.540  -6.407  1.00  0.00     0.006 A 
ATOM     90  C   UNL     1      -0.931   5.815  -5.758  1.00  0.00     0.131 A 
ATOM     91  C   UNL     1      -0.083   6.390  -6.695  1.00  0.00     0.047 A 
BRANCH  90  92
ATOM     92  O   UNL     1      -2.254   5.732  -6.090  1.00  0.00    -0.406 OA
BRANCH  92  93
ATOM     93  C   UNL     1      -3.081   6.473  -5.198  1.00  0.00     0.573 C 
ATOM     94  F   UNL     1      -3.499   5.664  -4.197  1.00  0.00    -0.132 F 
ATOM     95  F   UNL     1      -2.441   7.522  -4.665  1.00  0.00    -0.132 F 
ATOM     96  F   UNL     1      -4.170   6.920  -5.859  1.00  0.00    -0.132 F 
ENDBRANCH  92  93
ENDBRANCH  90  92
ENDBRANCH  84  86
ENDBRANCH  78  80
ENDBRANCH  77  78
ENDBRANCH  76  77
ENDBRANCH  75  76
ENDBRANCH  74  75
ENDBRANCH  73  74
ENDBRANCH   1  73
TORSDOF 23
