REMARK SMILES CCCCCCCCNC(=O)Oc1cccc(-c2ccc([C@@H](C)C(=O)OCCOCCOCCOC(=O)c3ccc(-c4c5nc(c(-c6cccc(S(=O)(=O)[O-])c6F)c6ccc([nH]6)c(-c6cccc(S(=O)(=O)[O-])c6F)c6nc(c(-c7cccc(S(=O)(=O)[O-])c7F)c7ccc4[nH]7)C=C6)C=C5)cc3)cc2F)c1
REMARK SMILES IDX 27 1 26 2 24 3 25 4 22 5 23 6 21 7 18 8 19 9 102 10 20 11
REMARK SMILES IDX 101 12 103 13 17 14 13 15 14 16 104 17 15 18 16 19 12 20
REMARK SMILES IDX 10 21 9 22 11 24 8 25 7 26 6 27 5 28 4 29 3 30 2 31 1 32
REMARK SMILES IDX 28 33 29 34 30 35 31 36 32 37 33 38 34 39 35 40 36 41 37 42
REMARK SMILES IDX 38 43 39 44 100 45 40 46 99 47 41 48 42 49 43 50 93 51 44 52
REMARK SMILES IDX 98 53 92 54 94 55 45 56 97 57 91 58 90 59 46 61 78 62 58 63
REMARK SMILES IDX 77 64 59 65 62 66 76 67 95 68 60 69 61 70 75 72 96 73 63 74
REMARK SMILES IDX 47 75 48 76 56 77 49 78 51 79 57 80 50 81 52 82 53 83 54 84
REMARK SMILES IDX 55 85 79 86 80 87 88 88 81 89 83 90 89 91 82 92 84 93 85 94
REMARK SMILES IDX 86 95 87 96 64 97 65 98 73 99 66 100 68 101 74 102 67 103
REMARK SMILES IDX 69 104 70 105 71 106 72 107
REMARK H PARENT 9 23 94 60 62 71
REMARK Flexibility Score: inf
ROOT
ATOM      1  C   UNL     1     -12.802   7.812  -8.207  1.00  0.00     0.261 C 
ENDROOT
BRANCH   1   2
ATOM      2  O   UNL     1     -11.490   8.069  -8.761  1.00  0.00    -0.463 OA
BRANCH   2   3
ATOM      3  C   UNL     1     -11.234   9.348  -9.133  1.00  0.00     0.313 C 
ATOM      4  O   UNL     1     -12.080  10.239  -9.095  1.00  0.00    -0.252 OA
BRANCH   3   5
ATOM      5  C   UNL     1      -9.804   9.649  -9.596  1.00  0.00     0.126 C 
ATOM      6  C   UNL     1      -9.876  10.324 -10.966  1.00  0.00     0.025 C 
BRANCH   5   7
ATOM      7  C   UNL     1      -8.722   8.569  -9.611  1.00  0.00    -0.031 A 
ATOM      8  C   UNL     1      -6.602   6.632  -9.594  1.00  0.00     0.018 A 
ATOM      9  C   UNL     1      -7.835   6.375 -10.223  1.00  0.00     0.012 A 
ATOM     10  C   UNL     1      -6.457   7.878  -8.977  1.00  0.00     0.131 A 
ATOM     11  C   UNL     1      -8.874   7.328 -10.241  1.00  0.00     0.005 A 
ATOM     12  C   UNL     1      -7.484   8.831  -8.989  1.00  0.00     0.044 A 
ATOM     13  F   UNL     1      -5.305   8.203  -8.369  1.00  0.00    -0.206 F 
BRANCH   8  14
ATOM     14  C   UNL     1      -5.499   5.649  -9.641  1.00  0.00    -0.012 A 
ATOM     15  C   UNL     1      -3.827   4.239  -8.577  1.00  0.00     0.133 A 
ATOM     16  C   UNL     1      -3.347   3.817  -9.815  1.00  0.00     0.047 A 
ATOM     17  C   UNL     1      -4.883   5.153  -8.476  1.00  0.00     0.056 A 
ATOM     18  C   UNL     1      -3.945   4.297 -10.974  1.00  0.00     0.004 A 
ATOM     19  C   UNL     1      -5.008   5.203 -10.885  1.00  0.00     0.009 A 
BRANCH  15  20
ATOM     20  O   UNL     1      -3.116   3.809  -7.446  1.00  0.00    -0.410 OA
BRANCH  20  21
ATOM     21  C   UNL     1      -3.786   2.994  -6.550  1.00  0.00     0.412 C 
ATOM     22  N   UNL     1      -2.997   2.550  -5.526  1.00  0.00    -0.321 N 
ATOM     23  H   UNL     1      -3.448   2.050  -4.807  1.00  0.00     0.167 HD
ATOM     24  O   UNL     1      -4.963   2.637  -6.640  1.00  0.00    -0.224 OA
BRANCH  22  25
ATOM     25  C   UNL     1      -1.564   2.737  -5.385  1.00  0.00     0.119 C 
BRANCH  25  26
ATOM     26  C   UNL     1      -1.183   3.448  -4.087  1.00  0.00     0.021 C 
BRANCH  26  27
ATOM     27  C   UNL     1      -1.563   2.702  -2.801  1.00  0.00     0.002 C 
BRANCH  27  28
ATOM     28  C   UNL     1      -0.963   1.299  -2.649  1.00  0.00     0.000 C 
BRANCH  28  29
ATOM     29  C   UNL     1       0.567   1.247  -2.594  1.00  0.00    -0.000 C 
BRANCH  29  30
ATOM     30  C   UNL     1       1.203   1.964  -1.398  1.00  0.00    -0.000 C 
BRANCH  30  31
ATOM     31  C   UNL     1       0.768   1.454  -0.020  1.00  0.00    -0.003 C 
ATOM     32  C   UNL     1       1.119  -0.006   0.223  1.00  0.00     0.004 C 
ENDBRANCH  30  31
ENDBRANCH  29  30
ENDBRANCH  28  29
ENDBRANCH  27  28
ENDBRANCH  26  27
ENDBRANCH  25  26
ENDBRANCH  22  25
ENDBRANCH  20  21
ENDBRANCH  15  20
ENDBRANCH   8  14
ENDBRANCH   5   7
ENDBRANCH   3   5
ENDBRANCH   2   3
ENDBRANCH   1   2
BRANCH   1  33
ATOM     33  C   UNL     1     -12.810   7.136  -6.827  1.00  0.00     0.202 C 
BRANCH  33  34
ATOM     34  O   UNL     1     -12.102   7.764  -5.768  1.00  0.00    -0.376 OA
BRANCH  34  35
ATOM     35  C   UNL     1     -10.719   8.058  -5.933  1.00  0.00     0.188 C 
BRANCH  35  36
ATOM     36  C   UNL     1      -9.825   7.066  -6.693  1.00  0.00     0.188 C 
BRANCH  36  37
ATOM     37  O   UNL     1     -10.428   5.819  -6.976  1.00  0.00    -0.376 OA
BRANCH  37  38
ATOM     38  C   UNL     1      -9.720   4.672  -6.542  1.00  0.00     0.202 C 
BRANCH  38  39
ATOM     39  C   UNL     1      -9.715   4.484  -5.019  1.00  0.00     0.261 C 
BRANCH  39  40
ATOM     40  O   UNL     1      -9.228   5.607  -4.261  1.00  0.00    -0.460 OA
BRANCH  40  41
ATOM     41  C   UNL     1      -7.912   5.886  -4.373  1.00  0.00     0.338 C 
ATOM     42  O   UNL     1      -7.084   5.257  -5.022  1.00  0.00    -0.246 OA
BRANCH  41  43
ATOM     43  C   UNL     1      -7.653   7.212  -3.775  1.00  0.00     0.060 A 
ATOM     44  C   UNL     1      -7.009   8.186  -4.552  1.00  0.00     0.016 A 
ATOM     45  C   UNL     1      -8.010   7.484  -2.453  1.00  0.00     0.016 A 
ATOM     46  C   UNL     1      -6.653   9.409  -3.985  1.00  0.00     0.010 A 
ATOM     47  C   UNL     1      -7.637   8.705  -1.881  1.00  0.00     0.010 A 
ATOM     48  C   UNL     1      -6.906   9.647  -2.628  1.00  0.00    -0.014 A 
BRANCH  48  49
ATOM     49  C   UNL     1      -6.175  10.737  -1.934  1.00  0.00     0.031 A 
ATOM     50  C   UNL     1      -4.923  10.371  -1.176  1.00  0.00     0.074 A 
ATOM     51  C   UNL     1      -6.581  12.017  -1.987  1.00  0.00     0.049 A 
ATOM     52  N   UNL     1      -4.119  11.131  -0.480  1.00  0.00    -0.248 NA
ATOM     53  C   UNL     1      -4.531   8.951  -1.204  1.00  0.00     0.031 C 
ATOM     54  C   UNL     1      -7.760  12.506  -2.698  1.00  0.00     0.029 A 
ATOM     55  N   UNL     1      -6.044  13.142  -1.410  1.00  0.00    -0.354 N 
ATOM     56  C   UNL     1      -3.147  10.280   0.034  1.00  0.00     0.074 A 
ATOM     57  C   UNL     1      -3.473   8.944  -0.410  1.00  0.00     0.031 C 
ATOM     58  C   UNL     1      -7.870  13.832  -2.497  1.00  0.00     0.029 A 
ATOM     59  C   UNL     1      -6.783  14.280  -1.628  1.00  0.00     0.049 A 
ATOM     60  H   UNL     1      -5.209  13.133  -0.889  1.00  0.00     0.167 HD
ATOM     61  C   UNL     1      -2.065  10.581   0.791  1.00  0.00     0.034 A 
ATOM     62  C   UNL     1      -6.607  15.535  -1.165  1.00  0.00     0.034 A 
ATOM     63  C   UNL     1      -1.730  11.911   1.221  1.00  0.00     0.049 A 
ATOM     64  C   UNL     1      -5.411  15.841  -0.297  1.00  0.00     0.074 A 
ATOM     65  C   UNL     1      -0.643  12.325   1.968  1.00  0.00     0.029 A 
ATOM     66  N   UNL     1      -2.485  13.041   0.950  1.00  0.00    -0.354 N 
ATOM     67  N   UNL     1      -4.448  15.045   0.101  1.00  0.00    -0.248 NA
ATOM     68  C   UNL     1      -5.256  17.234   0.153  1.00  0.00     0.031 C 
ATOM     69  C   UNL     1      -0.755  13.704   2.174  1.00  0.00     0.029 A 
ATOM     70  C   UNL     1      -1.889  14.154   1.517  1.00  0.00     0.049 A 
ATOM     71  H   UNL     1      -3.321  13.051   0.430  1.00  0.00     0.167 HD
ATOM     72  C   UNL     1      -3.549  15.847   0.798  1.00  0.00     0.074 A 
ATOM     73  C   UNL     1      -4.078  17.194   0.760  1.00  0.00     0.031 C 
ATOM     74  C   UNL     1      -2.393  15.500   1.417  1.00  0.00     0.034 A 
BRANCH  61  75
ATOM     75  C   UNL     1      -1.158   9.445   1.188  1.00  0.00     0.023 A 
ATOM     76  C   UNL     1      -0.356   8.815   0.214  1.00  0.00     0.012 A 
ATOM     77  C   UNL     1      -1.077   9.021   2.528  1.00  0.00     0.148 A 
ATOM     78  C   UNL     1       0.479   7.753   0.559  1.00  0.00     0.002 A 
ATOM     79  C   UNL     1      -0.205   7.996   2.874  1.00  0.00     0.091 A 
ATOM     80  F   UNL     1      -1.864   9.616   3.436  1.00  0.00    -0.205 F 
ATOM     81  C   UNL     1       0.563   7.352   1.889  1.00  0.00     0.022 A 
BRANCH  79  82
ATOM     82  S   UNL     1       0.036   7.461   4.571  1.00  0.00     0.127 S 
ATOM     83  O   UNL     1      -0.583   6.136   4.553  1.00  0.00    -0.237 OA
ATOM     84  O   UNL     1       1.495   7.450   4.685  1.00  0.00    -0.237 OA
ATOM     85  O   UNL     1      -0.631   8.451   5.404  1.00  0.00    -0.744 OA
ENDBRANCH  79  82
ENDBRANCH  61  75
BRANCH  62  86
ATOM     86  C   UNL     1      -7.559  16.617  -1.546  1.00  0.00     0.023 A 
ATOM     87  C   UNL     1      -7.125  17.660  -2.388  1.00  0.00     0.012 A 
ATOM     88  C   UNL     1      -8.886  16.624  -1.074  1.00  0.00     0.148 A 
ATOM     89  C   UNL     1      -7.982  18.710  -2.722  1.00  0.00     0.002 A 
ATOM     90  C   UNL     1      -9.751  17.644  -1.454  1.00  0.00     0.091 A 
ATOM     91  F   UNL     1      -9.275  15.631  -0.262  1.00  0.00    -0.205 F 
ATOM     92  C   UNL     1      -9.296  18.697  -2.263  1.00  0.00     0.022 A 
BRANCH  90  93
ATOM     93  S   UNL     1     -11.490  17.655  -1.006  1.00  0.00     0.127 S 
ATOM     94  O   UNL     1     -11.560  18.804  -0.107  1.00  0.00    -0.237 OA
ATOM     95  O   UNL     1     -12.132  17.850  -2.307  1.00  0.00    -0.237 OA
ATOM     96  O   UNL     1     -11.748  16.359  -0.394  1.00  0.00    -0.744 OA
ENDBRANCH  90  93
ENDBRANCH  62  86
BRANCH  74  97
ATOM     97  C   UNL     1      -1.570  16.599   2.042  1.00  0.00     0.023 A 
ATOM     98  C   UNL     1      -2.014  17.245   3.213  1.00  0.00     0.012 A 
ATOM     99  C   UNL     1      -0.314  16.941   1.500  1.00  0.00     0.148 A 
ATOM    100  C   UNL     1      -1.241  18.243   3.808  1.00  0.00     0.002 A 
ATOM    101  C   UNL     1       0.475  17.896   2.130  1.00  0.00     0.091 A 
ATOM    102  F   UNL     1       0.086  16.328   0.376  1.00  0.00    -0.205 F 
ATOM    103  C   UNL     1       0.007  18.559   3.274  1.00  0.00     0.022 A 
BRANCH 101 104
ATOM    104  S   UNL     1       2.136  18.290   1.571  1.00  0.00     0.127 S 
ATOM    105  O   UNL     1       1.942  19.604   0.962  1.00  0.00    -0.237 OA
ATOM    106  O   UNL     1       2.891  18.304   2.825  1.00  0.00    -0.237 OA
ATOM    107  O   UNL     1       2.514  17.224   0.653  1.00  0.00    -0.744 OA
ENDBRANCH 101 104
ENDBRANCH  74  97
ENDBRANCH  48  49
ENDBRANCH  41  43
ENDBRANCH  40  41
ENDBRANCH  39  40
ENDBRANCH  38  39
ENDBRANCH  37  38
ENDBRANCH  36  37
ENDBRANCH  35  36
ENDBRANCH  34  35
ENDBRANCH  33  34
ENDBRANCH   1  33
TORSDOF 31
