REMARK SMILES Cc1ccc(S(=O)(=O)Nc2ccc(C(=O)CCC(=O)OCCOCCOCCOC(=O)c3ccc(-c4c5nc(c(-c6cccc(S(=O)(=O)[O-])c6F)c6ccc([nH]6)c(-c6cccc(S(=O)(=O)[O-])c6F)c6nc(c(-c7cccc(S(=O)(=O)[O-])c7F)c7ccc4[nH]7)C=C6)C=C5)cc3)cc2)c(C)c1
REMARK SMILES IDX 23 1 22 2 21 3 20 4 18 5 19 6 17 7 16 8 14 9 15 10 13 11
REMARK SMILES IDX 10 12 11 13 96 14 12 15 95 16 9 17 6 19 7 20 8 21 5 22 1 23
REMARK SMILES IDX 2 24 3 25 99 26 4 27 97 28 98 29 24 30 25 31 26 32 27 33
REMARK SMILES IDX 28 34 29 35 30 36 31 37 32 38 33 39 94 40 34 41 93 42 35 43
REMARK SMILES IDX 36 44 37 45 87 46 38 47 92 48 86 49 88 50 39 51 91 52 85 53
REMARK SMILES IDX 84 54 40 56 72 57 52 58 71 59 53 60 56 61 70 62 89 63 54 64
REMARK SMILES IDX 55 65 69 67 90 68 57 69 41 70 42 71 50 72 43 73 45 74 51 75
REMARK SMILES IDX 44 76 46 77 47 78 48 79 49 80 73 81 74 82 82 83 75 84 77 85
REMARK SMILES IDX 83 86 76 87 78 88 79 89 80 90 81 91 58 92 59 93 67 94 60 95
REMARK SMILES IDX 62 96 68 97 61 98 63 99 64 100 65 101 66 102
REMARK H PARENT 9 18 88 55 56 66
REMARK Flexibility Score: inf
ROOT
ATOM      1  O   UNL     1       1.886  -1.350   2.757  1.00  0.00    -0.376 OA
ENDROOT
BRANCH   1   2
ATOM      2  C   UNL     1       1.060  -1.625   1.637  1.00  0.00     0.202 C 
BRANCH   2   3
ATOM      3  C   UNL     1       1.868  -1.822   0.359  1.00  0.00     0.261 C 
BRANCH   3   4
ATOM      4  O   UNL     1       2.620  -3.039   0.362  1.00  0.00    -0.463 OA
BRANCH   4   5
ATOM      5  C   UNL     1       3.848  -3.014  -0.198  1.00  0.00     0.306 C 
ATOM      6  O   UNL     1       4.394  -2.023  -0.662  1.00  0.00    -0.252 OA
BRANCH   5   7
ATOM      7  C   UNL     1       4.491  -4.381  -0.173  1.00  0.00     0.131 C 
BRANCH   7   8
ATOM      8  C   UNL     1       3.597  -5.536   0.294  1.00  0.00     0.093 C 
BRANCH   8   9
ATOM      9  C   UNL     1       2.652  -6.044  -0.800  1.00  0.00     0.163 C 
ATOM     10  O   UNL     1       3.082  -6.761  -1.705  1.00  0.00    -0.294 OA
BRANCH   9  11
ATOM     11  C   UNL     1       1.216  -5.605  -0.860  1.00  0.00     0.018 A 
ATOM     12  C   UNL     1      -1.247  -4.250  -1.196  1.00  0.00     0.049 A 
ATOM     13  C   UNL     1      -0.743  -5.084  -2.200  1.00  0.00     0.027 A 
ATOM     14  C   UNL     1      -0.636  -4.295   0.042  1.00  0.00     0.027 A 
ATOM     15  C   UNL     1       0.487  -5.750  -2.041  1.00  0.00     0.014 A 
ATOM     16  C   UNL     1       0.583  -4.975   0.201  1.00  0.00     0.014 A 
BRANCH  12  17
ATOM     17  N   UNL     1      -2.386  -3.451  -1.504  1.00  0.00    -0.280 N 
ATOM     18  H   UNL     1      -2.956  -3.764  -2.244  1.00  0.00     0.180 HD
BRANCH  17  19
ATOM     19  S   UNL     1      -2.863  -2.025  -0.737  1.00  0.00     0.262 S 
ATOM     20  O   UNL     1      -2.868  -2.273   0.690  1.00  0.00    -0.201 OA
ATOM     21  O   UNL     1      -4.080  -1.637  -1.421  1.00  0.00    -0.201 OA
BRANCH  19  22
ATOM     22  C   UNL     1      -1.677  -0.715  -1.051  1.00  0.00     0.090 A 
ATOM     23  C   UNL     1       1.808   1.785  -0.659  1.00  0.00     0.044 C 
ATOM     24  C   UNL     1       0.542   1.018  -0.933  1.00  0.00    -0.051 A 
ATOM     25  C   UNL     1       0.504  -0.026  -1.865  1.00  0.00     0.005 A 
ATOM     26  C   UNL     1      -0.620   1.312  -0.220  1.00  0.00     0.008 A 
ATOM     27  C   UNL     1      -0.590  -0.911  -1.906  1.00  0.00     0.023 A 
ATOM     28  C   UNL     1      -1.749   0.473  -0.288  1.00  0.00    -0.030 A 
ATOM     29  C   UNL     1      -3.004   0.972   0.378  1.00  0.00     0.046 C 
ENDBRANCH  19  22
ENDBRANCH  17  19
ENDBRANCH  12  17
ENDBRANCH   9  11
ENDBRANCH   8   9
ENDBRANCH   7   8
ENDBRANCH   5   7
ENDBRANCH   4   5
ENDBRANCH   3   4
ENDBRANCH   2   3
ENDBRANCH   1   2
BRANCH   1  30
ATOM     30  C   UNL     1       2.599  -2.478   3.240  1.00  0.00     0.188 C 
BRANCH  30  31
ATOM     31  C   UNL     1       1.716  -3.483   3.966  1.00  0.00     0.188 C 
BRANCH  31  32
ATOM     32  O   UNL     1       0.856  -4.327   3.213  1.00  0.00    -0.376 OA
BRANCH  32  33
ATOM     33  C   UNL     1      -0.440  -4.539   3.790  1.00  0.00     0.202 C 
BRANCH  33  34
ATOM     34  C   UNL     1      -0.539  -5.244   5.160  1.00  0.00     0.261 C 
BRANCH  34  35
ATOM     35  O   UNL     1       0.345  -4.693   6.143  1.00  0.00    -0.460 OA
BRANCH  35  36
ATOM     36  C   UNL     1       1.515  -5.371   6.317  1.00  0.00     0.338 C 
ATOM     37  O   UNL     1       1.774  -6.484   5.912  1.00  0.00    -0.246 OA
BRANCH  36  38
ATOM     38  C   UNL     1       2.545  -4.400   6.790  1.00  0.00     0.060 A 
ATOM     39  C   UNL     1       3.846  -4.537   6.267  1.00  0.00     0.016 A 
ATOM     40  C   UNL     1       2.213  -3.284   7.564  1.00  0.00     0.016 A 
ATOM     41  C   UNL     1       4.819  -3.582   6.541  1.00  0.00     0.010 A 
ATOM     42  C   UNL     1       3.199  -2.350   7.880  1.00  0.00     0.010 A 
ATOM     43  C   UNL     1       4.513  -2.534   7.414  1.00  0.00    -0.014 A 
BRANCH  43  44
ATOM     44  C   UNL     1       5.629  -1.914   8.158  1.00  0.00     0.031 A 
ATOM     45  C   UNL     1       6.011  -2.585   9.449  1.00  0.00     0.074 A 
ATOM     46  C   UNL     1       6.281  -0.828   7.716  1.00  0.00     0.049 A 
ATOM     47  N   UNL     1       6.914  -2.251  10.328  1.00  0.00    -0.248 NA
ATOM     48  C   UNL     1       5.253  -3.803   9.799  1.00  0.00     0.031 C 
ATOM     49  C   UNL     1       6.000  -0.112   6.475  1.00  0.00     0.029 A 
ATOM     50  N   UNL     1       7.305  -0.124   8.295  1.00  0.00    -0.354 N 
ATOM     51  C   UNL     1       6.813  -3.198  11.340  1.00  0.00     0.074 A 
ATOM     52  C   UNL     1       5.747  -4.103  10.985  1.00  0.00     0.031 C 
ATOM     53  C   UNL     1       6.806   0.964   6.407  1.00  0.00     0.029 A 
ATOM     54  C   UNL     1       7.638   1.018   7.609  1.00  0.00     0.049 A 
ATOM     55  H   UNL     1       7.757  -0.410   9.121  1.00  0.00     0.167 HD
ATOM     56  C   UNL     1       7.552  -3.317  12.465  1.00  0.00     0.034 A 
ATOM     57  C   UNL     1       8.493   2.004   7.942  1.00  0.00     0.034 A 
ATOM     58  C   UNL     1       8.598  -2.402  12.816  1.00  0.00     0.049 A 
ATOM     59  C   UNL     1       9.289   1.879   9.216  1.00  0.00     0.074 A 
ATOM     60  C   UNL     1       9.428  -2.426  13.919  1.00  0.00     0.029 A 
ATOM     61  N   UNL     1       8.939  -1.281  12.074  1.00  0.00    -0.354 N 
ATOM     62  N   UNL     1       9.255   0.929  10.122  1.00  0.00    -0.248 NA
ATOM     63  C   UNL     1      10.267   2.938   9.497  1.00  0.00     0.031 C 
ATOM     64  C   UNL     1      10.249  -1.294  13.863  1.00  0.00     0.029 A 
ATOM     65  C   UNL     1       9.964  -0.596  12.698  1.00  0.00     0.049 A 
ATOM     66  H   UNL     1       8.514  -1.013  11.227  1.00  0.00     0.167 HD
ATOM     67  C   UNL     1      10.230   1.256  11.060  1.00  0.00     0.074 A 
ATOM     68  C   UNL     1      10.846   2.486  10.601  1.00  0.00     0.031 C 
ATOM     69  C   UNL     1      10.583   0.606  12.198  1.00  0.00     0.034 A 
BRANCH  56  70
ATOM     70  C   UNL     1       7.229  -4.469  13.377  1.00  0.00     0.023 A 
ATOM     71  C   UNL     1       7.490  -5.793  12.962  1.00  0.00     0.012 A 
ATOM     72  C   UNL     1       6.640  -4.245  14.636  1.00  0.00     0.148 A 
ATOM     73  C   UNL     1       7.124  -6.875  13.761  1.00  0.00     0.002 A 
ATOM     74  C   UNL     1       6.329  -5.327  15.451  1.00  0.00     0.091 A 
ATOM     75  F   UNL     1       6.364  -2.985  14.998  1.00  0.00    -0.205 F 
ATOM     76  C   UNL     1       6.553  -6.641  15.009  1.00  0.00     0.022 A 
BRANCH  74  77
ATOM     77  S   UNL     1       5.664  -5.126  17.106  1.00  0.00     0.127 S 
ATOM     78  O   UNL     1       4.289  -5.592  16.931  1.00  0.00    -0.237 OA
ATOM     79  O   UNL     1       6.517  -6.022  17.887  1.00  0.00    -0.237 OA
ATOM     80  O   UNL     1       5.811  -3.714  17.429  1.00  0.00    -0.744 OA
ENDBRANCH  74  77
ENDBRANCH  56  70
BRANCH  57  81
ATOM     81  C   UNL     1       8.644   3.183   7.044  1.00  0.00     0.023 A 
ATOM     82  C   UNL     1       9.832   3.366   6.311  1.00  0.00     0.012 A 
ATOM     83  C   UNL     1       7.588   4.102   6.883  1.00  0.00     0.148 A 
ATOM     84  C   UNL     1       9.973   4.455   5.449  1.00  0.00     0.002 A 
ATOM     85  C   UNL     1       7.713   5.152   5.981  1.00  0.00     0.091 A 
ATOM     86  F   UNL     1       6.472   3.917   7.601  1.00  0.00    -0.205 F 
ATOM     87  C   UNL     1       8.911   5.340   5.274  1.00  0.00     0.022 A 
BRANCH  85  88
ATOM     88  S   UNL     1       6.356   6.265   5.598  1.00  0.00     0.127 S 
ATOM     89  O   UNL     1       6.867   7.541   6.092  1.00  0.00    -0.237 OA
ATOM     90  O   UNL     1       6.283   6.153   4.141  1.00  0.00    -0.237 OA
ATOM     91  O   UNL     1       5.197   5.737   6.304  1.00  0.00    -0.744 OA
ENDBRANCH  85  88
ENDBRANCH  57  81
BRANCH  69  92
ATOM     92  C   UNL     1      11.720   1.177  13.005  1.00  0.00     0.023 A 
ATOM     93  C   UNL     1      11.545   2.370  13.733  1.00  0.00     0.012 A 
ATOM     94  C   UNL     1      12.940   0.478  13.102  1.00  0.00     0.148 A 
ATOM     95  C   UNL     1      12.582   2.880  14.513  1.00  0.00     0.002 A 
ATOM     96  C   UNL     1      13.947   0.962  13.926  1.00  0.00     0.091 A 
ATOM     97  F   UNL     1      13.090  -0.649  12.391  1.00  0.00    -0.205 F 
ATOM     98  C   UNL     1      13.777   2.171  14.620  1.00  0.00     0.022 A 
BRANCH  96  99
ATOM     99  S   UNL     1      15.476   0.061  14.205  1.00  0.00     0.127 S 
ATOM    100  O   UNL     1      16.442   0.883  13.478  1.00  0.00    -0.237 OA
ATOM    101  O   UNL     1      15.604   0.113  15.662  1.00  0.00    -0.237 OA
ATOM    102  O   UNL     1      15.261  -1.275  13.665  1.00  0.00    -0.744 OA
ENDBRANCH  96  99
ENDBRANCH  69  92
ENDBRANCH  43  44
ENDBRANCH  36  38
ENDBRANCH  35  36
ENDBRANCH  34  35
ENDBRANCH  33  34
ENDBRANCH  32  33
ENDBRANCH  31  32
ENDBRANCH  30  31
ENDBRANCH   1  30
TORSDOF 26
