REMARK SMILES COCc1cc(-n2cnc(C(=O)OCCOCCOCCOC(=O)c3ccc(-c4c5nc(c(-c6cccc(S(=O)(=O)[O-])c6F)c6ccc([nH]6)c(-c6cccc(S(=O)(=O)[O-])c6F)c6nc(c(-c7cccc(S(=O)(=O)[O-])c7F)c7ccc4[nH]7)C=C6)C=C5)cc3)c2)nc(-c2cccnc2)n1
REMARK SMILES IDX 17 1 16 2 15 3 14 4 13 5 11 6 12 7 10 8 7 9 8 10 88 11 9 12
REMARK SMILES IDX 6 13 4 14 5 15 97 16 90 17 89 18 3 19 2 20 1 21 91 22 92 23
REMARK SMILES IDX 96 24 93 25 95 26 94 27 18 28 19 29 20 30 21 31 22 32 23 33
REMARK SMILES IDX 24 34 25 35 26 36 87 37 27 38 86 39 28 40 29 41 30 42 80 43
REMARK SMILES IDX 31 44 85 45 79 46 81 47 32 48 84 49 78 50 77 51 33 53 65 54
REMARK SMILES IDX 45 55 64 56 46 57 49 58 63 59 82 60 47 61 48 62 62 64 83 65
REMARK SMILES IDX 50 66 34 67 35 68 43 69 36 70 38 71 44 72 37 73 39 74 40 75
REMARK SMILES IDX 41 76 42 77 66 78 67 79 75 80 68 81 70 82 76 83 69 84 71 85
REMARK SMILES IDX 72 86 73 87 74 88 51 89 52 90 60 91 53 92 55 93 61 94 54 95
REMARK SMILES IDX 56 96 57 97 58 98 59 99
REMARK H PARENT 81 52 49 63
REMARK Flexibility Score: inf
ROOT
ATOM      1  C   UNL     1      -0.361  -6.814   2.748  1.00  0.00     0.188 C 
ENDROOT
BRANCH   1   2
ATOM      2  O   UNL     1      -0.978  -7.973   3.295  1.00  0.00    -0.376 OA
BRANCH   2   3
ATOM      3  C   UNL     1      -2.077  -7.852   4.184  1.00  0.00     0.202 C 
BRANCH   3   4
ATOM      4  C   UNL     1      -2.010  -6.920   5.412  1.00  0.00     0.261 C 
BRANCH   4   5
ATOM      5  O   UNL     1      -1.499  -5.601   5.170  1.00  0.00    -0.458 OA
BRANCH   5   6
ATOM      6  C   UNL     1      -0.253  -5.331   5.655  1.00  0.00     0.358 C 
ATOM      7  O   UNL     1       0.367  -6.051   6.432  1.00  0.00    -0.244 OA
BRANCH   6   8
ATOM      8  C   UNL     1       0.321  -4.136   5.035  1.00  0.00     0.166 A 
ATOM      9  N   UNL     1       0.617  -2.128   4.168  1.00  0.00    -0.289 N 
ATOM     10  C   UNL     1       1.641  -2.963   3.799  1.00  0.00     0.206 A 
ATOM     11  C   UNL     1      -0.243  -2.879   4.940  1.00  0.00     0.130 A 
ATOM     12  N   UNL     1       1.517  -4.157   4.332  1.00  0.00    -0.229 NA
BRANCH   9  13
ATOM     13  C   UNL     1       0.468  -0.752   3.872  1.00  0.00     0.142 A 
ATOM     14  C   UNL     1       0.788   1.137   2.515  1.00  0.00     0.072 A 
ATOM     15  C   UNL     1       1.042  -0.205   2.742  1.00  0.00     0.074 A 
ATOM     16  N   UNL     1       0.126   1.903   3.417  1.00  0.00    -0.230 NA
ATOM     17  C   UNL     1      -0.328   1.290   4.522  1.00  0.00     0.163 A 
ATOM     18  N   UNL     1      -0.229  -0.024   4.764  1.00  0.00    -0.210 NA
BRANCH  14  19
ATOM     19  C   UNL     1       1.267   1.812   1.245  1.00  0.00     0.216 C 
BRANCH  19  20
ATOM     20  O   UNL     1       0.522   1.440   0.084  1.00  0.00    -0.378 OA
ATOM     21  C   UNL     1       0.948   0.231  -0.529  1.00  0.00     0.195 C 
ENDBRANCH  19  20
ENDBRANCH  14  19
BRANCH  17  22
ATOM     22  C   UNL     1      -0.776   2.115   5.633  1.00  0.00     0.038 A 
ATOM     23  C   UNL     1      -0.161   2.027   6.893  1.00  0.00     0.015 A 
ATOM     24  C   UNL     1      -1.819   3.024   5.513  1.00  0.00     0.123 A 
ATOM     25  C   UNL     1      -0.598   2.820   7.949  1.00  0.00     0.021 A 
ATOM     26  N   UNL     1      -2.279   3.805   6.527  1.00  0.00    -0.264 NA
ATOM     27  C   UNL     1      -1.656   3.681   7.719  1.00  0.00     0.111 A 
ENDBRANCH  17  22
ENDBRANCH   9  13
ENDBRANCH   6   8
ENDBRANCH   5   6
ENDBRANCH   4   5
ENDBRANCH   3   4
ENDBRANCH   2   3
ENDBRANCH   1   2
BRANCH   1  28
ATOM     28  C   UNL     1      -1.213  -5.637   2.211  1.00  0.00     0.188 C 
BRANCH  28  29
ATOM     29  O   UNL     1      -2.555  -5.627   2.654  1.00  0.00    -0.376 OA
BRANCH  29  30
ATOM     30  C   UNL     1      -3.622  -5.922   1.764  1.00  0.00     0.202 C 
BRANCH  30  31
ATOM     31  C   UNL     1      -3.572  -7.053   0.734  1.00  0.00     0.261 C 
BRANCH  31  32
ATOM     32  O   UNL     1      -2.300  -7.618   0.502  1.00  0.00    -0.460 OA
BRANCH  32  33
ATOM     33  C   UNL     1      -1.606  -7.023  -0.488  1.00  0.00     0.338 C 
ATOM     34  O   UNL     1      -1.866  -5.956  -1.022  1.00  0.00    -0.246 OA
BRANCH  33  35
ATOM     35  C   UNL     1      -0.501  -7.898  -0.885  1.00  0.00     0.060 A 
ATOM     36  C   UNL     1       0.387  -7.369  -1.820  1.00  0.00     0.016 A 
ATOM     37  C   UNL     1      -0.574  -9.272  -0.604  1.00  0.00     0.016 A 
ATOM     38  C   UNL     1       0.993  -8.244  -2.685  1.00  0.00     0.010 A 
ATOM     39  C   UNL     1       0.028 -10.146  -1.475  1.00  0.00     0.010 A 
ATOM     40  C   UNL     1       0.699  -9.607  -2.566  1.00  0.00    -0.014 A 
BRANCH  40  41
ATOM     41  C   UNL     1       1.035 -10.434  -3.697  1.00  0.00     0.031 A 
ATOM     42  C   UNL     1       2.467 -10.728  -3.831  1.00  0.00     0.074 A 
ATOM     43  C   UNL     1       0.103 -10.869  -4.563  1.00  0.00     0.049 A 
ATOM     44  N   UNL     1       3.290 -10.218  -4.684  1.00  0.00    -0.248 NA
ATOM     45  C   UNL     1       3.080 -11.567  -2.799  1.00  0.00     0.031 C 
ATOM     46  C   UNL     1      -1.355 -10.878  -4.408  1.00  0.00     0.029 A 
ATOM     47  N   UNL     1       0.299 -11.519  -5.738  1.00  0.00    -0.354 N 
ATOM     48  C   UNL     1       4.498 -10.853  -4.436  1.00  0.00     0.074 A 
ATOM     49  C   UNL     1       4.361 -11.520  -3.165  1.00  0.00     0.031 C 
ATOM     50  C   UNL     1      -1.884 -11.722  -5.323  1.00  0.00     0.029 A 
ATOM     51  C   UNL     1      -0.823 -12.184  -6.201  1.00  0.00     0.049 A 
ATOM     52  H   UNL     1       1.160 -11.517  -6.217  1.00  0.00     0.167 HD
ATOM     53  C   UNL     1       5.437 -10.992  -5.407  1.00  0.00     0.034 A 
ATOM     54  C   UNL     1      -0.833 -13.125  -7.173  1.00  0.00     0.034 A 
ATOM     55  C   UNL     1       5.193 -10.134  -6.535  1.00  0.00     0.049 A 
ATOM     56  C   UNL     1       0.385 -12.929  -7.996  1.00  0.00     0.074 A 
ATOM     57  C   UNL     1       5.095  -8.771  -6.729  1.00  0.00     0.029 A 
ATOM     58  N   UNL     1       4.648 -10.715  -7.655  1.00  0.00    -0.354 N 
ATOM     59  N   UNL     1       0.587 -11.881  -8.747  1.00  0.00    -0.248 NA
ATOM     60  C   UNL     1       1.576 -13.700  -7.673  1.00  0.00     0.031 C 
ATOM     61  C   UNL     1       4.102  -8.608  -7.739  1.00  0.00     0.029 A 
ATOM     62  C   UNL     1       3.665  -9.880  -8.115  1.00  0.00     0.049 A 
ATOM     63  H   UNL     1       4.916 -11.575  -8.053  1.00  0.00     0.167 HD
ATOM     64  C   UNL     1       1.945 -11.614  -8.622  1.00  0.00     0.074 A 
ATOM     65  C   UNL     1       2.518 -12.834  -8.059  1.00  0.00     0.031 C 
ATOM     66  C   UNL     1       2.428 -10.338  -8.715  1.00  0.00     0.034 A 
BRANCH  53  67
ATOM     67  C   UNL     1       6.380 -12.159  -5.491  1.00  0.00     0.023 A 
ATOM     68  C   UNL     1       7.480 -12.049  -6.366  1.00  0.00     0.012 A 
ATOM     69  C   UNL     1       6.100 -13.438  -4.959  1.00  0.00     0.148 A 
ATOM     70  C   UNL     1       8.247 -13.165  -6.714  1.00  0.00     0.002 A 
ATOM     71  C   UNL     1       6.920 -14.523  -5.235  1.00  0.00     0.091 A 
ATOM     72  F   UNL     1       4.959 -13.653  -4.295  1.00  0.00    -0.205 F 
ATOM     73  C   UNL     1       7.978 -14.400  -6.136  1.00  0.00     0.022 A 
BRANCH  71  74
ATOM     74  S   UNL     1       6.640 -16.114  -4.452  1.00  0.00     0.127 S 
ATOM     75  O   UNL     1       5.928 -16.836  -5.501  1.00  0.00    -0.237 OA
ATOM     76  O   UNL     1       8.006 -16.573  -4.199  1.00  0.00    -0.237 OA
ATOM     77  O   UNL     1       5.884 -15.811  -3.243  1.00  0.00    -0.744 OA
ENDBRANCH  71  74
ENDBRANCH  53  67
BRANCH  54  78
ATOM     78  C   UNL     1      -1.669 -14.342  -7.248  1.00  0.00     0.023 A 
ATOM     79  C   UNL     1      -1.864 -14.984  -8.484  1.00  0.00     0.012 A 
ATOM     80  C   UNL     1      -2.070 -15.017  -6.071  1.00  0.00     0.148 A 
ATOM     81  C   UNL     1      -2.421 -16.266  -8.546  1.00  0.00     0.002 A 
ATOM     82  C   UNL     1      -2.636 -16.285  -6.138  1.00  0.00     0.091 A 
ATOM     83  F   UNL     1      -1.814 -14.454  -4.883  1.00  0.00    -0.205 F 
ATOM     84  C   UNL     1      -2.803 -16.918  -7.375  1.00  0.00     0.022 A 
BRANCH  82  85
ATOM     85  S   UNL     1      -3.142 -17.188  -4.667  1.00  0.00     0.127 S 
ATOM     86  O   UNL     1      -4.497 -17.611  -5.025  1.00  0.00    -0.237 OA
ATOM     87  O   UNL     1      -2.157 -18.264  -4.619  1.00  0.00    -0.237 OA
ATOM     88  O   UNL     1      -3.086 -16.229  -3.571  1.00  0.00    -0.744 OA
ENDBRANCH  82  85
ENDBRANCH  54  78
BRANCH  66  89
ATOM     89  C   UNL     1       1.482  -9.259  -9.191  1.00  0.00     0.023 A 
ATOM     90  C   UNL     1       0.334  -8.908  -8.448  1.00  0.00     0.012 A 
ATOM     91  C   UNL     1       1.843  -8.466 -10.294  1.00  0.00     0.148 A 
ATOM     92  C   UNL     1      -0.452  -7.812  -8.811  1.00  0.00     0.002 A 
ATOM     93  C   UNL     1       1.082  -7.349 -10.627  1.00  0.00     0.091 A 
ATOM     94  F   UNL     1       2.947  -8.797 -10.980  1.00  0.00    -0.205 F 
ATOM     95  C   UNL     1      -0.072  -7.026  -9.894  1.00  0.00     0.022 A 
BRANCH  93  96
ATOM     96  S   UNL     1       1.577  -6.214 -11.927  1.00  0.00     0.127 S 
ATOM     97  O   UNL     1       0.603  -6.505 -12.976  1.00  0.00    -0.237 OA
ATOM     98  O   UNL     1       1.411  -4.909 -11.283  1.00  0.00    -0.237 OA
ATOM     99  O   UNL     1       2.960  -6.547 -12.246  1.00  0.00    -0.744 OA
ENDBRANCH  93  96
ENDBRANCH  66  89
ENDBRANCH  40  41
ENDBRANCH  33  35
ENDBRANCH  32  33
ENDBRANCH  31  32
ENDBRANCH  30  31
ENDBRANCH  29  30
ENDBRANCH  28  29
ENDBRANCH   1  28
TORSDOF 24
