REMARK SMILES C[C@@H]1C(=O)O[C@@H]([C@@H]2CCC[C@H](CCC(=O)OCCOCCOCCOC(=O)c3ccc(-c4c5nc(c(-c6cccc(S(=O)(=O)[O-])c6F)c6ccc([nH]6)c(-c6cccc(S(=O)(=O)[O-])c6F)c6nc(c(-c7cccc(S(=O)(=O)[O-])c7F)c7ccc4[nH]7)C=C6)C=C5)cc3)O2)[C@H]1O
REMARK SMILES IDX 20 1 19 2 18 3 17 4 16 5 14 6 15 7 13 8 12 9 11 10 7 11 8 12
REMARK SMILES IDX 91 13 9 14 10 15 6 16 1 17 2 18 3 19 92 20 4 21 5 22 93 23
REMARK SMILES IDX 21 25 22 26 23 27 24 28 25 29 26 30 27 31 28 32 29 33 90 34
REMARK SMILES IDX 30 35 89 36 31 37 32 38 33 39 83 40 34 41 88 42 82 43 84 44
REMARK SMILES IDX 35 45 87 46 81 47 80 48 36 50 68 51 48 52 67 53 49 54 52 55
REMARK SMILES IDX 66 56 85 57 50 58 51 59 65 61 86 62 53 63 37 64 38 65 46 66
REMARK SMILES IDX 39 67 41 68 47 69 40 70 42 71 43 72 44 73 45 74 69 75 70 76
REMARK SMILES IDX 78 77 71 78 73 79 79 80 72 81 74 82 75 83 76 84 77 85 54 86
REMARK SMILES IDX 55 87 63 88 56 89 58 90 64 91 57 92 59 93 60 94 61 95 62 96
REMARK H PARENT 93 24 84 49 52 60
REMARK Flexibility Score: inf
ROOT
ATOM      1  C   UNL     1       1.517   3.314   5.289  1.00  0.00     0.188 C 
ENDROOT
BRANCH   1   2
ATOM      2  O   UNL     1       2.494   3.457   6.315  1.00  0.00    -0.376 OA
BRANCH   2   3
ATOM      3  C   UNL     1       3.847   3.613   5.899  1.00  0.00     0.202 C 
BRANCH   3   4
ATOM      4  C   UNL     1       4.487   2.410   5.191  1.00  0.00     0.261 C 
BRANCH   4   5
ATOM      5  O   UNL     1       3.739   1.939   4.053  1.00  0.00    -0.463 OA
BRANCH   5   6
ATOM      6  C   UNL     1       3.309   0.656   4.128  1.00  0.00     0.305 C 
ATOM      7  O   UNL     1       3.652  -0.152   4.985  1.00  0.00    -0.252 OA
BRANCH   6   8
ATOM      8  C   UNL     1       2.271   0.293   3.094  1.00  0.00     0.125 C 
BRANCH   8   9
ATOM      9  C   UNL     1       1.953   1.260   1.962  1.00  0.00     0.044 C 
BRANCH   9  10
ATOM     10  C   UNL     1       2.994   1.488   0.855  1.00  0.00     0.119 C 
ATOM     11  C   UNL     1       2.017   1.027  -1.363  1.00  0.00     0.162 C 
ATOM     12  C   UNL     1       3.265   0.272  -1.802  1.00  0.00     0.036 C 
ATOM     13  O   UNL     1       2.318   1.951  -0.316  1.00  0.00    -0.371 OA
ATOM     14  C   UNL     1       3.980  -0.414  -0.654  1.00  0.00     0.005 C 
ATOM     15  C   UNL     1       4.110   0.467   0.584  1.00  0.00     0.032 C 
BRANCH  11  16
ATOM     16  C   UNL     1       0.719   0.178  -1.258  1.00  0.00     0.234 C 
ATOM     17  C   UNL     1      -1.586  -2.212  -1.015  1.00  0.00     0.023 C 
ATOM     18  C   UNL     1      -0.817  -1.265  -0.112  1.00  0.00     0.128 C 
ATOM     19  C   UNL     1      -1.313   0.150  -0.225  1.00  0.00     0.311 C 
ATOM     20  C   UNL     1       0.646  -1.150  -0.506  1.00  0.00     0.172 C 
ATOM     21  O   UNL     1      -2.428   0.525   0.111  1.00  0.00    -0.252 OA
ATOM     22  O   UNL     1      -0.371   0.967  -0.764  1.00  0.00    -0.457 OA
BRANCH  20  23
ATOM     23  O   UNL     1       1.445  -1.208   0.658  1.00  0.00    -0.388 OA
ATOM     24  H   UNL     1       1.168  -0.514   1.276  1.00  0.00     0.211 HD
ENDBRANCH  20  23
ENDBRANCH  11  16
ENDBRANCH   9  10
ENDBRANCH   8   9
ENDBRANCH   6   8
ENDBRANCH   5   6
ENDBRANCH   4   5
ENDBRANCH   3   4
ENDBRANCH   2   3
ENDBRANCH   1   2
BRANCH   1  25
ATOM     25  C   UNL     1       1.490   4.407   4.221  1.00  0.00     0.188 C 
BRANCH  25  26
ATOM     26  O   UNL     1       2.724   4.645   3.548  1.00  0.00    -0.376 OA
BRANCH  26  27
ATOM     27  C   UNL     1       2.669   5.607   2.486  1.00  0.00     0.202 C 
BRANCH  27  28
ATOM     28  C   UNL     1       2.010   6.959   2.830  1.00  0.00     0.261 C 
BRANCH  28  29
ATOM     29  O   UNL     1       0.611   6.883   3.186  1.00  0.00    -0.460 OA
BRANCH  29  30
ATOM     30  C   UNL     1      -0.224   6.256   2.321  1.00  0.00     0.338 C 
ATOM     31  O   UNL     1       0.021   5.987   1.159  1.00  0.00    -0.246 OA
BRANCH  30  32
ATOM     32  C   UNL     1      -1.389   5.722   3.084  1.00  0.00     0.060 A 
ATOM     33  C   UNL     1      -1.889   4.457   2.739  1.00  0.00     0.016 A 
ATOM     34  C   UNL     1      -1.947   6.412   4.166  1.00  0.00     0.016 A 
ATOM     35  C   UNL     1      -2.978   3.911   3.430  1.00  0.00     0.010 A 
ATOM     36  C   UNL     1      -3.042   5.868   4.851  1.00  0.00     0.010 A 
ATOM     37  C   UNL     1      -3.593   4.633   4.462  1.00  0.00    -0.014 A 
BRANCH  37  38
ATOM     38  C   UNL     1      -4.922   4.211   4.988  1.00  0.00     0.031 A 
ATOM     39  C   UNL     1      -6.150   4.919   4.467  1.00  0.00     0.074 A 
ATOM     40  C   UNL     1      -5.064   3.225   5.896  1.00  0.00     0.049 A 
ATOM     41  N   UNL     1      -7.404   4.773   4.809  1.00  0.00    -0.248 NA
ATOM     42  C   UNL     1      -5.929   5.931   3.419  1.00  0.00     0.031 C 
ATOM     43  C   UNL     1      -3.978   2.439   6.476  1.00  0.00     0.029 A 
ATOM     44  N   UNL     1      -6.195   2.734   6.507  1.00  0.00    -0.354 N 
ATOM     45  C   UNL     1      -8.118   5.679   4.031  1.00  0.00     0.074 A 
ATOM     46  C   UNL     1      -7.155   6.391   3.220  1.00  0.00     0.031 C 
ATOM     47  C   UNL     1      -4.492   1.582   7.379  1.00  0.00     0.029 A 
ATOM     48  C   UNL     1      -5.940   1.775   7.461  1.00  0.00     0.049 A 
ATOM     49  H   UNL     1      -7.104   3.040   6.282  1.00  0.00     0.167 HD
ATOM     50  C   UNL     1      -9.454   5.888   3.972  1.00  0.00     0.034 A 
ATOM     51  C   UNL     1      -6.774   1.145   8.316  1.00  0.00     0.034 A 
ATOM     52  C   UNL     1     -10.425   5.179   4.760  1.00  0.00     0.049 A 
ATOM     53  C   UNL     1      -8.256   1.444   8.273  1.00  0.00     0.074 A 
ATOM     54  C   UNL     1     -11.802   5.322   4.758  1.00  0.00     0.029 A 
ATOM     55  N   UNL     1     -10.126   4.197   5.689  1.00  0.00    -0.354 N 
ATOM     56  N   UNL     1      -8.921   2.236   7.466  1.00  0.00    -0.248 NA
ATOM     57  C   UNL     1      -9.109   0.735   9.242  1.00  0.00     0.031 C 
ATOM     58  C   UNL     1     -12.335   4.442   5.705  1.00  0.00     0.029 A 
ATOM     59  C   UNL     1     -11.292   3.726   6.268  1.00  0.00     0.049 A 
ATOM     60  H   UNL     1      -9.220   3.881   5.906  1.00  0.00     0.167 HD
ATOM     61  C   UNL     1     -10.265   2.078   7.795  1.00  0.00     0.074 A 
ATOM     62  C   UNL     1     -10.325   1.102   8.861  1.00  0.00     0.031 C 
ATOM     63  C   UNL     1     -11.353   2.697   7.273  1.00  0.00     0.034 A 
BRANCH  50  64
ATOM     64  C   UNL     1      -9.960   6.905   2.983  1.00  0.00     0.023 A 
ATOM     65  C   UNL     1      -9.944   6.600   1.607  1.00  0.00     0.012 A 
ATOM     66  C   UNL     1     -10.523   8.122   3.417  1.00  0.00     0.148 A 
ATOM     67  C   UNL     1     -10.459   7.499   0.675  1.00  0.00     0.002 A 
ATOM     68  C   UNL     1     -11.075   8.993   2.485  1.00  0.00     0.091 A 
ATOM     69  F   UNL     1     -10.514   8.398   4.728  1.00  0.00    -0.205 F 
ATOM     70  C   UNL     1     -11.034   8.688   1.114  1.00  0.00     0.022 A 
BRANCH  68  71
ATOM     71  S   UNL     1     -11.910  10.514   2.950  1.00  0.00     0.127 S 
ATOM     72  O   UNL     1     -11.024  11.525   2.374  1.00  0.00    -0.237 OA
ATOM     73  O   UNL     1     -13.198  10.374   2.272  1.00  0.00    -0.237 OA
ATOM     74  O   UNL     1     -11.980  10.509   4.405  1.00  0.00    -0.744 OA
ENDBRANCH  68  71
ENDBRANCH  50  64
BRANCH  51  75
ATOM     75  C   UNL     1      -6.255   0.145   9.299  1.00  0.00     0.023 A 
ATOM     76  C   UNL     1      -6.654  -1.204   9.200  1.00  0.00     0.012 A 
ATOM     77  C   UNL     1      -5.426   0.534  10.368  1.00  0.00     0.148 A 
ATOM     78  C   UNL     1      -6.286  -2.131  10.176  1.00  0.00     0.002 A 
ATOM     79  C   UNL     1      -5.013  -0.408  11.305  1.00  0.00     0.091 A 
ATOM     80  F   UNL     1      -5.074   1.824  10.464  1.00  0.00    -0.205 F 
ATOM     81  C   UNL     1      -5.461  -1.736  11.224  1.00  0.00     0.022 A 
BRANCH  79  82
ATOM     82  S   UNL     1      -3.859  -0.012  12.623  1.00  0.00     0.127 S 
ATOM     83  O   UNL     1      -4.729  -0.023  13.796  1.00  0.00    -0.237 OA
ATOM     84  O   UNL     1      -2.917  -1.129  12.544  1.00  0.00    -0.237 OA
ATOM     85  O   UNL     1      -3.289   1.280  12.267  1.00  0.00    -0.744 OA
ENDBRANCH  79  82
ENDBRANCH  51  75
BRANCH  63  86
ATOM     86  C   UNL     1     -12.715   2.296   7.783  1.00  0.00     0.023 A 
ATOM     87  C   UNL     1     -13.123   2.662   9.081  1.00  0.00     0.012 A 
ATOM     88  C   UNL     1     -13.623   1.619   6.942  1.00  0.00     0.148 A 
ATOM     89  C   UNL     1     -14.394   2.327   9.548  1.00  0.00     0.002 A 
ATOM     90  C   UNL     1     -14.906   1.335   7.395  1.00  0.00     0.091 A 
ATOM     91  F   UNL     1     -13.215   1.267   5.714  1.00  0.00    -0.205 F 
ATOM     92  C   UNL     1     -15.288   1.674   8.702  1.00  0.00     0.022 A 
BRANCH  90  93
ATOM     93  S   UNL     1     -16.158   0.585   6.346  1.00  0.00     0.127 S 
ATOM     94  O   UNL     1     -16.288  -0.745   6.941  1.00  0.00    -0.237 OA
ATOM     95  O   UNL     1     -17.308   1.464   6.562  1.00  0.00    -0.237 OA
ATOM     96  O   UNL     1     -15.621   0.611   4.993  1.00  0.00    -0.744 OA
ENDBRANCH  90  93
ENDBRANCH  63  86
ENDBRANCH  37  38
ENDBRANCH  30  32
ENDBRANCH  29  30
ENDBRANCH  28  29
ENDBRANCH  27  28
ENDBRANCH  26  27
ENDBRANCH  25  26
ENDBRANCH   1  25
TORSDOF 24
