REMARK SMILES COc1cc(/C=N/NC(=O)c2cccnc2)ccc1OCC(=O)OCCOCCOCCOC(=O)c1ccc(-c2c3nc(c(-c4cccc(S(=O)(=O)[O-])c4F)c4ccc([nH]4)c(-c4cccc(S(=O)(=O)[O-])c4F)c4nc(c(-c5cccc(S(=O)(=O)[O-])c5F)c5ccc2[nH]5)C=C4)C=C3)cc1
REMARK SMILES IDX 28 1 27 2 26 3 25 4 24 5 22 6 23 7 21 8 20 9 19 10 3 11 4 12
REMARK SMILES IDX 5 13 18 14 17 15 2 16 1 17 6 18 7 19 8 20 9 21 10 23 11 24
REMARK SMILES IDX 12 25 16 26 13 27 15 28 14 29 29 30 30 31 31 32 32 33 33 34
REMARK SMILES IDX 34 35 35 36 36 37 37 38 98 39 38 40 97 41 39 42 40 43 41 44
REMARK SMILES IDX 91 45 42 46 96 47 90 48 92 49 43 50 95 51 89 52 88 53 44 55
REMARK SMILES IDX 76 56 56 57 75 58 57 59 60 60 74 61 93 62 58 63 59 64 73 66
REMARK SMILES IDX 94 67 61 68 45 69 46 70 54 71 47 72 49 73 55 74 48 75 50 76
REMARK SMILES IDX 51 77 52 78 53 79 77 80 78 81 86 82 79 83 81 84 87 85 80 86
REMARK SMILES IDX 82 87 83 88 84 89 85 90 62 91 63 92 71 93 64 94 66 95 72 96
REMARK SMILES IDX 65 97 67 98 68 99 69 100 70 101
REMARK H PARENT 8 22 92 54 60 65
REMARK Flexibility Score: inf
ROOT
ATOM      1  C   UNL     1      -0.638  -2.100  -0.132  1.00  0.00     0.188 C 
ENDROOT
BRANCH   1   2
ATOM      2  O   UNL     1      -0.845  -2.922  -1.272  1.00  0.00    -0.376 OA
BRANCH   2   3
ATOM      3  C   UNL     1       0.287  -3.605  -1.801  1.00  0.00     0.202 C 
BRANCH   3   4
ATOM      4  C   UNL     1       1.401  -2.692  -2.316  1.00  0.00     0.261 C 
BRANCH   4   5
ATOM      5  O   UNL     1       2.322  -2.322  -1.261  1.00  0.00    -0.461 OA
BRANCH   5   6
ATOM      6  C   UNL     1       2.663  -1.005  -1.175  1.00  0.00     0.344 C 
ATOM      7  O   UNL     1       2.191  -0.121  -1.881  1.00  0.00    -0.248 OA
BRANCH   6   8
ATOM      8  C   UNL     1       3.807  -0.757  -0.182  1.00  0.00     0.352 C 
BRANCH   8   9
ATOM      9  O   UNL     1       3.897  -1.488   1.025  1.00  0.00    -0.478 OA
BRANCH   9  10
ATOM     10  C   UNL     1       3.123  -1.187   2.111  1.00  0.00     0.162 A 
ATOM     11  C   UNL     1       2.414  -0.012   2.399  1.00  0.00     0.161 A 
ATOM     12  C   UNL     1       1.592   0.058   3.542  1.00  0.00     0.060 A 
ATOM     13  C   UNL     1       1.426  -1.071   4.352  1.00  0.00    -0.002 A 
ATOM     14  C   UNL     1       3.038  -2.259   3.011  1.00  0.00     0.051 A 
ATOM     15  C   UNL     1       2.183  -2.216   4.111  1.00  0.00     0.014 A 
BRANCH  11  16
ATOM     16  O   UNL     1       2.588   1.099   1.621  1.00  0.00    -0.493 OA
ATOM     17  C   UNL     1       1.388   1.539   0.985  1.00  0.00     0.278 C 
ENDBRANCH  11  16
BRANCH  13  18
ATOM     18  C   UNL     1       0.378  -1.176   5.389  1.00  0.00     0.141 C 
ATOM     19  N   UNL     1      -0.313  -0.170   5.826  1.00  0.00    -0.180 NA
BRANCH  19  20
ATOM     20  N   UNL     1      -1.291  -0.457   6.751  1.00  0.00    -0.243 N 
ATOM     21  C   UNL     1      -1.246  -1.270   7.871  1.00  0.00     0.272 C 
ATOM     22  H   UNL     1      -2.157  -0.015   6.592  1.00  0.00     0.194 HD
ATOM     23  O   UNL     1      -2.266  -1.560   8.491  1.00  0.00    -0.267 OA
BRANCH  21  24
ATOM     24  C   UNL     1       0.040  -1.806   8.341  1.00  0.00     0.059 A 
ATOM     25  C   UNL     1       1.208  -1.044   8.373  1.00  0.00     0.017 A 
ATOM     26  C   UNL     1       0.106  -3.139   8.721  1.00  0.00     0.124 A 
ATOM     27  C   UNL     1       2.407  -1.660   8.712  1.00  0.00     0.021 A 
ATOM     28  N   UNL     1       1.264  -3.765   9.051  1.00  0.00    -0.264 NA
ATOM     29  C   UNL     1       2.385  -3.010   9.031  1.00  0.00     0.111 A 
ENDBRANCH  21  24
ENDBRANCH  19  20
ENDBRANCH  13  18
ENDBRANCH   9  10
ENDBRANCH   8   9
ENDBRANCH   6   8
ENDBRANCH   5   6
ENDBRANCH   4   5
ENDBRANCH   3   4
ENDBRANCH   2   3
ENDBRANCH   1   2
BRANCH   1  30
ATOM     30  C   UNL     1       0.175  -2.711   1.020  1.00  0.00     0.188 C 
BRANCH  30  31
ATOM     31  O   UNL     1       0.045  -4.104   1.282  1.00  0.00    -0.376 OA
BRANCH  31  32
ATOM     32  C   UNL     1      -1.281  -4.612   1.370  1.00  0.00     0.202 C 
BRANCH  32  33
ATOM     33  C   UNL     1      -2.055  -4.113   2.585  1.00  0.00     0.261 C 
BRANCH  33  34
ATOM     34  O   UNL     1      -2.305  -2.701   2.492  1.00  0.00    -0.460 OA
BRANCH  34  35
ATOM     35  C   UNL     1      -2.822  -2.174   3.627  1.00  0.00     0.338 C 
ATOM     36  O   UNL     1      -3.136  -2.801   4.625  1.00  0.00    -0.246 OA
BRANCH  35  37
ATOM     37  C   UNL     1      -2.939  -0.703   3.527  1.00  0.00     0.060 A 
ATOM     38  C   UNL     1      -1.905   0.075   3.005  1.00  0.00     0.016 A 
ATOM     39  C   UNL     1      -4.036  -0.080   4.123  1.00  0.00     0.016 A 
ATOM     40  C   UNL     1      -1.915   1.462   3.181  1.00  0.00     0.010 A 
ATOM     41  C   UNL     1      -4.081   1.315   4.221  1.00  0.00     0.010 A 
ATOM     42  C   UNL     1      -2.998   2.102   3.796  1.00  0.00    -0.014 A 
BRANCH  42  43
ATOM     43  C   UNL     1      -2.979   3.569   4.063  1.00  0.00     0.031 A 
ATOM     44  C   UNL     1      -3.128   4.080   5.473  1.00  0.00     0.074 A 
ATOM     45  C   UNL     1      -2.845   4.459   3.060  1.00  0.00     0.049 A 
ATOM     46  N   UNL     1      -3.403   5.285   5.900  1.00  0.00    -0.248 NA
ATOM     47  C   UNL     1      -2.955   3.093   6.548  1.00  0.00     0.031 C 
ATOM     48  C   UNL     1      -2.632   4.127   1.652  1.00  0.00     0.029 A 
ATOM     49  N   UNL     1      -2.893   5.832   3.075  1.00  0.00    -0.354 N 
ATOM     50  C   UNL     1      -3.525   5.180   7.282  1.00  0.00     0.074 A 
ATOM     51  C   UNL     1      -3.270   3.798   7.625  1.00  0.00     0.031 C 
ATOM     52  C   UNL     1      -2.568   5.261   0.938  1.00  0.00     0.029 A 
ATOM     53  C   UNL     1      -2.828   6.394   1.821  1.00  0.00     0.049 A 
ATOM     54  H   UNL     1      -2.967   6.362   3.902  1.00  0.00     0.167 HD
ATOM     55  C   UNL     1      -3.816   6.147   8.185  1.00  0.00     0.034 A 
ATOM     56  C   UNL     1      -3.019   7.665   1.414  1.00  0.00     0.034 A 
ATOM     57  C   UNL     1      -3.982   7.536   7.854  1.00  0.00     0.049 A 
ATOM     58  C   UNL     1      -3.359   8.722   2.427  1.00  0.00     0.074 A 
ATOM     59  C   UNL     1      -4.253   8.597   8.701  1.00  0.00     0.029 A 
ATOM     60  N   UNL     1      -3.876   8.063   6.577  1.00  0.00    -0.354 N 
ATOM     61  N   UNL     1      -3.472   8.613   3.728  1.00  0.00    -0.248 NA
ATOM     62  C   UNL     1      -3.594  10.080   1.915  1.00  0.00     0.031 C 
ATOM     63  C   UNL     1      -4.317   9.765   7.933  1.00  0.00     0.029 A 
ATOM     64  C   UNL     1      -4.074   9.432   6.610  1.00  0.00     0.049 A 
ATOM     65  H   UNL     1      -3.686   7.539   5.765  1.00  0.00     0.167 HD
ATOM     66  C   UNL     1      -3.779   9.887   4.192  1.00  0.00     0.074 A 
ATOM     67  C   UNL     1      -3.801  10.759   3.035  1.00  0.00     0.031 C 
ATOM     68  C   UNL     1      -4.045  10.295   5.458  1.00  0.00     0.034 A 
BRANCH  55  69
ATOM     69  C   UNL     1      -3.964   5.736   9.627  1.00  0.00     0.023 A 
ATOM     70  C   UNL     1      -2.823   5.438  10.396  1.00  0.00     0.012 A 
ATOM     71  C   UNL     1      -5.236   5.694  10.232  1.00  0.00     0.148 A 
ATOM     72  C   UNL     1      -2.947   5.074  11.737  1.00  0.00     0.002 A 
ATOM     73  C   UNL     1      -5.349   5.371  11.580  1.00  0.00     0.091 A 
ATOM     74  F   UNL     1      -6.314   5.953   9.477  1.00  0.00    -0.205 F 
ATOM     75  C   UNL     1      -4.207   5.051  12.331  1.00  0.00     0.022 A 
BRANCH  73  76
ATOM     76  S   UNL     1      -6.924   5.401  12.443  1.00  0.00     0.127 S 
ATOM     77  O   UNL     1      -7.250   3.978  12.517  1.00  0.00    -0.237 OA
ATOM     78  O   UNL     1      -6.568   6.011  13.725  1.00  0.00    -0.237 OA
ATOM     79  O   UNL     1      -7.811   6.211  11.619  1.00  0.00    -0.744 OA
ENDBRANCH  73  76
ENDBRANCH  55  69
BRANCH  56  80
ATOM     80  C   UNL     1      -2.903   7.995  -0.035  1.00  0.00     0.023 A 
ATOM     81  C   UNL     1      -1.824   8.778  -0.483  1.00  0.00     0.012 A 
ATOM     82  C   UNL     1      -3.820   7.484  -0.976  1.00  0.00     0.148 A 
ATOM     83  C   UNL     1      -1.663   9.054  -1.841  1.00  0.00     0.002 A 
ATOM     84  C   UNL     1      -3.615   7.705  -2.332  1.00  0.00     0.091 A 
ATOM     85  F   UNL     1      -4.859   6.766  -0.527  1.00  0.00    -0.205 F 
ATOM     86  C   UNL     1      -2.547   8.504  -2.767  1.00  0.00     0.022 A 
BRANCH  84  87
ATOM     87  S   UNL     1      -4.608   6.894  -3.591  1.00  0.00     0.127 S 
ATOM     88  O   UNL     1      -5.441   7.993  -4.071  1.00  0.00    -0.237 OA
ATOM     89  O   UNL     1      -3.587   6.434  -4.533  1.00  0.00    -0.237 OA
ATOM     90  O   UNL     1      -5.308   5.819  -2.900  1.00  0.00    -0.744 OA
ENDBRANCH  84  87
ENDBRANCH  56  80
BRANCH  68  91
ATOM     91  C   UNL     1      -4.369  11.751   5.665  1.00  0.00     0.023 A 
ATOM     92  C   UNL     1      -5.633  12.241   5.280  1.00  0.00     0.012 A 
ATOM     93  C   UNL     1      -3.452  12.617   6.291  1.00  0.00     0.148 A 
ATOM     94  C   UNL     1      -5.967  13.579   5.489  1.00  0.00     0.002 A 
ATOM     95  C   UNL     1      -3.808  13.939   6.533  1.00  0.00     0.091 A 
ATOM     96  F   UNL     1      -2.246  12.137   6.630  1.00  0.00    -0.205 F 
ATOM     97  C   UNL     1      -5.061  14.424   6.124  1.00  0.00     0.022 A 
BRANCH  95  98
ATOM     98  S   UNL     1      -2.730  15.071   7.419  1.00  0.00     0.127 S 
ATOM     99  O   UNL     1      -2.168  15.864   6.328  1.00  0.00    -0.237 OA
ATOM    100  O   UNL     1      -3.670  15.794   8.277  1.00  0.00    -0.237 OA
ATOM    101  O   UNL     1      -1.783  14.232   8.141  1.00  0.00    -0.744 OA
ENDBRANCH  95  98
ENDBRANCH  68  91
ENDBRANCH  42  43
ENDBRANCH  35  37
ENDBRANCH  34  35
ENDBRANCH  33  34
ENDBRANCH  32  33
ENDBRANCH  31  32
ENDBRANCH  30  31
ENDBRANCH   1  30
TORSDOF 26
