REMARK SMILES CCOc1ccc(-n2nnc(-c3nc(C)c(C(=O)OCCOCCOCCOC(=O)c4ccc(-c5c6nc(c(-c7cccc(S(=O)(=O)[O-])c7F)c7ccc([nH]7)c(-c7cccc(S(=O)(=O)[O-])c7F)c7nc(c(-c8cccc(S(=O)(=O)[O-])c8F)c8ccc5[nH]8)C=C7)C=C6)cc4)s3)c2C)cc1
REMARK SMILES IDX 23 1 22 2 21 3 20 4 19 5 17 6 18 7 16 8 12 9 13 10 94 11
REMARK SMILES IDX 14 12 15 13 11 14 8 15 9 16 95 17 10 18 96 19 7 20 4 21 5 22
REMARK SMILES IDX 98 23 6 24 97 25 3 26 2 27 1 28 24 29 25 30 26 31 27 32
REMARK SMILES IDX 28 33 29 34 30 35 31 36 32 37 93 38 33 39 92 40 34 41 35 42
REMARK SMILES IDX 36 43 86 44 37 45 91 46 85 47 87 48 38 49 90 50 84 51 83 52
REMARK SMILES IDX 39 54 71 55 51 56 70 57 52 58 55 59 69 60 88 61 53 62 54 63
REMARK SMILES IDX 68 65 89 66 56 67 40 68 41 69 49 70 42 71 44 72 50 73 43 74
REMARK SMILES IDX 45 75 46 76 47 77 48 78 72 79 73 80 81 81 74 82 76 83 82 84
REMARK SMILES IDX 75 85 77 86 78 87 79 88 80 89 57 90 58 91 66 92 59 93 61 94
REMARK SMILES IDX 67 95 60 96 62 97 63 98 64 99 65 100
REMARK H PARENT 87 53 55 64
REMARK Flexibility Score: inf
ROOT
ATOM      1  C   UNL     1      12.493   2.913  -8.257  1.00  0.00     0.188 C 
ENDROOT
BRANCH   1   2
ATOM      2  O   UNL     1      12.322   2.754  -9.661  1.00  0.00    -0.376 OA
BRANCH   2   3
ATOM      3  C   UNL     1      11.024   2.765 -10.241  1.00  0.00     0.202 C 
BRANCH   3   4
ATOM      4  C   UNL     1       9.962   1.775  -9.735  1.00  0.00     0.261 C 
BRANCH   4   5
ATOM      5  O   UNL     1       9.684   1.891  -8.335  1.00  0.00    -0.459 OA
BRANCH   5   6
ATOM      6  C   UNL     1      10.122   0.883  -7.519  1.00  0.00     0.350 C 
ATOM      7  O   UNL     1      10.579  -0.170  -7.894  1.00  0.00    -0.245 OA
BRANCH   6   8
ATOM      8  C   UNL     1      10.052   1.324  -6.140  1.00  0.00     0.135 A 
ATOM      9  C   UNL     1       9.354   2.217  -4.006  1.00  0.00     0.146 A 
ATOM     10  N   UNL     1      10.523   1.634  -3.860  1.00  0.00    -0.239 NA
ATOM     11  S   UNL     1       8.808   2.365  -5.627  1.00  0.00    -0.105 S 
ATOM     12  C   UNL     1      10.921   1.084  -5.083  1.00  0.00     0.064 A 
ATOM     13  C   UNL     1      12.212   0.345  -5.131  1.00  0.00     0.068 C 
BRANCH   9  14
ATOM     14  C   UNL     1       8.433   2.581  -2.890  1.00  0.00     0.145 A 
ATOM     15  N   UNL     1       6.605   2.781  -1.743  1.00  0.00    -0.217 N 
ATOM     16  N   UNL     1       7.517   3.631  -1.221  1.00  0.00    -0.061 NA
ATOM     17  C   UNL     1       7.128   2.128  -2.839  1.00  0.00     0.072 A 
ATOM     18  N   UNL     1       8.676   3.424  -1.847  1.00  0.00    -0.127 NA
ATOM     19  C   UNL     1       6.396   1.225  -3.770  1.00  0.00     0.069 C 
BRANCH  15  20
ATOM     20  C   UNL     1       5.287   2.672  -1.261  1.00  0.00     0.067 A 
ATOM     21  C   UNL     1       2.553   2.388  -0.893  1.00  0.00     0.119 A 
ATOM     22  C   UNL     1       3.123   3.664  -0.917  1.00  0.00     0.048 A 
ATOM     23  C   UNL     1       3.352   1.257  -1.024  1.00  0.00     0.048 A 
ATOM     24  C   UNL     1       4.506   3.816  -1.081  1.00  0.00     0.032 A 
ATOM     25  C   UNL     1       4.723   1.396  -1.167  1.00  0.00     0.032 A 
BRANCH  21  26
ATOM     26  O   UNL     1       1.190   2.279  -0.879  1.00  0.00    -0.494 OA
BRANCH  26  27
ATOM     27  C   UNL     1       0.683   1.639   0.298  1.00  0.00     0.226 C 
ATOM     28  C   UNL     1       0.613   0.124   0.169  1.00  0.00     0.049 C 
ENDBRANCH  26  27
ENDBRANCH  21  26
ENDBRANCH  15  20
ENDBRANCH   9  14
ENDBRANCH   6   8
ENDBRANCH   5   6
ENDBRANCH   4   5
ENDBRANCH   3   4
ENDBRANCH   2   3
ENDBRANCH   1   2
BRANCH   1  29
ATOM     29  C   UNL     1      11.699   3.983  -7.477  1.00  0.00     0.188 C 
BRANCH  29  30
ATOM     30  O   UNL     1      10.596   4.523  -8.180  1.00  0.00    -0.376 OA
BRANCH  30  31
ATOM     31  C   UNL     1      10.640   5.909  -8.497  1.00  0.00     0.202 C 
BRANCH  31  32
ATOM     32  C   UNL     1      11.799   6.430  -9.349  1.00  0.00     0.261 C 
BRANCH  32  33
ATOM     33  O   UNL     1      13.066   5.861  -9.065  1.00  0.00    -0.460 OA
BRANCH  33  34
ATOM     34  C   UNL     1      13.681   6.339  -7.966  1.00  0.00     0.338 C 
ATOM     35  O   UNL     1      13.176   6.983  -7.063  1.00  0.00    -0.246 OA
BRANCH  34  36
ATOM     36  C   UNL     1      15.104   6.010  -8.068  1.00  0.00     0.060 A 
ATOM     37  C   UNL     1      15.881   6.155  -6.918  1.00  0.00     0.016 A 
ATOM     38  C   UNL     1      15.668   5.854  -9.344  1.00  0.00     0.016 A 
ATOM     39  C   UNL     1      17.230   6.369  -7.077  1.00  0.00     0.010 A 
ATOM     40  C   UNL     1      17.009   6.089  -9.502  1.00  0.00     0.010 A 
ATOM     41  C   UNL     1      17.749   6.432  -8.374  1.00  0.00    -0.014 A 
BRANCH  41  42
ATOM     42  C   UNL     1      19.121   6.852  -8.527  1.00  0.00     0.031 A 
ATOM     43  C   UNL     1      20.098   5.802  -8.187  1.00  0.00     0.074 A 
ATOM     44  C   UNL     1      19.439   8.062  -9.023  1.00  0.00     0.049 A 
ATOM     45  N   UNL     1      20.931   5.798  -7.202  1.00  0.00    -0.248 NA
ATOM     46  C   UNL     1      20.023   4.535  -8.928  1.00  0.00     0.031 C 
ATOM     47  C   UNL     1      18.537   9.033  -9.651  1.00  0.00     0.029 A 
ATOM     48  N   UNL     1      20.670   8.608  -9.216  1.00  0.00    -0.354 N 
ATOM     49  C   UNL     1      21.668   4.632  -7.365  1.00  0.00     0.074 A 
ATOM     50  C   UNL     1      20.929   3.804  -8.280  1.00  0.00     0.031 C 
ATOM     51  C   UNL     1      19.272   9.903 -10.378  1.00  0.00     0.029 A 
ATOM     52  C   UNL     1      20.681   9.614 -10.175  1.00  0.00     0.049 A 
ATOM     53  H   UNL     1      21.473   8.320  -8.725  1.00  0.00     0.167 HD
ATOM     54  C   UNL     1      22.971   4.576  -6.984  1.00  0.00     0.034 A 
ATOM     55  C   UNL     1      21.771  10.083 -10.831  1.00  0.00     0.034 A 
ATOM     56  C   UNL     1      23.300   5.624  -6.050  1.00  0.00     0.049 A 
ATOM     57  C   UNL     1      22.968   9.693 -10.046  1.00  0.00     0.074 A 
ATOM     58  C   UNL     1      22.777   6.055  -4.845  1.00  0.00     0.029 A 
ATOM     59  N   UNL     1      24.096   6.648  -6.503  1.00  0.00    -0.354 N 
ATOM     60  N   UNL     1      23.275  10.204  -8.886  1.00  0.00    -0.248 NA
ATOM     61  C   UNL     1      23.615   8.429 -10.363  1.00  0.00     0.031 C 
ATOM     62  C   UNL     1      22.907   7.473  -4.872  1.00  0.00     0.029 A 
ATOM     63  C   UNL     1      23.548   7.821  -6.062  1.00  0.00     0.049 A 
ATOM     64  H   UNL     1      24.911   6.555  -7.047  1.00  0.00     0.167 HD
ATOM     65  C   UNL     1      23.771   9.130  -8.158  1.00  0.00     0.074 A 
ATOM     66  C   UNL     1      24.071   8.103  -9.151  1.00  0.00     0.031 C 
ATOM     67  C   UNL     1      23.608   9.061  -6.803  1.00  0.00     0.034 A 
BRANCH  54  68
ATOM     68  C   UNL     1      24.041   3.846  -7.765  1.00  0.00     0.023 A 
ATOM     69  C   UNL     1      25.320   3.766  -7.174  1.00  0.00     0.012 A 
ATOM     70  C   UNL     1      23.946   3.510  -9.136  1.00  0.00     0.148 A 
ATOM     71  C   UNL     1      26.454   3.445  -7.926  1.00  0.00     0.002 A 
ATOM     72  C   UNL     1      25.061   3.103  -9.856  1.00  0.00     0.091 A 
ATOM     73  F   UNL     1      22.811   3.715  -9.809  1.00  0.00    -0.205 F 
ATOM     74  C   UNL     1      26.325   3.107  -9.267  1.00  0.00     0.022 A 
BRANCH  72  75
ATOM     75  S   UNL     1      24.924   2.599 -11.575  1.00  0.00     0.127 S 
ATOM     76  O   UNL     1      25.443   3.775 -12.266  1.00  0.00    -0.237 OA
ATOM     77  O   UNL     1      25.793   1.421 -11.612  1.00  0.00    -0.237 OA
ATOM     78  O   UNL     1      23.512   2.300 -11.781  1.00  0.00    -0.744 OA
ENDBRANCH  72  75
ENDBRANCH  54  68
BRANCH  55  79
ATOM     79  C   UNL     1      21.883  10.636 -12.201  1.00  0.00     0.023 A 
ATOM     80  C   UNL     1      23.029  11.377 -12.552  1.00  0.00     0.012 A 
ATOM     81  C   UNL     1      21.012  10.232 -13.239  1.00  0.00     0.148 A 
ATOM     82  C   UNL     1      23.315  11.677 -13.889  1.00  0.00     0.002 A 
ATOM     83  C   UNL     1      21.290  10.550 -14.565  1.00  0.00     0.091 A 
ATOM     84  F   UNL     1      19.963   9.453 -12.943  1.00  0.00    -0.205 F 
ATOM     85  C   UNL     1      22.449  11.260 -14.896  1.00  0.00     0.022 A 
BRANCH  83  86
ATOM     86  S   UNL     1      20.210  10.039 -15.909  1.00  0.00     0.127 S 
ATOM     87  O   UNL     1      20.163  11.243 -16.741  1.00  0.00    -0.237 OA
ATOM     88  O   UNL     1      20.951   8.924 -16.489  1.00  0.00    -0.237 OA
ATOM     89  O   UNL     1      18.937   9.701 -15.284  1.00  0.00    -0.744 OA
ENDBRANCH  83  86
ENDBRANCH  55  79
BRANCH  67  90
ATOM     90  C   UNL     1      23.173  10.298  -6.061  1.00  0.00     0.023 A 
ATOM     91  C   UNL     1      21.955  10.954  -6.333  1.00  0.00     0.012 A 
ATOM     92  C   UNL     1      23.927  10.702  -4.944  1.00  0.00     0.148 A 
ATOM     93  C   UNL     1      21.515  12.007  -5.527  1.00  0.00     0.002 A 
ATOM     94  C   UNL     1      23.459  11.714  -4.115  1.00  0.00     0.091 A 
ATOM     95  F   UNL     1      25.084  10.070  -4.694  1.00  0.00    -0.205 F 
ATOM     96  C   UNL     1      22.259  12.378  -4.410  1.00  0.00     0.022 A 
BRANCH  94  97
ATOM     97  S   UNL     1      24.311  12.132  -2.592  1.00  0.00     0.127 S 
ATOM     98  O   UNL     1      25.084  13.308  -2.984  1.00  0.00    -0.237 OA
ATOM     99  O   UNL     1      23.205  12.406  -1.672  1.00  0.00    -0.237 OA
ATOM    100  O   UNL     1      25.090  10.950  -2.241  1.00  0.00    -0.744 OA
ENDBRANCH  94  97
ENDBRANCH  67  90
ENDBRANCH  41  42
ENDBRANCH  34  36
ENDBRANCH  33  34
ENDBRANCH  32  33
ENDBRANCH  31  32
ENDBRANCH  30  31
ENDBRANCH  29  30
ENDBRANCH   1  29
TORSDOF 24
