REMARK SMILES O=C(OCCOCCOCCOC(=O)c1ccc(-c2c3nc(c(-c4cccc(S(=O)(=O)[O-])c4F)c4ccc([nH]4)c(-c4cccc(S(=O)(=O)[O-])c4F)c4nc(c(-c5cccc(S(=O)(=O)[O-])c5F)c5ccc2[nH]5)C=C4)C=C3)cc1)C1=Cc2cc(OC(F)(F)F)ccc2O[C@@H]1C(F)(F)F
REMARK SMILES IDX 8 1 7 2 6 3 5 4 4 5 3 6 2 7 1 8 78 9 79 10 92 11 80 12 91 13
REMARK SMILES IDX 81 14 90 15 82 16 89 17 88 18 93 19 94 20 95 21 96 22 83 23
REMARK SMILES IDX 84 24 85 25 86 26 87 27 9 28 10 29 11 30 12 31 13 32 14 33
REMARK SMILES IDX 15 34 16 35 77 36 17 37 76 38 18 39 19 40 20 41 70 42 21 43
REMARK SMILES IDX 75 44 69 45 71 46 22 47 74 48 68 49 67 50 23 52 55 53 35 54
REMARK SMILES IDX 54 55 36 56 39 57 53 58 72 59 37 60 38 61 52 63 73 64 40 65
REMARK SMILES IDX 24 66 25 67 33 68 26 69 28 70 34 71 27 72 29 73 30 74 31 75
REMARK SMILES IDX 32 76 56 77 57 78 65 79 58 80 60 81 66 82 59 83 61 84 62 85
REMARK SMILES IDX 63 86 64 87 41 88 42 89 50 90 43 91 45 92 51 93 44 94 46 95
REMARK SMILES IDX 47 96 48 97 49 98
REMARK H PARENT 71 51 39 62
REMARK Flexibility Score: inf
ROOT
ATOM      1  C   UNL     1       2.046   2.957  -1.677  1.00  0.00     0.188 C 
ENDROOT
BRANCH   1   2
ATOM      2  C   UNL     1       2.277   2.247  -0.334  1.00  0.00     0.188 C 
BRANCH   2   3
ATOM      3  O   UNL     1       3.612   1.999   0.285  1.00  0.00    -0.376 OA
BRANCH   3   4
ATOM      4  C   UNL     1       4.349   0.485   0.674  1.00  0.00     0.202 C 
BRANCH   4   5
ATOM      5  C   UNL     1       3.605  -1.455   0.044  1.00  0.00     0.261 C 
BRANCH   5   6
ATOM      6  O   UNL     1       2.596  -2.319   0.770  1.00  0.00    -0.460 OA
BRANCH   6   7
ATOM      7  C   UNL     1       2.750  -2.245   2.099  1.00  0.00     0.338 C 
ATOM      8  O   UNL     1       2.025  -2.702   2.947  1.00  0.00    -0.246 OA
BRANCH   7   9
ATOM      9  C   UNL     1       3.669  -1.113   2.120  1.00  0.00     0.087 C 
ATOM     10  C   UNL     1       5.053  -1.424   1.779  1.00  0.00     0.027 C 
ATOM     11  C   UNL     1       2.508  -0.032   1.048  1.00  0.00     0.316 C 
ATOM     12  C   UNL     1       5.803  -1.099   0.184  1.00  0.00     0.021 A 
ATOM     13  O   UNL     1       3.229   0.194  -0.758  1.00  0.00    -0.475 OA
ATOM     14  C   UNL     1       7.071  -1.540  -0.056  1.00  0.00     0.058 A 
ATOM     15  C   UNL     1       4.934  -0.376  -1.117  1.00  0.00     0.128 A 
ATOM     16  C   UNL     1       7.569  -1.322  -1.357  1.00  0.00     0.130 A 
ATOM     17  C   UNL     1       5.482  -0.167  -2.351  1.00  0.00     0.051 A 
ATOM     18  C   UNL     1       6.822  -0.660  -2.432  1.00  0.00     0.050 A 
BRANCH  11  19
ATOM     19  C   UNL     1       2.259   1.040   2.321  1.00  0.00     0.430 C 
ATOM     20  F   UNL     1       1.937   2.311   2.094  1.00  0.00    -0.167 F 
ATOM     21  F   UNL     1       1.219   0.546   3.052  1.00  0.00    -0.167 F 
ATOM     22  F   UNL     1       3.301   1.084   3.199  1.00  0.00    -0.167 F 
ENDBRANCH  11  19
BRANCH  16  23
ATOM     23  O   UNL     1       8.843  -1.833  -1.452  1.00  0.00    -0.406 OA
BRANCH  23  24
ATOM     24  C   UNL     1       9.557  -1.738  -2.663  1.00  0.00     0.573 C 
ATOM     25  F   UNL     1       8.917  -2.387  -3.657  1.00  0.00    -0.132 F 
ATOM     26  F   UNL     1       9.756  -0.451  -3.009  1.00  0.00    -0.132 F 
ATOM     27  F   UNL     1      10.766  -2.321  -2.492  1.00  0.00    -0.132 F 
ENDBRANCH  23  24
ENDBRANCH  16  23
ENDBRANCH   7   9
ENDBRANCH   6   7
ENDBRANCH   5   6
ENDBRANCH   4   5
ENDBRANCH   3   4
ENDBRANCH   2   3
ENDBRANCH   1   2
BRANCH   1  28
ATOM     28  O   UNL     1       3.021   2.861  -2.682  1.00  0.00    -0.376 OA
BRANCH  28  29
ATOM     29  C   UNL     1       4.316   3.305  -2.299  1.00  0.00     0.202 C 
BRANCH  29  30
ATOM     30  C   UNL     1       4.446   4.700  -1.660  1.00  0.00     0.261 C 
BRANCH  30  31
ATOM     31  O   UNL     1       3.945   4.784  -0.305  1.00  0.00    -0.460 OA
BRANCH  31  32
ATOM     32  C   UNL     1       2.914   5.637  -0.071  1.00  0.00     0.338 C 
ATOM     33  O   UNL     1       2.354   6.347  -0.890  1.00  0.00    -0.246 OA
BRANCH  32  34
ATOM     34  C   UNL     1       2.427   5.480   1.318  1.00  0.00     0.060 A 
ATOM     35  C   UNL     1       1.105   5.062   1.539  1.00  0.00     0.016 A 
ATOM     36  C   UNL     1       3.251   5.798   2.398  1.00  0.00     0.016 A 
ATOM     37  C   UNL     1       0.614   4.935   2.841  1.00  0.00     0.010 A 
ATOM     38  C   UNL     1       2.740   5.722   3.699  1.00  0.00     0.010 A 
ATOM     39  C   UNL     1       1.415   5.309   3.926  1.00  0.00    -0.014 A 
BRANCH  39  40
ATOM     40  C   UNL     1       0.782   5.513   5.253  1.00  0.00     0.031 A 
ATOM     41  C   UNL     1       0.278   6.893   5.579  1.00  0.00     0.074 A 
ATOM     42  C   UNL     1       0.634   4.512   6.140  1.00  0.00     0.049 A 
ATOM     43  N   UNL     1      -0.310   7.331   6.660  1.00  0.00    -0.248 NA
ATOM     44  C   UNL     1       0.466   7.919   4.538  1.00  0.00     0.031 C 
ATOM     45  C   UNL     1       1.069   3.131   5.940  1.00  0.00     0.029 A 
ATOM     46  N   UNL     1       0.091   4.515   7.402  1.00  0.00    -0.354 N 
ATOM     47  C   UNL     1      -0.554   8.680   6.434  1.00  0.00     0.074 A 
ATOM     48  C   UNL     1      -0.025   8.997   5.127  1.00  0.00     0.031 C 
ATOM     49  C   UNL     1       0.803   2.426   7.055  1.00  0.00     0.029 A 
ATOM     50  C   UNL     1       0.202   3.309   8.054  1.00  0.00     0.049 A 
ATOM     51  H   UNL     1      -0.337   5.306   7.802  1.00  0.00     0.167 HD
ATOM     52  C   UNL     1      -1.178   9.575   7.235  1.00  0.00     0.034 A 
ATOM     53  C   UNL     1      -0.120   2.970   9.320  1.00  0.00     0.034 A 
ATOM     54  C   UNL     1      -1.680   9.266   8.545  1.00  0.00     0.049 A 
ATOM     55  C   UNL     1      -0.755   4.005  10.220  1.00  0.00     0.074 A 
ATOM     56  C   UNL     1      -2.336  10.099   9.433  1.00  0.00     0.029 A 
ATOM     57  N   UNL     1      -1.559   8.033   9.167  1.00  0.00    -0.354 N 
ATOM     58  N   UNL     1      -1.067   5.252   9.959  1.00  0.00    -0.248 NA
ATOM     59  C   UNL     1      -1.115   3.574  11.580  1.00  0.00     0.031 C 
ATOM     60  C   UNL     1      -2.567   9.384  10.612  1.00  0.00     0.029 A 
ATOM     61  C   UNL     1      -2.117   8.086  10.432  1.00  0.00     0.049 A 
ATOM     62  H   UNL     1      -1.139   7.237   8.767  1.00  0.00     0.167 HD
ATOM     63  C   UNL     1      -1.699   5.737  11.100  1.00  0.00     0.074 A 
ATOM     64  C   UNL     1      -1.744   4.643  12.047  1.00  0.00     0.031 C 
ATOM     65  C   UNL     1      -2.192   6.976  11.348  1.00  0.00     0.034 A 
BRANCH  52  66
ATOM     66  C   UNL     1      -1.351  10.976   6.708  1.00  0.00     0.023 A 
ATOM     67  C   UNL     1      -2.238  11.217   5.638  1.00  0.00     0.012 A 
ATOM     68  C   UNL     1      -0.666  12.056   7.295  1.00  0.00     0.148 A 
ATOM     69  C   UNL     1      -2.409  12.506   5.135  1.00  0.00     0.002 A 
ATOM     70  C   UNL     1      -0.882  13.345   6.823  1.00  0.00     0.091 A 
ATOM     71  F   UNL     1       0.186  11.804   8.299  1.00  0.00    -0.205 F 
ATOM     72  C   UNL     1      -1.741  13.570   5.734  1.00  0.00     0.022 A 
BRANCH  70  73
ATOM     73  S   UNL     1      -0.130  14.792   7.573  1.00  0.00     0.127 S 
ATOM     74  O   UNL     1       0.727  15.274   6.490  1.00  0.00    -0.237 OA
ATOM     75  O   UNL     1      -1.295  15.632   7.848  1.00  0.00    -0.237 OA
ATOM     76  O   UNL     1       0.575  14.317   8.755  1.00  0.00    -0.744 OA
ENDBRANCH  70  73
ENDBRANCH  52  66
BRANCH  53  77
ATOM     77  C   UNL     1       0.151   1.594   9.832  1.00  0.00     0.023 A 
ATOM     78  C   UNL     1      -0.916   0.753  10.207  1.00  0.00     0.012 A 
ATOM     79  C   UNL     1       1.473   1.131   9.991  1.00  0.00     0.148 A 
ATOM     80  C   UNL     1      -0.671  -0.499  10.777  1.00  0.00     0.002 A 
ATOM     81  C   UNL     1       1.708  -0.140  10.500  1.00  0.00     0.091 A 
ATOM     82  F   UNL     1       2.477   1.950   9.646  1.00  0.00    -0.205 F 
ATOM     83  C   UNL     1       0.639  -0.948  10.916  1.00  0.00     0.022 A 
BRANCH  81  84
ATOM     84  S   UNL     1       3.357  -0.843  10.613  1.00  0.00     0.127 S 
ATOM     85  O   UNL     1       3.545  -0.935  12.059  1.00  0.00    -0.237 OA
ATOM     86  O   UNL     1       3.184  -2.126   9.932  1.00  0.00    -0.237 OA
ATOM     87  O   UNL     1       4.236   0.092   9.924  1.00  0.00    -0.744 OA
ENDBRANCH  81  84
ENDBRANCH  53  77
BRANCH  65  88
ATOM     88  C   UNL     1      -2.887   7.205  12.668  1.00  0.00     0.023 A 
ATOM     89  C   UNL     1      -2.158   7.200  13.873  1.00  0.00     0.012 A 
ATOM     90  C   UNL     1      -4.270   7.477  12.700  1.00  0.00     0.148 A 
ATOM     91  C   UNL     1      -2.803   7.409  15.093  1.00  0.00     0.002 A 
ATOM     92  C   UNL     1      -4.894   7.745  13.912  1.00  0.00     0.091 A 
ATOM     93  F   UNL     1      -4.951   7.469  11.545  1.00  0.00    -0.205 F 
ATOM     94  C   UNL     1      -4.167   7.691  15.111  1.00  0.00     0.022 A 
BRANCH  92  95
ATOM     95  S   UNL     1      -6.624   8.216  14.023  1.00  0.00     0.127 S 
ATOM     96  O   UNL     1      -7.207   7.050  14.685  1.00  0.00    -0.237 OA
ATOM     97  O   UNL     1      -6.561   9.420  14.852  1.00  0.00    -0.237 OA
ATOM     98  O   UNL     1      -7.071   8.443  12.656  1.00  0.00    -0.744 OA
ENDBRANCH  92  95
ENDBRANCH  65  88
ENDBRANCH  39  40
ENDBRANCH  32  34
ENDBRANCH  31  32
ENDBRANCH  30  31
ENDBRANCH  29  30
ENDBRANCH  28  29
ENDBRANCH   1  28
TORSDOF 23
