REMARK SMILES CC(C)=CC[C@@]1(C(=O)OCCOCCOCCOC(=O)c2ccc(-c3c4nc(c(-c5cccc(S(=O)(=O)[O-])c5F)c5ccc([nH]5)c(-c5cccc(S(=O)(=O)[O-])c5F)c5nc(c(-c6cccc(S(=O)(=O)[O-])c6F)c6ccc3[nH]6)C=C5)C=C4)cc2)CCC[C@H](C)C1
REMARK SMILES IDX 14 1 13 2 12 3 11 4 10 5 9 6 7 7 8 8 6 9 84 10 89 11 85 12
REMARK SMILES IDX 87 13 86 14 88 15 5 16 4 17 1 18 2 19 3 20 15 21 16 22 17 23
REMARK SMILES IDX 18 24 19 25 20 26 21 27 22 28 83 29 23 30 82 31 24 32 25 33
REMARK SMILES IDX 26 34 76 35 27 36 81 37 75 38 77 39 28 40 80 41 74 42 73 43
REMARK SMILES IDX 29 45 61 46 41 47 60 48 42 49 45 50 59 51 78 52 43 53 44 54
REMARK SMILES IDX 58 56 79 57 46 58 30 59 31 60 39 61 32 62 34 63 40 64 33 65
REMARK SMILES IDX 35 66 36 67 37 68 38 69 62 70 63 71 71 72 64 73 66 74 72 75
REMARK SMILES IDX 65 76 67 77 68 78 69 79 70 80 47 81 48 82 56 83 49 84 51 85
REMARK SMILES IDX 57 86 50 87 52 88 53 89 54 90 55 91
REMARK H PARENT 77 44 45 55
REMARK Flexibility Score: inf
ROOT
ATOM      1  C   UNL     1       4.441   0.913  -2.217  1.00  0.00     0.188 C 
ENDROOT
BRANCH   1   2
ATOM      2  C   UNL     1       3.122   1.405  -2.823  1.00  0.00     0.188 C 
BRANCH   2   3
ATOM      3  O   UNL     1       3.331   2.614  -3.550  1.00  0.00    -0.376 OA
BRANCH   3   4
ATOM      4  C   UNL     1       2.325   3.603  -3.376  1.00  0.00     0.202 C 
BRANCH   4   5
ATOM      5  C   UNL     1       2.639   4.436  -2.137  1.00  0.00     0.261 C 
BRANCH   5   6
ATOM      6  O   UNL     1       2.510   3.640  -0.942  1.00  0.00    -0.463 OA
BRANCH   6   7
ATOM      7  C   UNL     1       1.342   3.761  -0.258  1.00  0.00     0.312 C 
ATOM      8  O   UNL     1       0.486   4.594  -0.533  1.00  0.00    -0.252 OA
BRANCH   7   9
ATOM      9  C   UNL     1       1.274   2.809   0.949  1.00  0.00     0.072 C 
ATOM     10  C   UNL     1       1.959   3.632   2.078  1.00  0.00     0.019 C 
ATOM     11  C   UNL     1       2.047   1.473   0.773  1.00  0.00     0.022 C 
ATOM     12  C   UNL     1       2.220   2.862   3.369  1.00  0.00     0.001 C 
ATOM     13  C   UNL     1       2.214   0.686   2.089  1.00  0.00    -0.013 C 
ATOM     14  C   UNL     1       2.949   1.548   3.120  1.00  0.00     0.003 C 
ATOM     15  C   UNL     1       2.947  -0.642   1.862  1.00  0.00     0.007 C 
BRANCH   9  16
ATOM     16  C   UNL     1      -0.230   2.551   1.282  1.00  0.00     0.046 C 
BRANCH  16  17
ATOM     17  C   UNL     1      -1.027   1.486   0.555  1.00  0.00    -0.027 C 
ATOM     18  C   UNL     1      -0.734   2.058  -1.905  1.00  0.00     0.039 C 
ATOM     19  C   UNL     1      -1.279   1.280  -0.753  1.00  0.00    -0.080 C 
ATOM     20  C   UNL     1      -2.191   0.171  -1.193  1.00  0.00     0.039 C 
ENDBRANCH  16  17
ENDBRANCH   9  16
ENDBRANCH   7   9
ENDBRANCH   6   7
ENDBRANCH   5   6
ENDBRANCH   4   5
ENDBRANCH   3   4
ENDBRANCH   2   3
ENDBRANCH   1   2
BRANCH   1  21
ATOM     21  O   UNL     1       5.611   0.971  -3.029  1.00  0.00    -0.376 OA
BRANCH  21  22
ATOM     22  C   UNL     1       5.471   0.750  -4.427  1.00  0.00     0.202 C 
BRANCH  22  23
ATOM     23  C   UNL     1       5.193  -0.694  -4.847  1.00  0.00     0.261 C 
BRANCH  23  24
ATOM     24  O   UNL     1       3.860  -1.147  -4.527  1.00  0.00    -0.460 OA
BRANCH  24  25
ATOM     25  C   UNL     1       3.786  -2.080  -3.552  1.00  0.00     0.338 C 
ATOM     26  O   UNL     1       4.722  -2.525  -2.894  1.00  0.00    -0.246 OA
BRANCH  25  27
ATOM     27  C   UNL     1       2.393  -2.490  -3.280  1.00  0.00     0.060 A 
ATOM     28  C   UNL     1       1.956  -2.490  -1.949  1.00  0.00     0.016 A 
ATOM     29  C   UNL     1       1.608  -3.077  -4.276  1.00  0.00     0.016 A 
ATOM     30  C   UNL     1       0.784  -3.165  -1.595  1.00  0.00     0.010 A 
ATOM     31  C   UNL     1       0.435  -3.759  -3.917  1.00  0.00     0.010 A 
ATOM     32  C   UNL     1       0.054  -3.865  -2.567  1.00  0.00    -0.014 A 
BRANCH  32  33
ATOM     33  C   UNL     1      -0.952  -4.882  -2.147  1.00  0.00     0.031 A 
ATOM     34  C   UNL     1      -0.532  -6.324  -2.063  1.00  0.00     0.074 A 
ATOM     35  C   UNL     1      -2.217  -4.553  -1.832  1.00  0.00     0.049 A 
ATOM     36  N   UNL     1      -1.240  -7.374  -1.736  1.00  0.00    -0.248 NA
ATOM     37  C   UNL     1       0.865  -6.623  -2.414  1.00  0.00     0.031 C 
ATOM     38  C   UNL     1      -2.759  -3.207  -1.900  1.00  0.00     0.029 A 
ATOM     39  N   UNL     1      -3.275  -5.315  -1.400  1.00  0.00    -0.354 N 
ATOM     40  C   UNL     1      -0.393  -8.463  -1.892  1.00  0.00     0.074 A 
ATOM     41  C   UNL     1       0.883  -7.945  -2.339  1.00  0.00     0.031 C 
ATOM     42  C   UNL     1      -4.034  -3.215  -1.479  1.00  0.00     0.029 A 
ATOM     43  C   UNL     1      -4.422  -4.589  -1.171  1.00  0.00     0.049 A 
ATOM     44  H   UNL     1      -3.219  -6.289  -1.267  1.00  0.00     0.167 HD
ATOM     45  C   UNL     1      -0.648  -9.776  -1.679  1.00  0.00     0.034 A 
ATOM     46  C   UNL     1      -5.649  -4.987  -0.775  1.00  0.00     0.034 A 
ATOM     47  C   UNL     1      -1.906 -10.296  -1.216  1.00  0.00     0.049 A 
ATOM     48  C   UNL     1      -5.904  -6.452  -0.538  1.00  0.00     0.074 A 
ATOM     49  C   UNL     1      -2.247 -11.609  -0.946  1.00  0.00     0.029 A 
ATOM     50  N   UNL     1      -3.034  -9.530  -0.960  1.00  0.00    -0.354 N 
ATOM     51  N   UNL     1      -5.065  -7.458  -0.600  1.00  0.00    -0.248 NA
ATOM     52  C   UNL     1      -7.275  -6.837  -0.168  1.00  0.00     0.031 C 
ATOM     53  C   UNL     1      -3.587 -11.640  -0.541  1.00  0.00     0.029 A 
ATOM     54  C   UNL     1      -4.073 -10.343  -0.537  1.00  0.00     0.049 A 
ATOM     55  H   UNL     1      -3.087  -8.553  -1.063  1.00  0.00     0.167 HD
ATOM     56  C   UNL     1      -5.796  -8.587  -0.245  1.00  0.00     0.074 A 
ATOM     57  C   UNL     1      -7.141  -8.139   0.050  1.00  0.00     0.031 C 
ATOM     58  C   UNL     1      -5.392  -9.880  -0.188  1.00  0.00     0.034 A 
BRANCH  45  59
ATOM     59  C   UNL     1       0.477 -10.740  -1.943  1.00  0.00     0.023 A 
ATOM     60  C   UNL     1       1.571 -10.796  -1.055  1.00  0.00     0.012 A 
ATOM     61  C   UNL     1       0.453 -11.590  -3.065  1.00  0.00     0.148 A 
ATOM     62  C   UNL     1       2.643 -11.653  -1.303  1.00  0.00     0.002 A 
ATOM     63  C   UNL     1       1.504 -12.473  -3.281  1.00  0.00     0.091 A 
ATOM     64  F   UNL     1      -0.580 -11.501  -3.915  1.00  0.00    -0.205 F 
ATOM     65  C   UNL     1       2.605 -12.496  -2.410  1.00  0.00     0.022 A 
BRANCH  63  66
ATOM     66  S   UNL     1       1.501 -13.644  -4.643  1.00  0.00     0.127 S 
ATOM     67  O   UNL     1       2.381 -12.984  -5.605  1.00  0.00    -0.237 OA
ATOM     68  O   UNL     1       2.067 -14.845  -4.024  1.00  0.00    -0.237 OA
ATOM     69  O   UNL     1       0.107 -13.776  -5.045  1.00  0.00    -0.744 OA
ENDBRANCH  63  66
ENDBRANCH  45  59
BRANCH  46  70
ATOM     70  C   UNL     1      -6.724  -3.982  -0.525  1.00  0.00     0.023 A 
ATOM     71  C   UNL     1      -7.173  -3.776   0.795  1.00  0.00     0.012 A 
ATOM     72  C   UNL     1      -7.294  -3.226  -1.567  1.00  0.00     0.148 A 
ATOM     73  C   UNL     1      -8.184  -2.855   1.070  1.00  0.00     0.002 A 
ATOM     74  C   UNL     1      -8.261  -2.269  -1.279  1.00  0.00     0.091 A 
ATOM     75  F   UNL     1      -6.872  -3.451  -2.819  1.00  0.00    -0.205 F 
ATOM     76  C   UNL     1      -8.720  -2.094   0.036  1.00  0.00     0.022 A 
BRANCH  74  77
ATOM     77  S   UNL     1      -8.916  -1.155  -2.527  1.00  0.00     0.127 S 
ATOM     78  O   UNL     1     -10.289  -1.631  -2.663  1.00  0.00    -0.237 OA
ATOM     79  O   UNL     1      -8.776   0.146  -1.871  1.00  0.00    -0.237 OA
ATOM     80  O   UNL     1      -8.065  -1.332  -3.696  1.00  0.00    -0.744 OA
ENDBRANCH  74  77
ENDBRANCH  46  70
BRANCH  58  81
ATOM     81  C   UNL     1      -6.401 -10.909   0.253  1.00  0.00     0.023 A 
ATOM     82  C   UNL     1      -7.439 -11.295  -0.618  1.00  0.00     0.012 A 
ATOM     83  C   UNL     1      -6.279 -11.544   1.505  1.00  0.00     0.148 A 
ATOM     84  C   UNL     1      -8.358 -12.273  -0.237  1.00  0.00     0.002 A 
ATOM     85  C   UNL     1      -7.170 -12.551   1.859  1.00  0.00     0.091 A 
ATOM     86  F   UNL     1      -5.299 -11.149   2.331  1.00  0.00    -0.205 F 
ATOM     87  C   UNL     1      -8.217 -12.909   0.994  1.00  0.00     0.022 A 
BRANCH  85  88
ATOM     88  S   UNL     1      -7.002 -13.483   3.386  1.00  0.00     0.127 S 
ATOM     89  O   UNL     1      -8.035 -12.876   4.223  1.00  0.00    -0.237 OA
ATOM     90  O   UNL     1      -7.293 -14.851   2.954  1.00  0.00    -0.237 OA
ATOM     91  O   UNL     1      -5.629 -13.274   3.828  1.00  0.00    -0.744 OA
ENDBRANCH  85  88
ENDBRANCH  58  81
ENDBRANCH  32  33
ENDBRANCH  25  27
ENDBRANCH  24  25
ENDBRANCH  23  24
ENDBRANCH  22  23
ENDBRANCH  21  22
ENDBRANCH   1  21
TORSDOF 22
