REMARK SMILES CCC[NH2+][C@@]1(C(=O)OCCOCCOCCOC(=O)c2ccc(-c3c4nc(c(-c5cccc(S(=O)(=O)[O-])c5F)c5ccc([nH]5)c(-c5cccc(S(=O)(=O)[O-])c5F)c5nc(c(-c6cccc(S(=O)(=O)[O-])c6F)c6ccc3[nH]6)C=C5)C=C4)cc2)CC[C@@H](Sc2ccc(Cl)cc2)C1
REMARK SMILES IDX 12 1 11 2 10 3 9 4 8 5 6 6 7 7 5 8 83 9 94 10 84 11 85 12
REMARK SMILES IDX 4 13 3 16 2 17 1 18 86 19 87 20 88 21 93 22 89 23 92 24
REMARK SMILES IDX 90 25 91 26 13 27 14 28 15 29 16 30 17 31 18 32 19 33 20 34
REMARK SMILES IDX 21 35 82 36 22 37 81 38 23 39 24 40 25 41 75 42 26 43 80 44
REMARK SMILES IDX 74 45 76 46 27 47 79 48 73 49 72 50 28 52 60 53 40 54 59 55
REMARK SMILES IDX 41 56 44 57 58 58 77 59 42 60 43 61 57 63 78 64 45 65 29 66
REMARK SMILES IDX 30 67 38 68 31 69 33 70 39 71 32 72 34 73 35 74 36 75 37 76
REMARK SMILES IDX 61 77 62 78 70 79 63 80 65 81 71 82 64 83 66 84 67 85 68 86
REMARK SMILES IDX 69 87 46 88 47 89 55 90 48 91 50 92 56 93 49 94 51 95 52 96
REMARK SMILES IDX 53 97 54 98
REMARK H PARENT 4 14 4 15 76 51 44 62
REMARK Flexibility Score: inf
ROOT
ATOM      1  C   UNL     1       3.929  -2.162   0.501  1.00  0.00     0.188 C 
ENDROOT
BRANCH   1   2
ATOM      2  O   UNL     1       4.802  -2.442   1.581  1.00  0.00    -0.376 OA
BRANCH   2   3
ATOM      3  C   UNL     1       4.976  -3.791   1.997  1.00  0.00     0.202 C 
BRANCH   3   4
ATOM      4  C   UNL     1       3.762  -4.724   2.190  1.00  0.00     0.261 C 
BRANCH   4   5
ATOM      5  O   UNL     1       2.885  -4.906   1.051  1.00  0.00    -0.459 OA
BRANCH   5   6
ATOM      6  C   UNL     1       1.598  -4.511   1.233  1.00  0.00     0.368 C 
ATOM      7  O   UNL     1       1.178  -4.029   2.285  1.00  0.00    -0.245 OA
BRANCH   6   8
ATOM      8  C   UNL     1       0.647  -4.697   0.000  1.00  0.00     0.195 C 
ATOM      9  C   UNL     1      -0.315  -5.855   0.342  1.00  0.00     0.082 C 
ATOM     10  C   UNL     1       1.252  -5.164  -1.338  1.00  0.00     0.096 C 
ATOM     11  C   UNL     1       0.394  -7.114  -0.141  1.00  0.00     0.022 C 
ATOM     12  C   UNL     1       1.169  -6.687  -1.380  1.00  0.00     0.059 C 
BRANCH   8  13
ATOM     13  N   UNL     1      -0.195  -3.465  -0.072  1.00  0.00    -0.332 N 
ATOM     14  H   UNL     1      -1.143  -3.757  -0.308  1.00  0.00     0.347 HD
ATOM     15  H   UNL     1      -0.085  -3.025   0.842  1.00  0.00     0.347 HD
BRANCH  13  16
ATOM     16  C   UNL     1       0.193  -2.432  -1.025  1.00  0.00     0.261 C 
BRANCH  16  17
ATOM     17  C   UNL     1      -0.402  -1.066  -0.672  1.00  0.00     0.058 C 
ATOM     18  C   UNL     1       0.312  -0.403   0.495  1.00  0.00     0.010 C 
ENDBRANCH  16  17
ENDBRANCH  13  16
ENDBRANCH   8  13
BRANCH  12  19
ATOM     19  S   UNL     1       0.580  -7.330  -3.003  1.00  0.00    -0.122 SA
BRANCH  19  20
ATOM     20  C   UNL     1      -1.147  -6.885  -3.028  1.00  0.00     0.008 A 
ATOM     21  C   UNL     1      -2.096  -7.893  -2.833  1.00  0.00     0.016 A 
ATOM     22  C   UNL     1      -1.585  -5.590  -3.328  1.00  0.00     0.016 A 
ATOM     23  C   UNL     1      -3.462  -7.602  -2.885  1.00  0.00     0.021 A 
ATOM     24  C   UNL     1      -2.951  -5.290  -3.360  1.00  0.00     0.021 A 
ATOM     25  C   UNL     1      -3.884  -6.299  -3.136  1.00  0.00     0.041 A 
ATOM     26  Cl  UNL     1      -5.566  -5.943  -3.191  1.00  0.00    -0.084 Cl
ENDBRANCH  19  20
ENDBRANCH  12  19
ENDBRANCH   6   8
ENDBRANCH   5   6
ENDBRANCH   4   5
ENDBRANCH   3   4
ENDBRANCH   2   3
ENDBRANCH   1   2
BRANCH   1  27
ATOM     27  C   UNL     1       4.072  -2.982  -0.783  1.00  0.00     0.188 C 
BRANCH  27  28
ATOM     28  O   UNL     1       4.932  -4.091  -0.724  1.00  0.00    -0.376 OA
BRANCH  28  29
ATOM     29  C   UNL     1       6.195  -4.031  -1.363  1.00  0.00     0.202 C 
BRANCH  29  30
ATOM     30  C   UNL     1       6.987  -2.725  -1.598  1.00  0.00     0.261 C 
BRANCH  30  31
ATOM     31  O   UNL     1       6.264  -1.488  -1.665  1.00  0.00    -0.460 OA
BRANCH  31  32
ATOM     32  C   UNL     1       5.734  -1.154  -2.871  1.00  0.00     0.338 C 
ATOM     33  O   UNL     1       5.809  -1.796  -3.898  1.00  0.00    -0.246 OA
BRANCH  32  34
ATOM     34  C   UNL     1       4.817  -0.003  -2.663  1.00  0.00     0.060 A 
ATOM     35  C   UNL     1       3.453  -0.175  -2.945  1.00  0.00     0.016 A 
ATOM     36  C   UNL     1       5.285   1.223  -2.188  1.00  0.00     0.016 A 
ATOM     37  C   UNL     1       2.560   0.884  -2.767  1.00  0.00     0.010 A 
ATOM     38  C   UNL     1       4.393   2.294  -2.044  1.00  0.00     0.010 A 
ATOM     39  C   UNL     1       3.030   2.137  -2.352  1.00  0.00    -0.014 A 
BRANCH  39  40
ATOM     40  C   UNL     1       2.124   3.313  -2.417  1.00  0.00     0.031 A 
ATOM     41  C   UNL     1       2.099   4.130  -3.677  1.00  0.00     0.074 A 
ATOM     42  C   UNL     1       1.317   3.644  -1.393  1.00  0.00     0.049 A 
ATOM     43  N   UNL     1       1.419   5.211  -3.948  1.00  0.00    -0.248 NA
ATOM     44  C   UNL     1       2.965   3.668  -4.774  1.00  0.00     0.031 C 
ATOM     45  C   UNL     1       1.244   2.932  -0.124  1.00  0.00     0.029 A 
ATOM     46  N   UNL     1       0.405   4.664  -1.258  1.00  0.00    -0.354 N 
ATOM     47  C   UNL     1       1.813   5.594  -5.223  1.00  0.00     0.074 A 
ATOM     48  C   UNL     1       2.770   4.611  -5.684  1.00  0.00     0.031 C 
ATOM     49  C   UNL     1       0.314   3.513   0.654  1.00  0.00     0.029 A 
ATOM     50  C   UNL     1      -0.225   4.685  -0.033  1.00  0.00     0.049 A 
ATOM     51  H   UNL     1       0.220   5.318  -1.970  1.00  0.00     0.167 HD
ATOM     52  C   UNL     1       1.427   6.676  -5.938  1.00  0.00     0.034 A 
ATOM     53  C   UNL     1      -1.104   5.567   0.487  1.00  0.00     0.034 A 
ATOM     54  C   UNL     1       0.483   7.657  -5.479  1.00  0.00     0.049 A 
ATOM     55  C   UNL     1      -1.504   6.772  -0.330  1.00  0.00     0.074 A 
ATOM     56  C   UNL     1       0.035   8.790  -6.136  1.00  0.00     0.029 A 
ATOM     57  N   UNL     1      -0.143   7.639  -4.243  1.00  0.00    -0.354 N 
ATOM     58  N   UNL     1      -1.170   7.087  -1.558  1.00  0.00    -0.248 NA
ATOM     59  C   UNL     1      -2.401   7.746   0.312  1.00  0.00     0.031 C 
ATOM     60  C   UNL     1      -0.832   9.477  -5.282  1.00  0.00     0.029 A 
ATOM     61  C   UNL     1      -0.965   8.746  -4.113  1.00  0.00     0.049 A 
ATOM     62  H   UNL     1      -0.022   6.942  -3.558  1.00  0.00     0.167 HD
ATOM     63  C   UNL     1      -1.830   8.279  -1.840  1.00  0.00     0.074 A 
ATOM     64  C   UNL     1      -2.611   8.613  -0.668  1.00  0.00     0.031 C 
ATOM     65  C   UNL     1      -1.776   9.042  -2.960  1.00  0.00     0.034 A 
BRANCH  52  66
ATOM     66  C   UNL     1       2.062   6.874  -7.287  1.00  0.00     0.023 A 
ATOM     67  C   UNL     1       1.703   6.045  -8.368  1.00  0.00     0.012 A 
ATOM     68  C   UNL     1       2.993   7.912  -7.487  1.00  0.00     0.148 A 
ATOM     69  C   UNL     1       2.287   6.225  -9.621  1.00  0.00     0.002 A 
ATOM     70  C   UNL     1       3.534   8.116  -8.749  1.00  0.00     0.091 A 
ATOM     71  F   UNL     1       3.337   8.672  -6.438  1.00  0.00    -0.205 F 
ATOM     72  C   UNL     1       3.193   7.266  -9.814  1.00  0.00     0.022 A 
BRANCH  70  73
ATOM     73  S   UNL     1       4.649   9.474  -9.116  1.00  0.00     0.127 S 
ATOM     74  O   UNL     1       5.898   8.764  -9.392  1.00  0.00    -0.237 OA
ATOM     75  O   UNL     1       4.019  10.078 -10.289  1.00  0.00    -0.237 OA
ATOM     76  O   UNL     1       4.664  10.317  -7.929  1.00  0.00    -0.744 OA
ENDBRANCH  70  73
ENDBRANCH  52  66
BRANCH  53  77
ATOM     77  C   UNL     1      -1.660   5.375   1.861  1.00  0.00     0.023 A 
ATOM     78  C   UNL     1      -3.045   5.174   2.036  1.00  0.00     0.012 A 
ATOM     79  C   UNL     1      -0.830   5.417   2.997  1.00  0.00     0.148 A 
ATOM     80  C   UNL     1      -3.594   5.058   3.315  1.00  0.00     0.002 A 
ATOM     81  C   UNL     1      -1.373   5.230   4.263  1.00  0.00     0.091 A 
ATOM     82  F   UNL     1       0.479   5.643   2.820  1.00  0.00    -0.205 F 
ATOM     83  C   UNL     1      -2.757   5.073   4.427  1.00  0.00     0.022 A 
BRANCH  81  84
ATOM     84  S   UNL     1      -0.351   5.097   5.733  1.00  0.00     0.127 S 
ATOM     85  O   UNL     1      -0.656   6.347   6.425  1.00  0.00    -0.237 OA
ATOM     86  O   UNL     1      -0.889   3.893   6.367  1.00  0.00    -0.237 OA
ATOM     87  O   UNL     1       1.016   4.959   5.249  1.00  0.00    -0.744 OA
ENDBRANCH  81  84
ENDBRANCH  53  77
BRANCH  65  88
ATOM     88  C   UNL     1      -2.619  10.292  -3.004  1.00  0.00     0.023 A 
ATOM     89  C   UNL     1      -2.271  11.411  -2.222  1.00  0.00     0.012 A 
ATOM     90  C   UNL     1      -3.713  10.381  -3.889  1.00  0.00     0.148 A 
ATOM     91  C   UNL     1      -3.019  12.586  -2.294  1.00  0.00     0.002 A 
ATOM     92  C   UNL     1      -4.420  11.572  -3.995  1.00  0.00     0.091 A 
ATOM     93  F   UNL     1      -4.038   9.300  -4.613  1.00  0.00    -0.205 F 
ATOM     94  C   UNL     1      -4.083  12.671  -3.189  1.00  0.00     0.022 A 
BRANCH  92  95
ATOM     95  S   UNL     1      -5.740  11.806  -5.191  1.00  0.00     0.127 S 
ATOM     96  O   UNL     1      -6.916  11.876  -4.325  1.00  0.00    -0.237 OA
ATOM     97  O   UNL     1      -5.367  13.075  -5.817  1.00  0.00    -0.237 OA
ATOM     98  O   UNL     1      -5.688  10.654  -6.080  1.00  0.00    -0.744 OA
ENDBRANCH  92  95
ENDBRANCH  65  88
ENDBRANCH  39  40
ENDBRANCH  32  34
ENDBRANCH  31  32
ENDBRANCH  30  31
ENDBRANCH  29  30
ENDBRANCH  28  29
ENDBRANCH  27  28
ENDBRANCH   1  27
TORSDOF 25
