REMARK SMILES O=C(C[C@@H]1C(=O)O[C@H]2[C@@H]3OC(=O)c4cc(O)c(O)c(O)c4-c4ccccc4C(=O)OC[C@H]2O[C@@H](OC(=O)c2cc(O)c(O)c(O)c2)[C@@H]3OC(=O)c2cc(O)c(O)c3c2[C@H]1[C@H](O)C(=O)O3)OCCOCCOCCOC(=O)c1ccc(-c2c3nc(c(-c4cccc(S(=O)(=O)[O-])c4F)c4ccc([nH]4)c(-c4cccc(S(=O)(=O)[O-])c4F)c4nc(c(-c5cccc(S(=O)(=O)[O-])c5F)c5ccc2[nH]5)C=C4)C=C3)cc1
REMARK SMILES IDX 65 1 2 2 1 3 3 4 4 5 59 7 58 8 60 9 51 10 57 11 62 12 52 13
REMARK SMILES IDX 55 14 64 15 63 16 53 17 61 18 49 20 50 21 48 22 47 23 9 24
REMARK SMILES IDX 34 25 8 26 33 27 32 28 10 30 11 31 12 32 13 33 14 34 21 35
REMARK SMILES IDX 15 36 19 37 17 38 22 39 23 40 27 41 24 42 26 43 25 44 28 45
REMARK SMILES IDX 29 46 30 47 31 48 16 50 20 52 18 54 35 56 36 57 37 58 38 59
REMARK SMILES IDX 39 60 46 61 40 62 44 63 42 64 41 65 45 67 43 69 7 71 5 72
REMARK SMILES IDX 6 73 56 75 54 77 66 79 67 80 68 81 69 82 70 83 71 84 72 85
REMARK SMILES IDX 73 86 74 87 75 88 76 89 77 90 78 91 139 92 79 93 138 94
REMARK SMILES IDX 80 95 81 96 82 97 132 98 83 99 137 100 131 101 133 102
REMARK SMILES IDX 84 103 136 104 130 105 129 106 85 108 117 109 97 110 116 111
REMARK SMILES IDX 98 112 101 113 115 114 134 115 99 116 100 117 114 119
REMARK SMILES IDX 135 120 102 121 86 122 87 123 95 124 88 125 90 126 96 127
REMARK SMILES IDX 89 128 91 129 92 130 93 131 94 132 118 133 119 134 127 135
REMARK SMILES IDX 120 136 122 137 128 138 121 139 123 140 124 141 125 142
REMARK SMILES IDX 126 143 103 144 104 145 112 146 105 147 107 148 113 149
REMARK SMILES IDX 106 150 108 151 109 152 110 153 111 154
REMARK H PARENT 61 19 16 51 20 53 18 55 41 66 45 68 43 70 56 76 54 78 133 107
REMARK H PARENT 101 118
REMARK Flexibility Score: 170.00
ROOT
ATOM      1  O   UNL     1       4.434   0.843   3.109  1.00  0.00    -0.463 OA
ENDROOT
BRANCH   1   2
ATOM      2  C   UNL     1       4.093   1.849   3.950  1.00  0.00     0.306 C 
ATOM      3  O   UNL     1       4.342   1.930   5.137  1.00  0.00    -0.252 OA
BRANCH   2   4
ATOM      4  C   UNL     1       3.236   2.818   3.170  1.00  0.00     0.138 C 
BRANCH   4   5
ATOM      5  C   UNL     1       3.564   2.727   1.700  1.00  0.00     0.121 CG0
ATOM      6  G   UNL     1       2.655   1.913   0.776  1.00  0.00     0.000 G0
BRANCH   5   7
ATOM      7  C   UNL     1       5.073   2.841   1.327  1.00  0.00     0.079 C 
ATOM      8  C   UNL     1       5.428   4.255   1.753  1.00  0.00     0.021 A 
ATOM      9  C   UNL     1       6.306   1.904   1.520  1.00  0.00     0.232 C 
ATOM     10  C   UNL     1       4.773   5.451   1.294  1.00  0.00     0.071 A 
ATOM     11  C   UNL     1       6.150   4.304   2.965  1.00  0.00     0.180 A 
ATOM     12  C   UNL     1       6.992   1.979   2.874  1.00  0.00     0.341 C 
ATOM     13  C   UNL     1       4.705   6.545   2.174  1.00  0.00     0.066 A 
ATOM     14  C   UNL     1       6.101   5.417   3.788  1.00  0.00     0.201 A 
ATOM     15  O   UNL     1       6.870   3.210   3.500  1.00  0.00    -0.420 OA
ATOM     16  O   UNL     1       7.660   1.069   3.357  1.00  0.00    -0.249 OA
ATOM     17  C   UNL     1       5.337   6.505   3.412  1.00  0.00     0.162 A 
BRANCH   9  18
ATOM     18  O   UNL     1       6.071   0.595   1.008  1.00  0.00    -0.381 OA
ATOM     19  H   UNL     1       5.379   0.162   1.532  1.00  0.00     0.211 HD
ENDBRANCH   9  18
BRANCH  10  20
ATOM     20  C   UNL     1       4.151   5.734  -0.063  1.00  0.00     0.339 C 
ATOM     21  O   UNL     1       4.134   6.846  -0.554  1.00  0.00    -0.246 OA
BRANCH  20  22
ATOM     22  O   UNL     1       3.593   4.668  -0.657  1.00  0.00    -0.448 OA
BRANCH  22  23
ATOM     23  C   UNL     1       4.003   4.301  -2.030  1.00  0.00     0.290 C 
ATOM     24  C   UNL     1       3.006   3.322  -2.602  1.00  0.00     0.267 C 
ATOM     25  C   UNL     1       5.308   3.528  -1.856  1.00  0.00     0.357 C 
ATOM     26  C   UNL     1       2.816   2.111  -1.664  1.00  0.00     0.254 C 
ATOM     27  O   UNL     1       5.262   2.071  -2.110  1.00  0.00    -0.329 OA
ATOM     28  C   UNL     1       4.067   1.263  -1.736  1.00  0.00     0.205 CG1
ATOM     29  G   UNL     1       3.664  -0.017  -2.630  1.00  0.00     0.000 G1
BRANCH  24  30
ATOM     30  O   UNL     1       3.253   3.038  -4.022  1.00  0.00    -0.450 OA
BRANCH  30  31
ATOM     31  C   UNL     1       4.136   2.268  -4.710  1.00  0.00     0.339 C 
ATOM     32  O   UNL     1       5.288   2.016  -4.477  1.00  0.00    -0.246 OA
BRANCH  31  33
ATOM     33  C   UNL     1       3.429   1.657  -5.879  1.00  0.00     0.075 A 
ATOM     34  C   UNL     1       4.169   0.794  -6.711  1.00  0.00     0.066 A 
ATOM     35  C   UNL     1       2.050   1.858  -6.114  1.00  0.00     0.043 A 
ATOM     36  C   UNL     1       3.591   0.323  -7.877  1.00  0.00     0.162 A 
ATOM     37  C   UNL     1       1.567   1.529  -7.380  1.00  0.00     0.170 A 
ATOM     38  C   UNL     1       2.333   0.767  -8.250  1.00  0.00     0.200 A 
BRANCH  35  39
ATOM     39  C   UNL     1       1.098   2.274  -5.066  1.00  0.00     0.001 A 
ATOM     40  C   UNL     1       0.728   3.636  -5.000  1.00  0.00     0.010 A 
ATOM     41  C   UNL     1       0.625   1.392  -4.056  1.00  0.00     0.068 A 
ATOM     42  C   UNL     1      -0.127   4.099  -4.002  1.00  0.00     0.001 A 
ATOM     43  C   UNL     1      -0.351   1.860  -3.146  1.00  0.00     0.016 A 
ATOM     44  C   UNL     1      -0.706   3.210  -3.109  1.00  0.00     0.001 A 
BRANCH  41  45
ATOM     45  C   UNL     1       1.341   0.113  -3.617  1.00  0.00     0.338 C 
ATOM     46  O   UNL     1       0.805  -0.767  -2.964  1.00  0.00    -0.246 OA
BRANCH  45  47
ATOM     47  O   UNL     1       2.692   0.318  -3.697  1.00  0.00    -0.459 OA
BRANCH  47  48
ATOM     48  C   UNL     1       3.664  -0.017  -2.630  1.00  0.00     0.269 CG1
ATOM     49  G   UNL     1       4.067   1.263  -1.736  1.00  0.00     0.000 G1
ENDBRANCH  47  48
ENDBRANCH  45  47
ENDBRANCH  41  45
ENDBRANCH  35  39
BRANCH  36  50
ATOM     50  O   UNL     1       4.270  -0.550  -8.673  1.00  0.00    -0.504 OA
ATOM     51  H   UNL     1       5.121  -0.850  -8.421  1.00  0.00     0.293 HD
ENDBRANCH  36  50
BRANCH  37  52
ATOM     52  O   UNL     1       0.334   1.925  -7.830  1.00  0.00    -0.504 OA
ATOM     53  H   UNL     1       0.048   1.682  -8.688  1.00  0.00     0.293 HD
ENDBRANCH  37  52
BRANCH  38  54
ATOM     54  O   UNL     1       1.837   0.438  -9.480  1.00  0.00    -0.502 OA
ATOM     55  H   UNL     1       2.352  -0.077 -10.071  1.00  0.00     0.293 HD
ENDBRANCH  38  54
ENDBRANCH  31  33
ENDBRANCH  30  31
ENDBRANCH  24  30
BRANCH  25  56
ATOM     56  O   UNL     1       6.424   4.379  -2.252  1.00  0.00    -0.428 OA
BRANCH  56  57
ATOM     57  C   UNL     1       7.455   4.438  -1.351  1.00  0.00     0.340 C 
ATOM     58  O   UNL     1       7.949   3.471  -0.798  1.00  0.00    -0.246 OA
BRANCH  57  59
ATOM     59  C   UNL     1       7.807   5.832  -0.926  1.00  0.00     0.067 A 
ATOM     60  C   UNL     1       8.017   6.814  -1.887  1.00  0.00     0.066 A 
ATOM     61  C   UNL     1       8.012   6.149   0.442  1.00  0.00     0.066 A 
ATOM     62  C   UNL     1       8.459   8.076  -1.493  1.00  0.00     0.162 A 
ATOM     63  C   UNL     1       8.366   7.448   0.821  1.00  0.00     0.162 A 
ATOM     64  C   UNL     1       8.620   8.403  -0.152  1.00  0.00     0.200 A 
BRANCH  62  65
ATOM     65  O   UNL     1       8.772   8.984  -2.459  1.00  0.00    -0.504 OA
ATOM     66  H   UNL     1       8.663   8.762  -3.363  1.00  0.00     0.293 HD
ENDBRANCH  62  65
BRANCH  63  67
ATOM     67  O   UNL     1       8.513   7.824   2.129  1.00  0.00    -0.504 OA
ATOM     68  H   UNL     1       8.752   8.705   2.340  1.00  0.00     0.293 HD
ENDBRANCH  63  67
BRANCH  64  69
ATOM     69  O   UNL     1       9.053   9.654   0.196  1.00  0.00    -0.502 OA
ATOM     70  H   UNL     1       9.222  10.292  -0.468  1.00  0.00     0.293 HD
ENDBRANCH  64  69
ENDBRANCH  57  59
ENDBRANCH  56  57
ENDBRANCH  25  56
BRANCH  26  71
ATOM     71  O   UNL     1       2.513   2.629  -0.360  1.00  0.00    -0.455 OA
BRANCH  71  72
ATOM     72  C   UNL     1       2.655   1.913   0.776  1.00  0.00     0.310 CG0
ATOM     73  O   UNL     1       1.970   0.946   1.033  1.00  0.00    -0.252 OA
ATOM     74  G   UNL     1       3.564   2.727   1.700  1.00  0.00     0.000 G0
ENDBRANCH  71  72
ENDBRANCH  26  71
ENDBRANCH  22  23
ENDBRANCH  20  22
ENDBRANCH  10  20
BRANCH  14  75
ATOM     75  O   UNL     1       6.738   5.446   4.996  1.00  0.00    -0.502 OA
ATOM     76  H   UNL     1       6.688   6.213   5.533  1.00  0.00     0.293 HD
ENDBRANCH  14  75
BRANCH  17  77
ATOM     77  O   UNL     1       5.207   7.561   4.262  1.00  0.00    -0.504 OA
ATOM     78  H   UNL     1       4.691   8.302   4.013  1.00  0.00     0.293 HD
ENDBRANCH  17  77
ENDBRANCH   5   7
ENDBRANCH   4   5
ENDBRANCH   2   4
ENDBRANCH   1   2
BRANCH   1  79
ATOM     79  C   UNL     1       4.461  -0.564   3.425  1.00  0.00     0.261 C 
BRANCH  79  80
ATOM     80  C   UNL     1       3.278  -1.211   2.695  1.00  0.00     0.202 C 
BRANCH  80  81
ATOM     81  O   UNL     1       2.085  -1.197   3.465  1.00  0.00    -0.376 OA
BRANCH  81  82
ATOM     82  C   UNL     1       1.620   0.068   3.888  1.00  0.00     0.188 C 
BRANCH  82  83
ATOM     83  C   UNL     1       1.484   0.245   5.405  1.00  0.00     0.188 C 
BRANCH  83  84
ATOM     84  O   UNL     1       0.912  -0.814   6.154  1.00  0.00    -0.376 OA
BRANCH  84  85
ATOM     85  C   UNL     1       0.227  -1.809   5.418  1.00  0.00     0.202 C 
BRANCH  85  86
ATOM     86  C   UNL     1      -1.103  -1.395   4.743  1.00  0.00     0.261 C 
BRANCH  86  87
ATOM     87  O   UNL     1      -1.173  -0.227   3.874  1.00  0.00    -0.460 OA
BRANCH  87  88
ATOM     88  C   UNL     1      -1.519   0.978   4.413  1.00  0.00     0.338 C 
ATOM     89  O   UNL     1      -1.734   1.181   5.597  1.00  0.00    -0.246 OA
BRANCH  88  90
ATOM     90  C   UNL     1      -1.516   2.093   3.397  1.00  0.00     0.060 A 
ATOM     91  C   UNL     1      -2.379   2.075   2.300  1.00  0.00     0.016 A 
ATOM     92  C   UNL     1      -0.764   3.261   3.619  1.00  0.00     0.016 A 
ATOM     93  C   UNL     1      -2.508   3.214   1.464  1.00  0.00     0.010 A 
ATOM     94  C   UNL     1      -0.889   4.398   2.775  1.00  0.00     0.010 A 
ATOM     95  C   UNL     1      -1.784   4.406   1.693  1.00  0.00    -0.014 A 
BRANCH  95  96
ATOM     96  C   UNL     1      -2.139   5.668   0.934  1.00  0.00     0.031 A 
ATOM     97  C   UNL     1      -1.247   6.321  -0.109  1.00  0.00     0.074 A 
ATOM     98  C   UNL     1      -3.322   6.274   1.192  1.00  0.00     0.049 A 
ATOM     99  N   UNL     1      -1.547   7.264  -0.977  1.00  0.00    -0.248 NA
ATOM    100  C   UNL     1       0.149   5.873  -0.197  1.00  0.00     0.031 C 
ATOM    101  C   UNL     1      -4.272   5.858   2.225  1.00  0.00     0.029 A 
ATOM    102  N   UNL     1      -3.926   7.371   0.613  1.00  0.00    -0.354 N 
ATOM    103  C   UNL     1      -0.398   7.498  -1.732  1.00  0.00     0.074 A 
ATOM    104  C   UNL     1       0.620   6.625  -1.190  1.00  0.00     0.031 C 
ATOM    105  C   UNL     1      -5.338   6.676   2.200  1.00  0.00     0.029 A 
ATOM    106  C   UNL     1      -5.152   7.685   1.157  1.00  0.00     0.049 A 
ATOM    107  H   UNL     1      -3.518   7.883  -0.122  1.00  0.00     0.167 HD
ATOM    108  C   UNL     1      -0.214   8.330  -2.792  1.00  0.00     0.034 A 
ATOM    109  C   UNL     1      -6.039   8.660   0.865  1.00  0.00     0.034 A 
ATOM    110  C   UNL     1      -1.192   9.255  -3.299  1.00  0.00     0.049 A 
ATOM    111  C   UNL     1      -5.786   9.616  -0.269  1.00  0.00     0.074 A 
ATOM    112  C   UNL     1      -1.084  10.086  -4.404  1.00  0.00     0.029 A 
ATOM    113  N   UNL     1      -2.416   9.522  -2.718  1.00  0.00    -0.354 N 
ATOM    114  N   UNL     1      -4.790   9.635  -1.118  1.00  0.00    -0.248 NA
ATOM    115  C   UNL     1      -6.794  10.664  -0.508  1.00  0.00     0.031 C 
ATOM    116  C   UNL     1      -2.226  10.885  -4.467  1.00  0.00     0.029 A 
ATOM    117  C   UNL     1      -3.055  10.529  -3.418  1.00  0.00     0.049 A 
ATOM    118  H   UNL     1      -2.778   9.064  -1.925  1.00  0.00     0.167 HD
ATOM    119  C   UNL     1      -5.066  10.671  -2.006  1.00  0.00     0.074 A 
ATOM    120  C   UNL     1      -6.324  11.256  -1.600  1.00  0.00     0.031 C 
ATOM    121  C   UNL     1      -4.329  11.091  -3.060  1.00  0.00     0.034 A 
BRANCH 108 122
ATOM    122  C   UNL     1       1.065   8.247  -3.593  1.00  0.00     0.023 A 
ATOM    123  C   UNL     1       1.065   7.412  -4.730  1.00  0.00     0.012 A 
ATOM    124  C   UNL     1       2.143   9.127  -3.399  1.00  0.00     0.148 A 
ATOM    125  C   UNL     1       2.151   7.364  -5.601  1.00  0.00     0.002 A 
ATOM    126  C   UNL     1       3.201   9.121  -4.307  1.00  0.00     0.091 A 
ATOM    127  F   UNL     1       2.089   9.987  -2.372  1.00  0.00    -0.205 F 
ATOM    128  C   UNL     1       3.222   8.217  -5.385  1.00  0.00     0.022 A 
BRANCH 126 129
ATOM    129  S   UNL     1       4.545  10.311  -4.259  1.00  0.00     0.127 S 
ATOM    130  O   UNL     1       5.677   9.454  -3.916  1.00  0.00    -0.237 OA
ATOM    131  O   UNL     1       4.556  10.814  -5.633  1.00  0.00    -0.237 OA
ATOM    132  O   UNL     1       4.175  11.296  -3.252  1.00  0.00    -0.744 OA
ENDBRANCH 126 129
ENDBRANCH 108 122
BRANCH 109 133
ATOM    133  C   UNL     1      -7.303   8.753   1.648  1.00  0.00     0.023 A 
ATOM    134  C   UNL     1      -8.518   8.348   1.064  1.00  0.00     0.012 A 
ATOM    135  C   UNL     1      -7.293   9.206   2.981  1.00  0.00     0.148 A 
ATOM    136  C   UNL     1      -9.705   8.395   1.796  1.00  0.00     0.002 A 
ATOM    137  C   UNL     1      -8.472   9.217   3.715  1.00  0.00     0.091 A 
ATOM    138  F   UNL     1      -6.123   9.596   3.506  1.00  0.00    -0.205 F 
ATOM    139  C   UNL     1      -9.680   8.817   3.123  1.00  0.00     0.022 A 
BRANCH 137 140
ATOM    140  S   UNL     1      -8.527   9.677   5.449  1.00  0.00     0.127 S 
ATOM    141  O   UNL     1      -9.369  10.870   5.413  1.00  0.00    -0.237 OA
ATOM    142  O   UNL     1      -9.153   8.498   6.049  1.00  0.00    -0.237 OA
ATOM    143  O   UNL     1      -7.144   9.899   5.845  1.00  0.00    -0.744 OA
ENDBRANCH 137 140
ENDBRANCH 109 133
BRANCH 121 144
ATOM    144  C   UNL     1      -4.831  12.228  -3.906  1.00  0.00     0.023 A 
ATOM    145  C   UNL     1      -4.694  13.552  -3.449  1.00  0.00     0.012 A 
ATOM    146  C   UNL     1      -5.263  11.989  -5.227  1.00  0.00     0.148 A 
ATOM    147  C   UNL     1      -4.974  14.623  -4.298  1.00  0.00     0.002 A 
ATOM    148  C   UNL     1      -5.507  13.060  -6.077  1.00  0.00     0.091 A 
ATOM    149  F   UNL     1      -5.382  10.717  -5.636  1.00  0.00    -0.205 F 
ATOM    150  C   UNL     1      -5.364  14.378  -5.614  1.00  0.00     0.022 A 
BRANCH 148 151
ATOM    151  S   UNL     1      -5.935  12.841  -7.808  1.00  0.00     0.127 S 
ATOM    152  O   UNL     1      -7.304  13.354  -7.842  1.00  0.00    -0.237 OA
ATOM    153  O   UNL     1      -4.948  13.686  -8.480  1.00  0.00    -0.237 OA
ATOM    154  O   UNL     1      -5.802  11.416  -8.081  1.00  0.00    -0.744 OA
ENDBRANCH 148 151
ENDBRANCH 121 144
ENDBRANCH  95  96
ENDBRANCH  88  90
ENDBRANCH  87  88
ENDBRANCH  86  87
ENDBRANCH  85  86
ENDBRANCH  84  85
ENDBRANCH  83  84
ENDBRANCH  82  83
ENDBRANCH  81  82
ENDBRANCH  80  81
ENDBRANCH  79  80
ENDBRANCH   1  79
TORSDOF 33
