REMARK SMILES O=C(CSc1nnc(-c2cccc(C(F)(F)F)c2F)o1)OCCOCCOCCOC(=O)c1ccc(-c2c3nc(c(-c4cccc(S(=O)(=O)[O-])c4F)c4ccc([nH]4)c(-c4cccc(S(=O)(=O)[O-])c4F)c4nc(c(-c5cccc(S(=O)(=O)[O-])c5F)c5ccc2[nH]5)C=C4)C=C3)cc1
REMARK SMILES IDX 25 1 24 2 23 3 22 4 21 5 2 6 1 7 3 8 4 9 5 10 6 11 20 12
REMARK SMILES IDX 7 13 8 14 9 15 10 16 18 17 11 18 13 19 19 20 12 21 14 22
REMARK SMILES IDX 15 23 16 24 17 25 26 26 27 27 28 28 29 29 30 30 31 31 32 32
REMARK SMILES IDX 33 33 34 34 95 35 35 36 94 37 36 38 37 39 38 40 88 41 39 42
REMARK SMILES IDX 93 43 87 44 89 45 40 46 92 47 86 48 85 49 41 51 73 52 53 53
REMARK SMILES IDX 72 54 54 55 57 56 71 57 90 58 55 59 56 60 70 62 91 63 58 64
REMARK SMILES IDX 42 65 43 66 51 67 44 68 46 69 52 70 45 71 47 72 48 73 49 74
REMARK SMILES IDX 50 75 74 76 75 77 83 78 76 79 78 80 84 81 77 82 79 83 80 84
REMARK SMILES IDX 81 85 82 86 59 87 60 88 68 89 61 90 63 91 69 92 62 93 64 94
REMARK SMILES IDX 65 95 66 96 67 97
REMARK H PARENT 89 50 57 61
REMARK Flexibility Score: inf
ROOT
ATOM      1  C   UNL     1       2.967   0.671  -1.624  1.00  0.00     0.188 C 
ENDROOT
BRANCH   1   2
ATOM      2  O   UNL     1       4.322   0.265  -1.580  1.00  0.00    -0.376 OA
BRANCH   2   3
ATOM      3  C   UNL     1       4.961   0.185  -0.321  1.00  0.00     0.202 C 
BRANCH   3   4
ATOM      4  C   UNL     1       4.511  -1.033   0.483  1.00  0.00     0.261 C 
BRANCH   4   5
ATOM      5  O   UNL     1       3.130  -1.066   0.920  1.00  0.00    -0.463 OA
BRANCH   5   6
ATOM      6  C   UNL     1       2.431  -0.163   1.642  1.00  0.00     0.316 C 
ATOM      7  O   UNL     1       1.236  -0.363   1.855  1.00  0.00    -0.251 OA
BRANCH   6   8
ATOM      8  C   UNL     1       3.096   1.099   2.132  1.00  0.00     0.202 C 
BRANCH   8   9
ATOM      9  S   UNL     1       4.414   0.732   3.318  1.00  0.00    -0.054 SA
BRANCH   9  10
ATOM     10  C   UNL     1       3.388   0.017   4.514  1.00  0.00     0.277 A 
ATOM     11  N   UNL     1       3.483  -1.219   4.955  1.00  0.00    -0.101 NA
ATOM     12  O   UNL     1       2.304   0.676   5.010  1.00  0.00    -0.411 OA
ATOM     13  N   UNL     1       2.430  -1.395   5.835  1.00  0.00    -0.107 NA
ATOM     14  C   UNL     1       1.754  -0.263   5.827  1.00  0.00     0.251 A 
BRANCH  14  15
ATOM     15  C   UNL     1       0.690   0.211   6.678  1.00  0.00     0.075 A 
ATOM     16  C   UNL     1       0.830   0.078   8.064  1.00  0.00     0.017 A 
ATOM     17  C   UNL     1      -0.435   0.863   6.159  1.00  0.00     0.148 A 
ATOM     18  C   UNL     1      -0.126   0.615   8.920  1.00  0.00     0.002 A 
ATOM     19  C   UNL     1      -1.411   1.393   7.003  1.00  0.00     0.092 A 
ATOM     20  F   UNL     1      -0.580   0.969   4.830  1.00  0.00    -0.205 F 
ATOM     21  C   UNL     1      -1.239   1.270   8.393  1.00  0.00     0.016 A 
BRANCH  19  22
ATOM     22  C   UNL     1      -2.635   2.075   6.463  1.00  0.00     0.419 C 
ATOM     23  F   UNL     1      -3.771   1.393   6.797  1.00  0.00    -0.166 F 
ATOM     24  F   UNL     1      -2.802   3.324   6.980  1.00  0.00    -0.166 F 
ATOM     25  F   UNL     1      -2.680   2.219   5.113  1.00  0.00    -0.166 F 
ENDBRANCH  19  22
ENDBRANCH  14  15
ENDBRANCH   9  10
ENDBRANCH   8   9
ENDBRANCH   6   8
ENDBRANCH   5   6
ENDBRANCH   4   5
ENDBRANCH   3   4
ENDBRANCH   2   3
ENDBRANCH   1   2
BRANCH   1  26
ATOM     26  C   UNL     1       2.269   0.216  -2.918  1.00  0.00     0.188 C 
BRANCH  26  27
ATOM     27  O   UNL     1       2.995  -0.595  -3.836  1.00  0.00    -0.376 OA
BRANCH  27  28
ATOM     28  C   UNL     1       4.268  -0.138  -4.286  1.00  0.00     0.202 C 
BRANCH  28  29
ATOM     29  C   UNL     1       4.354   1.261  -4.909  1.00  0.00     0.261 C 
BRANCH  29  30
ATOM     30  O   UNL     1       3.953   2.336  -4.035  1.00  0.00    -0.460 OA
BRANCH  30  31
ATOM     31  C   UNL     1       2.934   3.098  -4.508  1.00  0.00     0.338 C 
ATOM     32  O   UNL     1       2.336   2.954  -5.561  1.00  0.00    -0.246 OA
BRANCH  31  33
ATOM     33  C   UNL     1       2.514   4.106  -3.516  1.00  0.00     0.060 A 
ATOM     34  C   UNL     1       1.216   4.017  -2.994  1.00  0.00     0.016 A 
ATOM     35  C   UNL     1       3.310   5.220  -3.247  1.00  0.00     0.016 A 
ATOM     36  C   UNL     1       0.693   5.069  -2.240  1.00  0.00     0.010 A 
ATOM     37  C   UNL     1       2.778   6.279  -2.498  1.00  0.00     0.010 A 
ATOM     38  C   UNL     1       1.454   6.227  -2.028  1.00  0.00    -0.014 A 
BRANCH  38  39
ATOM     39  C   UNL     1       0.814   7.428  -1.433  1.00  0.00     0.031 A 
ATOM     40  C   UNL     1       0.301   8.518  -2.336  1.00  0.00     0.074 A 
ATOM     41  C   UNL     1       0.677   7.548  -0.101  1.00  0.00     0.049 A 
ATOM     42  N   UNL     1      -0.313   9.629  -2.021  1.00  0.00    -0.248 NA
ATOM     43  C   UNL     1       0.506   8.333  -3.782  1.00  0.00     0.031 C 
ATOM     44  C   UNL     1       1.129   6.566   0.881  1.00  0.00     0.029 A 
ATOM     45  N   UNL     1       0.132   8.558   0.654  1.00  0.00    -0.354 N 
ATOM     46  C   UNL     1      -0.556  10.283  -3.222  1.00  0.00     0.074 A 
ATOM     47  C   UNL     1      -0.007   9.453  -4.273  1.00  0.00     0.031 C 
ATOM     48  C   UNL     1       0.860   7.029   2.113  1.00  0.00     0.029 A 
ATOM     49  C   UNL     1       0.230   8.347   2.008  1.00  0.00     0.049 A 
ATOM     50  H   UNL     1      -0.289   9.357   0.262  1.00  0.00     0.167 HD
ATOM     51  C   UNL     1      -1.198  11.456  -3.436  1.00  0.00     0.034 A 
ATOM     52  C   UNL     1      -0.137   9.125   3.047  1.00  0.00     0.034 A 
ATOM     53  C   UNL     1      -1.767  12.272  -2.398  1.00  0.00     0.049 A 
ATOM     54  C   UNL     1      -0.831  10.438   2.788  1.00  0.00     0.074 A 
ATOM     55  C   UNL     1      -2.487  13.446  -2.530  1.00  0.00     0.029 A 
ATOM     56  N   UNL     1      -1.673  12.010  -1.041  1.00  0.00    -0.354 N 
ATOM     57  N   UNL     1      -1.171  10.976   1.643  1.00  0.00    -0.248 NA
ATOM     58  C   UNL     1      -1.223  11.235   3.962  1.00  0.00     0.031 C 
ATOM     59  C   UNL     1      -2.808  13.907  -1.250  1.00  0.00     0.029 A 
ATOM     60  C   UNL     1      -2.307  13.008  -0.322  1.00  0.00     0.049 A 
ATOM     61  H   UNL     1      -1.221  11.229  -0.646  1.00  0.00     0.167 HD
ATOM     62  C   UNL     1      -1.846  12.152   1.955  1.00  0.00     0.074 A 
ATOM     63  C   UNL     1      -1.874  12.247   3.399  1.00  0.00     0.031 C 
ATOM     64  C   UNL     1      -2.384  13.071   1.116  1.00  0.00     0.034 A 
BRANCH  51  65
ATOM     65  C   UNL     1      -1.367  11.915  -4.859  1.00  0.00     0.023 A 
ATOM     66  C   UNL     1      -2.326  11.286  -5.678  1.00  0.00     0.012 A 
ATOM     67  C   UNL     1      -0.644  13.015  -5.358  1.00  0.00     0.148 A 
ATOM     68  C   UNL     1      -2.548  11.731  -6.980  1.00  0.00     0.002 A 
ATOM     69  C   UNL     1      -0.899  13.478  -6.644  1.00  0.00     0.091 A 
ATOM     70  F   UNL     1       0.282  13.584  -4.572  1.00  0.00    -0.205 F 
ATOM     71  C   UNL     1      -1.844  12.833  -7.458  1.00  0.00     0.022 A 
BRANCH  69  72
ATOM     72  S   UNL     1      -0.095  14.939  -7.315  1.00  0.00     0.127 S 
ATOM     73  O   UNL     1       0.896  14.345  -8.211  1.00  0.00    -0.237 OA
ATOM     74  O   UNL     1      -1.199  15.620  -7.993  1.00  0.00    -0.237 OA
ATOM     75  O   UNL     1       0.442  15.657  -6.168  1.00  0.00    -0.744 OA
ENDBRANCH  69  72
ENDBRANCH  51  65
BRANCH  52  76
ATOM     76  C   UNL     1       0.089   8.631   4.435  1.00  0.00     0.023 A 
ATOM     77  C   UNL     1      -1.010   8.207   5.205  1.00  0.00     0.012 A 
ATOM     78  C   UNL     1       1.390   8.495   4.958  1.00  0.00     0.148 A 
ATOM     79  C   UNL     1      -0.819   7.662   6.475  1.00  0.00     0.002 A 
ATOM     80  C   UNL     1       1.577   7.897   6.199  1.00  0.00     0.091 A 
ATOM     81  F   UNL     1       2.421   8.916   4.211  1.00  0.00    -0.205 F 
ATOM     82  C   UNL     1       0.473   7.494   6.965  1.00  0.00     0.022 A 
BRANCH  80  83
ATOM     83  S   UNL     1       3.205   7.496   6.845  1.00  0.00     0.127 S 
ATOM     84  O   UNL     1       3.278   8.348   8.028  1.00  0.00    -0.237 OA
ATOM     85  O   UNL     1       3.070   6.065   7.121  1.00  0.00    -0.237 OA
ATOM     86  O   UNL     1       4.146   7.817   5.780  1.00  0.00    -0.744 OA
ENDBRANCH  80  83
ENDBRANCH  52  76
BRANCH  64  87
ATOM     87  C   UNL     1      -3.080  14.271   1.707  1.00  0.00     0.023 A 
ATOM     88  C   UNL     1      -2.313  15.327   2.235  1.00  0.00     0.012 A 
ATOM     89  C   UNL     1      -4.478  14.417   1.599  1.00  0.00     0.148 A 
ATOM     90  C   UNL     1      -2.926  16.508   2.652  1.00  0.00     0.002 A 
ATOM     91  C   UNL     1      -5.078  15.614   1.976  1.00  0.00     0.091 A 
ATOM     92  F   UNL     1      -5.191  13.394   1.106  1.00  0.00    -0.205 F 
ATOM     93  C   UNL     1      -4.304  16.657   2.509  1.00  0.00     0.022 A 
BRANCH  91  94
ATOM     94  S   UNL     1      -6.830  15.937   1.736  1.00  0.00     0.127 S 
ATOM     95  O   UNL     1      -7.324  15.939   3.112  1.00  0.00    -0.237 OA
ATOM     96  O   UNL     1      -6.818  17.250   1.091  1.00  0.00    -0.237 OA
ATOM     97  O   UNL     1      -7.327  14.855   0.897  1.00  0.00    -0.744 OA
ENDBRANCH  91  94
ENDBRANCH  64  87
ENDBRANCH  38  39
ENDBRANCH  31  33
ENDBRANCH  30  31
ENDBRANCH  29  30
ENDBRANCH  28  29
ENDBRANCH  27  28
ENDBRANCH  26  27
ENDBRANCH   1  26
TORSDOF 24
