REMARK SMILES N#C[C@H]1CN(C(=O)N2CCNC(=O)[C@@H]2CC(=O)OCCOCCOCCOC(=O)c2ccc(-c3c4nc(c(-c5cccc(S(=O)(=O)[O-])c5F)c5ccc([nH]5)c(-c5cccc(S(=O)(=O)[O-])c5F)c5nc(c(-c6cccc(S(=O)(=O)[O-])c6F)c6ccc3[nH]6)C=C5)C=C4)cc2)CCO1
REMARK SMILES IDX 22 1 21 2 20 3 19 4 18 5 16 6 17 7 15 8 14 9 8 10 9 11 10 12
REMARK SMILES IDX 12 13 11 14 13 15 6 17 7 18 5 19 3 20 4 21 95 22 94 23 93 24
REMARK SMILES IDX 2 25 1 26 23 27 24 28 25 29 26 30 27 31 28 32 29 33 30 34
REMARK SMILES IDX 31 35 92 36 32 37 91 38 33 39 34 40 35 41 85 42 36 43 90 44
REMARK SMILES IDX 84 45 86 46 37 47 89 48 83 49 82 50 38 52 70 53 50 54 69 55
REMARK SMILES IDX 51 56 54 57 68 58 87 59 52 60 53 61 67 63 88 64 55 65 39 66
REMARK SMILES IDX 40 67 48 68 41 69 43 70 49 71 42 72 44 73 45 74 46 75 47 76
REMARK SMILES IDX 71 77 72 78 80 79 73 80 75 81 81 82 74 83 76 84 77 85 78 86
REMARK SMILES IDX 79 87 56 88 57 89 65 90 58 91 60 92 66 93 59 94 61 95 62 96
REMARK SMILES IDX 63 97 64 98
REMARK H PARENT 11 16 86 51 54 62
REMARK Flexibility Score: inf
ROOT
ATOM      1  C   UNL     1       4.391   3.309  -6.386  1.00  0.00     0.188 C 
ENDROOT
BRANCH   1   2
ATOM      2  O   UNL     1       5.495   3.537  -7.246  1.00  0.00    -0.376 OA
BRANCH   2   3
ATOM      3  C   UNL     1       6.737   3.919  -6.668  1.00  0.00     0.202 C 
BRANCH   3   4
ATOM      4  C   UNL     1       6.770   4.993  -5.557  1.00  0.00     0.261 C 
BRANCH   4   5
ATOM      5  O   UNL     1       5.917   4.726  -4.410  1.00  0.00    -0.463 OA
BRANCH   5   6
ATOM      6  C   UNL     1       5.086   5.721  -4.024  1.00  0.00     0.308 C 
ATOM      7  O   UNL     1       5.164   6.868  -4.457  1.00  0.00    -0.252 OA
BRANCH   6   8
ATOM      8  C   UNL     1       3.882   5.301  -3.184  1.00  0.00     0.158 C 
BRANCH   8   9
ATOM      9  C   UNL     1       3.887   4.104  -2.181  1.00  0.00     0.187 C 
ATOM     10  N   UNL     1       2.788   3.083  -2.405  1.00  0.00    -0.310 N 
ATOM     11  C   UNL     1       1.432   3.643  -2.441  1.00  0.00     0.143 C 
ATOM     12  C   UNL     1       1.127   4.230  -1.069  1.00  0.00     0.137 C 
ATOM     13  C   UNL     1       3.580   4.733  -0.801  1.00  0.00     0.243 C 
ATOM     14  N   UNL     1       2.255   4.941  -0.476  1.00  0.00    -0.353 N 
ATOM     15  O   UNL     1       4.461   5.228  -0.100  1.00  0.00    -0.273 OA
ATOM     16  H   UNL     1       2.055   5.621   0.207  1.00  0.00     0.163 HD
BRANCH  10  17
ATOM     17  C   UNL     1       2.857   1.701  -2.314  1.00  0.00     0.320 C 
ATOM     18  O   UNL     1       1.896   0.985  -2.599  1.00  0.00    -0.248 OA
BRANCH  17  19
ATOM     19  N   UNL     1       4.031   1.112  -1.908  1.00  0.00    -0.319 N 
ATOM     20  C   UNL     1       3.916   0.183   0.379  1.00  0.00     0.240 C 
ATOM     21  C   UNL     1       4.487   1.298  -0.531  1.00  0.00     0.169 C 
ATOM     22  O   UNL     1       4.319  -1.116  -0.115  1.00  0.00    -0.360 OA
ATOM     23  C   UNL     1       3.800  -1.333  -1.440  1.00  0.00     0.183 C 
ATOM     24  C   UNL     1       4.312  -0.248  -2.398  1.00  0.00     0.150 C 
BRANCH  20  25
ATOM     25  C   UNL     1       4.394   0.376   1.756  1.00  0.00     0.096 C 
ATOM     26  N   UNL     1       4.764   0.564   2.845  1.00  0.00    -0.195 NA
ENDBRANCH  20  25
ENDBRANCH  17  19
ENDBRANCH  10  17
ENDBRANCH   8   9
ENDBRANCH   6   8
ENDBRANCH   5   6
ENDBRANCH   4   5
ENDBRANCH   3   4
ENDBRANCH   2   3
ENDBRANCH   1   2
BRANCH   1  27
ATOM     27  C   UNL     1       4.608   2.447  -5.131  1.00  0.00     0.188 C 
BRANCH  27  28
ATOM     28  O   UNL     1       5.923   2.053  -4.832  1.00  0.00    -0.376 OA
BRANCH  28  29
ATOM     29  C   UNL     1       6.342   0.753  -5.191  1.00  0.00     0.202 C 
BRANCH  29  30
ATOM     30  C   UNL     1       5.622  -0.118  -6.242  1.00  0.00     0.261 C 
BRANCH  30  31
ATOM     31  O   UNL     1       4.322   0.312  -6.679  1.00  0.00    -0.460 OA
BRANCH  31  32
ATOM     32  C   UNL     1       3.253  -0.393  -6.232  1.00  0.00     0.338 C 
ATOM     33  O   UNL     1       3.282  -1.411  -5.563  1.00  0.00    -0.246 OA
BRANCH  32  34
ATOM     34  C   UNL     1       1.996   0.287  -6.625  1.00  0.00     0.060 A 
ATOM     35  C   UNL     1       1.425   1.286  -5.820  1.00  0.00     0.016 A 
ATOM     36  C   UNL     1       1.309  -0.173  -7.742  1.00  0.00     0.016 A 
ATOM     37  C   UNL     1       0.164   1.807  -6.106  1.00  0.00     0.010 A 
ATOM     38  C   UNL     1       0.045   0.349  -8.032  1.00  0.00     0.010 A 
ATOM     39  C   UNL     1      -0.549   1.315  -7.198  1.00  0.00    -0.014 A 
BRANCH  39  40
ATOM     40  C   UNL     1      -1.966   1.693  -7.412  1.00  0.00     0.031 A 
ATOM     41  C   UNL     1      -3.030   0.656  -7.187  1.00  0.00     0.074 A 
ATOM     42  C   UNL     1      -2.293   2.920  -7.854  1.00  0.00     0.049 A 
ATOM     43  N   UNL     1      -4.295   0.683  -7.511  1.00  0.00    -0.248 NA
ATOM     44  C   UNL     1      -2.604  -0.587  -6.520  1.00  0.00     0.031 C 
ATOM     45  C   UNL     1      -1.357   4.022  -8.067  1.00  0.00     0.029 A 
ATOM     46  N   UNL     1      -3.506   3.426  -8.252  1.00  0.00    -0.354 N 
ATOM     47  C   UNL     1      -4.803  -0.559  -7.150  1.00  0.00     0.074 A 
ATOM     48  C   UNL     1      -3.709  -1.314  -6.577  1.00  0.00     0.031 C 
ATOM     49  C   UNL     1      -2.020   5.061  -8.601  1.00  0.00     0.029 A 
ATOM     50  C   UNL     1      -3.412   4.676  -8.818  1.00  0.00     0.049 A 
ATOM     51  H   UNL     1      -4.357   2.943  -8.143  1.00  0.00     0.167 HD
ATOM     52  C   UNL     1      -6.065  -1.027  -7.289  1.00  0.00     0.034 A 
ATOM     53  C   UNL     1      -4.329   5.402  -9.487  1.00  0.00     0.034 A 
ATOM     54  C   UNL     1      -7.146  -0.260  -7.849  1.00  0.00     0.049 A 
ATOM     55  C   UNL     1      -5.715   4.841  -9.672  1.00  0.00     0.074 A 
ATOM     56  C   UNL     1      -8.472  -0.624  -7.996  1.00  0.00     0.029 A 
ATOM     57  N   UNL     1      -7.021   1.018  -8.371  1.00  0.00    -0.354 N 
ATOM     58  N   UNL     1      -6.203   3.693  -9.269  1.00  0.00    -0.248 NA
ATOM     59  C   UNL     1      -6.684   5.688 -10.382  1.00  0.00     0.031 C 
ATOM     60  C   UNL     1      -9.139   0.414  -8.654  1.00  0.00     0.029 A 
ATOM     61  C   UNL     1      -8.243   1.452  -8.856  1.00  0.00     0.049 A 
ATOM     62  H   UNL     1      -6.187   1.540  -8.394  1.00  0.00     0.167 HD
ATOM     63  C   UNL     1      -7.546   3.701  -9.632  1.00  0.00     0.074 A 
ATOM     64  C   UNL     1      -7.795   4.973 -10.277  1.00  0.00     0.031 C 
ATOM     65  C   UNL     1      -8.487   2.741  -9.451  1.00  0.00     0.034 A 
BRANCH  52  66
ATOM     66  C   UNL     1      -6.346  -2.438  -6.841  1.00  0.00     0.023 A 
ATOM     67  C   UNL     1      -6.326  -2.765  -5.470  1.00  0.00     0.012 A 
ATOM     68  C   UNL     1      -6.680  -3.433  -7.782  1.00  0.00     0.148 A 
ATOM     69  C   UNL     1      -6.593  -4.067  -5.046  1.00  0.00     0.002 A 
ATOM     70  C   UNL     1      -6.997  -4.714  -7.348  1.00  0.00     0.091 A 
ATOM     71  F   UNL     1      -6.676  -3.109  -9.083  1.00  0.00    -0.205 F 
ATOM     72  C   UNL     1      -6.940  -5.037  -5.983  1.00  0.00     0.022 A 
BRANCH  70  73
ATOM     73  S   UNL     1      -7.537  -6.011  -8.467  1.00  0.00     0.127 S 
ATOM     74  O   UNL     1      -6.425  -6.957  -8.380  1.00  0.00    -0.237 OA
ATOM     75  O   UNL     1      -8.775  -6.465  -7.832  1.00  0.00    -0.237 OA
ATOM     76  O   UNL     1      -7.714  -5.378  -9.766  1.00  0.00    -0.744 OA
ENDBRANCH  70  73
ENDBRANCH  52  66
BRANCH  53  77
ATOM     77  C   UNL     1      -3.973   6.742 -10.033  1.00  0.00     0.023 A 
ATOM     78  C   UNL     1      -4.570   7.895  -9.486  1.00  0.00     0.012 A 
ATOM     79  C   UNL     1      -3.050   6.881 -11.088  1.00  0.00     0.148 A 
ATOM     80  C   UNL     1      -4.284   9.158 -10.005  1.00  0.00     0.002 A 
ATOM     81  C   UNL     1      -2.725   8.147 -11.561  1.00  0.00     0.091 A 
ATOM     82  F   UNL     1      -2.499   5.771 -11.600  1.00  0.00    -0.205 F 
ATOM     83  C   UNL     1      -3.356   9.285 -11.035  1.00  0.00     0.022 A 
BRANCH  81  84
ATOM     84  S   UNL     1      -1.455   8.420 -12.800  1.00  0.00     0.127 S 
ATOM     85  O   UNL     1      -2.237   8.938 -13.920  1.00  0.00    -0.237 OA
ATOM     86  O   UNL     1      -0.600   9.404 -12.137  1.00  0.00    -0.237 OA
ATOM     87  O   UNL     1      -0.829   7.123 -13.018  1.00  0.00    -0.744 OA
ENDBRANCH  81  84
ENDBRANCH  53  77
BRANCH  65  88
ATOM     88  C   UNL     1      -9.898   3.053  -9.882  1.00  0.00     0.023 A 
ATOM     89  C   UNL     1     -10.228   3.146 -11.248  1.00  0.00     0.012 A 
ATOM     90  C   UNL     1     -10.915   3.188  -8.915  1.00  0.00     0.148 A 
ATOM     91  C   UNL     1     -11.540   3.409 -11.643  1.00  0.00     0.002 A 
ATOM     92  C   UNL     1     -12.229   3.391  -9.317  1.00  0.00     0.091 A 
ATOM     93  F   UNL     1     -10.579   3.112  -7.619  1.00  0.00    -0.205 F 
ATOM     94  C   UNL     1     -12.541   3.519 -10.680  1.00  0.00     0.022 A 
BRANCH  92  95
ATOM     95  S   UNL     1     -13.596   3.444  -8.154  1.00  0.00     0.127 S 
ATOM     96  O   UNL     1     -14.007   4.844  -8.242  1.00  0.00    -0.237 OA
ATOM     97  O   UNL     1     -14.537   2.492  -8.743  1.00  0.00    -0.237 OA
ATOM     98  O   UNL     1     -13.048   3.038  -6.866  1.00  0.00    -0.744 OA
ENDBRANCH  92  95
ENDBRANCH  65  88
ENDBRANCH  39  40
ENDBRANCH  32  34
ENDBRANCH  31  32
ENDBRANCH  30  31
ENDBRANCH  29  30
ENDBRANCH  28  29
ENDBRANCH  27  28
ENDBRANCH   1  27
TORSDOF 24
