REMARK SMILES CCC(C)(C)[C@@H]([NH3+])C(C)(C)C(=O)OCCOCCOCCOC(=O)c1ccc(-c2c3nc(c(-c4cccc(S(=O)(=O)[O-])c4F)c4ccc([nH]4)c(-c4cccc(S(=O)(=O)[O-])c4F)c4nc(c(-c5cccc(S(=O)(=O)[O-])c5F)c5ccc2[nH]5)C=C4)C=C3)cc1
REMARK SMILES IDX 17 1 16 2 15 3 14 4 13 5 11 6 12 7 8 8 9 9 10 10 6 11 3 12
REMARK SMILES IDX 4 13 5 14 2 15 1 16 7 17 18 21 19 22 20 23 21 24 22 25 23 26
REMARK SMILES IDX 24 27 25 28 26 29 87 30 27 31 86 32 28 33 29 34 30 35 80 36
REMARK SMILES IDX 31 37 85 38 79 39 81 40 32 41 84 42 78 43 77 44 33 46 65 47
REMARK SMILES IDX 45 48 64 49 46 50 49 51 63 52 82 53 47 54 48 55 62 57 83 58
REMARK SMILES IDX 50 59 34 60 35 61 43 62 36 63 38 64 44 65 37 66 39 67 40 68
REMARK SMILES IDX 41 69 42 70 66 71 67 72 75 73 68 74 70 75 76 76 69 77 71 78
REMARK SMILES IDX 72 79 73 80 74 81 51 82 52 83 60 84 53 85 55 86 61 87 54 88
REMARK SMILES IDX 56 89 57 90 58 91 59 92
REMARK H PARENT 7 18 7 19 7 20 81 45 49 56
REMARK Flexibility Score: inf
ROOT
ATOM      1  C   UNL     1       3.295   2.519   1.087  1.00  0.00     0.188 C 
ENDROOT
BRANCH   1   2
ATOM      2  O   UNL     1       3.095   2.180   2.451  1.00  0.00    -0.376 OA
BRANCH   2   3
ATOM      3  C   UNL     1       2.148   1.169   2.723  1.00  0.00     0.202 C 
BRANCH   3   4
ATOM      4  C   UNL     1       2.566  -0.313   2.533  1.00  0.00     0.261 C 
BRANCH   4   5
ATOM      5  O   UNL     1       3.181  -0.790   1.313  1.00  0.00    -0.463 OA
BRANCH   5   6
ATOM      6  C   UNL     1       2.488  -0.505   0.184  1.00  0.00     0.317 C 
ATOM      7  O   UNL     1       1.559   0.276   0.228  1.00  0.00    -0.251 OA
BRANCH   6   8
ATOM      8  C   UNL     1       2.915  -1.270  -1.074  1.00  0.00     0.114 C 
ATOM      9  C   UNL     1       2.490  -2.733  -0.875  1.00  0.00     0.030 C 
ATOM     10  C   UNL     1       4.471  -1.333  -1.215  1.00  0.00     0.030 C 
BRANCH   8  11
ATOM     11  C   UNL     1       2.283  -0.601  -2.387  1.00  0.00     0.203 C 
BRANCH  11  12
ATOM     12  C   UNL     1       0.684  -0.520  -2.677  1.00  0.00     0.017 C 
ATOM     13  C   UNL     1       0.097  -1.933  -2.876  1.00  0.00     0.017 C 
ATOM     14  C   UNL     1       0.474   0.197  -4.055  1.00  0.00     0.017 C 
BRANCH  12  15
ATOM     15  C   UNL     1      -0.221   0.295  -1.695  1.00  0.00     0.009 C 
ATOM     16  C   UNL     1      -0.833  -0.453  -0.503  1.00  0.00     0.005 C 
ENDBRANCH  12  15
ENDBRANCH  11  12
BRANCH  11  17
ATOM     17  N   UNL     1       2.962   0.702  -2.611  1.00  0.00    -0.354 N 
ATOM     18  H   UNL     1       2.710   1.350  -1.865  1.00  0.00     0.344 HD
ATOM     19  H   UNL     1       2.670   1.088  -3.509  1.00  0.00     0.344 HD
ATOM     20  H   UNL     1       3.972   0.563  -2.614  1.00  0.00     0.344 HD
ENDBRANCH  11  17
ENDBRANCH   8  11
ENDBRANCH   6   8
ENDBRANCH   5   6
ENDBRANCH   4   5
ENDBRANCH   3   4
ENDBRANCH   2   3
ENDBRANCH   1   2
BRANCH   1  21
ATOM     21  C   UNL     1       4.569   1.874   0.533  1.00  0.00     0.188 C 
BRANCH  21  22
ATOM     22  O   UNL     1       5.649   1.574   1.409  1.00  0.00    -0.376 OA
BRANCH  22  23
ATOM     23  C   UNL     1       5.911   2.495   2.453  1.00  0.00     0.202 C 
BRANCH  23  24
ATOM     24  C   UNL     1       6.253   3.949   2.082  1.00  0.00     0.261 C 
BRANCH  24  25
ATOM     25  O   UNL     1       5.509   4.531   0.992  1.00  0.00    -0.460 OA
BRANCH  25  26
ATOM     26  C   UNL     1       6.136   4.584  -0.211  1.00  0.00     0.338 C 
ATOM     27  O   UNL     1       7.289   4.249  -0.446  1.00  0.00    -0.246 OA
BRANCH  26  28
ATOM     28  C   UNL     1       5.166   4.933  -1.281  1.00  0.00     0.060 A 
ATOM     29  C   UNL     1       4.896   3.990  -2.287  1.00  0.00     0.016 A 
ATOM     30  C   UNL     1       4.562   6.189  -1.336  1.00  0.00     0.016 A 
ATOM     31  C   UNL     1       4.015   4.284  -3.330  1.00  0.00     0.010 A 
ATOM     32  C   UNL     1       3.714   6.500  -2.410  1.00  0.00     0.010 A 
ATOM     33  C   UNL     1       3.443   5.555  -3.420  1.00  0.00    -0.014 A 
BRANCH  33  34
ATOM     34  C   UNL     1       2.697   5.957  -4.641  1.00  0.00     0.031 A 
ATOM     35  C   UNL     1       3.411   6.765  -5.689  1.00  0.00     0.074 A 
ATOM     36  C   UNL     1       1.402   5.633  -4.817  1.00  0.00     0.049 A 
ATOM     37  N   UNL     1       2.931   7.361  -6.749  1.00  0.00    -0.248 NA
ATOM     38  C   UNL     1       4.865   6.918  -5.518  1.00  0.00     0.031 C 
ATOM     39  C   UNL     1       0.604   4.803  -3.918  1.00  0.00     0.029 A 
ATOM     40  N   UNL     1       0.519   6.008  -5.804  1.00  0.00    -0.354 N 
ATOM     41  C   UNL     1       4.010   8.005  -7.342  1.00  0.00     0.074 A 
ATOM     42  C   UNL     1       5.174   7.709  -6.535  1.00  0.00     0.031 C 
ATOM     43  C   UNL     1      -0.665   4.776  -4.362  1.00  0.00     0.029 A 
ATOM     44  C   UNL     1      -0.778   5.624  -5.550  1.00  0.00     0.049 A 
ATOM     45  H   UNL     1       0.788   6.502  -6.612  1.00  0.00     0.167 HD
ATOM     46  C   UNL     1       4.031   8.775  -8.456  1.00  0.00     0.034 A 
ATOM     47  C   UNL     1      -1.929   5.964  -6.167  1.00  0.00     0.034 A 
ATOM     48  C   UNL     1       2.879   9.058  -9.268  1.00  0.00     0.049 A 
ATOM     49  C   UNL     1      -1.892   6.887  -7.362  1.00  0.00     0.074 A 
ATOM     50  C   UNL     1       2.813   9.798 -10.436  1.00  0.00     0.029 A 
ATOM     51  N   UNL     1       1.589   8.638  -8.988  1.00  0.00    -0.354 N 
ATOM     52  N   UNL     1      -0.856   7.418  -7.966  1.00  0.00    -0.248 NA
ATOM     53  C   UNL     1      -3.183   7.247  -7.970  1.00  0.00     0.031 C 
ATOM     54  C   UNL     1       1.476   9.861 -10.839  1.00  0.00     0.029 A 
ATOM     55  C   UNL     1       0.715   9.125  -9.945  1.00  0.00     0.049 A 
ATOM     56  H   UNL     1       1.331   8.076  -8.222  1.00  0.00     0.167 HD
ATOM     57  C   UNL     1      -1.368   8.146  -9.038  1.00  0.00     0.074 A 
ATOM     58  C   UNL     1      -2.804   7.969  -9.015  1.00  0.00     0.031 C 
ATOM     59  C   UNL     1      -0.709   8.905  -9.949  1.00  0.00     0.034 A 
BRANCH  46  60
ATOM     60  C   UNL     1       5.347   9.385  -8.860  1.00  0.00     0.023 A 
ATOM     61  C   UNL     1       6.357   8.577  -9.419  1.00  0.00     0.012 A 
ATOM     62  C   UNL     1       5.556  10.773  -8.740  1.00  0.00     0.148 A 
ATOM     63  C   UNL     1       7.568   9.138  -9.823  1.00  0.00     0.002 A 
ATOM     64  C   UNL     1       6.747  11.331  -9.188  1.00  0.00     0.091 A 
ATOM     65  F   UNL     1       4.589  11.520  -8.188  1.00  0.00    -0.205 F 
ATOM     66  C   UNL     1       7.758  10.514  -9.718  1.00  0.00     0.022 A 
BRANCH  64  67
ATOM     67  S   UNL     1       7.056  13.100  -9.170  1.00  0.00     0.127 S 
ATOM     68  O   UNL     1       8.102  13.205  -8.154  1.00  0.00    -0.237 OA
ATOM     69  O   UNL     1       7.509  13.345 -10.539  1.00  0.00    -0.237 OA
ATOM     70  O   UNL     1       5.788  13.728  -8.825  1.00  0.00    -0.744 OA
ENDBRANCH  64  67
ENDBRANCH  46  60
BRANCH  47  71
ATOM     71  C   UNL     1      -3.235   5.451  -5.657  1.00  0.00     0.023 A 
ATOM     72  C   UNL     1      -3.989   4.560  -6.444  1.00  0.00     0.012 A 
ATOM     73  C   UNL     1      -3.738   5.854  -4.404  1.00  0.00     0.148 A 
ATOM     74  C   UNL     1      -5.235   4.105  -6.009  1.00  0.00     0.002 A 
ATOM     75  C   UNL     1      -4.952   5.352  -3.951  1.00  0.00     0.091 A 
ATOM     76  F   UNL     1      -3.018   6.722  -3.680  1.00  0.00    -0.205 F 
ATOM     77  C   UNL     1      -5.711   4.492  -4.759  1.00  0.00     0.022 A 
BRANCH  75  78
ATOM     78  S   UNL     1      -5.591   5.702  -2.309  1.00  0.00     0.127 S 
ATOM     79  O   UNL     1      -6.773   6.505  -2.612  1.00  0.00    -0.237 OA
ATOM     80  O   UNL     1      -5.873   4.357  -1.806  1.00  0.00    -0.237 OA
ATOM     81  O   UNL     1      -4.521   6.396  -1.607  1.00  0.00    -0.744 OA
ENDBRANCH  75  78
ENDBRANCH  47  71
BRANCH  59  82
ATOM     82  C   UNL     1      -1.514   9.583 -11.029  1.00  0.00     0.023 A 
ATOM     83  C   UNL     1      -2.323  10.692 -10.712  1.00  0.00     0.012 A 
ATOM     84  C   UNL     1      -1.391   9.182 -12.376  1.00  0.00     0.148 A 
ATOM     85  C   UNL     1      -3.016  11.375 -11.712  1.00  0.00     0.002 A 
ATOM     86  C   UNL     1      -2.045   9.898 -13.373  1.00  0.00     0.091 A 
ATOM     87  F   UNL     1      -0.626   8.117 -12.657  1.00  0.00    -0.205 F 
ATOM     88  C   UNL     1      -2.867  10.987 -13.042  1.00  0.00     0.022 A 
BRANCH  86  89
ATOM     89  S   UNL     1      -1.839   9.535 -15.121  1.00  0.00     0.127 S 
ATOM     90  O   UNL     1      -3.174   9.063 -15.486  1.00  0.00    -0.237 OA
ATOM     91  O   UNL     1      -1.484  10.844 -15.668  1.00  0.00    -0.237 OA
ATOM     92  O   UNL     1      -0.784   8.534 -15.206  1.00  0.00    -0.744 OA
ENDBRANCH  86  89
ENDBRANCH  59  82
ENDBRANCH  33  34
ENDBRANCH  26  28
ENDBRANCH  25  26
ENDBRANCH  24  25
ENDBRANCH  23  24
ENDBRANCH  22  23
ENDBRANCH  21  22
ENDBRANCH   1  21
TORSDOF 24
