REMARK SMILES CCOc1cc2c(cc1OCC)[C@@H](C(=O)OCCOCCOCCOC(=O)c1ccc(-c3c4nc(c(-c5cccc(S(=O)(=O)[O-])c5F)c5ccc([nH]5)c(-c5cccc(S(=O)(=O)[O-])c5F)c5nc(c(-c6cccc(S(=O)(=O)[O-])c6F)c6ccc3[nH]6)C=C5)C=C4)cc1)[C@H](c1ccc(F)cc1Cl)N(C)C2=O
REMARK SMILES IDX 21 1 20 2 19 3 18 4 17 5 16 6 14 7 15 8 13 9 4 10 5 11 9 12
REMARK SMILES IDX 6 13 8 14 7 15 102 16 100 17 103 18 91 19 101 20 3 21 2 22
REMARK SMILES IDX 1 23 10 24 11 25 12 26 92 27 93 28 98 29 94 30 97 31 99 32
REMARK SMILES IDX 95 33 96 34 22 35 23 36 24 37 25 38 26 39 27 40 28 41 29 42
REMARK SMILES IDX 90 43 30 44 89 45 31 46 32 47 33 48 83 49 34 50 88 51 82 52
REMARK SMILES IDX 84 53 35 54 87 55 81 56 80 57 36 59 68 60 48 61 67 62 49 63
REMARK SMILES IDX 52 64 66 65 85 66 50 67 51 68 65 70 86 71 53 72 37 73 38 74
REMARK SMILES IDX 46 75 39 76 41 77 47 78 40 79 42 80 43 81 44 82 45 83 69 84
REMARK SMILES IDX 70 85 78 86 71 87 73 88 79 89 72 90 74 91 75 92 76 93 77 94
REMARK SMILES IDX 54 95 55 96 63 97 56 98 58 99 64 100 57 101 59 102 60 103
REMARK SMILES IDX 61 104 62 105
REMARK H PARENT 84 58 52 69
REMARK Flexibility Score: inf
ROOT
ATOM      1  C   UNL     1      10.077   0.098  -2.872  1.00  0.00     0.188 C 
ENDROOT
BRANCH   1   2
ATOM      2  C   UNL     1       9.430   0.986  -3.935  1.00  0.00     0.188 C 
BRANCH   2   3
ATOM      3  O   UNL     1       9.403   2.378  -3.668  1.00  0.00    -0.376 OA
BRANCH   3   4
ATOM      4  C   UNL     1       8.826   2.805  -2.438  1.00  0.00     0.202 C 
BRANCH   4   5
ATOM      5  C   UNL     1       7.379   2.381  -2.139  1.00  0.00     0.261 C 
BRANCH   5   6
ATOM      6  O   UNL     1       7.142   0.953  -2.068  1.00  0.00    -0.463 OA
BRANCH   6   7
ATOM      7  C   UNL     1       6.448   0.434  -3.107  1.00  0.00     0.316 C 
ATOM      8  O   UNL     1       6.101   1.095  -4.087  1.00  0.00    -0.251 OA
BRANCH   7   9
ATOM      9  C   UNL     1       6.017  -1.031  -2.986  1.00  0.00     0.157 C 
ATOM     10  C   UNL     1       1.838  -0.601  -2.218  1.00  0.00     0.161 A 
ATOM     11  C   UNL     1       2.747  -0.783  -1.163  1.00  0.00     0.064 A 
ATOM     12  C   UNL     1       2.281  -0.647  -3.549  1.00  0.00     0.161 A 
ATOM     13  C   UNL     1       4.100  -0.912  -1.414  1.00  0.00     0.048 A 
ATOM     14  C   UNL     1       3.638  -0.853  -3.792  1.00  0.00     0.056 A 
ATOM     15  C   UNL     1       4.538  -0.974  -2.734  1.00  0.00    -0.015 A 
ATOM     16  C   UNL     1       5.083  -0.959  -0.288  1.00  0.00     0.254 C 
ATOM     17  N   UNL     1       6.330  -1.505  -0.590  1.00  0.00    -0.333 N 
ATOM     18  O   UNL     1       4.770  -0.536   0.820  1.00  0.00    -0.269 OA
ATOM     19  C   UNL     1       6.618  -2.008  -1.931  1.00  0.00     0.135 C 
ATOM     20  C   UNL     1       7.340  -1.617   0.447  1.00  0.00     0.147 C 
BRANCH  10  21
ATOM     21  O   UNL     1       0.512  -0.457  -1.905  1.00  0.00    -0.490 OA
BRANCH  21  22
ATOM     22  C   UNL     1       0.241   0.708  -1.111  1.00  0.00     0.226 C 
ATOM     23  C   UNL     1       0.243   0.400   0.380  1.00  0.00     0.049 C 
ENDBRANCH  21  22
ENDBRANCH  10  21
BRANCH  12  24
ATOM     24  O   UNL     1       1.599  -0.498  -4.720  1.00  0.00    -0.490 OA
BRANCH  24  25
ATOM     25  C   UNL     1       0.204  -0.257  -4.723  1.00  0.00     0.226 C 
ATOM     26  C   UNL     1      -0.552  -1.566  -4.617  1.00  0.00     0.049 C 
ENDBRANCH  24  25
ENDBRANCH  12  24
BRANCH  19  27
ATOM     27  C   UNL     1       6.120  -3.480  -2.187  1.00  0.00    -0.005 A 
ATOM     28  C   UNL     1       6.414  -4.024  -3.467  1.00  0.00     0.010 A 
ATOM     29  C   UNL     1       5.345  -4.306  -1.330  1.00  0.00     0.049 A 
ATOM     30  C   UNL     1       5.899  -5.255  -3.895  1.00  0.00     0.040 A 
ATOM     31  C   UNL     1       4.831  -5.539  -1.770  1.00  0.00     0.060 A 
ATOM     32  Cl  UNL     1       4.935  -3.982   0.317  1.00  0.00    -0.084 Cl
ATOM     33  C   UNL     1       5.097  -5.993  -3.046  1.00  0.00     0.124 A 
ATOM     34  F   UNL     1       4.582  -7.161  -3.452  1.00  0.00    -0.207 F 
ENDBRANCH  19  27
ENDBRANCH   7   9
ENDBRANCH   6   7
ENDBRANCH   5   6
ENDBRANCH   4   5
ENDBRANCH   3   4
ENDBRANCH   2   3
ENDBRANCH   1   2
BRANCH   1  35
ATOM     35  O   UNL     1       9.809   0.446  -1.526  1.00  0.00    -0.376 OA
BRANCH  35  36
ATOM     36  C   UNL     1      10.659  -0.078  -0.507  1.00  0.00     0.202 C 
BRANCH  36  37
ATOM     37  C   UNL     1      12.179  -0.118  -0.765  1.00  0.00     0.261 C 
BRANCH  37  38
ATOM     38  O   UNL     1      12.633  -0.884  -1.904  1.00  0.00    -0.460 OA
BRANCH  38  39
ATOM     39  C   UNL     1      12.080  -2.100  -2.145  1.00  0.00     0.338 C 
ATOM     40  O   UNL     1      11.444  -2.770  -1.358  1.00  0.00    -0.246 OA
BRANCH  39  41
ATOM     41  C   UNL     1      12.107  -2.340  -3.623  1.00  0.00     0.060 A 
ATOM     42  C   UNL     1      11.003  -2.987  -4.205  1.00  0.00     0.016 A 
ATOM     43  C   UNL     1      13.118  -1.836  -4.448  1.00  0.00     0.016 A 
ATOM     44  C   UNL     1      10.918  -3.145  -5.594  1.00  0.00     0.010 A 
ATOM     45  C   UNL     1      13.040  -2.011  -5.836  1.00  0.00     0.010 A 
ATOM     46  C   UNL     1      11.953  -2.687  -6.419  1.00  0.00    -0.014 A 
BRANCH  46  47
ATOM     47  C   UNL     1      12.007  -3.075  -7.855  1.00  0.00     0.031 A 
ATOM     48  C   UNL     1      12.884  -4.237  -8.242  1.00  0.00     0.074 A 
ATOM     49  C   UNL     1      11.323  -2.414  -8.809  1.00  0.00     0.049 A 
ATOM     50  N   UNL     1      13.170  -4.705  -9.428  1.00  0.00    -0.248 NA
ATOM     51  C   UNL     1      13.525  -4.965  -7.135  1.00  0.00     0.031 C 
ATOM     52  C   UNL     1      10.414  -1.293  -8.583  1.00  0.00     0.029 A 
ATOM     53  N   UNL     1      11.317  -2.582 -10.175  1.00  0.00    -0.354 N 
ATOM     54  C   UNL     1      14.051  -5.760  -9.215  1.00  0.00     0.074 A 
ATOM     55  C   UNL     1      14.256  -5.857  -7.786  1.00  0.00     0.031 C 
ATOM     56  C   UNL     1       9.963  -0.852  -9.772  1.00  0.00     0.029 A 
ATOM     57  C   UNL     1      10.579  -1.633 -10.846  1.00  0.00     0.049 A 
ATOM     58  H   UNL     1      11.796  -3.312 -10.630  1.00  0.00     0.167 HD
ATOM     59  C   UNL     1      14.632  -6.582 -10.121  1.00  0.00     0.034 A 
ATOM     60  C   UNL     1      10.444  -1.400 -12.169  1.00  0.00     0.034 A 
ATOM     61  C   UNL     1      14.432  -6.495 -11.541  1.00  0.00     0.049 A 
ATOM     62  C   UNL     1      11.161  -2.284 -13.163  1.00  0.00     0.074 A 
ATOM     63  C   UNL     1      14.954  -7.308 -12.532  1.00  0.00     0.029 A 
ATOM     64  N   UNL     1      13.669  -5.530 -12.177  1.00  0.00    -0.354 N 
ATOM     65  N   UNL     1      11.909  -3.338 -12.945  1.00  0.00    -0.248 NA
ATOM     66  C   UNL     1      10.997  -1.956 -14.589  1.00  0.00     0.031 C 
ATOM     67  C   UNL     1      14.540  -6.808 -13.771  1.00  0.00     0.029 A 
ATOM     68  C   UNL     1      13.723  -5.712 -13.549  1.00  0.00     0.049 A 
ATOM     69  H   UNL     1      13.163  -4.819 -11.722  1.00  0.00     0.167 HD
ATOM     70  C   UNL     1      12.270  -3.819 -14.201  1.00  0.00     0.074 A 
ATOM     71  C   UNL     1      11.646  -2.952 -15.177  1.00  0.00     0.031 C 
ATOM     72  C   UNL     1      13.057  -4.878 -14.517  1.00  0.00     0.034 A 
BRANCH  59  73
ATOM     73  C   UNL     1      15.545  -7.658  -9.594  1.00  0.00     0.023 A 
ATOM     74  C   UNL     1      15.003  -8.759  -8.899  1.00  0.00     0.012 A 
ATOM     75  C   UNL     1      16.933  -7.598  -9.820  1.00  0.00     0.148 A 
ATOM     76  C   UNL     1      15.833  -9.763  -8.402  1.00  0.00     0.002 A 
ATOM     77  C   UNL     1      17.749  -8.627  -9.366  1.00  0.00     0.091 A 
ATOM     78  F   UNL     1      17.431  -6.533 -10.464  1.00  0.00    -0.205 F 
ATOM     79  C   UNL     1      17.203  -9.702  -8.645  1.00  0.00     0.022 A 
BRANCH  77  80
ATOM     80  S   UNL     1      19.513  -8.681  -9.694  1.00  0.00     0.127 S 
ATOM     81  O   UNL     1      20.067  -8.438  -8.363  1.00  0.00    -0.237 OA
ATOM     82  O   UNL     1      19.691 -10.046 -10.189  1.00  0.00    -0.237 OA
ATOM     83  O   UNL     1      19.772  -7.639 -10.677  1.00  0.00    -0.744 OA
ENDBRANCH  77  80
ENDBRANCH  59  73
BRANCH  60  84
ATOM     84  C   UNL     1       9.584  -0.279 -12.653  1.00  0.00     0.023 A 
ATOM     85  C   UNL     1       8.401  -0.566 -13.363  1.00  0.00     0.012 A 
ATOM     86  C   UNL     1       9.940   1.066 -12.430  1.00  0.00     0.148 A 
ATOM     87  C   UNL     1       7.605   0.464 -13.867  1.00  0.00     0.002 A 
ATOM     88  C   UNL     1       9.114   2.087 -12.888  1.00  0.00     0.091 A 
ATOM     89  F   UNL     1      11.080   1.319 -11.773  1.00  0.00    -0.205 F 
ATOM     90  C   UNL     1       7.956   1.789 -13.622  1.00  0.00     0.022 A 
BRANCH  88  91
ATOM     91  S   UNL     1       9.424   3.819 -12.527  1.00  0.00     0.127 S 
ATOM     92  O   UNL     1       9.708   4.355 -13.855  1.00  0.00    -0.237 OA
ATOM     93  O   UNL     1       8.145   4.237 -11.953  1.00  0.00    -0.237 OA
ATOM     94  O   UNL     1      10.540   3.833 -11.591  1.00  0.00    -0.744 OA
ENDBRANCH  88  91
ENDBRANCH  60  84
BRANCH  72  95
ATOM     95  C   UNL     1      13.263  -5.207 -15.976  1.00  0.00     0.023 A 
ATOM     96  C   UNL     1      14.075  -4.381 -16.778  1.00  0.00     0.012 A 
ATOM     97  C   UNL     1      12.729  -6.390 -16.525  1.00  0.00     0.148 A 
ATOM     98  C   UNL     1      14.330  -4.713 -18.109  1.00  0.00     0.002 A 
ATOM     99  C   UNL     1      13.028  -6.742 -17.837  1.00  0.00     0.091 A 
ATOM    100  F   UNL     1      11.948  -7.158 -15.750  1.00  0.00    -0.205 F 
ATOM    101  C   UNL     1      13.818  -5.898 -18.634  1.00  0.00     0.022 A 
BRANCH  99 102
ATOM    102  S   UNL     1      12.497  -8.294 -18.570  1.00  0.00     0.127 S 
ATOM    103  O   UNL     1      11.553  -7.834 -19.588  1.00  0.00    -0.237 OA
ATOM    104  O   UNL     1      13.751  -8.830 -19.099  1.00  0.00    -0.237 OA
ATOM    105  O   UNL     1      11.911  -9.073 -17.488  1.00  0.00    -0.744 OA
ENDBRANCH  99 102
ENDBRANCH  72  95
ENDBRANCH  46  47
ENDBRANCH  39  41
ENDBRANCH  38  39
ENDBRANCH  37  38
ENDBRANCH  36  37
ENDBRANCH  35  36
ENDBRANCH   1  35
TORSDOF 25
