REMARK SMILES C[C@H](NC(=O)N[C@](C)(C(=O)OCCOCCOCCOC(=O)c1ccc(-c2c3nc(c(-c4cccc(S(=O)(=O)[O-])c4F)c4ccc([nH]4)c(-c4cccc(S(=O)(=O)[O-])c4F)c4nc(c(-c5cccc(S(=O)(=O)[O-])c5F)c5ccc2[nH]5)C=C4)C=C3)cc1)C(F)(F)F)C(N)=O
REMARK SMILES IDX 15 1 14 2 13 3 12 4 11 5 9 6 10 7 7 8 8 9 6 10 3 11 4 12
REMARK SMILES IDX 5 14 2 16 1 17 90 18 91 19 92 20 86 23 87 24 88 25 89 26
REMARK SMILES IDX 16 27 17 28 18 29 19 30 20 31 21 32 22 33 23 34 24 35 85 36
REMARK SMILES IDX 25 37 84 38 26 39 27 40 28 41 78 42 29 43 83 44 77 45 79 46
REMARK SMILES IDX 30 47 82 48 76 49 75 50 31 52 63 53 43 54 62 55 44 56 47 57
REMARK SMILES IDX 61 58 80 59 45 60 46 61 60 63 81 64 48 65 32 66 33 67 41 68
REMARK SMILES IDX 34 69 36 70 42 71 35 72 37 73 38 74 39 75 40 76 64 77 65 78
REMARK SMILES IDX 73 79 66 80 68 81 74 82 67 83 69 84 70 85 71 86 72 87 49 88
REMARK SMILES IDX 50 89 58 90 51 91 53 92 59 93 52 94 54 95 55 96 56 97 57 98
REMARK H PARENT 3 13 6 15 91 21 91 22 79 51 47 62
REMARK Flexibility Score: inf
ROOT
ATOM      1  C   UNL     1      -2.723  -2.667  -3.332  1.00  0.00     0.188 C 
ENDROOT
BRANCH   1   2
ATOM      2  O   UNL     1      -2.849  -2.716  -1.907  1.00  0.00    -0.376 OA
BRANCH   2   3
ATOM      3  C   UNL     1      -4.045  -3.289  -1.375  1.00  0.00     0.202 C 
BRANCH   3   4
ATOM      4  C   UNL     1      -4.829  -2.291  -0.481  1.00  0.00     0.261 C 
BRANCH   4   5
ATOM      5  O   UNL     1      -5.493  -1.283  -1.289  1.00  0.00    -0.461 OA
BRANCH   5   6
ATOM      6  C   UNL     1      -5.368   0.076  -1.188  1.00  0.00     0.341 C 
ATOM      7  O   UNL     1      -5.117   0.724  -2.202  1.00  0.00    -0.249 OA
BRANCH   6   8
ATOM      8  C   UNL     1      -5.904   0.746   0.057  1.00  0.00     0.232 C 
ATOM      9  C   UNL     1      -7.400   0.298   0.081  1.00  0.00     0.058 C 
BRANCH   8  10
ATOM     10  N   UNL     1      -5.203   0.290   1.288  1.00  0.00    -0.315 N 
ATOM     11  N   UNL     1      -2.804   0.353   1.003  1.00  0.00    -0.327 N 
ATOM     12  C   UNL     1      -3.936   0.377   1.705  1.00  0.00     0.316 C 
ATOM     13  H   UNL     1      -2.181   0.991   1.421  1.00  0.00     0.166 HD
ATOM     14  O   UNL     1      -3.813   0.467   2.933  1.00  0.00    -0.249 OA
ATOM     15  H   UNL     1      -5.794  -0.171   1.926  1.00  0.00     0.166 HD
BRANCH  11  16
ATOM     16  C   UNL     1      -2.104  -0.260  -0.172  1.00  0.00     0.169 C 
ATOM     17  C   UNL     1      -2.420   0.197  -1.585  1.00  0.00     0.041 C 
BRANCH  16  18
ATOM     18  C   UNL     1      -0.584  -0.002  -0.077  1.00  0.00     0.239 C 
ATOM     19  N   UNL     1       0.189  -0.823  -0.861  1.00  0.00    -0.368 N 
ATOM     20  O   UNL     1      -0.092   0.905   0.584  1.00  0.00    -0.273 OA
ATOM     21  H   UNL     1      -0.232  -1.544  -1.382  1.00  0.00     0.159 HD
ATOM     22  H   UNL     1       1.163  -0.691  -0.901  1.00  0.00     0.159 HD
ENDBRANCH  16  18
ENDBRANCH  11  16
ENDBRANCH   8  10
BRANCH   8  23
ATOM     23  C   UNL     1      -5.925   2.295  -0.135  1.00  0.00     0.422 C 
ATOM     24  F   UNL     1      -6.294   2.697  -1.370  1.00  0.00    -0.168 F 
ATOM     25  F   UNL     1      -6.847   2.857   0.706  1.00  0.00    -0.168 F 
ATOM     26  F   UNL     1      -4.748   2.879   0.169  1.00  0.00    -0.168 F 
ENDBRANCH   8  23
ENDBRANCH   6   8
ENDBRANCH   5   6
ENDBRANCH   4   5
ENDBRANCH   3   4
ENDBRANCH   2   3
ENDBRANCH   1   2
BRANCH   1  27
ATOM     27  C   UNL     1      -3.916  -2.078  -4.087  1.00  0.00     0.188 C 
BRANCH  27  28
ATOM     28  O   UNL     1      -5.007  -2.979  -4.290  1.00  0.00    -0.376 OA
BRANCH  28  29
ATOM     29  C   UNL     1      -4.741  -4.107  -5.112  1.00  0.00     0.202 C 
BRANCH  29  30
ATOM     30  C   UNL     1      -4.776  -3.858  -6.626  1.00  0.00     0.261 C 
BRANCH  30  31
ATOM     31  O   UNL     1      -4.319  -2.557  -7.010  1.00  0.00    -0.460 OA
BRANCH  31  32
ATOM     32  C   UNL     1      -5.277  -1.584  -6.934  1.00  0.00     0.338 C 
ATOM     33  O   UNL     1      -6.453  -1.746  -6.715  1.00  0.00    -0.246 OA
BRANCH  32  34
ATOM     34  C   UNL     1      -4.623  -0.249  -7.032  1.00  0.00     0.060 A 
ATOM     35  C   UNL     1      -5.130   0.802  -6.255  1.00  0.00     0.016 A 
ATOM     36  C   UNL     1      -3.545  -0.024  -7.891  1.00  0.00     0.016 A 
ATOM     37  C   UNL     1      -4.625   2.099  -6.407  1.00  0.00     0.010 A 
ATOM     38  C   UNL     1      -3.036   1.270  -8.039  1.00  0.00     0.010 A 
ATOM     39  C   UNL     1      -3.617   2.350  -7.347  1.00  0.00    -0.014 A 
BRANCH  39  40
ATOM     40  C   UNL     1      -3.353   3.735  -7.825  1.00  0.00     0.031 A 
ATOM     41  C   UNL     1      -3.969   4.146  -9.142  1.00  0.00     0.074 A 
ATOM     42  C   UNL     1      -2.580   4.605  -7.151  1.00  0.00     0.049 A 
ATOM     43  N   UNL     1      -3.807   5.244  -9.833  1.00  0.00    -0.248 NA
ATOM     44  C   UNL     1      -4.884   3.174  -9.767  1.00  0.00     0.031 C 
ATOM     45  C   UNL     1      -1.943   4.358  -5.860  1.00  0.00     0.029 A 
ATOM     46  N   UNL     1      -2.176   5.876  -7.488  1.00  0.00    -0.354 N 
ATOM     47  C   UNL     1      -4.569   5.081 -10.985  1.00  0.00     0.074 A 
ATOM     48  C   UNL     1      -5.173   3.769 -10.913  1.00  0.00     0.031 C 
ATOM     49  C   UNL     1      -1.202   5.432  -5.528  1.00  0.00     0.029 A 
ATOM     50  C   UNL     1      -1.289   6.430  -6.594  1.00  0.00     0.049 A 
ATOM     51  H   UNL     1      -2.493   6.345  -8.294  1.00  0.00     0.167 HD
ATOM     52  C   UNL     1      -4.770   5.947 -12.006  1.00  0.00     0.034 A 
ATOM     53  C   UNL     1      -0.610   7.595  -6.645  1.00  0.00     0.034 A 
ATOM     54  C   UNL     1      -4.190   7.258 -12.077  1.00  0.00     0.049 A 
ATOM     55  C   UNL     1      -0.812   8.525  -7.819  1.00  0.00     0.074 A 
ATOM     56  C   UNL     1      -4.355   8.219 -13.060  1.00  0.00     0.029 A 
ATOM     57  N   UNL     1      -3.328   7.794 -11.134  1.00  0.00    -0.354 N 
ATOM     58  N   UNL     1      -1.602   8.394  -8.858  1.00  0.00    -0.248 NA
ATOM     59  C   UNL     1      -0.049   9.784  -7.810  1.00  0.00     0.031 C 
ATOM     60  C   UNL     1      -3.565   9.324 -12.726  1.00  0.00     0.029 A 
ATOM     61  C   UNL     1      -2.946   9.069 -11.514  1.00  0.00     0.049 A 
ATOM     62  H   UNL     1      -3.032   7.335 -10.315  1.00  0.00     0.167 HD
ATOM     63  C   UNL     1      -1.470   9.570  -9.592  1.00  0.00     0.074 A 
ATOM     64  C   UNL     1      -0.534  10.408  -8.875  1.00  0.00     0.031 C 
ATOM     65  C   UNL     1      -2.065   9.922 -10.760  1.00  0.00     0.034 A 
BRANCH  52  66
ATOM     66  C   UNL     1      -5.678   5.505 -13.124  1.00  0.00     0.023 A 
ATOM     67  C   UNL     1      -7.066   5.394 -12.897  1.00  0.00     0.012 A 
ATOM     68  C   UNL     1      -5.166   5.244 -14.410  1.00  0.00     0.148 A 
ATOM     69  C   UNL     1      -7.923   4.994 -13.920  1.00  0.00     0.002 A 
ATOM     70  C   UNL     1      -6.033   4.894 -15.438  1.00  0.00     0.091 A 
ATOM     71  F   UNL     1      -3.842   5.335 -14.601  1.00  0.00    -0.205 F 
ATOM     72  C   UNL     1      -7.409   4.755 -15.191  1.00  0.00     0.022 A 
BRANCH  70  73
ATOM     73  S   UNL     1      -5.483   4.643 -17.128  1.00  0.00     0.127 S 
ATOM     74  O   UNL     1      -5.699   3.206 -17.299  1.00  0.00    -0.237 OA
ATOM     75  O   UNL     1      -6.407   5.492 -17.880  1.00  0.00    -0.237 OA
ATOM     76  O   UNL     1      -4.091   5.070 -17.169  1.00  0.00    -0.744 OA
ENDBRANCH  70  73
ENDBRANCH  52  66
BRANCH  53  77
ATOM     77  C   UNL     1       0.320   7.980  -5.542  1.00  0.00     0.023 A 
ATOM     78  C   UNL     1       0.010   9.086  -4.726  1.00  0.00     0.012 A 
ATOM     79  C   UNL     1       1.523   7.283  -5.322  1.00  0.00     0.148 A 
ATOM     80  C   UNL     1       0.899   9.517  -3.740  1.00  0.00     0.002 A 
ATOM     81  C   UNL     1       2.381   7.684  -4.303  1.00  0.00     0.091 A 
ATOM     82  F   UNL     1       1.812   6.246  -6.121  1.00  0.00    -0.205 F 
ATOM     83  C   UNL     1       2.080   8.812  -3.523  1.00  0.00     0.022 A 
BRANCH  81  84
ATOM     84  S   UNL     1       3.874   6.778  -3.885  1.00  0.00     0.127 S 
ATOM     85  O   UNL     1       4.917   7.709  -4.308  1.00  0.00    -0.237 OA
ATOM     86  O   UNL     1       3.738   6.622  -2.437  1.00  0.00    -0.237 OA
ATOM     87  O   UNL     1       3.802   5.530  -4.634  1.00  0.00    -0.744 OA
ENDBRANCH  81  84
ENDBRANCH  53  77
BRANCH  65  88
ATOM     88  C   UNL     1      -1.787  11.298 -11.313  1.00  0.00     0.023 A 
ATOM     89  C   UNL     1      -0.524  11.606 -11.856  1.00  0.00     0.012 A 
ATOM     90  C   UNL     1      -2.814  12.264 -11.365  1.00  0.00     0.148 A 
ATOM     91  C   UNL     1      -0.276  12.865 -12.405  1.00  0.00     0.002 A 
ATOM     92  C   UNL     1      -2.575  13.496 -11.962  1.00  0.00     0.091 A 
ATOM     93  F   UNL     1      -4.006  11.959 -10.833  1.00  0.00    -0.205 F 
ATOM     94  C   UNL     1      -1.302  13.804 -12.469  1.00  0.00     0.022 A 
BRANCH  92  95
ATOM     95  S   UNL     1      -3.864  14.729 -12.182  1.00  0.00     0.127 S 
ATOM     96  O   UNL     1      -3.453  15.762 -11.232  1.00  0.00    -0.237 OA
ATOM     97  O   UNL     1      -3.703  15.097 -13.589  1.00  0.00    -0.237 OA
ATOM     98  O   UNL     1      -5.120  14.060 -11.872  1.00  0.00    -0.744 OA
ENDBRANCH  92  95
ENDBRANCH  65  88
ENDBRANCH  39  40
ENDBRANCH  32  34
ENDBRANCH  31  32
ENDBRANCH  30  31
ENDBRANCH  29  30
ENDBRANCH  28  29
ENDBRANCH  27  28
ENDBRANCH   1  27
TORSDOF 24
