REMARK SMILES CC(C)[NH2+][C@@]1(C(=O)OCCOCCOCCOC(=O)c2ccc(-c3c4nc(c(-c5cccc(S(=O)(=O)[O-])c5F)c5ccc([nH]5)c(-c5cccc(S(=O)(=O)[O-])c5F)c5nc(c(-c6cccc(S(=O)(=O)[O-])c6F)c6ccc3[nH]6)C=C5)C=C4)cc2)CCC[C@@H]1CCOC1CCOCC1
REMARK SMILES IDX 12 1 11 2 10 3 9 4 8 5 6 6 7 7 5 8 83 9 86 10 84 11 85 12
REMARK SMILES IDX 4 13 2 16 1 17 3 18 87 19 88 20 89 21 90 22 91 23 95 24
REMARK SMILES IDX 92 25 94 26 93 27 13 28 14 29 15 30 16 31 17 32 18 33 19 34
REMARK SMILES IDX 20 35 21 36 82 37 22 38 81 39 23 40 24 41 25 42 75 43 26 44
REMARK SMILES IDX 80 45 74 46 76 47 27 48 79 49 73 50 72 51 28 53 60 54 40 55
REMARK SMILES IDX 59 56 41 57 44 58 58 59 77 60 42 61 43 62 57 64 78 65 45 66
REMARK SMILES IDX 29 67 30 68 38 69 31 70 33 71 39 72 32 73 34 74 35 75 36 76
REMARK SMILES IDX 37 77 61 78 62 79 70 80 63 81 65 82 71 83 64 84 66 85 67 86
REMARK SMILES IDX 68 87 69 88 46 89 47 90 55 91 48 92 50 93 56 94 49 95 51 96
REMARK SMILES IDX 52 97 53 98 54 99
REMARK H PARENT 4 14 4 15 76 52 44 63
REMARK Flexibility Score: inf
ROOT
ATOM      1  C   UNL     1       1.581  -2.135   4.622  1.00  0.00     0.188 C 
ENDROOT
BRANCH   1   2
ATOM      2  O   UNL     1       2.088  -1.214   5.564  1.00  0.00    -0.376 OA
BRANCH   2   3
ATOM      3  C   UNL     1       2.213   0.099   5.007  1.00  0.00     0.202 C 
BRANCH   3   4
ATOM      4  C   UNL     1       0.901   0.884   4.752  1.00  0.00     0.261 C 
BRANCH   4   5
ATOM      5  O   UNL     1      -0.213   0.536   3.837  1.00  0.00    -0.459 OA
BRANCH   5   6
ATOM      6  C   UNL     1      -0.234  -0.168   2.691  1.00  0.00     0.368 C 
ATOM      7  O   UNL     1       0.822  -0.686   2.313  1.00  0.00    -0.245 OA
BRANCH   6   8
ATOM      8  C   UNL     1      -1.749  -0.439   1.877  1.00  0.00     0.197 C 
ATOM      9  C   UNL     1      -3.224   0.227   1.746  1.00  0.00     0.081 C 
ATOM     10  C   UNL     1      -2.259  -1.852   2.439  1.00  0.00     0.065 C 
ATOM     11  C   UNL     1      -4.315  -0.539   2.494  1.00  0.00     0.008 C 
ATOM     12  C   UNL     1      -3.797  -1.945   2.528  1.00  0.00     0.011 C 
BRANCH   8  13
ATOM     13  N   UNL     1      -1.370  -0.400   0.386  1.00  0.00    -0.330 N 
ATOM     14  H   UNL     1      -1.345  -1.367   0.063  1.00  0.00     0.347 HD
ATOM     15  H   UNL     1      -2.078   0.213  -0.019  1.00  0.00     0.347 HD
BRANCH  13  16
ATOM     16  C   UNL     1      -0.091   0.228  -0.041  1.00  0.00     0.176 C 
ATOM     17  C   UNL     1      -0.068   0.245  -1.571  1.00  0.00     0.075 C 
ATOM     18  C   UNL     1       0.205   1.668   0.430  1.00  0.00     0.075 C 
ENDBRANCH  13  16
ENDBRANCH   8  13
BRANCH  10  19
ATOM     19  C   UNL     1      -1.765  -2.192   3.862  1.00  0.00     0.039 C 
BRANCH  19  20
ATOM     20  C   UNL     1      -1.939  -1.127   5.022  1.00  0.00     0.161 C 
BRANCH  20  21
ATOM     21  O   UNL     1      -2.619  -0.010   4.500  1.00  0.00    -0.378 OA
BRANCH  21  22
ATOM     22  C   UNL     1      -2.687   1.370   4.801  1.00  0.00     0.122 C 
ATOM     23  C   UNL     1      -2.074   2.329   3.742  1.00  0.00     0.060 C 
ATOM     24  C   UNL     1      -2.361   2.018   6.129  1.00  0.00     0.060 C 
ATOM     25  C   UNL     1      -2.930   3.566   3.703  1.00  0.00     0.163 C 
ATOM     26  C   UNL     1      -3.076   3.396   6.103  1.00  0.00     0.163 C 
ATOM     27  O   UNL     1      -2.773   4.219   4.962  1.00  0.00    -0.381 OA
ENDBRANCH  21  22
ENDBRANCH  20  21
ENDBRANCH  19  20
ENDBRANCH  10  19
ENDBRANCH   6   8
ENDBRANCH   5   6
ENDBRANCH   4   5
ENDBRANCH   3   4
ENDBRANCH   2   3
ENDBRANCH   1   2
BRANCH   1  28
ATOM     28  C   UNL     1       1.122  -3.494   5.163  1.00  0.00     0.188 C 
BRANCH  28  29
ATOM     29  O   UNL     1       1.660  -3.916   6.398  1.00  0.00    -0.376 OA
BRANCH  29  30
ATOM     30  C   UNL     1       3.077  -3.884   6.486  1.00  0.00     0.202 C 
BRANCH  30  31
ATOM     31  C   UNL     1       3.826  -4.676   5.404  1.00  0.00     0.261 C 
BRANCH  31  32
ATOM     32  O   UNL     1       3.813  -4.068   4.084  1.00  0.00    -0.460 OA
BRANCH  32  33
ATOM     33  C   UNL     1       3.312  -4.835   3.074  1.00  0.00     0.338 C 
ATOM     34  O   UNL     1       2.825  -5.947   3.189  1.00  0.00    -0.246 OA
BRANCH  33  35
ATOM     35  C   UNL     1       3.355  -4.148   1.758  1.00  0.00     0.060 A 
ATOM     36  C   UNL     1       2.162  -3.780   1.117  1.00  0.00     0.016 A 
ATOM     37  C   UNL     1       4.562  -4.068   1.063  1.00  0.00     0.016 A 
ATOM     38  C   UNL     1       2.173  -3.359  -0.227  1.00  0.00     0.010 A 
ATOM     39  C   UNL     1       4.568  -3.661  -0.281  1.00  0.00     0.010 A 
ATOM     40  C   UNL     1       3.374  -3.332  -0.950  1.00  0.00    -0.014 A 
BRANCH  40  41
ATOM     41  C   UNL     1       3.417  -3.095  -2.426  1.00  0.00     0.031 A 
ATOM     42  C   UNL     1       3.517  -4.275  -3.360  1.00  0.00     0.074 A 
ATOM     43  C   UNL     1       3.480  -1.853  -2.943  1.00  0.00     0.049 A 
ATOM     44  N   UNL     1       3.772  -4.301  -4.644  1.00  0.00    -0.248 NA
ATOM     45  C   UNL     1       3.327  -5.602  -2.757  1.00  0.00     0.031 C 
ATOM     46  C   UNL     1       3.408  -0.619  -2.169  1.00  0.00     0.029 A 
ATOM     47  N   UNL     1       3.658  -1.426  -4.242  1.00  0.00    -0.354 N 
ATOM     48  C   UNL     1       3.843  -5.645  -4.992  1.00  0.00     0.074 A 
ATOM     49  C   UNL     1       3.573  -6.402  -3.786  1.00  0.00     0.031 C 
ATOM     50  C   UNL     1       3.547   0.427  -3.002  1.00  0.00     0.029 A 
ATOM     51  C   UNL     1       3.777  -0.059  -4.363  1.00  0.00     0.049 A 
ATOM     52  H   UNL     1       3.696  -2.041  -5.010  1.00  0.00     0.167 HD
ATOM     53  C   UNL     1       4.122  -6.203  -6.196  1.00  0.00     0.034 A 
ATOM     54  C   UNL     1       4.075   0.712  -5.431  1.00  0.00     0.034 A 
ATOM     55  C   UNL     1       4.382  -5.461  -7.402  1.00  0.00     0.049 A 
ATOM     56  C   UNL     1       4.380   0.066  -6.763  1.00  0.00     0.074 A 
ATOM     57  C   UNL     1       4.644  -5.951  -8.671  1.00  0.00     0.029 A 
ATOM     58  N   UNL     1       4.430  -4.080  -7.494  1.00  0.00    -0.354 N 
ATOM     59  N   UNL     1       4.366  -1.202  -7.092  1.00  0.00    -0.248 NA
ATOM     60  C   UNL     1       4.746   0.963  -7.873  1.00  0.00     0.031 C 
ATOM     61  C   UNL     1       4.886  -4.866  -9.521  1.00  0.00     0.029 A 
ATOM     62  C   UNL     1       4.729  -3.699  -8.793  1.00  0.00     0.049 A 
ATOM     63  H   UNL     1       4.274  -3.459  -6.745  1.00  0.00     0.167 HD
ATOM     64  C   UNL     1       4.695  -1.253  -8.444  1.00  0.00     0.074 A 
ATOM     65  C   UNL     1       4.875   0.114  -8.883  1.00  0.00     0.031 C 
ATOM     66  C   UNL     1       4.855  -2.337  -9.243  1.00  0.00     0.034 A 
BRANCH  53  67
ATOM     67  C   UNL     1       4.176  -7.708  -6.271  1.00  0.00     0.023 A 
ATOM     68  C   UNL     1       2.986  -8.459  -6.197  1.00  0.00     0.012 A 
ATOM     69  C   UNL     1       5.402  -8.374  -6.471  1.00  0.00     0.148 A 
ATOM     70  C   UNL     1       3.020  -9.851  -6.280  1.00  0.00     0.002 A 
ATOM     71  C   UNL     1       5.423  -9.758  -6.600  1.00  0.00     0.091 A 
ATOM     72  F   UNL     1       6.525  -7.644  -6.526  1.00  0.00    -0.205 F 
ATOM     73  C   UNL     1       4.235 -10.499  -6.490  1.00  0.00     0.022 A 
BRANCH  71  74
ATOM     74  S   UNL     1       6.924 -10.678  -6.954  1.00  0.00     0.127 S 
ATOM     75  O   UNL     1       7.141 -11.387  -5.694  1.00  0.00    -0.237 OA
ATOM     76  O   UNL     1       6.507 -11.530  -8.068  1.00  0.00    -0.237 OA
ATOM     77  O   UNL     1       7.935  -9.686  -7.293  1.00  0.00    -0.744 OA
ENDBRANCH  71  74
ENDBRANCH  53  67
BRANCH  54  78
ATOM     78  C   UNL     1       4.109   2.201  -5.303  1.00  0.00     0.023 A 
ATOM     79  C   UNL     1       3.166   2.980  -6.006  1.00  0.00     0.012 A 
ATOM     80  C   UNL     1       5.067   2.851  -4.503  1.00  0.00     0.148 A 
ATOM     81  C   UNL     1       3.198   4.374  -5.938  1.00  0.00     0.002 A 
ATOM     82  C   UNL     1       5.050   4.236  -4.384  1.00  0.00     0.091 A 
ATOM     83  F   UNL     1       5.978   2.101  -3.866  1.00  0.00    -0.205 F 
ATOM     84  C   UNL     1       4.130   5.002  -5.117  1.00  0.00     0.022 A 
BRANCH  82  85
ATOM     85  S   UNL     1       6.116   5.118  -3.239  1.00  0.00     0.127 S 
ATOM     86  O   UNL     1       7.011   5.829  -4.148  1.00  0.00    -0.237 OA
ATOM     87  O   UNL     1       5.157   5.965  -2.529  1.00  0.00    -0.237 OA
ATOM     88  O   UNL     1       6.737   4.093  -2.411  1.00  0.00    -0.744 OA
ENDBRANCH  82  85
ENDBRANCH  54  78
BRANCH  66  89
ATOM     89  C   UNL     1       5.198  -2.107 -10.696  1.00  0.00     0.023 A 
ATOM     90  C   UNL     1       6.484  -1.659 -11.058  1.00  0.00     0.012 A 
ATOM     91  C   UNL     1       4.266  -2.413 -11.709  1.00  0.00     0.148 A 
ATOM     92  C   UNL     1       6.827  -1.490 -12.401  1.00  0.00     0.002 A 
ATOM     93  C   UNL     1       4.630  -2.289 -13.046  1.00  0.00     0.091 A 
ATOM     94  F   UNL     1       3.042  -2.821 -11.347  1.00  0.00    -0.205 F 
ATOM     95  C   UNL     1       5.905  -1.816 -13.393  1.00  0.00     0.022 A 
BRANCH  93  96
ATOM     96  S   UNL     1       3.544  -2.775 -14.392  1.00  0.00     0.127 S 
ATOM     97  O   UNL     1       3.196  -1.481 -14.977  1.00  0.00    -0.237 OA
ATOM     98  O   UNL     1       4.425  -3.600 -15.219  1.00  0.00    -0.237 OA
ATOM     99  O   UNL     1       2.438  -3.498 -13.778  1.00  0.00    -0.744 OA
ENDBRANCH  93  96
ENDBRANCH  66  89
ENDBRANCH  40  41
ENDBRANCH  33  35
ENDBRANCH  32  33
ENDBRANCH  31  32
ENDBRANCH  30  31
ENDBRANCH  29  30
ENDBRANCH  28  29
ENDBRANCH   1  28
TORSDOF 26
