REMARK SMILES C[C@H]1[C@@H](C(=O)OCCOCCOCCOC(=O)c2ccc(-c3c4nc(c(-c5cccc(S(=O)(=O)[O-])c5F)c5ccc([nH]5)c(-c5cccc(S(=O)(=O)[O-])c5F)c5nc(c(-c6cccc(S(=O)(=O)[O-])c6F)c6ccc3[nH]6)C=C5)C=C4)cc2)CCN1C(=O)c1cc2cc(F)ccc2s1
REMARK SMILES IDX 11 1 10 2 9 3 8 4 7 5 6 6 4 7 5 8 3 9 1 10 2 11 83 12 81 13
REMARK SMILES IDX 82 14 84 15 85 16 86 17 87 18 95 19 88 20 94 21 89 22 93 23
REMARK SMILES IDX 90 24 92 25 91 26 12 27 13 28 14 29 15 30 16 31 17 32 18 33
REMARK SMILES IDX 19 34 80 35 20 36 79 37 21 38 22 39 23 40 73 41 24 42 78 43
REMARK SMILES IDX 72 44 74 45 25 46 77 47 71 48 70 49 26 51 58 52 38 53 57 54
REMARK SMILES IDX 39 55 42 56 56 57 75 58 40 59 41 60 55 62 76 63 43 64 27 65
REMARK SMILES IDX 28 66 36 67 29 68 31 69 37 70 30 71 32 72 33 73 34 74 35 75
REMARK SMILES IDX 59 76 60 77 68 78 61 79 63 80 69 81 62 82 64 83 65 84 66 85
REMARK SMILES IDX 67 86 44 87 45 88 53 89 46 90 48 91 54 92 47 93 49 94 50 95
REMARK SMILES IDX 51 96 52 97
REMARK H PARENT 74 50 42 61
REMARK Flexibility Score: inf
ROOT
ATOM      1  C   UNL     1       0.236   0.214  -2.977  1.00  0.00     0.188 C 
ENDROOT
BRANCH   1   2
ATOM      2  C   UNL     1      -0.285   1.594  -3.414  1.00  0.00     0.188 C 
BRANCH   2   3
ATOM      3  O   UNL     1       0.599   2.477  -4.092  1.00  0.00    -0.376 OA
BRANCH   3   4
ATOM      4  C   UNL     1       1.884   2.719  -3.531  1.00  0.00     0.202 C 
BRANCH   4   5
ATOM      5  C   UNL     1       1.882   3.275  -2.111  1.00  0.00     0.261 C 
BRANCH   5   6
ATOM      6  O   UNL     1       1.548   2.233  -1.173  1.00  0.00    -0.463 OA
BRANCH   6   7
ATOM      7  C   UNL     1       1.094   2.665   0.024  1.00  0.00     0.311 C 
ATOM      8  O   UNL     1       1.021   3.848   0.341  1.00  0.00    -0.252 OA
BRANCH   7   9
ATOM      9  C   UNL     1       0.551   1.569   0.918  1.00  0.00     0.123 C 
ATOM     10  C   UNL     1       2.417  -0.138   0.184  1.00  0.00     0.032 C 
ATOM     11  C   UNL     1       1.165   0.152   0.999  1.00  0.00     0.096 C 
ATOM     12  N   UNL     1       0.042  -0.768   0.795  1.00  0.00    -0.334 N 
ATOM     13  C   UNL     1      -0.947   1.397   0.655  1.00  0.00     0.039 C 
ATOM     14  C   UNL     1      -1.202  -0.082   0.527  1.00  0.00     0.121 C 
BRANCH  12  15
ATOM     15  C   UNL     1      -0.065  -2.076   1.250  1.00  0.00     0.264 C 
ATOM     16  O   UNL     1      -1.136  -2.490   1.698  1.00  0.00    -0.268 OA
BRANCH  15  17
ATOM     17  C   UNL     1       1.042  -2.998   1.113  1.00  0.00     0.093 A 
ATOM     18  C   UNL     1       1.519  -3.838   2.107  1.00  0.00     0.034 A 
ATOM     19  S   UNL     1       1.205  -3.800  -0.404  1.00  0.00    -0.130 S 
ATOM     20  C   UNL     1       1.153  -5.193   1.755  1.00  0.00    -0.004 A 
ATOM     21  C   UNL     1       0.866  -5.303   0.388  1.00  0.00     0.035 A 
ATOM     22  C   UNL     1       0.923  -6.319   2.580  1.00  0.00     0.048 A 
ATOM     23  C   UNL     1       0.339  -6.480  -0.175  1.00  0.00     0.022 A 
ATOM     24  C   UNL     1       0.332  -7.456   2.032  1.00  0.00     0.123 A 
ATOM     25  C   UNL     1       0.033  -7.540   0.682  1.00  0.00     0.041 A 
ATOM     26  F   UNL     1       0.009  -8.475   2.841  1.00  0.00    -0.207 F 
ENDBRANCH  15  17
ENDBRANCH  12  15
ENDBRANCH   7   9
ENDBRANCH   6   7
ENDBRANCH   5   6
ENDBRANCH   4   5
ENDBRANCH   3   4
ENDBRANCH   2   3
ENDBRANCH   1   2
BRANCH   1  27
ATOM     27  O   UNL     1       1.357  -0.364  -3.629  1.00  0.00    -0.376 OA
BRANCH  27  28
ATOM     28  C   UNL     1       1.372  -0.371  -5.051  1.00  0.00     0.202 C 
BRANCH  28  29
ATOM     29  C   UNL     1       0.330  -1.250  -5.742  1.00  0.00     0.261 C 
BRANCH  29  30
ATOM     30  O   UNL     1      -1.006  -0.776  -5.524  1.00  0.00    -0.460 OA
BRANCH  30  31
ATOM     31  C   UNL     1      -1.809  -1.601  -4.806  1.00  0.00     0.338 C 
ATOM     32  O   UNL     1      -1.529  -2.694  -4.349  1.00  0.00    -0.246 OA
BRANCH  31  33
ATOM     33  C   UNL     1      -3.058  -0.886  -4.487  1.00  0.00     0.060 A 
ATOM     34  C   UNL     1      -3.448  -0.787  -3.145  1.00  0.00     0.016 A 
ATOM     35  C   UNL     1      -3.855  -0.362  -5.504  1.00  0.00     0.016 A 
ATOM     36  C   UNL     1      -4.660  -0.182  -2.812  1.00  0.00     0.010 A 
ATOM     37  C   UNL     1      -5.078   0.218  -5.174  1.00  0.00     0.010 A 
ATOM     38  C   UNL     1      -5.497   0.284  -3.832  1.00  0.00    -0.014 A 
BRANCH  38  39
ATOM     39  C   UNL     1      -6.897   0.670  -3.550  1.00  0.00     0.031 A 
ATOM     40  C   UNL     1      -7.968  -0.360  -3.767  1.00  0.00     0.074 A 
ATOM     41  C   UNL     1      -7.211   1.928  -3.200  1.00  0.00     0.049 A 
ATOM     42  N   UNL     1      -9.264  -0.212  -3.802  1.00  0.00    -0.248 NA
ATOM     43  C   UNL     1      -7.511  -1.743  -3.989  1.00  0.00     0.031 C 
ATOM     44  C   UNL     1      -6.251   2.997  -2.935  1.00  0.00     0.029 A 
ATOM     45  N   UNL     1      -8.437   2.529  -3.060  1.00  0.00    -0.354 N 
ATOM     46  C   UNL     1      -9.777  -1.468  -4.098  1.00  0.00     0.074 A 
ATOM     47  C   UNL     1      -8.654  -2.372  -4.220  1.00  0.00     0.031 C 
ATOM     48  C   UNL     1      -6.925   4.140  -2.713  1.00  0.00     0.029 A 
ATOM     49  C   UNL     1      -8.357   3.888  -2.865  1.00  0.00     0.049 A 
ATOM     50  H   UNL     1      -9.289   2.036  -3.095  1.00  0.00     0.167 HD
ATOM     51  C   UNL     1     -11.069  -1.834  -4.257  1.00  0.00     0.034 A 
ATOM     52  C   UNL     1      -9.328   4.824  -2.860  1.00  0.00     0.034 A 
ATOM     53  C   UNL     1     -12.177  -0.932  -4.121  1.00  0.00     0.049 A 
ATOM     54  C   UNL     1     -10.759   4.397  -3.073  1.00  0.00     0.074 A 
ATOM     55  C   UNL     1     -13.528  -1.206  -4.233  1.00  0.00     0.029 A 
ATOM     56  N   UNL     1     -12.061   0.422  -3.851  1.00  0.00    -0.354 N 
ATOM     57  N   UNL     1     -11.241   3.192  -3.267  1.00  0.00    -0.248 NA
ATOM     58  C   UNL     1     -11.783   5.453  -3.048  1.00  0.00     0.031 C 
ATOM     59  C   UNL     1     -14.229  -0.010  -4.051  1.00  0.00     0.029 A 
ATOM     60  C   UNL     1     -13.315   1.001  -3.798  1.00  0.00     0.049 A 
ATOM     61  H   UNL     1     -11.211   0.901  -3.717  1.00  0.00     0.167 HD
ATOM     62  C   UNL     1     -12.623   3.340  -3.341  1.00  0.00     0.074 A 
ATOM     63  C   UNL     1     -12.902   4.750  -3.168  1.00  0.00     0.031 C 
ATOM     64  C   UNL     1     -13.574   2.396  -3.546  1.00  0.00     0.034 A 
BRANCH  51  65
ATOM     65  C   UNL     1     -11.352  -3.273  -4.588  1.00  0.00     0.023 A 
ATOM     66  C   UNL     1     -11.220  -4.258  -3.589  1.00  0.00     0.012 A 
ATOM     67  C   UNL     1     -11.792  -3.644  -5.874  1.00  0.00     0.148 A 
ATOM     68  C   UNL     1     -11.495  -5.596  -3.873  1.00  0.00     0.002 A 
ATOM     69  C   UNL     1     -12.104  -4.972  -6.137  1.00  0.00     0.091 A 
ATOM     70  F   UNL     1     -11.883  -2.695  -6.817  1.00  0.00    -0.205 F 
ATOM     71  C   UNL     1     -11.947  -5.950  -5.141  1.00  0.00     0.022 A 
BRANCH  69  72
ATOM     72  S   UNL     1     -12.761  -5.513  -7.718  1.00  0.00     0.127 S 
ATOM     73  O   UNL     1     -11.618  -6.229  -8.284  1.00  0.00    -0.237 OA
ATOM     74  O   UNL     1     -13.876  -6.370  -7.313  1.00  0.00    -0.237 OA
ATOM     75  O   UNL     1     -13.153  -4.302  -8.425  1.00  0.00    -0.744 OA
ENDBRANCH  69  72
ENDBRANCH  51  65
BRANCH  52  76
ATOM     76  C   UNL     1      -8.984   6.256  -2.632  1.00  0.00     0.023 A 
ATOM     77  C   UNL     1      -9.381   6.879  -1.434  1.00  0.00     0.012 A 
ATOM     78  C   UNL     1      -8.255   6.998  -3.583  1.00  0.00     0.148 A 
ATOM     79  C   UNL     1      -9.083   8.221  -1.196  1.00  0.00     0.002 A 
ATOM     80  C   UNL     1      -7.916   8.320  -3.317  1.00  0.00     0.091 A 
ATOM     81  F   UNL     1      -7.902   6.394  -4.726  1.00  0.00    -0.205 F 
ATOM     82  C   UNL     1      -8.342   8.938  -2.132  1.00  0.00     0.022 A 
BRANCH  80  83
ATOM     83  S   UNL     1      -6.861   9.282  -4.408  1.00  0.00     0.127 S 
ATOM     84  O   UNL     1      -7.811  10.234  -4.978  1.00  0.00    -0.237 OA
ATOM     85  O   UNL     1      -5.899   9.859  -3.468  1.00  0.00    -0.237 OA
ATOM     86  O   UNL     1      -6.285   8.324  -5.342  1.00  0.00    -0.744 OA
ENDBRANCH  80  83
ENDBRANCH  52  76
BRANCH  64  87
ATOM     87  C   UNL     1     -15.017   2.824  -3.531  1.00  0.00     0.023 A 
ATOM     88  C   UNL     1     -15.563   3.490  -4.644  1.00  0.00     0.012 A 
ATOM     89  C   UNL     1     -15.858   2.440  -2.467  1.00  0.00     0.148 A 
ATOM     90  C   UNL     1     -16.927   3.780  -4.692  1.00  0.00     0.002 A 
ATOM     91  C   UNL     1     -17.222   2.691  -2.543  1.00  0.00     0.091 A 
ATOM     92  F   UNL     1     -15.310   1.819  -1.412  1.00  0.00    -0.205 F 
ATOM     93  C   UNL     1     -17.757   3.368  -3.651  1.00  0.00     0.022 A 
BRANCH  91  94
ATOM     94  S   UNL     1     -18.381   2.108  -1.301  1.00  0.00     0.127 S 
ATOM     95  O   UNL     1     -18.805   3.361  -0.678  1.00  0.00    -0.237 OA
ATOM     96  O   UNL     1     -19.405   1.455  -2.117  1.00  0.00    -0.237 OA
ATOM     97  O   UNL     1     -17.630   1.208  -0.437  1.00  0.00    -0.744 OA
ENDBRANCH  91  94
ENDBRANCH  64  87
ENDBRANCH  38  39
ENDBRANCH  31  33
ENDBRANCH  30  31
ENDBRANCH  29  30
ENDBRANCH  28  29
ENDBRANCH  27  28
ENDBRANCH   1  27
TORSDOF 22
