REMARK SMILES CC[C@@](C)(NC(=O)c1cccc2ccccc12)C(=O)OCCOCCOCCOC(=O)c1ccc(-c2c3nc(c(-c4cccc(S(=O)(=O)[O-])c4F)c4ccc([nH]4)c(-c4cccc(S(=O)(=O)[O-])c4F)c4nc(c(-c5cccc(S(=O)(=O)[O-])c5F)c5ccc2[nH]5)C=C4)C=C3)cc1
REMARK SMILES IDX 25 1 24 2 23 3 22 4 21 5 20 6 18 7 19 8 3 9 4 10 2 11 1 12
REMARK SMILES IDX 5 13 6 14 7 16 8 17 9 18 17 19 10 20 12 21 16 22 11 23 13 24
REMARK SMILES IDX 15 25 14 26 26 27 27 28 28 29 29 30 30 31 31 32 32 33 33 34
REMARK SMILES IDX 94 35 34 36 93 37 35 38 36 39 37 40 87 41 38 42 92 43 86 44
REMARK SMILES IDX 88 45 39 46 91 47 85 48 84 49 40 51 72 52 52 53 71 54 53 55
REMARK SMILES IDX 56 56 70 57 89 58 54 59 55 60 69 62 90 63 57 64 41 65 42 66
REMARK SMILES IDX 50 67 43 68 45 69 51 70 44 71 46 72 47 73 48 74 49 75 73 76
REMARK SMILES IDX 74 77 82 78 75 79 77 80 83 81 76 82 78 83 79 84 80 85 81 86
REMARK SMILES IDX 58 87 59 88 67 89 60 90 62 91 68 92 61 93 63 94 64 95 65 96
REMARK SMILES IDX 66 97
REMARK H PARENT 5 15 88 50 56 61
REMARK Flexibility Score: inf
ROOT
ATOM      1  C   UNL     1       1.309   4.620  -1.177  1.00  0.00     0.188 C 
ENDROOT
BRANCH   1   2
ATOM      2  C   UNL     1       2.014   3.284  -0.386  1.00  0.00     0.188 C 
BRANCH   2   3
ATOM      3  O   UNL     1       3.380   3.125   0.031  1.00  0.00    -0.376 OA
BRANCH   3   4
ATOM      4  C   UNL     1       3.890   1.782   0.262  1.00  0.00     0.202 C 
BRANCH   4   5
ATOM      5  C   UNL     1       4.310   0.884  -0.941  1.00  0.00     0.261 C 
BRANCH   5   6
ATOM      6  O   UNL     1       3.416   1.007  -2.043  1.00  0.00    -0.462 OA
BRANCH   6   7
ATOM      7  C   UNL     1       2.354   0.189  -2.146  1.00  0.00     0.331 C 
ATOM      8  O   UNL     1       2.331  -0.966  -1.751  1.00  0.00    -0.249 OA
BRANCH   7   9
ATOM      9  C   UNL     1       1.134   1.012  -2.644  1.00  0.00     0.135 C 
ATOM     10  C   UNL     1       0.427   0.160  -3.726  1.00  0.00     0.047 C 
BRANCH   9  11
ATOM     11  C   UNL     1       0.026   1.175  -1.514  1.00  0.00     0.037 C 
ATOM     12  C   UNL     1       0.105   0.191  -0.341  1.00  0.00     0.007 C 
ENDBRANCH   9  11
BRANCH   9  13
ATOM     13  N   UNL     1       1.540   2.329  -3.365  1.00  0.00    -0.336 N 
ATOM     14  C   UNL     1       2.509   3.350  -3.429  1.00  0.00     0.252 C 
ATOM     15  H   UNL     1       0.851   2.526  -4.040  1.00  0.00     0.165 HD
ATOM     16  O   UNL     1       2.355   4.064  -4.439  1.00  0.00    -0.269 OA
BRANCH  14  17
ATOM     17  C   UNL     1       3.851   3.599  -2.646  1.00  0.00     0.047 A 
ATOM     18  C   UNL     1       4.846   2.937  -3.430  1.00  0.00     0.014 A 
ATOM     19  C   UNL     1       4.218   4.703  -1.572  1.00  0.00    -0.006 A 
ATOM     20  C   UNL     1       6.225   3.098  -3.283  1.00  0.00     0.001 A 
ATOM     21  C   UNL     1       5.974   4.960  -1.756  1.00  0.00    -0.018 A 
ATOM     22  C   UNL     1       3.360   5.985  -0.432  1.00  0.00     0.009 A 
ATOM     23  C   UNL     1       6.773   4.070  -2.461  1.00  0.00     0.009 A 
ATOM     24  C   UNL     1       6.740   6.439  -1.135  1.00  0.00     0.009 A 
ATOM     25  C   UNL     1       4.192   7.475   0.157  1.00  0.00     0.001 A 
ATOM     26  C   UNL     1       5.889   7.669  -0.219  1.00  0.00     0.001 A 
ENDBRANCH  14  17
ENDBRANCH   9  13
ENDBRANCH   7   9
ENDBRANCH   6   7
ENDBRANCH   5   6
ENDBRANCH   4   5
ENDBRANCH   3   4
ENDBRANCH   2   3
ENDBRANCH   1   2
BRANCH   1  27
ATOM     27  O   UNL     1       1.832   5.412  -2.324  1.00  0.00    -0.376 OA
BRANCH  27  28
ATOM     28  C   UNL     1       2.828   6.523  -2.553  1.00  0.00     0.202 C 
BRANCH  28  29
ATOM     29  C   UNL     1       4.542   6.745  -1.877  1.00  0.00     0.261 C 
BRANCH  29  30
ATOM     30  O   UNL     1       5.164   5.782  -0.180  1.00  0.00    -0.460 OA
BRANCH  30  31
ATOM     31  C   UNL     1       5.274   5.506   1.258  1.00  0.00     0.338 C 
ATOM     32  O   UNL     1       6.407   5.671   1.744  1.00  0.00    -0.246 OA
BRANCH  31  33
ATOM     33  C   UNL     1       4.209   5.077   2.348  1.00  0.00     0.060 A 
ATOM     34  C   UNL     1       2.816   4.945   2.261  1.00  0.00     0.016 A 
ATOM     35  C   UNL     1       4.700   4.779   3.641  1.00  0.00     0.016 A 
ATOM     36  C   UNL     1       1.971   4.506   3.318  1.00  0.00     0.010 A 
ATOM     37  C   UNL     1       3.868   4.370   4.725  1.00  0.00     0.010 A 
ATOM     38  C   UNL     1       2.485   4.226   4.578  1.00  0.00    -0.014 A 
BRANCH  38  39
ATOM     39  C   UNL     1       1.601   3.856   5.730  1.00  0.00     0.031 A 
ATOM     40  C   UNL     1       1.048   4.927   6.642  1.00  0.00     0.074 A 
ATOM     41  C   UNL     1       1.302   2.569   6.006  1.00  0.00     0.049 A 
ATOM     42  N   UNL     1       0.382   4.806   7.765  1.00  0.00    -0.248 NA
ATOM     43  C   UNL     1       1.267   6.319   6.225  1.00  0.00     0.031 C 
ATOM     44  C   UNL     1       1.696   1.420   5.195  1.00  0.00     0.029 A 
ATOM     45  N   UNL     1       0.627   2.010   7.071  1.00  0.00    -0.354 N 
ATOM     46  C   UNL     1       0.137   6.101   8.212  1.00  0.00     0.074 A 
ATOM     47  C   UNL     1       0.706   6.993   7.221  1.00  0.00     0.031 C 
ATOM     48  C   UNL     1       1.306   0.292   5.817  1.00  0.00     0.029 A 
ATOM     49  C   UNL     1       0.665   0.633   7.088  1.00  0.00     0.049 A 
ATOM     50  H   UNL     1       0.162   2.545   7.755  1.00  0.00     0.167 HD
ATOM     51  C   UNL     1      -0.494   6.516   9.340  1.00  0.00     0.034 A 
ATOM     52  C   UNL     1       0.273  -0.255   8.028  1.00  0.00     0.034 A 
ATOM     53  C   UNL     1      -1.067   5.643  10.335  1.00  0.00     0.049 A 
ATOM     54  C   UNL     1      -0.363   0.229   9.309  1.00  0.00     0.074 A 
ATOM     55  C   UNL     1      -1.741   5.987  11.496  1.00  0.00     0.029 A 
ATOM     56  N   UNL     1      -1.022   4.259  10.301  1.00  0.00    -0.354 N 
ATOM     57  N   UNL     1      -0.656   1.453   9.675  1.00  0.00    -0.248 NA
ATOM     58  C   UNL     1      -0.744  -0.795  10.297  1.00  0.00     0.031 C 
ATOM     59  C   UNL     1      -2.080   4.811  12.176  1.00  0.00     0.029 A 
ATOM     60  C   UNL     1      -1.642   3.734  11.425  1.00  0.00     0.049 A 
ATOM     61  H   UNL     1      -0.610   3.725   9.584  1.00  0.00     0.167 HD
ATOM     62  C   UNL     1      -1.286   1.343  10.912  1.00  0.00     0.074 A 
ATOM     63  C   UNL     1      -1.349  -0.068  11.227  1.00  0.00     0.031 C 
ATOM     64  C   UNL     1      -1.757   2.328  11.718  1.00  0.00     0.034 A 
BRANCH  51  65
ATOM     65  C   UNL     1      -0.615   8.004   9.570  1.00  0.00     0.023 A 
ATOM     66  C   UNL     1      -1.554   8.749   8.829  1.00  0.00     0.012 A 
ATOM     67  C   UNL     1       0.143   8.649  10.569  1.00  0.00     0.148 A 
ATOM     68  C   UNL     1      -1.715  10.117   9.056  1.00  0.00     0.002 A 
ATOM     69  C   UNL     1      -0.050  10.005  10.815  1.00  0.00     0.091 A 
ATOM     70  F   UNL     1       1.041   7.928  11.256  1.00  0.00    -0.205 F 
ATOM     71  C   UNL     1      -0.971  10.741  10.053  1.00  0.00     0.022 A 
BRANCH  69  72
ATOM     72  S   UNL     1       0.810  10.880  12.128  1.00  0.00     0.127 S 
ATOM     73  O   UNL     1       1.796  11.651  11.372  1.00  0.00    -0.237 OA
ATOM     74  O   UNL     1      -0.261  11.681  12.723  1.00  0.00    -0.237 OA
ATOM     75  O   UNL     1       1.352   9.851  13.004  1.00  0.00    -0.744 OA
ENDBRANCH  69  72
ENDBRANCH  51  65
BRANCH  52  76
ATOM     76  C   UNL     1       0.462  -1.719   7.795  1.00  0.00     0.023 A 
ATOM     77  C   UNL     1      -0.663  -2.545   7.608  1.00  0.00     0.012 A 
ATOM     78  C   UNL     1       1.748  -2.292   7.743  1.00  0.00     0.148 A 
ATOM     79  C   UNL     1      -0.513  -3.915   7.388  1.00  0.00     0.002 A 
ATOM     80  C   UNL     1       1.893  -3.647   7.464  1.00  0.00     0.091 A 
ATOM     81  F   UNL     1       2.807  -1.500   7.961  1.00  0.00    -0.205 F 
ATOM     82  C   UNL     1       0.764  -4.463   7.301  1.00  0.00     0.022 A 
BRANCH  80  83
ATOM     83  S   UNL     1       3.500  -4.407   7.200  1.00  0.00     0.127 S 
ATOM     84  O   UNL     1       3.654  -5.212   8.409  1.00  0.00    -0.237 OA
ATOM     85  O   UNL     1       3.274  -5.172   5.973  1.00  0.00    -0.237 OA
ATOM     86  O   UNL     1       4.435  -3.300   7.050  1.00  0.00    -0.744 OA
ENDBRANCH  80  83
ENDBRANCH  52  76
BRANCH  64  87
ATOM     87  C   UNL     1      -2.424   1.923  13.011  1.00  0.00     0.023 A 
ATOM     88  C   UNL     1      -1.646   1.441  14.082  1.00  0.00     0.012 A 
ATOM     89  C   UNL     1      -3.815   2.074  13.185  1.00  0.00     0.148 A 
ATOM     90  C   UNL     1      -2.244   1.083  15.292  1.00  0.00     0.002 A 
ATOM     91  C   UNL     1      -4.399   1.756  14.408  1.00  0.00     0.091 A 
ATOM     92  F   UNL     1      -4.546   2.514  12.151  1.00  0.00    -0.205 F 
ATOM     93  C   UNL     1      -3.617   1.250  15.458  1.00  0.00     0.022 A 
BRANCH  91  94
ATOM     94  S   UNL     1      -6.146   2.022  14.736  1.00  0.00     0.127 S 
ATOM     95  O   UNL     1      -6.678   0.664  14.647  1.00  0.00    -0.237 OA
ATOM     96  O   UNL     1      -6.131   2.582  16.088  1.00  0.00    -0.237 OA
ATOM     97  O   UNL     1      -6.606   2.947  13.709  1.00  0.00    -0.744 OA
ENDBRANCH  91  94
ENDBRANCH  64  87
ENDBRANCH  38  39
ENDBRANCH  31  33
ENDBRANCH  30  31
ENDBRANCH  29  30
ENDBRANCH  28  29
ENDBRANCH  27  28
ENDBRANCH   1  27
TORSDOF 23
