REMARK SMILES COc1cc([C@@H]2CC(=O)Nc3c(C(=O)OCCOCCOCCOC(=O)c4ccc(-c5c6nc(c(-c7cccc(S(=O)(=O)[O-])c7F)c7ccc([nH]7)c(-c7cccc(S(=O)(=O)[O-])c7F)c7nc(c(-c8cccc(S(=O)(=O)[O-])c8F)c8ccc5[nH]8)C=C7)C=C6)cc4)cn(-c4ccc(F)cc4)c32)c(OC)c2c1OCO2
REMARK SMILES IDX 20 1 19 2 18 3 17 4 16 5 15 6 13 7 14 8 12 9 6 10 7 11 99 12
REMARK SMILES IDX 8 13 11 14 91 15 9 16 10 17 90 18 5 20 3 21 4 22 104 23
REMARK SMILES IDX 103 24 105 25 100 26 107 27 106 28 2 29 1 30 101 31 102 32
REMARK SMILES IDX 92 33 93 34 98 35 94 36 97 37 95 38 96 39 21 40 22 41 23 42
REMARK SMILES IDX 24 43 25 44 26 45 27 46 28 47 89 48 29 49 88 50 30 51 31 52
REMARK SMILES IDX 32 53 82 54 33 55 87 56 81 57 83 58 34 59 86 60 80 61 79 62
REMARK SMILES IDX 35 64 67 65 47 66 66 67 48 68 51 69 65 70 84 71 49 72 50 73
REMARK SMILES IDX 64 75 85 76 52 77 36 78 37 79 45 80 38 81 40 82 46 83 39 84
REMARK SMILES IDX 41 85 42 86 43 87 44 88 68 89 69 90 77 91 70 92 72 93 78 94
REMARK SMILES IDX 71 95 73 96 74 97 75 98 76 99 53 100 54 101 62 102 55 103
REMARK SMILES IDX 57 104 63 105 56 106 58 107 59 108 60 109 61 110
REMARK H PARENT 10 19 83 63 51 74
REMARK Flexibility Score: inf
ROOT
ATOM      1  C   UNL     1      -2.310   8.480  -6.297  1.00  0.00     0.188 C 
ENDROOT
BRANCH   1   2
ATOM      2  C   UNL     1      -2.249   9.552  -5.181  1.00  0.00     0.188 C 
BRANCH   2   3
ATOM      3  O   UNL     1      -1.652  10.820  -5.402  1.00  0.00    -0.376 OA
BRANCH   3   4
ATOM      4  C   UNL     1      -0.469  10.945  -6.171  1.00  0.00     0.202 C 
BRANCH   4   5
ATOM      5  C   UNL     1       0.771  10.068  -5.892  1.00  0.00     0.261 C 
BRANCH   5   6
ATOM      6  O   UNL     1       0.534   8.672  -5.650  1.00  0.00    -0.460 OA
BRANCH   6   7
ATOM      7  C   UNL     1       0.493   8.291  -4.346  1.00  0.00     0.341 C 
ATOM      8  O   UNL     1       0.814   9.011  -3.400  1.00  0.00    -0.246 OA
BRANCH   7   9
ATOM      9  C   UNL     1      -0.086   6.968  -4.158  1.00  0.00     0.102 A 
ATOM     10  C   UNL     1      -0.482   3.333  -4.708  1.00  0.00     0.082 C 
ATOM     11  C   UNL     1      -0.328   3.272  -6.237  1.00  0.00     0.115 C 
ATOM     12  C   UNL     1      -0.576   4.765  -4.274  1.00  0.00     0.055 A 
ATOM     13  C   UNL     1       0.481   4.405  -6.866  1.00  0.00     0.225 C 
ATOM     14  C   UNL     1      -0.055   5.821  -4.987  1.00  0.00     0.078 A 
ATOM     15  N   UNL     1      -1.185   5.274  -3.147  1.00  0.00    -0.317 N 
ATOM     16  O   UNL     1       1.054   4.254  -7.947  1.00  0.00    -0.275 OA
ATOM     17  N   UNL     1       0.471   5.631  -6.243  1.00  0.00    -0.324 N 
ATOM     18  C   UNL     1      -0.883   6.614  -3.074  1.00  0.00     0.109 A 
ATOM     19  H   UNL     1       0.857   6.403  -6.716  1.00  0.00     0.170 HD
BRANCH  10  20
ATOM     20  C   UNL     1       0.625   2.563  -3.966  1.00  0.00     0.012 A 
ATOM     21  C   UNL     1       1.143   0.768  -2.369  1.00  0.00     0.165 A 
ATOM     22  C   UNL     1       0.244   1.415  -3.220  1.00  0.00     0.059 A 
ATOM     23  C   UNL     1       2.452   1.207  -2.359  1.00  0.00     0.211 A 
ATOM     24  C   UNL     1       2.860   2.282  -3.123  1.00  0.00     0.211 A 
ATOM     25  O   UNL     1       3.479   0.665  -1.643  1.00  0.00    -0.449 OA
ATOM     26  C   UNL     1       1.976   2.987  -3.927  1.00  0.00     0.168 A 
ATOM     27  O   UNL     1       4.190   2.535  -2.956  1.00  0.00    -0.449 OA
ATOM     28  C   UNL     1       4.583   1.465  -2.088  1.00  0.00     0.468 C 
BRANCH  21  29
ATOM     29  O   UNL     1       0.655  -0.265  -1.623  1.00  0.00    -0.493 OA
ATOM     30  C   UNL     1       0.981  -0.152  -0.237  1.00  0.00     0.278 C 
ENDBRANCH  21  29
BRANCH  26  31
ATOM     31  O   UNL     1       2.292   4.066  -4.690  1.00  0.00    -0.492 OA
ATOM     32  C   UNL     1       3.606   4.594  -4.678  1.00  0.00     0.278 C 
ENDBRANCH  26  31
ENDBRANCH  10  20
BRANCH  15  33
ATOM     33  C   UNL     1      -1.950   4.567  -2.198  1.00  0.00     0.046 A 
ATOM     34  C   UNL     1      -1.326   3.590  -1.420  1.00  0.00     0.029 A 
ATOM     35  C   UNL     1      -3.322   4.813  -2.080  1.00  0.00     0.029 A 
ATOM     36  C   UNL     1      -2.091   2.785  -0.580  1.00  0.00     0.041 A 
ATOM     37  C   UNL     1      -4.082   4.005  -1.228  1.00  0.00     0.041 A 
ATOM     38  C   UNL     1      -3.463   2.989  -0.502  1.00  0.00     0.123 A 
ATOM     39  F   UNL     1      -4.198   2.193   0.285  1.00  0.00    -0.207 F 
ENDBRANCH  15  33
ENDBRANCH   7   9
ENDBRANCH   6   7
ENDBRANCH   5   6
ENDBRANCH   4   5
ENDBRANCH   3   4
ENDBRANCH   2   3
ENDBRANCH   1   2
BRANCH   1  40
ATOM     40  O   UNL     1      -1.498   8.734  -7.424  1.00  0.00    -0.376 OA
BRANCH  40  41
ATOM     41  C   UNL     1      -2.048   9.164  -8.663  1.00  0.00     0.202 C 
BRANCH  41  42
ATOM     42  C   UNL     1      -3.201  10.163  -8.772  1.00  0.00     0.261 C 
BRANCH  42  43
ATOM     43  O   UNL     1      -3.900  10.382  -7.571  1.00  0.00    -0.460 OA
BRANCH  43  44
ATOM     44  C   UNL     1      -4.890   9.500  -7.342  1.00  0.00     0.338 C 
ATOM     45  O   UNL     1      -5.156   8.500  -7.989  1.00  0.00    -0.246 OA
BRANCH  44  46
ATOM     46  C   UNL     1      -5.613   9.936  -6.146  1.00  0.00     0.060 A 
ATOM     47  C   UNL     1      -6.554   9.031  -5.653  1.00  0.00     0.016 A 
ATOM     48  C   UNL     1      -5.685  11.316  -5.933  1.00  0.00     0.016 A 
ATOM     49  C   UNL     1      -7.779   9.541  -5.320  1.00  0.00     0.010 A 
ATOM     50  C   UNL     1      -6.915  11.822  -5.646  1.00  0.00     0.010 A 
ATOM     51  C   UNL     1      -7.960  10.915  -5.482  1.00  0.00    -0.014 A 
BRANCH  51  52
ATOM     52  C   UNL     1      -9.305  11.414  -5.563  1.00  0.00     0.031 A 
ATOM     53  C   UNL     1      -9.845  11.748  -4.235  1.00  0.00     0.074 A 
ATOM     54  C   UNL     1      -9.868  11.638  -6.765  1.00  0.00     0.049 A 
ATOM     55  N   UNL     1     -10.731  11.094  -3.562  1.00  0.00    -0.248 NA
ATOM     56  C   UNL     1      -9.124  12.767  -3.454  1.00  0.00     0.031 C 
ATOM     57  C   UNL     1      -9.236  11.616  -8.091  1.00  0.00     0.029 A 
ATOM     58  N   UNL     1     -11.108  12.111  -7.035  1.00  0.00    -0.354 N 
ATOM     59  C   UNL     1     -10.839  11.791  -2.364  1.00  0.00     0.074 A 
ATOM     60  C   UNL     1      -9.642  12.572  -2.244  1.00  0.00     0.031 C 
ATOM     61  C   UNL     1      -9.998  12.333  -8.950  1.00  0.00     0.029 A 
ATOM     62  C   UNL     1     -11.203  12.761  -8.259  1.00  0.00     0.049 A 
ATOM     63  H   UNL     1     -11.870  12.004  -6.422  1.00  0.00     0.167 HD
ATOM     64  C   UNL     1     -12.036  11.932  -1.734  1.00  0.00     0.034 A 
ATOM     65  C   UNL     1     -12.135  13.693  -8.585  1.00  0.00     0.034 A 
ATOM     66  C   UNL     1     -13.013  11.025  -2.282  1.00  0.00     0.049 A 
ATOM     67  C   UNL     1     -13.236  13.577  -7.590  1.00  0.00     0.074 A 
ATOM     68  C   UNL     1     -13.114   9.653  -2.388  1.00  0.00     0.029 A 
ATOM     69  N   UNL     1     -13.893  11.553  -3.199  1.00  0.00    -0.354 N 
ATOM     70  N   UNL     1     -14.002  12.524  -7.487  1.00  0.00    -0.248 NA
ATOM     71  C   UNL     1     -13.152  14.405  -6.393  1.00  0.00     0.031 C 
ATOM     72  C   UNL     1     -13.700   9.429  -3.666  1.00  0.00     0.029 A 
ATOM     73  C   UNL     1     -13.990  10.669  -4.240  1.00  0.00     0.049 A 
ATOM     74  H   UNL     1     -14.367  12.412  -3.121  1.00  0.00     0.167 HD
ATOM     75  C   UNL     1     -14.125  12.314  -6.117  1.00  0.00     0.074 A 
ATOM     76  C   UNL     1     -13.661  13.554  -5.495  1.00  0.00     0.031 C 
ATOM     77  C   UNL     1     -14.280  11.057  -5.605  1.00  0.00     0.034 A 
BRANCH  64  78
ATOM     78  C   UNL     1     -12.453  13.136  -0.920  1.00  0.00     0.023 A 
ATOM     79  C   UNL     1     -13.695  13.040  -0.256  1.00  0.00     0.012 A 
ATOM     80  C   UNL     1     -11.860  14.419  -0.979  1.00  0.00     0.148 A 
ATOM     81  C   UNL     1     -14.346  14.168   0.251  1.00  0.00     0.002 A 
ATOM     82  C   UNL     1     -12.474  15.526  -0.407  1.00  0.00     0.091 A 
ATOM     83  F   UNL     1     -10.759  14.630  -1.701  1.00  0.00    -0.205 F 
ATOM     84  C   UNL     1     -13.734  15.413   0.178  1.00  0.00     0.022 A 
BRANCH  82  85
ATOM     85  S   UNL     1     -11.703  17.151  -0.445  1.00  0.00     0.127 S 
ATOM     86  O   UNL     1     -12.509  17.833  -1.453  1.00  0.00    -0.237 OA
ATOM     87  O   UNL     1     -11.907  17.610   0.929  1.00  0.00    -0.237 OA
ATOM     88  O   UNL     1     -10.306  16.918  -0.793  1.00  0.00    -0.744 OA
ENDBRANCH  82  85
ENDBRANCH  64  78
BRANCH  65  89
ATOM     89  C   UNL     1     -11.964  14.894  -9.444  1.00  0.00     0.023 A 
ATOM     90  C   UNL     1     -13.090  15.535  -9.998  1.00  0.00     0.012 A 
ATOM     91  C   UNL     1     -10.720  15.561  -9.524  1.00  0.00     0.148 A 
ATOM     92  C   UNL     1     -12.979  16.796 -10.605  1.00  0.00     0.002 A 
ATOM     93  C   UNL     1     -10.610  16.802 -10.144  1.00  0.00     0.091 A 
ATOM     94  F   UNL     1      -9.658  15.025  -8.908  1.00  0.00    -0.205 F 
ATOM     95  C   UNL     1     -11.740  17.429 -10.678  1.00  0.00     0.022 A 
BRANCH  93  96
ATOM     96  S   UNL     1      -9.039  17.673 -10.259  1.00  0.00     0.127 S 
ATOM     97  O   UNL     1      -9.018  18.075 -11.666  1.00  0.00    -0.237 OA
ATOM     98  O   UNL     1      -9.230  18.767  -9.311  1.00  0.00    -0.237 OA
ATOM     99  O   UNL     1      -8.017  16.696  -9.903  1.00  0.00    -0.744 OA
ENDBRANCH  93  96
ENDBRANCH  65  89
BRANCH  77 100
ATOM    100  C   UNL     1     -14.524   9.916  -6.559  1.00  0.00     0.023 A 
ATOM    101  C   UNL     1     -13.539   9.460  -7.460  1.00  0.00     0.012 A 
ATOM    102  C   UNL     1     -15.672   9.135  -6.354  1.00  0.00     0.148 A 
ATOM    103  C   UNL     1     -13.698   8.249  -8.142  1.00  0.00     0.002 A 
ATOM    104  C   UNL     1     -15.800   7.907  -6.988  1.00  0.00     0.091 A 
ATOM    105  F   UNL     1     -16.595   9.585  -5.490  1.00  0.00    -0.205 F 
ATOM    106  C   UNL     1     -14.820   7.463  -7.890  1.00  0.00     0.022 A 
BRANCH 104 107
ATOM    107  S   UNL     1     -17.135   6.782  -6.578  1.00  0.00     0.127 S 
ATOM    108  O   UNL     1     -17.987   6.877  -7.762  1.00  0.00    -0.237 OA
ATOM    109  O   UNL     1     -16.434   5.506  -6.427  1.00  0.00    -0.237 OA
ATOM    110  O   UNL     1     -17.721   7.287  -5.342  1.00  0.00    -0.744 OA
ENDBRANCH 104 107
ENDBRANCH  77 100
ENDBRANCH  51  52
ENDBRANCH  44  46
ENDBRANCH  43  44
ENDBRANCH  42  43
ENDBRANCH  41  42
ENDBRANCH  40  41
ENDBRANCH   1  40
TORSDOF 24
