REMARK SMILES COC1=CC2=NC(C(=O)OCCOCCOCCOC(=O)c3ccc(-c4c5nc(c(-c6cccc(S(=O)(=O)[O-])c6F)c6ccc([nH]6)c(-c6cccc(S(=O)(=O)[O-])c6F)c6nc(c(-c7cccc(S(=O)(=O)[O-])c7F)c7ccc4[nH]7)C=C6)C=C5)cc3)=C[C@@H]2C(OC)=C1
REMARK SMILES IDX 15 1 14 2 13 3 12 4 11 5 10 6 8 7 9 8 7 9 3 10 4 11 90 12
REMARK SMILES IDX 5 13 87 14 6 15 86 16 85 17 2 18 1 19 88 20 89 21 16 22
REMARK SMILES IDX 17 23 18 24 19 25 20 26 21 27 22 28 23 29 84 30 24 31 83 32
REMARK SMILES IDX 25 33 26 34 27 35 77 36 28 37 82 38 76 39 78 40 29 41 81 42
REMARK SMILES IDX 75 43 74 44 30 46 62 47 42 48 61 49 43 50 46 51 60 52 79 53
REMARK SMILES IDX 44 54 45 55 59 57 80 58 47 59 31 60 32 61 40 62 33 63 35 64
REMARK SMILES IDX 41 65 34 66 36 67 37 68 38 69 39 70 63 71 64 72 72 73 65 74
REMARK SMILES IDX 67 75 73 76 66 77 68 78 69 79 70 80 71 81 48 82 49 83 57 84
REMARK SMILES IDX 50 85 52 86 58 87 51 88 53 89 54 90 55 91 56 92
REMARK H PARENT 78 45 46 56
REMARK Flexibility Score: inf
ROOT
ATOM      1  C   UNL     1       2.161  -4.340   6.908  1.00  0.00     0.188 C 
ENDROOT
BRANCH   1   2
ATOM      2  C   UNL     1       0.729  -4.519   7.465  1.00  0.00     0.188 C 
BRANCH   2   3
ATOM      3  O   UNL     1       0.449  -5.492   8.462  1.00  0.00    -0.376 OA
BRANCH   3   4
ATOM      4  C   UNL     1       1.031  -6.784   8.363  1.00  0.00     0.202 C 
BRANCH   4   5
ATOM      5  C   UNL     1       0.837  -7.589   7.067  1.00  0.00     0.261 C 
BRANCH   5   6
ATOM      6  O   UNL     1       1.192  -6.883   5.864  1.00  0.00    -0.459 OA
BRANCH   6   7
ATOM      7  C   UNL     1       0.191  -6.707   4.962  1.00  0.00     0.356 C 
ATOM      8  O   UNL     1      -0.911  -7.238   5.000  1.00  0.00    -0.244 OA
BRANCH   7   9
ATOM      9  C   UNL     1       0.564  -5.671   3.948  1.00  0.00     0.145 C 
ATOM     10  C   UNL     1       0.892  -1.782   1.890  1.00  0.00     0.124 C 
ATOM     11  C   UNL     1      -0.086  -2.586   2.330  1.00  0.00     0.071 C 
ATOM     12  C   UNL     1       2.299  -2.159   1.951  1.00  0.00     0.089 C 
ATOM     13  C   UNL     1       0.336  -3.920   2.782  1.00  0.00     0.060 C 
ATOM     14  C   UNL     1       2.687  -3.440   2.146  1.00  0.00     0.112 C 
ATOM     15  N   UNL     1      -0.318  -4.655   3.626  1.00  0.00    -0.245 NA
ATOM     16  C   UNL     1       1.637  -4.509   2.260  1.00  0.00     0.129 C 
ATOM     17  C   UNL     1       1.738  -5.581   3.299  1.00  0.00     0.027 C 
BRANCH  10  18
ATOM     18  O   UNL     1       0.611  -0.483   1.520  1.00  0.00    -0.497 OA
ATOM     19  C   UNL     1       0.923  -0.221   0.152  1.00  0.00     0.278 C 
ENDBRANCH  10  18
BRANCH  14  20
ATOM     20  O   UNL     1       3.985  -3.908   2.131  1.00  0.00    -0.500 OA
ATOM     21  C   UNL     1       4.998  -3.010   1.684  1.00  0.00     0.278 C 
ENDBRANCH  14  20
ENDBRANCH   7   9
ENDBRANCH   6   7
ENDBRANCH   5   6
ENDBRANCH   4   5
ENDBRANCH   3   4
ENDBRANCH   2   3
ENDBRANCH   1   2
BRANCH   1  22
ATOM     22  O   UNL     1       3.116  -5.314   7.315  1.00  0.00    -0.376 OA
BRANCH  22  23
ATOM     23  C   UNL     1       4.234  -4.817   8.045  1.00  0.00     0.202 C 
BRANCH  23  24
ATOM     24  C   UNL     1       3.923  -4.462   9.498  1.00  0.00     0.261 C 
BRANCH  24  25
ATOM     25  O   UNL     1       2.862  -3.525   9.643  1.00  0.00    -0.460 OA
BRANCH  25  26
ATOM     26  C   UNL     1       3.092  -2.292   9.151  1.00  0.00     0.338 C 
ATOM     27  O   UNL     1       4.044  -1.928   8.485  1.00  0.00    -0.246 OA
BRANCH  26  28
ATOM     28  C   UNL     1       2.001  -1.412   9.577  1.00  0.00     0.060 A 
ATOM     29  C   UNL     1       1.884  -0.173   8.940  1.00  0.00     0.016 A 
ATOM     30  C   UNL     1       1.298  -1.718  10.749  1.00  0.00     0.016 A 
ATOM     31  C   UNL     1       1.227   0.844   9.600  1.00  0.00     0.010 A 
ATOM     32  C   UNL     1       0.664  -0.699  11.417  1.00  0.00     0.010 A 
ATOM     33  C   UNL     1       0.722   0.586  10.876  1.00  0.00    -0.014 A 
BRANCH  33  34
ATOM     34  C   UNL     1       0.406   1.718  11.726  1.00  0.00     0.031 A 
ATOM     35  C   UNL     1      -0.979   2.212  11.658  1.00  0.00     0.074 A 
ATOM     36  C   UNL     1       1.312   2.150  12.628  1.00  0.00     0.049 A 
ATOM     37  N   UNL     1      -1.380   3.401  11.350  1.00  0.00    -0.248 NA
ATOM     38  C   UNL     1      -2.062   1.243  11.890  1.00  0.00     0.031 C 
ATOM     39  C   UNL     1       2.565   1.464  12.978  1.00  0.00     0.029 A 
ATOM     40  N   UNL     1       1.247   3.172  13.534  1.00  0.00    -0.354 N 
ATOM     41  C   UNL     1      -2.747   3.385  11.599  1.00  0.00     0.074 A 
ATOM     42  C   UNL     1      -3.140   2.008  11.731  1.00  0.00     0.031 C 
ATOM     43  C   UNL     1       3.006   1.931  14.163  1.00  0.00     0.029 A 
ATOM     44  C   UNL     1       2.148   3.026  14.582  1.00  0.00     0.049 A 
ATOM     45  H   UNL     1       0.627   3.932  13.452  1.00  0.00     0.167 HD
ATOM     46  C   UNL     1      -3.397   4.506  12.002  1.00  0.00     0.034 A 
ATOM     47  C   UNL     1       2.162   3.695  15.757  1.00  0.00     0.034 A 
ATOM     48  C   UNL     1      -2.630   5.699  11.793  1.00  0.00     0.049 A 
ATOM     49  C   UNL     1       1.382   4.942  15.607  1.00  0.00     0.074 A 
ATOM     50  C   UNL     1      -2.315   6.526  10.741  1.00  0.00     0.029 A 
ATOM     51  N   UNL     1      -1.810   6.025  12.839  1.00  0.00    -0.354 N 
ATOM     52  N   UNL     1       1.743   5.942  14.851  1.00  0.00    -0.248 NA
ATOM     53  C   UNL     1       0.015   5.002  16.113  1.00  0.00     0.031 C 
ATOM     54  C   UNL     1      -1.192   7.298  11.159  1.00  0.00     0.029 A 
ATOM     55  C   UNL     1      -0.834   6.902  12.447  1.00  0.00     0.049 A 
ATOM     56  H   UNL     1      -1.909   5.675  13.753  1.00  0.00     0.167 HD
ATOM     57  C   UNL     1       0.548   6.516  14.457  1.00  0.00     0.074 A 
ATOM     58  C   UNL     1      -0.448   6.029  15.398  1.00  0.00     0.031 C 
ATOM     59  C   UNL     1       0.392   7.038  13.208  1.00  0.00     0.034 A 
BRANCH  46  60
ATOM     60  C   UNL     1      -4.544   4.509  12.982  1.00  0.00     0.023 A 
ATOM     61  C   UNL     1      -5.295   5.697  13.095  1.00  0.00     0.012 A 
ATOM     62  C   UNL     1      -4.738   3.527  13.980  1.00  0.00     0.148 A 
ATOM     63  C   UNL     1      -6.185   5.902  14.154  1.00  0.00     0.002 A 
ATOM     64  C   UNL     1      -5.690   3.697  14.978  1.00  0.00     0.091 A 
ATOM     65  F   UNL     1      -3.907   2.481  14.066  1.00  0.00    -0.205 F 
ATOM     66  C   UNL     1      -6.398   4.894  15.086  1.00  0.00     0.022 A 
BRANCH  64  67
ATOM     67  S   UNL     1      -6.031   2.377  16.145  1.00  0.00     0.127 S 
ATOM     68  O   UNL     1      -5.146   2.722  17.252  1.00  0.00    -0.237 OA
ATOM     69  O   UNL     1      -7.459   2.559  16.413  1.00  0.00    -0.237 OA
ATOM     70  O   UNL     1      -5.719   1.153  15.415  1.00  0.00    -0.744 OA
ENDBRANCH  64  67
ENDBRANCH  46  60
BRANCH  47  71
ATOM     71  C   UNL     1       2.708   3.259  17.061  1.00  0.00     0.023 A 
ATOM     72  C   UNL     1       3.139   4.221  17.993  1.00  0.00     0.012 A 
ATOM     73  C   UNL     1       2.616   1.912  17.483  1.00  0.00     0.148 A 
ATOM     74  C   UNL     1       3.454   3.858  19.307  1.00  0.00     0.002 A 
ATOM     75  C   UNL     1       2.954   1.552  18.784  1.00  0.00     0.091 A 
ATOM     76  F   UNL     1       2.122   1.000  16.634  1.00  0.00    -0.205 F 
ATOM     77  C   UNL     1       3.362   2.526  19.703  1.00  0.00     0.022 A 
BRANCH  75  78
ATOM     78  S   UNL     1       2.879  -0.150  19.356  1.00  0.00     0.127 S 
ATOM     79  O   UNL     1       4.139  -0.282  20.089  1.00  0.00    -0.237 OA
ATOM     80  O   UNL     1       1.684  -0.136  20.195  1.00  0.00    -0.237 OA
ATOM     81  O   UNL     1       2.804  -0.968  18.152  1.00  0.00    -0.744 OA
ENDBRANCH  75  78
ENDBRANCH  47  71
BRANCH  59  82
ATOM     82  C   UNL     1       1.611   7.524  12.480  1.00  0.00     0.023 A 
ATOM     83  C   UNL     1       2.632   6.649  12.063  1.00  0.00     0.012 A 
ATOM     84  C   UNL     1       1.672   8.876  12.098  1.00  0.00     0.148 A 
ATOM     85  C   UNL     1       3.701   7.118  11.296  1.00  0.00     0.002 A 
ATOM     86  C   UNL     1       2.712   9.329  11.296  1.00  0.00     0.091 A 
ATOM     87  F   UNL     1       0.697   9.701  12.512  1.00  0.00    -0.205 F 
ATOM     88  C   UNL     1       3.735   8.454  10.901  1.00  0.00     0.022 A 
BRANCH  86  89
ATOM     89  S   UNL     1       2.726  11.005  10.652  1.00  0.00     0.127 S 
ATOM     90  O   UNL     1       3.596  11.695  11.601  1.00  0.00    -0.237 OA
ATOM     91  O   UNL     1       3.298  10.830   9.315  1.00  0.00    -0.237 OA
ATOM     92  O   UNL     1       1.331  11.429  10.643  1.00  0.00    -0.744 OA
ENDBRANCH  86  89
ENDBRANCH  59  82
ENDBRANCH  33  34
ENDBRANCH  26  28
ENDBRANCH  25  26
ENDBRANCH  24  25
ENDBRANCH  23  24
ENDBRANCH  22  23
ENDBRANCH   1  22
TORSDOF 22
