REMARK SMILES Cc1cccc(-n2ncc(C(=O)Nc3cccc(C(=O)OCCOCCOCCOC(=O)c4ccc(-c5c6nc(c(-c7cccc(S(=O)(=O)[O-])c7F)c7ccc([nH]7)c(-c7cccc(S(=O)(=O)[O-])c7F)c7nc(c(-c8cccc(S(=O)(=O)[O-])c8F)c8ccc5[nH]8)C=C7)C=C6)cc4)c3C)c2C)c1
REMARK SMILES IDX 25 1 24 2 23 3 22 4 21 5 19 6 20 7 18 8 14 9 15 10 96 11
REMARK SMILES IDX 16 12 97 13 17 14 13 15 11 16 12 17 10 19 7 20 8 21 98 22
REMARK SMILES IDX 9 23 99 24 6 25 1 26 2 27 3 28 100 29 4 30 5 31 26 32 27 33
REMARK SMILES IDX 28 34 29 35 30 36 31 37 32 38 33 39 34 40 95 41 35 42 94 43
REMARK SMILES IDX 36 44 37 45 38 46 88 47 39 48 93 49 87 50 89 51 40 52 92 53
REMARK SMILES IDX 86 54 85 55 41 57 73 58 53 59 72 60 54 61 57 62 71 63 90 64
REMARK SMILES IDX 55 65 56 66 70 68 91 69 58 70 42 71 43 72 51 73 44 74 46 75
REMARK SMILES IDX 52 76 45 77 47 78 48 79 49 80 50 81 74 82 75 83 83 84 76 85
REMARK SMILES IDX 78 86 84 87 77 88 79 89 80 90 81 91 82 92 59 93 60 94 68 95
REMARK SMILES IDX 61 96 63 97 69 98 62 99 64 100 65 101 66 102 67 103
REMARK H PARENT 13 18 89 56 57 67
REMARK Flexibility Score: inf
ROOT
ATOM      1  C   UNL     1      -2.921  13.734  -2.208  1.00  0.00     0.188 C 
ENDROOT
BRANCH   1   2
ATOM      2  O   UNL     1      -1.742  13.298  -2.921  1.00  0.00    -0.376 OA
BRANCH   2   3
ATOM      3  C   UNL     1      -1.703  12.572  -4.174  1.00  0.00     0.202 C 
BRANCH   3   4
ATOM      4  C   UNL     1      -1.429  10.890  -4.559  1.00  0.00     0.261 C 
BRANCH   4   5
ATOM      5  O   UNL     1      -2.321   9.359  -4.086  1.00  0.00    -0.460 OA
BRANCH   5   6
ATOM      6  C   UNL     1      -2.401   8.309  -3.013  1.00  0.00     0.338 C 
ATOM      7  O   UNL     1      -1.525   7.979  -2.211  1.00  0.00    -0.246 OA
BRANCH   6   8
ATOM      8  C   UNL     1      -3.534   7.441  -2.595  1.00  0.00     0.065 A 
ATOM      9  C   UNL     1      -4.488   5.935  -0.848  1.00  0.00     0.045 A 
ATOM     10  C   UNL     1      -4.906   5.078  -1.863  1.00  0.00     0.026 A 
ATOM     11  C   UNL     1      -3.771   7.110  -1.177  1.00  0.00    -0.013 A 
ATOM     12  C   UNL     1      -4.629   5.377  -3.204  1.00  0.00     0.003 A 
ATOM     13  C   UNL     1      -3.004   7.725   0.006  1.00  0.00     0.047 C 
ATOM     14  C   UNL     1      -3.952   6.545  -3.572  1.00  0.00     0.016 A 
BRANCH   9  15
ATOM     15  N   UNL     1      -4.735   5.592   0.503  1.00  0.00    -0.322 N 
ATOM     16  C   UNL     1      -4.283   4.498   1.223  1.00  0.00     0.259 C 
ATOM     17  O   UNL     1      -4.801   4.232   2.310  1.00  0.00    -0.269 OA
ATOM     18  H   UNL     1      -5.308   6.219   1.002  1.00  0.00     0.170 HD
BRANCH  16  19
ATOM     19  C   UNL     1      -3.146   3.719   0.727  1.00  0.00     0.081 A 
ATOM     20  N   UNL     1      -1.629   2.120   0.393  1.00  0.00    -0.237 N 
ATOM     21  N   UNL     1      -1.166   3.186  -0.285  1.00  0.00    -0.175 NA
ATOM     22  C   UNL     1      -2.751   2.445   1.146  1.00  0.00     0.054 A 
ATOM     23  C   UNL     1      -2.088   4.124  -0.114  1.00  0.00     0.149 A 
ATOM     24  C   UNL     1      -3.265   1.622   2.275  1.00  0.00     0.068 C 
BRANCH  20  25
ATOM     25  C   UNL     1      -0.947   0.886   0.259  1.00  0.00     0.065 A 
ATOM     26  C   UNL     1       2.662  -0.238  -0.140  1.00  0.00     0.044 C 
ATOM     27  C   UNL     1       1.164  -0.279  -0.042  1.00  0.00    -0.049 A 
ATOM     28  C   UNL     1       0.473  -1.496  -0.028  1.00  0.00     0.003 A 
ATOM     29  C   UNL     1       0.442   0.912   0.067  1.00  0.00     0.031 A 
ATOM     30  C   UNL     1      -0.918  -1.522   0.110  1.00  0.00     0.002 A 
ATOM     31  C   UNL     1      -1.632  -0.332   0.267  1.00  0.00     0.028 A 
ENDBRANCH  20  25
ENDBRANCH  16  19
ENDBRANCH   9  15
ENDBRANCH   6   8
ENDBRANCH   5   6
ENDBRANCH   4   5
ENDBRANCH   3   4
ENDBRANCH   2   3
ENDBRANCH   1   2
BRANCH   1  32
ATOM     32  C   UNL     1      -4.162  14.259  -2.894  1.00  0.00     0.188 C 
BRANCH  32  33
ATOM     33  O   UNL     1      -4.260  13.683  -4.169  1.00  0.00    -0.376 OA
BRANCH  33  34
ATOM     34  C   UNL     1      -5.236  14.224  -5.020  1.00  0.00     0.202 C 
BRANCH  34  35
ATOM     35  C   UNL     1      -6.670  13.942  -4.548  1.00  0.00     0.261 C 
BRANCH  35  36
ATOM     36  O   UNL     1      -6.947  12.524  -4.476  1.00  0.00    -0.460 OA
BRANCH  36  37
ATOM     37  C   UNL     1      -7.159  11.990  -3.211  1.00  0.00     0.338 C 
ATOM     38  O   UNL     1      -8.131  12.237  -2.548  1.00  0.00    -0.246 OA
BRANCH  37  39
ATOM     39  C   UNL     1      -5.951  11.189  -2.798  1.00  0.00     0.060 A 
ATOM     40  C   UNL     1      -5.453  10.946  -1.507  1.00  0.00     0.016 A 
ATOM     41  C   UNL     1      -5.101  10.925  -3.798  1.00  0.00     0.016 A 
ATOM     42  C   UNL     1      -4.028  10.672  -1.225  1.00  0.00     0.010 A 
ATOM     43  C   UNL     1      -3.760  10.914  -3.458  1.00  0.00     0.010 A 
ATOM     44  C   UNL     1      -3.036  10.717  -2.211  1.00  0.00    -0.014 A 
BRANCH  44  45
ATOM     45  C   UNL     1      -1.272  10.573  -2.007  1.00  0.00     0.031 A 
ATOM     46  C   UNL     1      -0.032   9.509  -2.755  1.00  0.00     0.074 A 
ATOM     47  C   UNL     1      -0.662  11.441  -1.173  1.00  0.00     0.049 A 
ATOM     48  N   UNL     1       0.960   8.936  -2.106  1.00  0.00    -0.248 NA
ATOM     49  C   UNL     1      -0.018   8.841  -4.166  1.00  0.00     0.031 C 
ATOM     50  C   UNL     1       0.766  11.712  -0.999  1.00  0.00     0.029 A 
ATOM     51  N   UNL     1      -1.254  12.328  -0.274  1.00  0.00    -0.354 N 
ATOM     52  C   UNL     1       1.567   8.008  -2.997  1.00  0.00     0.074 A 
ATOM     53  C   UNL     1       0.658   7.730  -4.019  1.00  0.00     0.031 C 
ATOM     54  C   UNL     1       0.928  12.418   0.137  1.00  0.00     0.029 A 
ATOM     55  C   UNL     1      -0.367  12.463   0.796  1.00  0.00     0.049 A 
ATOM     56  H   UNL     1      -2.127  12.772  -0.374  1.00  0.00     0.167 HD
ATOM     57  C   UNL     1       2.907   7.796  -3.097  1.00  0.00     0.034 A 
ATOM     58  C   UNL     1      -0.740  11.912   1.986  1.00  0.00     0.034 A 
ATOM     59  C   UNL     1       3.516   8.498  -1.985  1.00  0.00     0.049 A 
ATOM     60  C   UNL     1       0.184  10.756   2.344  1.00  0.00     0.074 A 
ATOM     61  C   UNL     1       4.043   9.763  -1.796  1.00  0.00     0.029 A 
ATOM     62  N   UNL     1       3.106   8.075  -0.739  1.00  0.00    -0.354 N 
ATOM     63  N   UNL     1       1.246  10.414   1.653  1.00  0.00    -0.248 NA
ATOM     64  C   UNL     1      -0.015   9.883   3.492  1.00  0.00     0.031 C 
ATOM     65  C   UNL     1       3.883  10.094  -0.403  1.00  0.00     0.029 A 
ATOM     66  C   UNL     1       3.311   9.013   0.250  1.00  0.00     0.049 A 
ATOM     67  H   UNL     1       2.706   7.190  -0.572  1.00  0.00     0.167 HD
ATOM     68  C   UNL     1       1.805   9.272   2.155  1.00  0.00     0.074 A 
ATOM     69  C   UNL     1       0.978   8.991   3.325  1.00  0.00     0.031 C 
ATOM     70  C   UNL     1       2.876   8.620   1.587  1.00  0.00     0.034 A 
BRANCH  57  71
ATOM     71  C   UNL     1       3.578   7.302  -4.413  1.00  0.00     0.023 A 
ATOM     72  C   UNL     1       4.891   7.743  -4.647  1.00  0.00     0.012 A 
ATOM     73  C   UNL     1       3.008   6.536  -5.488  1.00  0.00     0.148 A 
ATOM     74  C   UNL     1       5.546   7.555  -5.878  1.00  0.00     0.002 A 
ATOM     75  C   UNL     1       3.608   6.460  -6.757  1.00  0.00     0.091 A 
ATOM     76  F   UNL     1       1.943   5.752  -5.276  1.00  0.00    -0.205 F 
ATOM     77  C   UNL     1       4.888   6.966  -6.951  1.00  0.00     0.022 A 
BRANCH  75  78
ATOM     78  S   UNL     1       2.744   5.841  -8.229  1.00  0.00     0.127 S 
ATOM     79  O   UNL     1       3.095   6.839  -9.244  1.00  0.00    -0.237 OA
ATOM     80  O   UNL     1       3.356   4.532  -8.440  1.00  0.00    -0.237 OA
ATOM     81  O   UNL     1       1.326   5.836  -7.884  1.00  0.00    -0.744 OA
ENDBRANCH  75  78
ENDBRANCH  57  71
BRANCH  58  82
ATOM     82  C   UNL     1      -2.217  12.152   2.276  1.00  0.00     0.023 A 
ATOM     83  C   UNL     1      -2.647  13.511   2.155  1.00  0.00     0.012 A 
ATOM     84  C   UNL     1      -3.232  11.175   2.345  1.00  0.00     0.148 A 
ATOM     85  C   UNL     1      -3.981  13.864   1.927  1.00  0.00     0.002 A 
ATOM     86  C   UNL     1      -4.586  11.546   2.180  1.00  0.00     0.091 A 
ATOM     87  F   UNL     1      -2.889   9.891   2.503  1.00  0.00    -0.205 F 
ATOM     88  C   UNL     1      -4.948  12.875   1.907  1.00  0.00     0.022 A 
BRANCH  86  89
ATOM     89  S   UNL     1      -5.935  10.338   2.229  1.00  0.00     0.127 S 
ATOM     90  O   UNL     1      -6.189  10.233   3.661  1.00  0.00    -0.237 OA
ATOM     91  O   UNL     1      -7.002  10.999   1.476  1.00  0.00    -0.237 OA
ATOM     92  O   UNL     1      -5.402   9.152   1.575  1.00  0.00    -0.744 OA
ENDBRANCH  86  89
ENDBRANCH  58  82
BRANCH  70  93
ATOM     93  C   UNL     1       3.557   7.425   2.246  1.00  0.00     0.023 A 
ATOM     94  C   UNL     1       3.633   7.351   3.646  1.00  0.00     0.012 A 
ATOM     95  C   UNL     1       4.240   6.401   1.529  1.00  0.00     0.148 A 
ATOM     96  C   UNL     1       4.193   6.247   4.295  1.00  0.00     0.002 A 
ATOM     97  C   UNL     1       4.823   5.319   2.170  1.00  0.00     0.091 A 
ATOM     98  F   UNL     1       4.392   6.469   0.207  1.00  0.00    -0.205 F 
ATOM     99  C   UNL     1       4.766   5.218   3.557  1.00  0.00     0.022 A 
BRANCH  97 100
ATOM    100  S   UNL     1       5.711   4.040   1.265  1.00  0.00     0.127 S 
ATOM    101  O   UNL     1       7.084   4.264   1.719  1.00  0.00    -0.237 OA
ATOM    102  O   UNL     1       5.089   2.820   1.779  1.00  0.00    -0.237 OA
ATOM    103  O   UNL     1       5.482   4.288  -0.151  1.00  0.00    -0.744 OA
ENDBRANCH  97 100
ENDBRANCH  70  93
ENDBRANCH  44  45
ENDBRANCH  37  39
ENDBRANCH  36  37
ENDBRANCH  35  36
ENDBRANCH  34  35
ENDBRANCH  33  34
ENDBRANCH  32  33
ENDBRANCH   1  32
TORSDOF 23
