REMARK SMILES CC1(C)CCC[C@@](C)(CCC(=O)OCCOCCOCCOC(=O)c2ccc(-c3c4nc(c(-c5cccc(S(=O)(=O)[O-])c5F)c5ccc([nH]5)c(-c5cccc(S(=O)(=O)[O-])c5F)c5nc(c(-c6cccc(S(=O)(=O)[O-])c6F)c6ccc3[nH]6)C=C5)C=C4)cc2)C1=O
REMARK SMILES IDX 18 1 17 2 16 3 15 4 14 5 13 6 11 7 12 8 10 9 9 10 7 11 1 12
REMARK SMILES IDX 2 13 3 14 4 15 88 16 5 17 89 18 6 19 8 20 19 21 20 22 21 23
REMARK SMILES IDX 22 24 23 25 24 26 25 27 26 28 87 29 27 30 86 31 28 32 29 33
REMARK SMILES IDX 30 34 80 35 31 36 85 37 79 38 81 39 32 40 84 41 78 42 77 43
REMARK SMILES IDX 33 45 65 46 45 47 64 48 46 49 49 50 63 51 82 52 47 53 48 54
REMARK SMILES IDX 62 56 83 57 50 58 34 59 35 60 43 61 36 62 38 63 44 64 37 65
REMARK SMILES IDX 39 66 40 67 41 68 42 69 66 70 67 71 75 72 68 73 70 74 76 75
REMARK SMILES IDX 69 76 71 77 72 78 73 79 74 80 51 81 52 82 60 83 53 84 55 85
REMARK SMILES IDX 61 86 54 87 56 88 57 89 58 90 59 91
REMARK H PARENT 81 44 49 55
REMARK Flexibility Score: inf
ROOT
ATOM      1  C   UNL     1       1.028   4.119   3.657  1.00  0.00     0.188 C 
ENDROOT
BRANCH   1   2
ATOM      2  C   UNL     1       2.413   4.718   3.892  1.00  0.00     0.188 C 
BRANCH   2   3
ATOM      3  O   UNL     1       2.474   6.139   3.905  1.00  0.00    -0.376 OA
BRANCH   3   4
ATOM      4  C   UNL     1       2.179   6.804   2.681  1.00  0.00     0.202 C 
BRANCH   4   5
ATOM      5  C   UNL     1       3.134   6.523   1.516  1.00  0.00     0.261 C 
BRANCH   5   6
ATOM      6  O   UNL     1       3.119   5.141   1.099  1.00  0.00    -0.463 OA
BRANCH   6   7
ATOM      7  C   UNL     1       4.335   4.594   0.856  1.00  0.00     0.305 C 
ATOM      8  O   UNL     1       5.395   5.211   0.890  1.00  0.00    -0.252 OA
BRANCH   7   9
ATOM      9  C   UNL     1       4.305   3.102   0.602  1.00  0.00     0.124 C 
BRANCH   9  10
ATOM     10  C   UNL     1       3.005   2.392   0.206  1.00  0.00     0.026 C 
BRANCH  10  11
ATOM     11  C   UNL     1       2.288   2.751  -1.132  1.00  0.00     0.027 C 
ATOM     12  C   UNL     1       1.145  -0.293  -0.257  1.00  0.00     0.019 C 
ATOM     13  C   UNL     1       0.735   0.590  -1.445  1.00  0.00     0.024 C 
ATOM     14  C   UNL     1       0.310  -0.347  -2.597  1.00  0.00     0.019 C 
ATOM     15  C   UNL     1      -0.472   1.478  -1.104  1.00  0.00     0.014 C 
ATOM     16  C   UNL     1       1.939   1.446  -1.905  1.00  0.00     0.144 C 
ATOM     17  C   UNL     1      -0.120   2.678  -0.241  1.00  0.00     0.002 C 
ATOM     18  O   UNL     1       2.661   1.054  -2.829  1.00  0.00    -0.298 OA
ATOM     19  C   UNL     1       0.971   3.520  -0.894  1.00  0.00     0.014 C 
ATOM     20  C   UNL     1       3.175   3.612  -2.057  1.00  0.00     0.020 C 
ENDBRANCH  10  11
ENDBRANCH   9  10
ENDBRANCH   7   9
ENDBRANCH   6   7
ENDBRANCH   5   6
ENDBRANCH   4   5
ENDBRANCH   3   4
ENDBRANCH   2   3
ENDBRANCH   1   2
BRANCH   1  21
ATOM     21  O   UNL     1       0.409   4.432   2.405  1.00  0.00    -0.376 OA
BRANCH  21  22
ATOM     22  C   UNL     1      -0.908   4.984   2.540  1.00  0.00     0.202 C 
BRANCH  22  23
ATOM     23  C   UNL     1      -2.025   3.977   2.855  1.00  0.00     0.261 C 
BRANCH  23  24
ATOM     24  O   UNL     1      -1.690   3.148   3.976  1.00  0.00    -0.460 OA
BRANCH  24  25
ATOM     25  C   UNL     1      -1.278   1.892   3.666  1.00  0.00     0.338 C 
ATOM     26  O   UNL     1      -1.375   1.334   2.584  1.00  0.00    -0.246 OA
BRANCH  25  27
ATOM     27  C   UNL     1      -0.478   1.356   4.792  1.00  0.00     0.060 A 
ATOM     28  C   UNL     1       0.655   0.586   4.481  1.00  0.00     0.016 A 
ATOM     29  C   UNL     1      -0.777   1.661   6.122  1.00  0.00     0.016 A 
ATOM     30  C   UNL     1       1.470   0.091   5.499  1.00  0.00     0.010 A 
ATOM     31  C   UNL     1       0.031   1.154   7.140  1.00  0.00     0.010 A 
ATOM     32  C   UNL     1       1.135   0.339   6.835  1.00  0.00    -0.014 A 
BRANCH  32  33
ATOM     33  C   UNL     1       1.779  -0.431   7.924  1.00  0.00     0.031 A 
ATOM     34  C   UNL     1       1.047  -1.635   8.448  1.00  0.00     0.074 A 
ATOM     35  C   UNL     1       2.946  -0.051   8.472  1.00  0.00     0.049 A 
ATOM     36  N   UNL     1       1.324  -2.396   9.472  1.00  0.00    -0.248 NA
ATOM     37  C   UNL     1      -0.177  -2.022   7.722  1.00  0.00     0.031 C 
ATOM     38  C   UNL     1       3.754   1.089   8.046  1.00  0.00     0.029 A 
ATOM     39  N   UNL     1       3.632  -0.571   9.541  1.00  0.00    -0.354 N 
ATOM     40  C   UNL     1       0.292  -3.323   9.541  1.00  0.00     0.074 A 
ATOM     41  C   UNL     1      -0.622  -3.027   8.460  1.00  0.00     0.031 C 
ATOM     42  C   UNL     1       4.809   1.207   8.872  1.00  0.00     0.029 A 
ATOM     43  C   UNL     1       4.733   0.170   9.900  1.00  0.00     0.049 A 
ATOM     44  H   UNL     1       3.362  -1.396  10.006  1.00  0.00     0.167 HD
ATOM     45  C   UNL     1       0.122  -4.337  10.418  1.00  0.00     0.034 A 
ATOM     46  C   UNL     1       5.562   0.040  10.957  1.00  0.00     0.034 A 
ATOM     47  C   UNL     1       1.039  -4.641  11.480  1.00  0.00     0.049 A 
ATOM     48  C   UNL     1       5.340  -1.086  11.936  1.00  0.00     0.074 A 
ATOM     49  C   UNL     1       0.979  -5.674  12.398  1.00  0.00     0.029 A 
ATOM     50  N   UNL     1       2.177  -3.907  11.773  1.00  0.00    -0.354 N 
ATOM     51  N   UNL     1       4.420  -2.021  11.928  1.00  0.00    -0.248 NA
ATOM     52  C   UNL     1       6.287  -1.192  13.057  1.00  0.00     0.031 C 
ATOM     53  C   UNL     1       2.070  -5.550  13.262  1.00  0.00     0.029 A 
ATOM     54  C   UNL     1       2.826  -4.459  12.862  1.00  0.00     0.049 A 
ATOM     55  H   UNL     1       2.479  -3.111  11.279  1.00  0.00     0.167 HD
ATOM     56  C   UNL     1       4.705  -2.850  13.009  1.00  0.00     0.074 A 
ATOM     57  C   UNL     1       5.889  -2.312  13.646  1.00  0.00     0.031 C 
ATOM     58  C   UNL     1       4.043  -3.951  13.442  1.00  0.00     0.034 A 
BRANCH  45  59
ATOM     59  C   UNL     1      -1.098  -5.201  10.251  1.00  0.00     0.023 A 
ATOM     60  C   UNL     1      -1.172  -6.104   9.171  1.00  0.00     0.012 A 
ATOM     61  C   UNL     1      -2.154  -5.143  11.180  1.00  0.00     0.148 A 
ATOM     62  C   UNL     1      -2.295  -6.912   8.999  1.00  0.00     0.002 A 
ATOM     63  C   UNL     1      -3.249  -5.984  11.028  1.00  0.00     0.091 A 
ATOM     64  F   UNL     1      -2.077  -4.256  12.182  1.00  0.00    -0.205 F 
ATOM     65  C   UNL     1      -3.326  -6.860   9.932  1.00  0.00     0.022 A 
BRANCH  63  66
ATOM     66  S   UNL     1      -4.592  -6.045  12.218  1.00  0.00     0.127 S 
ATOM     67  O   UNL     1      -5.676  -5.408  11.472  1.00  0.00    -0.237 OA
ATOM     68  O   UNL     1      -4.756  -7.485  12.423  1.00  0.00    -0.237 OA
ATOM     69  O   UNL     1      -4.124  -5.316  13.388  1.00  0.00    -0.744 OA
ENDBRANCH  63  66
ENDBRANCH  45  59
BRANCH  46  70
ATOM     70  C   UNL     1       6.702   0.985  11.135  1.00  0.00     0.023 A 
ATOM     71  C   UNL     1       8.020   0.517  10.969  1.00  0.00     0.012 A 
ATOM     72  C   UNL     1       6.490   2.337  11.467  1.00  0.00     0.148 A 
ATOM     73  C   UNL     1       9.107   1.371  11.161  1.00  0.00     0.002 A 
ATOM     74  C   UNL     1       7.575   3.194  11.606  1.00  0.00     0.091 A 
ATOM     75  F   UNL     1       5.229   2.758  11.638  1.00  0.00    -0.205 F 
ATOM     76  C   UNL     1       8.885   2.710  11.470  1.00  0.00     0.022 A 
BRANCH  74  77
ATOM     77  S   UNL     1       7.384   4.958  11.890  1.00  0.00     0.127 S 
ATOM     78  O   UNL     1       7.882   5.096  13.256  1.00  0.00    -0.237 OA
ATOM     79  O   UNL     1       8.251   5.524  10.857  1.00  0.00    -0.237 OA
ATOM     80  O   UNL     1       5.966   5.234  11.705  1.00  0.00    -0.744 OA
ENDBRANCH  74  77
ENDBRANCH  46  70
BRANCH  58  81
ATOM     81  C   UNL     1       4.604  -4.699  14.624  1.00  0.00     0.023 A 
ATOM     82  C   UNL     1       4.482  -4.163  15.921  1.00  0.00     0.012 A 
ATOM     83  C   UNL     1       5.156  -5.985  14.455  1.00  0.00     0.148 A 
ATOM     84  C   UNL     1       4.925  -4.886  17.029  1.00  0.00     0.002 A 
ATOM     85  C   UNL     1       5.549  -6.719  15.568  1.00  0.00     0.091 A 
ATOM     86  F   UNL     1       5.276  -6.471  13.211  1.00  0.00    -0.205 F 
ATOM     87  C   UNL     1       5.445  -6.167  16.854  1.00  0.00     0.022 A 
BRANCH  85  88
ATOM     88  S   UNL     1       6.132  -8.414  15.446  1.00  0.00     0.127 S 
ATOM     89  O   UNL     1       7.556  -8.261  15.738  1.00  0.00    -0.237 OA
ATOM     90  O   UNL     1       5.363  -9.083  16.496  1.00  0.00    -0.237 OA
ATOM     91  O   UNL     1       5.816  -8.853  14.093  1.00  0.00    -0.744 OA
ENDBRANCH  85  88
ENDBRANCH  58  81
ENDBRANCH  32  33
ENDBRANCH  25  27
ENDBRANCH  24  25
ENDBRANCH  23  24
ENDBRANCH  22  23
ENDBRANCH  21  22
ENDBRANCH   1  21
TORSDOF 22
