REMARK SMILES CC[NH+]1CCC2(CC1)OC[C@@H](C(=O)OCCOCCOCCOC(=O)c1ccc(-c3c4nc(c(-c5cccc(S(=O)(=O)[O-])c5F)c5ccc([nH]5)c(-c5cccc(S(=O)(=O)[O-])c5F)c5nc(c(-c6cccc(S(=O)(=O)[O-])c6F)c6ccc3[nH]6)C=C5)C=C4)cc1)N2C(=O)c1ccc(Cl)c([N+](=O)[O-])c1
REMARK SMILES IDX 18 1 17 2 16 3 15 4 14 5 12 6 13 7 11 8 3 9 4 10 8 11 5 13
REMARK SMILES IDX 7 14 6 15 9 16 89 17 10 18 2 19 1 20 90 21 91 22 92 23 93 24
REMARK SMILES IDX 101 25 94 26 97 27 95 28 96 29 98 30 99 31 100 32 19 33
REMARK SMILES IDX 20 34 21 35 22 36 23 37 24 38 25 39 26 40 27 41 88 42 28 43
REMARK SMILES IDX 87 44 29 45 30 46 31 47 81 48 32 49 86 50 80 51 82 52 33 53
REMARK SMILES IDX 85 54 79 55 78 56 34 58 66 59 46 60 65 61 47 62 50 63 64 64
REMARK SMILES IDX 83 65 48 66 49 67 63 69 84 70 51 71 35 72 36 73 44 74 37 75
REMARK SMILES IDX 39 76 45 77 38 78 40 79 41 80 42 81 43 82 67 83 68 84 76 85
REMARK SMILES IDX 69 86 71 87 77 88 70 89 72 90 73 91 74 92 75 93 52 94 53 95
REMARK SMILES IDX 61 96 54 97 56 98 62 99 55 100 57 101 58 102 59 103 60 104
REMARK H PARENT 3 12 82 57 50 68
REMARK Flexibility Score: inf
ROOT
ATOM      1  C   UNL     1       1.461  -8.555  -3.779  1.00  0.00     0.188 C 
ENDROOT
BRANCH   1   2
ATOM      2  O   UNL     1       0.496  -9.512  -4.184  1.00  0.00    -0.376 OA
BRANCH   2   3
ATOM      3  C   UNL     1      -0.546  -9.147  -5.073  1.00  0.00     0.202 C 
BRANCH   3   4
ATOM      4  C   UNL     1      -1.626  -8.186  -4.551  1.00  0.00     0.261 C 
BRANCH   4   5
ATOM      5  O   UNL     1      -1.218  -6.833  -4.205  1.00  0.00    -0.462 OA
BRANCH   5   6
ATOM      6  C   UNL     1      -1.120  -6.598  -2.876  1.00  0.00     0.331 C 
ATOM      7  O   UNL     1      -1.316  -7.480  -2.035  1.00  0.00    -0.250 OA
BRANCH   6   8
ATOM      8  C   UNL     1      -0.731  -5.173  -2.380  1.00  0.00     0.224 C 
ATOM      9  N   UNL     1       0.551  -0.286  -1.555  1.00  0.00    -0.335 N 
ATOM     10  C   UNL     1       1.069  -1.538  -1.013  1.00  0.00     0.267 C 
ATOM     11  C   UNL     1      -0.554  -0.379  -2.514  1.00  0.00     0.267 C 
ATOM     12  H   UNL     1       1.374  -0.025  -2.097  1.00  0.00     0.348 HD
ATOM     13  C   UNL     1       0.043  -2.594  -0.706  1.00  0.00     0.120 C 
ATOM     14  C   UNL     1      -1.538  -1.520  -2.330  1.00  0.00     0.120 C 
ATOM     15  C   UNL     1      -0.925  -2.837  -1.872  1.00  0.00     0.155 C 
ATOM     16  O   UNL     1      -2.039  -3.513  -1.240  1.00  0.00    -0.352 OA
ATOM     17  N   UNL     1      -0.479  -3.801  -2.900  1.00  0.00    -0.293 N 
ATOM     18  C   UNL     1      -1.903  -4.914  -1.428  1.00  0.00     0.200 C 
BRANCH   9  19
ATOM     19  C   UNL     1       0.318   0.803  -0.603  1.00  0.00     0.258 C 
ATOM     20  C   UNL     1       1.210   0.847   0.629  1.00  0.00     0.071 C 
ENDBRANCH   9  19
BRANCH  17  21
ATOM     21  C   UNL     1       0.336  -3.646  -4.018  1.00  0.00     0.257 C 
ATOM     22  O   UNL     1       0.524  -4.589  -4.775  1.00  0.00    -0.269 OA
BRANCH  21  23
ATOM     23  C   UNL     1       0.928  -2.386  -4.528  1.00  0.00     0.047 A 
ATOM     24  C   UNL     1       0.352  -1.810  -5.666  1.00  0.00     0.016 A 
ATOM     25  C   UNL     1       2.124  -1.837  -4.051  1.00  0.00     0.101 A 
ATOM     26  C   UNL     1       0.859  -0.613  -6.196  1.00  0.00     0.028 A 
ATOM     27  C   UNL     1       2.545  -0.554  -4.482  1.00  0.00     0.288 A 
ATOM     28  C   UNL     1       1.923   0.056  -5.574  1.00  0.00     0.118 A 
ATOM     29  Cl  UNL     1       2.387   1.565  -6.277  1.00  0.00    -0.077 Cl
BRANCH  27  30
ATOM     30  N   UNL     1       3.539   0.148  -3.659  1.00  0.00     0.064 N 
ATOM     31  O   UNL     1       3.491   1.385  -3.598  1.00  0.00    -0.258 OA
ATOM     32  O   UNL     1       4.331  -0.549  -3.009  1.00  0.00    -0.258 OA
ENDBRANCH  27  30
ENDBRANCH  21  23
ENDBRANCH  17  21
ENDBRANCH   6   8
ENDBRANCH   5   6
ENDBRANCH   4   5
ENDBRANCH   3   4
ENDBRANCH   2   3
ENDBRANCH   1   2
BRANCH   1  33
ATOM     33  C   UNL     1       1.702  -7.301  -4.614  1.00  0.00     0.188 C 
BRANCH  33  34
ATOM     34  O   UNL     1       1.435  -7.460  -5.997  1.00  0.00    -0.376 OA
BRANCH  34  35
ATOM     35  C   UNL     1       1.825  -6.381  -6.840  1.00  0.00     0.202 C 
BRANCH  35  36
ATOM     36  C   UNL     1       3.232  -6.628  -7.376  1.00  0.00     0.261 C 
BRANCH  36  37
ATOM     37  O   UNL     1       4.216  -6.726  -6.330  1.00  0.00    -0.460 OA
BRANCH  37  38
ATOM     38  C   UNL     1       4.428  -5.617  -5.581  1.00  0.00     0.338 C 
ATOM     39  O   UNL     1       4.010  -4.489  -5.807  1.00  0.00    -0.246 OA
BRANCH  38  40
ATOM     40  C   UNL     1       5.070  -6.027  -4.306  1.00  0.00     0.060 A 
ATOM     41  C   UNL     1       4.625  -5.442  -3.111  1.00  0.00     0.016 A 
ATOM     42  C   UNL     1       6.054  -7.018  -4.274  1.00  0.00     0.016 A 
ATOM     43  C   UNL     1       5.215  -5.794  -1.893  1.00  0.00     0.010 A 
ATOM     44  C   UNL     1       6.642  -7.368  -3.055  1.00  0.00     0.010 A 
ATOM     45  C   UNL     1       6.260  -6.725  -1.864  1.00  0.00    -0.014 A 
BRANCH  45  46
ATOM     46  C   UNL     1       7.082  -6.907  -0.639  1.00  0.00     0.031 A 
ATOM     47  C   UNL     1       8.447  -6.269  -0.590  1.00  0.00     0.074 A 
ATOM     48  C   UNL     1       6.654  -7.650   0.399  1.00  0.00     0.049 A 
ATOM     49  N   UNL     1       9.371  -6.355   0.330  1.00  0.00    -0.248 NA
ATOM     50  C   UNL     1       8.821  -5.430  -1.741  1.00  0.00     0.031 C 
ATOM     51  C   UNL     1       5.363  -8.329   0.482  1.00  0.00     0.029 A 
ATOM     52  N   UNL     1       7.288  -7.987   1.572  1.00  0.00    -0.354 N 
ATOM     53  C   UNL     1      10.451  -5.621  -0.149  1.00  0.00     0.074 A 
ATOM     54  C   UNL     1      10.068  -5.099  -1.442  1.00  0.00     0.031 C 
ATOM     55  C   UNL     1       5.314  -9.033   1.627  1.00  0.00     0.029 A 
ATOM     56  C   UNL     1       6.580  -8.880   2.343  1.00  0.00     0.049 A 
ATOM     57  H   UNL     1       8.164  -7.623   1.836  1.00  0.00     0.167 HD
ATOM     58  C   UNL     1      11.650  -5.394   0.436  1.00  0.00     0.034 A 
ATOM     59  C   UNL     1       6.927  -9.528   3.475  1.00  0.00     0.034 A 
ATOM     60  C   UNL     1      12.027  -5.890   1.731  1.00  0.00     0.049 A 
ATOM     61  C   UNL     1       8.275  -9.265   4.101  1.00  0.00     0.074 A 
ATOM     62  C   UNL     1      13.194  -5.650   2.435  1.00  0.00     0.029 A 
ATOM     63  N   UNL     1      11.259  -6.742   2.508  1.00  0.00    -0.354 N 
ATOM     64  N   UNL     1       9.232  -8.463   3.701  1.00  0.00    -0.248 NA
ATOM     65  C   UNL     1       8.578  -9.973   5.356  1.00  0.00     0.031 C 
ATOM     66  C   UNL     1      13.152  -6.395   3.617  1.00  0.00     0.029 A 
ATOM     67  C   UNL     1      11.936  -7.056   3.674  1.00  0.00     0.049 A 
ATOM     68  H   UNL     1      10.365  -7.076   2.266  1.00  0.00     0.167 HD
ATOM     69  C   UNL     1      10.228  -8.540   4.671  1.00  0.00     0.074 A 
ATOM     70  C   UNL     1       9.750  -9.451   5.689  1.00  0.00     0.031 C 
ATOM     71  C   UNL     1      11.434  -7.921   4.710  1.00  0.00     0.034 A 
BRANCH  58  72
ATOM     72  C   UNL     1      12.654  -4.560  -0.316  1.00  0.00     0.023 A 
ATOM     73  C   UNL     1      12.455  -3.172  -0.457  1.00  0.00     0.012 A 
ATOM     74  C   UNL     1      13.835  -5.145  -0.816  1.00  0.00     0.148 A 
ATOM     75  C   UNL     1      13.403  -2.383  -1.108  1.00  0.00     0.002 A 
ATOM     76  C   UNL     1      14.797  -4.345  -1.419  1.00  0.00     0.091 A 
ATOM     77  F   UNL     1      13.994  -6.470  -0.690  1.00  0.00    -0.205 F 
ATOM     78  C   UNL     1      14.578  -2.966  -1.577  1.00  0.00     0.022 A 
BRANCH  76  79
ATOM     79  S   UNL     1      16.378  -4.986  -1.979  1.00  0.00     0.127 S 
ATOM     80  O   UNL     1      16.261  -4.836  -3.429  1.00  0.00    -0.237 OA
ATOM     81  O   UNL     1      17.322  -4.065  -1.346  1.00  0.00    -0.237 OA
ATOM     82  O   UNL     1      16.451  -6.359  -1.500  1.00  0.00    -0.744 OA
ENDBRANCH  76  79
ENDBRANCH  58  72
BRANCH  59  83
ATOM     83  C   UNL     1       5.982 -10.494   4.107  1.00  0.00     0.023 A 
ATOM     84  C   UNL     1       5.410 -10.198   5.360  1.00  0.00     0.012 A 
ATOM     85  C   UNL     1       5.660 -11.712   3.477  1.00  0.00     0.148 A 
ATOM     86  C   UNL     1       4.567 -11.114   5.992  1.00  0.00     0.002 A 
ATOM     87  C   UNL     1       4.774 -12.593   4.084  1.00  0.00     0.091 A 
ATOM     88  F   UNL     1       6.229 -11.984   2.295  1.00  0.00    -0.205 F 
ATOM     89  C   UNL     1       4.242 -12.306   5.350  1.00  0.00     0.022 A 
BRANCH  87  90
ATOM     90  S   UNL     1       4.202 -14.092   3.279  1.00  0.00     0.127 S 
ATOM     91  O   UNL     1       4.826 -15.128   4.097  1.00  0.00    -0.237 OA
ATOM     92  O   UNL     1       2.751 -13.978   3.430  1.00  0.00    -0.237 OA
ATOM     93  O   UNL     1       4.672 -14.005   1.903  1.00  0.00    -0.744 OA
ENDBRANCH  87  90
ENDBRANCH  59  83
BRANCH  71  94
ATOM     94  C   UNL     1      12.311  -8.151   5.915  1.00  0.00     0.023 A 
ATOM     95  C   UNL     1      12.931  -9.400   6.115  1.00  0.00     0.012 A 
ATOM     96  C   UNL     1      12.578  -7.097   6.814  1.00  0.00     0.148 A 
ATOM     97  C   UNL     1      13.771  -9.608   7.210  1.00  0.00     0.002 A 
ATOM     98  C   UNL     1      13.458  -7.296   7.871  1.00  0.00     0.091 A 
ATOM     99  F   UNL     1      11.968  -5.919   6.617  1.00  0.00    -0.205 F 
ATOM    100  C   UNL     1      14.044  -8.554   8.079  1.00  0.00     0.022 A 
BRANCH  98 101
ATOM    101  S   UNL     1      13.946  -5.971   8.982  1.00  0.00     0.127 S 
ATOM    102  O   UNL     1      13.280  -6.364  10.223  1.00  0.00    -0.237 OA
ATOM    103  O   UNL     1      15.403  -6.105   9.003  1.00  0.00    -0.237 OA
ATOM    104  O   UNL     1      13.460  -4.738   8.378  1.00  0.00    -0.744 OA
ENDBRANCH  98 101
ENDBRANCH  71  94
ENDBRANCH  45  46
ENDBRANCH  38  40
ENDBRANCH  37  38
ENDBRANCH  36  37
ENDBRANCH  35  36
ENDBRANCH  34  35
ENDBRANCH  33  34
ENDBRANCH   1  33
TORSDOF 24
