REMARK SMILES COCCCNC(=O)/C(C#N)=C/c1ccc(C(=O)OCCOCCOCCOC(=O)c2ccc(-c3c4nc(c(-c5cccc(S(=O)(=O)[O-])c5F)c5ccc([nH]5)c(-c5cccc(S(=O)(=O)[O-])c5F)c5nc(c(-c6cccc(S(=O)(=O)[O-])c6F)c6ccc3[nH]6)C=C5)C=C4)cc2)cc1
REMARK SMILES IDX 22 1 21 2 20 3 19 4 17 5 18 6 16 7 13 8 14 9 95 10 15 11
REMARK SMILES IDX 94 12 12 13 9 14 7 15 6 16 8 18 5 19 4 20 3 21 2 22 1 23
REMARK SMILES IDX 10 24 11 25 23 26 24 27 25 28 26 29 27 30 28 31 29 32 30 33
REMARK SMILES IDX 31 34 32 35 93 36 33 37 92 38 34 39 35 40 36 41 86 42 37 43
REMARK SMILES IDX 91 44 85 45 87 46 38 47 90 48 84 49 83 50 39 52 71 53 51 54
REMARK SMILES IDX 70 55 52 56 55 57 69 58 88 59 53 60 54 61 68 63 89 64 56 65
REMARK SMILES IDX 40 66 41 67 49 68 42 69 44 70 50 71 43 72 45 73 46 74 47 75
REMARK SMILES IDX 48 76 72 77 73 78 81 79 74 80 76 81 82 82 75 83 77 84 78 85
REMARK SMILES IDX 79 86 80 87 57 88 58 89 66 90 59 91 61 92 67 93 60 94 62 95
REMARK SMILES IDX 63 96 64 97 65 98
REMARK H PARENT 6 17 87 51 55 62
REMARK Flexibility Score: inf
ROOT
ATOM      1  O   UNL     1       0.233   7.123  11.792  1.00  0.00    -0.376 OA
ENDROOT
BRANCH   1   2
ATOM      2  C   UNL     1      -1.161   7.095  11.536  1.00  0.00     0.202 C 
BRANCH   2   3
ATOM      3  C   UNL     1      -1.839   6.710  10.204  1.00  0.00     0.261 C 
BRANCH   3   4
ATOM      4  O   UNL     1      -1.070   5.952   9.273  1.00  0.00    -0.460 OA
BRANCH   4   5
ATOM      5  C   UNL     1      -0.643   6.626   8.176  1.00  0.00     0.338 C 
ATOM      6  O   UNL     1      -0.915   7.773   7.869  1.00  0.00    -0.246 OA
BRANCH   5   7
ATOM      7  C   UNL     1       0.386   5.817   7.482  1.00  0.00     0.060 A 
ATOM      8  C   UNL     1       2.273   4.391   6.016  1.00  0.00    -0.024 A 
ATOM      9  C   UNL     1       2.453   5.761   6.221  1.00  0.00     0.009 A 
ATOM     10  C   UNL     1       1.255   3.708   6.702  1.00  0.00     0.009 A 
ATOM     11  C   UNL     1       1.507   6.475   6.958  1.00  0.00     0.016 A 
ATOM     12  C   UNL     1       0.283   4.426   7.394  1.00  0.00     0.016 A 
BRANCH   8  13
ATOM     13  C   UNL     1       2.921   3.753   4.855  1.00  0.00     0.033 C 
ATOM     14  C   UNL     1       2.173   3.387   3.784  1.00  0.00     0.117 C 
BRANCH  14  15
ATOM     15  C   UNL     1       2.874   2.833   2.582  1.00  0.00     0.261 C 
ATOM     16  N   UNL     1       2.219   2.452   1.443  1.00  0.00    -0.351 N 
ATOM     17  H   UNL     1       2.819   2.203   0.703  1.00  0.00     0.163 HD
ATOM     18  O   UNL     1       4.100   2.697   2.582  1.00  0.00    -0.268 OA
BRANCH  16  19
ATOM     19  C   UNL     1       0.803   2.344   1.116  1.00  0.00     0.118 C 
BRANCH  19  20
ATOM     20  C   UNL     1       0.449   2.646  -0.332  1.00  0.00     0.050 C 
BRANCH  20  21
ATOM     21  C   UNL     1       1.034   1.728  -1.392  1.00  0.00     0.161 C 
BRANCH  21  22
ATOM     22  O   UNL     1       0.402   0.454  -1.452  1.00  0.00    -0.385 OA
ATOM     23  C   UNL     1       0.881  -0.491  -0.508  1.00  0.00     0.194 C 
ENDBRANCH  21  22
ENDBRANCH  20  21
ENDBRANCH  19  20
ENDBRANCH  16  19
ENDBRANCH  14  15
BRANCH  14  24
ATOM     24  C   UNL     1       0.758   3.540   3.824  1.00  0.00     0.105 C 
ATOM     25  N   UNL     1      -0.401   3.639   3.904  1.00  0.00    -0.192 NA
ENDBRANCH  14  24
ENDBRANCH   8  13
ENDBRANCH   5   7
ENDBRANCH   4   5
ENDBRANCH   3   4
ENDBRANCH   2   3
ENDBRANCH   1   2
BRANCH   1  26
ATOM     26  C   UNL     1       1.157   6.651  10.838  1.00  0.00     0.188 C 
BRANCH  26  27
ATOM     27  C   UNL     1       1.313   5.123  10.719  1.00  0.00     0.188 C 
BRANCH  27  28
ATOM     28  O   UNL     1       0.311   4.298  11.268  1.00  0.00    -0.376 OA
BRANCH  28  29
ATOM     29  C   UNL     1       0.196   4.197  12.678  1.00  0.00     0.202 C 
BRANCH  29  30
ATOM     30  C   UNL     1       1.266   4.630  13.710  1.00  0.00     0.261 C 
BRANCH  30  31
ATOM     31  O   UNL     1       2.291   5.548  13.308  1.00  0.00    -0.460 OA
BRANCH  31  32
ATOM     32  C   UNL     1       3.503   5.000  13.041  1.00  0.00     0.338 C 
ATOM     33  O   UNL     1       3.802   3.819  13.096  1.00  0.00    -0.246 OA
BRANCH  32  34
ATOM     34  C   UNL     1       4.387   6.033  12.459  1.00  0.00     0.060 A 
ATOM     35  C   UNL     1       4.744   5.939  11.105  1.00  0.00     0.016 A 
ATOM     36  C   UNL     1       4.904   7.053  13.256  1.00  0.00     0.016 A 
ATOM     37  C   UNL     1       5.642   6.850  10.550  1.00  0.00     0.010 A 
ATOM     38  C   UNL     1       5.824   7.950  12.704  1.00  0.00     0.010 A 
ATOM     39  C   UNL     1       6.225   7.831  11.360  1.00  0.00    -0.014 A 
BRANCH  39  40
ATOM     40  C   UNL     1       7.376   8.617  10.848  1.00  0.00     0.031 A 
ATOM     41  C   UNL     1       8.763   8.249  11.303  1.00  0.00     0.074 A 
ATOM     42  C   UNL     1       7.198   9.635   9.987  1.00  0.00     0.049 A 
ATOM     43  N   UNL     1       9.906   8.820  11.026  1.00  0.00    -0.248 NA
ATOM     44  C   UNL     1       8.874   7.082  12.195  1.00  0.00     0.031 C 
ATOM     45  C   UNL     1       5.910  10.078   9.456  1.00  0.00     0.029 A 
ATOM     46  N   UNL     1       8.108  10.499   9.430  1.00  0.00    -0.354 N 
ATOM     47  C   UNL     1      10.866   8.111  11.737  1.00  0.00     0.074 A 
ATOM     48  C   UNL     1      10.171   7.073  12.467  1.00  0.00     0.031 C 
ATOM     49  C   UNL     1       6.109  11.150   8.670  1.00  0.00     0.029 A 
ATOM     50  C   UNL     1       7.531  11.491   8.672  1.00  0.00     0.049 A 
ATOM     51  H   UNL     1       9.080  10.417   9.561  1.00  0.00     0.167 HD
ATOM     52  C   UNL     1      12.207   8.300  11.776  1.00  0.00     0.034 A 
ATOM     53  C   UNL     1       8.082  12.568   8.077  1.00  0.00     0.034 A 
ATOM     54  C   UNL     1      12.896   9.331  11.047  1.00  0.00     0.049 A 
ATOM     55  C   UNL     1       9.571  12.784   8.173  1.00  0.00     0.074 A 
ATOM     56  C   UNL     1      14.256   9.576  10.986  1.00  0.00     0.029 A 
ATOM     57  N   UNL     1      12.280  10.303  10.275  1.00  0.00    -0.354 N 
ATOM     58  N   UNL     1      10.478  12.048   8.769  1.00  0.00    -0.248 NA
ATOM     59  C   UNL     1      10.116  13.964   7.486  1.00  0.00     0.031 C 
ATOM     60  C   UNL     1      14.458  10.731  10.224  1.00  0.00     0.029 A 
ATOM     61  C   UNL     1      13.230  11.164   9.752  1.00  0.00     0.049 A 
ATOM     62  H   UNL     1      11.310  10.372  10.122  1.00  0.00     0.167 HD
ATOM     63  C   UNL     1      11.702  12.649   8.491  1.00  0.00     0.074 A 
ATOM     64  C   UNL     1      11.421  13.800   7.659  1.00  0.00     0.031 C 
ATOM     65  C   UNL     1      12.945  12.284   8.890  1.00  0.00     0.034 A 
BRANCH  52  66
ATOM     66  C   UNL     1      13.020   7.375  12.646  1.00  0.00     0.023 A 
ATOM     67  C   UNL     1      13.172   6.019  12.291  1.00  0.00     0.012 A 
ATOM     68  C   UNL     1      13.677   7.866  13.792  1.00  0.00     0.148 A 
ATOM     69  C   UNL     1      13.929   5.158  13.085  1.00  0.00     0.002 A 
ATOM     70  C   UNL     1      14.472   7.015  14.548  1.00  0.00     0.091 A 
ATOM     71  F   UNL     1      13.507   9.154  14.123  1.00  0.00    -0.205 F 
ATOM     72  C   UNL     1      14.587   5.658  14.206  1.00  0.00     0.022 A 
BRANCH  70  73
ATOM     73  S   UNL     1      15.427   7.580  15.960  1.00  0.00     0.127 S 
ATOM     74  O   UNL     1      14.757   6.891  17.063  1.00  0.00    -0.237 OA
ATOM     75  O   UNL     1      16.763   7.073  15.647  1.00  0.00    -0.237 OA
ATOM     76  O   UNL     1      15.311   9.031  15.973  1.00  0.00    -0.744 OA
ENDBRANCH  70  73
ENDBRANCH  52  66
BRANCH  53  77
ATOM     77  C   UNL     1       7.226  13.528   7.323  1.00  0.00     0.023 A 
ATOM     78  C   UNL     1       7.367  13.644   5.926  1.00  0.00     0.012 A 
ATOM     79  C   UNL     1       6.282  14.334   7.987  1.00  0.00     0.148 A 
ATOM     80  C   UNL     1       6.611  14.572   5.210  1.00  0.00     0.002 A 
ATOM     81  C   UNL     1       5.490  15.215   7.260  1.00  0.00     0.091 A 
ATOM     82  F   UNL     1       6.172  14.217   9.318  1.00  0.00    -0.205 F 
ATOM     83  C   UNL     1       5.667  15.350   5.875  1.00  0.00     0.022 A 
BRANCH  81  84
ATOM     84  S   UNL     1       4.171  16.173   8.012  1.00  0.00     0.127 S 
ATOM     85  O   UNL     1       4.659  17.539   7.840  1.00  0.00    -0.237 OA
ATOM     86  O   UNL     1       3.029  15.816   7.170  1.00  0.00    -0.237 OA
ATOM     87  O   UNL     1       4.077  15.708   9.388  1.00  0.00    -0.744 OA
ENDBRANCH  81  84
ENDBRANCH  53  77
BRANCH  65  88
ATOM     88  C   UNL     1      14.114  13.091   8.382  1.00  0.00     0.023 A 
ATOM     89  C   UNL     1      14.320  14.413   8.825  1.00  0.00     0.012 A 
ATOM     90  C   UNL     1      15.047  12.508   7.500  1.00  0.00     0.148 A 
ATOM     91  C   UNL     1      15.407  15.155   8.363  1.00  0.00     0.002 A 
ATOM     92  C   UNL     1      16.159  13.233   7.090  1.00  0.00     0.091 A 
ATOM     93  F   UNL     1      14.829  11.254   7.077  1.00  0.00    -0.205 F 
ATOM     94  C   UNL     1      16.332  14.562   7.506  1.00  0.00     0.022 A 
BRANCH  92  95
ATOM     95  S   UNL     1      17.453  12.520   6.068  1.00  0.00     0.127 S 
ATOM     96  O   UNL     1      17.279  13.252   4.815  1.00  0.00    -0.237 OA
ATOM     97  O   UNL     1      18.662  12.867   6.815  1.00  0.00    -0.237 OA
ATOM     98  O   UNL     1      17.173  11.092   5.998  1.00  0.00    -0.744 OA
ENDBRANCH  92  95
ENDBRANCH  65  88
ENDBRANCH  39  40
ENDBRANCH  32  34
ENDBRANCH  31  32
ENDBRANCH  30  31
ENDBRANCH  29  30
ENDBRANCH  28  29
ENDBRANCH  27  28
ENDBRANCH  26  27
ENDBRANCH   1  26
TORSDOF 27
