REMARK SMILES CCCn1cc(S(=O)(=O)N[C@H]2C=C[C@@H](C(=O)OCCOCCOCCOC(=O)c3ccc(-c4c5nc(c(-c6cccc(S(=O)(=O)[O-])c6F)c6ccc([nH]6)c(-c6cccc(S(=O)(=O)[O-])c6F)c6nc(c(-c7cccc(S(=O)(=O)[O-])c7F)c7ccc4[nH]7)C=C6)C=C5)cc3)C2)nc1C
REMARK SMILES IDX 21 1 20 2 19 3 18 4 17 5 15 6 16 7 14 8 11 9 12 10 92 11
REMARK SMILES IDX 13 12 10 13 7 15 8 16 9 17 6 18 4 19 5 20 94 21 93 22 95 23
REMARK SMILES IDX 3 24 2 25 1 26 22 27 23 28 24 29 25 30 26 31 27 32 28 33
REMARK SMILES IDX 29 34 30 35 91 36 31 37 90 38 32 39 33 40 34 41 84 42 35 43
REMARK SMILES IDX 89 44 83 45 85 46 36 47 88 48 82 49 81 50 37 52 69 53 49 54
REMARK SMILES IDX 68 55 50 56 53 57 67 58 86 59 51 60 52 61 66 63 87 64 54 65
REMARK SMILES IDX 38 66 39 67 47 68 40 69 42 70 48 71 41 72 43 73 44 74 45 75
REMARK SMILES IDX 46 76 70 77 71 78 79 79 72 80 74 81 80 82 73 83 75 84 76 85
REMARK SMILES IDX 77 86 78 87 55 88 56 89 64 90 57 91 59 92 65 93 58 94 60 95
REMARK SMILES IDX 61 96 62 97 63 98
REMARK H PARENT 10 14 85 51 53 62
REMARK Flexibility Score: inf
ROOT
ATOM      1  C   UNL     1       0.079  -7.974   8.524  1.00  0.00     0.188 C 
ENDROOT
BRANCH   1   2
ATOM      2  O   UNL     1      -0.373  -8.651   9.673  1.00  0.00    -0.376 OA
BRANCH   2   3
ATOM      3  C   UNL     1      -0.990  -7.916  10.714  1.00  0.00     0.202 C 
BRANCH   3   4
ATOM      4  C   UNL     1      -0.547  -6.484  11.083  1.00  0.00     0.261 C 
BRANCH   4   5
ATOM      5  O   UNL     1      -0.315  -5.592   9.975  1.00  0.00    -0.463 OA
BRANCH   5   6
ATOM      6  C   UNL     1       0.895  -4.986   9.919  1.00  0.00     0.312 C 
ATOM      7  O   UNL     1       1.754  -5.097  10.791  1.00  0.00    -0.252 OA
BRANCH   6   8
ATOM      8  C   UNL     1       1.165  -4.219   8.617  1.00  0.00     0.123 C 
ATOM      9  C   UNL     1       0.305  -2.451   7.129  1.00  0.00     0.093 C 
ATOM     10  C   UNL     1       1.158  -1.892   8.209  1.00  0.00    -0.011 C 
ATOM     11  C   UNL     1       0.024  -3.868   7.652  1.00  0.00     0.043 C 
ATOM     12  C   UNL     1       1.670  -2.852   8.985  1.00  0.00    -0.015 C 
BRANCH   9  13
ATOM     13  N   UNL     1      -0.961  -1.754   6.947  1.00  0.00    -0.203 NA
ATOM     14  H   UNL     1      -1.558  -2.365   6.389  1.00  0.00     0.142 HD
BRANCH  13  15
ATOM     15  S   UNL     1      -0.981  -0.241   6.205  1.00  0.00     0.260 S 
ATOM     16  O   UNL     1      -0.154   0.639   7.005  1.00  0.00    -0.205 OA
ATOM     17  O   UNL     1      -2.371   0.067   5.945  1.00  0.00    -0.205 OA
BRANCH  15  18
ATOM     18  C   UNL     1      -0.225  -0.289   4.631  1.00  0.00     0.188 A 
ATOM     19  N   UNL     1       0.575  -0.924   2.687  1.00  0.00    -0.334 N 
ATOM     20  C   UNL     1      -0.204  -1.346   3.742  1.00  0.00     0.129 A 
ATOM     21  C   UNL     1       0.985   0.364   2.965  1.00  0.00     0.107 A 
ATOM     22  N   UNL     1       0.497   0.770   4.118  1.00  0.00    -0.221 NA
ATOM     23  C   UNL     1       1.869   1.198   2.112  1.00  0.00     0.088 C 
BRANCH  19  24
ATOM     24  C   UNL     1       1.030  -1.782   1.606  1.00  0.00     0.123 C 
BRANCH  24  25
ATOM     25  C   UNL     1       0.289  -1.647   0.274  1.00  0.00     0.018 C 
ATOM     26  C   UNL     1       0.623  -0.388  -0.511  1.00  0.00     0.006 C 
ENDBRANCH  24  25
ENDBRANCH  19  24
ENDBRANCH  15  18
ENDBRANCH  13  15
ENDBRANCH   9  13
ENDBRANCH   6   8
ENDBRANCH   5   6
ENDBRANCH   4   5
ENDBRANCH   3   4
ENDBRANCH   2   3
ENDBRANCH   1   2
BRANCH   1  27
ATOM     27  C   UNL     1      -0.896  -7.173   7.649  1.00  0.00     0.188 C 
BRANCH  27  28
ATOM     28  O   UNL     1      -1.997  -6.473   8.187  1.00  0.00    -0.376 OA
BRANCH  28  29
ATOM     29  C   UNL     1      -3.277  -7.021   8.471  1.00  0.00     0.202 C 
BRANCH  29  30
ATOM     30  C   UNL     1      -3.765  -8.411   8.072  1.00  0.00     0.261 C 
BRANCH  30  31
ATOM     31  O   UNL     1      -2.806  -9.209   7.435  1.00  0.00    -0.460 OA
BRANCH  31  32
ATOM     32  C   UNL     1      -2.721  -8.974   6.108  1.00  0.00     0.338 C 
ATOM     33  O   UNL     1      -3.254  -8.086   5.474  1.00  0.00    -0.246 OA
BRANCH  32  34
ATOM     34  C   UNL     1      -1.825  -9.987   5.551  1.00  0.00     0.060 A 
ATOM     35  C   UNL     1      -1.427  -9.801   4.227  1.00  0.00     0.016 A 
ATOM     36  C   UNL     1      -1.714 -11.210   6.224  1.00  0.00     0.016 A 
ATOM     37  C   UNL     1      -1.224 -10.926   3.474  1.00  0.00     0.010 A 
ATOM     38  C   UNL     1      -1.548 -12.329   5.466  1.00  0.00     0.010 A 
ATOM     39  C   UNL     1      -1.425 -12.164   4.090  1.00  0.00    -0.014 A 
BRANCH  39  40
ATOM     40  C   UNL     1      -1.462 -13.342   3.266  1.00  0.00     0.031 A 
ATOM     41  C   UNL     1      -0.105 -13.781   2.914  1.00  0.00     0.074 A 
ATOM     42  C   UNL     1      -2.625 -13.958   2.983  1.00  0.00     0.049 A 
ATOM     43  N   UNL     1       0.495 -13.606   1.784  1.00  0.00    -0.248 NA
ATOM     44  C   UNL     1       0.778 -14.214   4.008  1.00  0.00     0.031 C 
ATOM     45  C   UNL     1      -3.955 -13.667   3.537  1.00  0.00     0.029 A 
ATOM     46  N   UNL     1      -2.842 -15.068   2.233  1.00  0.00    -0.354 N 
ATOM     47  C   UNL     1       1.731 -14.214   1.962  1.00  0.00     0.074 A 
ATOM     48  C   UNL     1       1.953 -14.272   3.379  1.00  0.00     0.031 C 
ATOM     49  C   UNL     1      -4.778 -14.713   3.292  1.00  0.00     0.029 A 
ATOM     50  C   UNL     1      -4.078 -15.669   2.453  1.00  0.00     0.049 A 
ATOM     51  H   UNL     1      -2.184 -15.418   1.589  1.00  0.00     0.167 HD
ATOM     52  C   UNL     1       2.255 -14.980   0.969  1.00  0.00     0.034 A 
ATOM     53  C   UNL     1      -4.458 -16.891   2.009  1.00  0.00     0.034 A 
ATOM     54  C   UNL     1       1.566 -14.744  -0.276  1.00  0.00     0.049 A 
ATOM     55  C   UNL     1      -3.584 -17.223   0.863  1.00  0.00     0.074 A 
ATOM     56  C   UNL     1       1.470 -13.714  -1.184  1.00  0.00     0.029 A 
ATOM     57  N   UNL     1       0.492 -15.576  -0.475  1.00  0.00    -0.354 N 
ATOM     58  N   UNL     1      -3.627 -16.579  -0.269  1.00  0.00    -0.248 NA
ATOM     59  C   UNL     1      -2.390 -18.033   1.077  1.00  0.00     0.031 C 
ATOM     60  C   UNL     1       0.193 -13.855  -1.802  1.00  0.00     0.029 A 
ATOM     61  C   UNL     1      -0.440 -14.984  -1.283  1.00  0.00     0.049 A 
ATOM     62  H   UNL     1       0.404 -16.477  -0.088  1.00  0.00     0.167 HD
ATOM     63  C   UNL     1      -2.305 -16.525  -0.671  1.00  0.00     0.074 A 
ATOM     64  C   UNL     1      -1.634 -17.587   0.069  1.00  0.00     0.031 C 
ATOM     65  C   UNL     1      -1.820 -15.421  -1.307  1.00  0.00     0.034 A 
BRANCH  52  66
ATOM     66  C   UNL     1       3.006 -16.278   1.191  1.00  0.00     0.023 A 
ATOM     67  C   UNL     1       3.570 -16.884   0.048  1.00  0.00     0.012 A 
ATOM     68  C   UNL     1       2.944 -17.069   2.364  1.00  0.00     0.148 A 
ATOM     69  C   UNL     1       4.003 -18.215   0.059  1.00  0.00     0.002 A 
ATOM     70  C   UNL     1       3.447 -18.363   2.393  1.00  0.00     0.091 A 
ATOM     71  F   UNL     1       2.271 -16.645   3.433  1.00  0.00    -0.205 F 
ATOM     72  C   UNL     1       3.950 -18.953   1.235  1.00  0.00     0.022 A 
BRANCH  70  73
ATOM     73  S   UNL     1       3.425 -19.344   3.901  1.00  0.00     0.127 S 
ATOM     74  O   UNL     1       2.391 -20.328   3.594  1.00  0.00    -0.237 OA
ATOM     75  O   UNL     1       4.791 -19.865   3.935  1.00  0.00    -0.237 OA
ATOM     76  O   UNL     1       3.117 -18.409   4.976  1.00  0.00    -0.744 OA
ENDBRANCH  70  73
ENDBRANCH  52  66
BRANCH  53  77
ATOM     77  C   UNL     1      -5.399 -17.886   2.564  1.00  0.00     0.023 A 
ATOM     78  C   UNL     1      -5.995 -18.833   1.706  1.00  0.00     0.012 A 
ATOM     79  C   UNL     1      -5.467 -18.105   3.956  1.00  0.00     0.148 A 
ATOM     80  C   UNL     1      -6.597 -19.989   2.216  1.00  0.00     0.002 A 
ATOM     81  C   UNL     1      -6.061 -19.260   4.458  1.00  0.00     0.091 A 
ATOM     82  F   UNL     1      -4.870 -17.226   4.772  1.00  0.00    -0.205 F 
ATOM     83  C   UNL     1      -6.615 -20.210   3.589  1.00  0.00     0.022 A 
BRANCH  81  84
ATOM     84  S   UNL     1      -6.081 -19.655   6.213  1.00  0.00     0.127 S 
ATOM     85  O   UNL     1      -7.505 -19.896   6.450  1.00  0.00    -0.237 OA
ATOM     86  O   UNL     1      -5.242 -20.850   6.261  1.00  0.00    -0.237 OA
ATOM     87  O   UNL     1      -5.545 -18.483   6.892  1.00  0.00    -0.744 OA
ENDBRANCH  81  84
ENDBRANCH  53  77
BRANCH  65  88
ATOM     88  C   UNL     1      -2.825 -14.490  -1.925  1.00  0.00     0.023 A 
ATOM     89  C   UNL     1      -3.696 -13.687  -1.161  1.00  0.00     0.012 A 
ATOM     90  C   UNL     1      -2.805 -14.342  -3.320  1.00  0.00     0.148 A 
ATOM     91  C   UNL     1      -4.544 -12.767  -1.782  1.00  0.00     0.002 A 
ATOM     92  C   UNL     1      -3.612 -13.393  -3.929  1.00  0.00     0.091 A 
ATOM     93  F   UNL     1      -1.969 -15.119  -4.025  1.00  0.00    -0.205 F 
ATOM     94  C   UNL     1      -4.493 -12.610  -3.166  1.00  0.00     0.022 A 
BRANCH  92  95
ATOM     95  S   UNL     1      -3.498 -13.057  -5.687  1.00  0.00     0.127 S 
ATOM     96  O   UNL     1      -4.751 -13.618  -6.188  1.00  0.00    -0.237 OA
ATOM     97  O   UNL     1      -3.425 -11.595  -5.719  1.00  0.00    -0.237 OA
ATOM     98  O   UNL     1      -2.286 -13.723  -6.146  1.00  0.00    -0.744 OA
ENDBRANCH  92  95
ENDBRANCH  65  88
ENDBRANCH  39  40
ENDBRANCH  32  34
ENDBRANCH  31  32
ENDBRANCH  30  31
ENDBRANCH  29  30
ENDBRANCH  28  29
ENDBRANCH  27  28
ENDBRANCH   1  27
TORSDOF 25
