REMARK SMILES Cc1cc2[nH]c(=O)[nH]c2cc1S(=O)(=O)NCCC(=O)OCCOCCOCCOC(=O)c1ccc(-c2c3nc(c(-c4cccc(S(=O)(=O)[O-])c4F)c4ccc([nH]4)c(-c4cccc(S(=O)(=O)[O-])c4F)c4nc(c(-c5cccc(S(=O)(=O)[O-])c5F)c5ccc2[nH]5)C=C4)C=C3)cc1
REMARK SMILES IDX 24 1 23 2 22 3 21 4 20 5 18 6 19 7 17 8 16 9 15 10 12 12
REMARK SMILES IDX 13 13 14 14 11 15 1 16 2 17 3 18 4 19 10 20 5 21 9 22 6 23
REMARK SMILES IDX 8 25 7 26 25 28 26 29 27 30 28 31 29 32 30 33 31 34 32 35
REMARK SMILES IDX 33 36 94 37 34 38 93 39 35 40 36 41 37 42 87 43 38 44 92 45
REMARK SMILES IDX 86 46 88 47 39 48 91 49 85 50 84 51 40 53 72 54 52 55 71 56
REMARK SMILES IDX 53 57 56 58 70 59 89 60 54 61 55 62 69 64 90 65 57 66 41 67
REMARK SMILES IDX 42 68 50 69 43 70 45 71 51 72 44 73 46 74 47 75 48 76 49 77
REMARK SMILES IDX 73 78 74 79 82 80 75 81 77 82 83 83 76 84 78 85 79 86 80 87
REMARK SMILES IDX 81 88 58 89 59 90 67 91 60 92 62 93 68 94 61 95 63 96 64 97
REMARK SMILES IDX 65 98 66 99
REMARK H PARENT 15 11 5 24 8 27 88 52 56 63
REMARK Flexibility Score: inf
ROOT
ATOM      1  C   UNL     1      -0.531   4.711  -3.701  1.00  0.00     0.188 C 
ENDROOT
BRANCH   1   2
ATOM      2  O   UNL     1      -0.541   6.127  -3.798  1.00  0.00    -0.376 OA
BRANCH   2   3
ATOM      3  C   UNL     1      -0.071   6.881  -2.692  1.00  0.00     0.202 C 
BRANCH   3   4
ATOM      4  C   UNL     1      -0.827   6.692  -1.380  1.00  0.00     0.261 C 
BRANCH   4   5
ATOM      5  O   UNL     1      -0.593   5.378  -0.850  1.00  0.00    -0.463 OA
BRANCH   5   6
ATOM      6  C   UNL     1      -1.696   4.769  -0.380  1.00  0.00     0.307 C 
ATOM      7  O   UNL     1      -2.780   5.327  -0.224  1.00  0.00    -0.252 OA
BRANCH   6   8
ATOM      8  C   UNL     1      -1.589   3.285  -0.251  1.00  0.00     0.139 C 
BRANCH   8   9
ATOM      9  C   UNL     1      -0.418   2.342  -0.334  1.00  0.00     0.110 C 
BRANCH   9  10
ATOM     10  N   UNL     1       0.801   2.746   0.314  1.00  0.00    -0.211 NA
ATOM     11  H   UNL     1       1.532   2.138  -0.055  1.00  0.00     0.141 HD
BRANCH  10  12
ATOM     12  S   UNL     1       0.986   2.738   1.958  1.00  0.00     0.240 S 
ATOM     13  O   UNL     1      -0.075   3.595   2.470  1.00  0.00    -0.207 OA
ATOM     14  O   UNL     1       2.367   3.031   2.214  1.00  0.00    -0.207 OA
BRANCH  12  15
ATOM     15  C   UNL     1       0.668   1.073   2.519  1.00  0.00     0.087 A 
ATOM     16  C   UNL     1       1.790  -0.145   0.510  1.00  0.00     0.046 C 
ATOM     17  C   UNL     1       1.046  -0.114   1.815  1.00  0.00    -0.029 A 
ATOM     18  C   UNL     1       0.692  -1.375   2.360  1.00  0.00     0.033 A 
ATOM     19  C   UNL     1       0.080  -1.401   3.592  1.00  0.00     0.067 A 
ATOM     20  C   UNL     1       0.001   1.006   3.756  1.00  0.00     0.050 A 
ATOM     21  N   UNL     1      -0.287  -2.475   4.393  1.00  0.00    -0.306 N 
ATOM     22  C   UNL     1      -0.245  -0.237   4.272  1.00  0.00     0.068 A 
ATOM     23  C   UNL     1      -0.803  -1.985   5.603  1.00  0.00     0.323 A 
ATOM     24  H   UNL     1      -0.199  -3.425   4.152  1.00  0.00     0.171 HD
ATOM     25  N   UNL     1      -0.797  -0.585   5.495  1.00  0.00    -0.306 N 
ATOM     26  O   UNL     1      -1.104  -2.612   6.603  1.00  0.00    -0.248 OA
ATOM     27  H   UNL     1      -1.130   0.045   6.175  1.00  0.00     0.171 HD
ENDBRANCH  12  15
ENDBRANCH  10  12
ENDBRANCH   9  10
ENDBRANCH   8   9
ENDBRANCH   6   8
ENDBRANCH   5   6
ENDBRANCH   4   5
ENDBRANCH   3   4
ENDBRANCH   2   3
ENDBRANCH   1   2
BRANCH   1  28
ATOM     28  C   UNL     1       0.702   4.007  -3.095  1.00  0.00     0.188 C 
BRANCH  28  29
ATOM     29  O   UNL     1       2.015   4.487  -3.315  1.00  0.00    -0.376 OA
BRANCH  29  30
ATOM     30  C   UNL     1       2.354   4.875  -4.633  1.00  0.00     0.202 C 
BRANCH  30  31
ATOM     31  C   UNL     1       2.299   3.776  -5.707  1.00  0.00     0.261 C 
BRANCH  31  32
ATOM     32  O   UNL     1       0.996   3.169  -5.792  1.00  0.00    -0.460 OA
BRANCH  32  33
ATOM     33  C   UNL     1       0.953   1.808  -5.760  1.00  0.00     0.338 C 
ATOM     34  O   UNL     1       1.880   1.052  -5.989  1.00  0.00    -0.246 OA
BRANCH  33  35
ATOM     35  C   UNL     1      -0.317   1.404  -5.090  1.00  0.00     0.060 A 
ATOM     36  C   UNL     1      -1.539   2.005  -5.393  1.00  0.00     0.016 A 
ATOM     37  C   UNL     1      -0.232   0.525  -3.997  1.00  0.00     0.016 A 
ATOM     38  C   UNL     1      -2.645   1.778  -4.562  1.00  0.00     0.010 A 
ATOM     39  C   UNL     1      -1.347   0.292  -3.174  1.00  0.00     0.010 A 
ATOM     40  C   UNL     1      -2.563   0.931  -3.435  1.00  0.00    -0.014 A 
BRANCH  40  41
ATOM     41  C   UNL     1      -3.830   0.427  -2.849  1.00  0.00     0.031 A 
ATOM     42  C   UNL     1      -4.627  -0.276  -3.874  1.00  0.00     0.074 A 
ATOM     43  C   UNL     1      -4.356   0.414  -1.600  1.00  0.00     0.049 A 
ATOM     44  N   UNL     1      -5.673   0.209  -4.457  1.00  0.00    -0.248 NA
ATOM     45  C   UNL     1      -4.140  -1.547  -4.418  1.00  0.00     0.031 C 
ATOM     46  C   UNL     1      -3.810   0.983  -0.389  1.00  0.00     0.029 A 
ATOM     47  N   UNL     1      -5.505  -0.166  -1.113  1.00  0.00    -0.354 N 
ATOM     48  C   UNL     1      -6.155  -0.841  -5.213  1.00  0.00     0.074 A 
ATOM     49  C   UNL     1      -5.083  -1.802  -5.327  1.00  0.00     0.031 C 
ATOM     50  C   UNL     1      -4.391   0.490   0.721  1.00  0.00     0.029 A 
ATOM     51  C   UNL     1      -5.551  -0.250   0.279  1.00  0.00     0.049 A 
ATOM     52  H   UNL     1      -6.230  -0.492  -1.694  1.00  0.00     0.167 HD
ATOM     53  C   UNL     1      -7.492  -1.011  -5.359  1.00  0.00     0.034 A 
ATOM     54  C   UNL     1      -6.545  -0.659   1.095  1.00  0.00     0.034 A 
ATOM     55  C   UNL     1      -8.263   0.137  -4.971  1.00  0.00     0.049 A 
ATOM     56  C   UNL     1      -7.816  -0.362   0.416  1.00  0.00     0.074 A 
ATOM     57  C   UNL     1      -8.616   1.361  -5.492  1.00  0.00     0.029 A 
ATOM     58  N   UNL     1      -8.564   0.163  -3.640  1.00  0.00    -0.354 N 
ATOM     59  N   UNL     1      -8.286   0.843   0.235  1.00  0.00    -0.248 NA
ATOM     60  C   UNL     1      -8.520  -1.438  -0.268  1.00  0.00     0.031 C 
ATOM     61  C   UNL     1      -9.106   2.146  -4.404  1.00  0.00     0.029 A 
ATOM     62  C   UNL     1      -9.039   1.383  -3.245  1.00  0.00     0.049 A 
ATOM     63  H   UNL     1      -8.453  -0.606  -3.035  1.00  0.00     0.167 HD
ATOM     64  C   UNL     1      -9.073   0.715  -0.890  1.00  0.00     0.074 A 
ATOM     65  C   UNL     1      -9.321  -0.711  -1.046  1.00  0.00     0.031 C 
ATOM     66  C   UNL     1      -9.114   1.692  -1.835  1.00  0.00     0.034 A 
BRANCH  53  67
ATOM     67  C   UNL     1      -8.116  -2.376  -5.365  1.00  0.00     0.023 A 
ATOM     68  C   UNL     1      -9.399  -2.525  -5.918  1.00  0.00     0.012 A 
ATOM     69  C   UNL     1      -7.595  -3.456  -4.618  1.00  0.00     0.148 A 
ATOM     70  C   UNL     1     -10.110  -3.720  -5.773  1.00  0.00     0.002 A 
ATOM     71  C   UNL     1      -8.255  -4.673  -4.569  1.00  0.00     0.091 A 
ATOM     72  F   UNL     1      -6.527  -3.264  -3.831  1.00  0.00    -0.205 F 
ATOM     73  C   UNL     1      -9.525  -4.807  -5.128  1.00  0.00     0.022 A 
BRANCH  71  74
ATOM     74  S   UNL     1      -7.480  -6.108  -3.823  1.00  0.00     0.127 S 
ATOM     75  O   UNL     1      -8.155  -6.167  -2.531  1.00  0.00    -0.237 OA
ATOM     76  O   UNL     1      -7.839  -7.168  -4.766  1.00  0.00    -0.237 OA
ATOM     77  O   UNL     1      -6.056  -5.793  -3.800  1.00  0.00    -0.744 OA
ENDBRANCH  71  74
ENDBRANCH  53  67
BRANCH  54  78
ATOM     78  C   UNL     1      -6.505  -1.284   2.438  1.00  0.00     0.023 A 
ATOM     79  C   UNL     1      -7.705  -1.383   3.177  1.00  0.00     0.012 A 
ATOM     80  C   UNL     1      -5.406  -2.073   2.841  1.00  0.00     0.148 A 
ATOM     81  C   UNL     1      -7.843  -2.316   4.208  1.00  0.00     0.002 A 
ATOM     82  C   UNL     1      -5.554  -3.008   3.862  1.00  0.00     0.091 A 
ATOM     83  F   UNL     1      -4.254  -1.977   2.163  1.00  0.00    -0.205 F 
ATOM     84  C   UNL     1      -6.777  -3.145   4.534  1.00  0.00     0.022 A 
BRANCH  82  85
ATOM     85  S   UNL     1      -4.239  -4.153   4.301  1.00  0.00     0.127 S 
ATOM     86  O   UNL     1      -4.372  -4.229   5.755  1.00  0.00    -0.237 OA
ATOM     87  O   UNL     1      -4.640  -5.362   3.588  1.00  0.00    -0.237 OA
ATOM     88  O   UNL     1      -3.006  -3.530   3.833  1.00  0.00    -0.744 OA
ENDBRANCH  82  85
ENDBRANCH  54  78
BRANCH  66  89
ATOM     89  C   UNL     1      -9.047   3.119  -1.407  1.00  0.00     0.023 A 
ATOM     90  C   UNL     1      -7.867   3.745  -0.970  1.00  0.00     0.012 A 
ATOM     91  C   UNL     1     -10.215   3.885  -1.574  1.00  0.00     0.148 A 
ATOM     92  C   UNL     1      -7.854   5.121  -0.715  1.00  0.00     0.002 A 
ATOM     93  C   UNL     1     -10.190   5.254  -1.356  1.00  0.00     0.091 A 
ATOM     94  F   UNL     1     -11.329   3.253  -1.976  1.00  0.00    -0.205 F 
ATOM     95  C   UNL     1      -9.011   5.877  -0.921  1.00  0.00     0.022 A 
BRANCH  93  96
ATOM     96  S   UNL     1     -11.612   6.292  -1.704  1.00  0.00     0.127 S 
ATOM     97  O   UNL     1     -11.973   6.778  -0.374  1.00  0.00    -0.237 OA
ATOM     98  O   UNL     1     -11.043   7.305  -2.594  1.00  0.00    -0.237 OA
ATOM     99  O   UNL     1     -12.602   5.428  -2.336  1.00  0.00    -0.744 OA
ENDBRANCH  93  96
ENDBRANCH  66  89
ENDBRANCH  40  41
ENDBRANCH  33  35
ENDBRANCH  32  33
ENDBRANCH  31  32
ENDBRANCH  30  31
ENDBRANCH  29  30
ENDBRANCH  28  29
ENDBRANCH   1  28
TORSDOF 24
