REMARK SMILES C[C@H](C(=O)OCCOCCOCCOC(=O)c1ccc(-c2c3nc(c(-c4cccc(S(=O)(=O)[O-])c4F)c4ccc([nH]4)c(-c4cccc(S(=O)(=O)[O-])c4F)c4nc(c(-c5cccc(S(=O)(=O)[O-])c5F)c5ccc2[nH]5)C=C4)C=C3)cc1)c1ccc(C[C@@H]2CCC[C@H]2O)cc1
REMARK SMILES IDX 9 1 8 2 7 3 6 4 5 5 3 6 4 7 2 8 1 9 80 10 81 11 92 12 82 13
REMARK SMILES IDX 91 14 83 15 84 16 85 17 86 18 89 19 87 20 88 21 90 22 10 24
REMARK SMILES IDX 11 25 12 26 13 27 14 28 15 29 16 30 17 31 18 32 79 33 19 34
REMARK SMILES IDX 78 35 20 36 21 37 22 38 72 39 23 40 77 41 71 42 73 43 24 44
REMARK SMILES IDX 76 45 70 46 69 47 25 49 57 50 37 51 56 52 38 53 41 54 55 55
REMARK SMILES IDX 74 56 39 57 40 58 54 60 75 61 42 62 26 63 27 64 35 65 28 66
REMARK SMILES IDX 30 67 36 68 29 69 31 70 32 71 33 72 34 73 58 74 59 75 67 76
REMARK SMILES IDX 60 77 62 78 68 79 61 80 63 81 64 82 65 83 66 84 43 85 44 86
REMARK SMILES IDX 52 87 45 88 47 89 53 90 46 91 48 92 49 93 50 94 51 95
REMARK H PARENT 90 23 73 48 41 59
REMARK Flexibility Score: inf
ROOT
ATOM      1  C   UNL     1     -12.747   5.086   7.274  1.00  0.00     0.188 C 
ENDROOT
BRANCH   1   2
ATOM      2  O   UNL     1     -13.529   6.208   6.925  1.00  0.00    -0.376 OA
BRANCH   2   3
ATOM      3  C   UNL     1     -12.883   7.336   6.368  1.00  0.00     0.202 C 
BRANCH   3   4
ATOM      4  C   UNL     1     -11.773   7.178   5.316  1.00  0.00     0.261 C 
BRANCH   4   5
ATOM      5  O   UNL     1     -10.905   6.043   5.464  1.00  0.00    -0.463 OA
BRANCH   5   6
ATOM      6  C   UNL     1      -9.750   6.186   6.159  1.00  0.00     0.313 C 
ATOM      7  O   UNL     1      -9.411   7.231   6.701  1.00  0.00    -0.252 OA
BRANCH   6   8
ATOM      8  C   UNL     1      -8.955   4.879   6.274  1.00  0.00     0.126 C 
ATOM      9  C   UNL     1      -9.374   4.112   7.537  1.00  0.00     0.025 C 
BRANCH   8  10
ATOM     10  C   UNL     1      -8.836   3.989   5.031  1.00  0.00    -0.034 A 
ATOM     11  C   UNL     1      -8.329   2.682   5.158  1.00  0.00     0.005 A 
ATOM     12  C   UNL     1      -9.037   4.477   3.731  1.00  0.00     0.005 A 
ATOM     13  C   UNL     1      -7.931   1.943   4.043  1.00  0.00     0.004 A 
ATOM     14  C   UNL     1      -8.624   3.742   2.613  1.00  0.00     0.004 A 
ATOM     15  C   UNL     1      -7.984   2.510   2.771  1.00  0.00    -0.048 A 
BRANCH  15  16
ATOM     16  C   UNL     1      -7.232   1.883   1.624  1.00  0.00     0.041 C 
BRANCH  16  17
ATOM     17  C   UNL     1      -5.699   2.127   1.609  1.00  0.00     0.022 C 
ATOM     18  C   UNL     1      -4.925   1.446   2.749  1.00  0.00     0.007 C 
ATOM     19  C   UNL     1      -5.262   3.594   1.714  1.00  0.00     0.117 C 
ATOM     20  C   UNL     1      -4.607   2.521   3.791  1.00  0.00     0.003 C 
ATOM     21  C   UNL     1      -5.036   3.861   3.199  1.00  0.00     0.032 C 
BRANCH  19  22
ATOM     22  O   UNL     1      -4.022   3.768   1.019  1.00  0.00    -0.393 OA
ATOM     23  H   UNL     1      -3.355   3.171   1.394  1.00  0.00     0.210 HD
ENDBRANCH  19  22
ENDBRANCH  16  17
ENDBRANCH  15  16
ENDBRANCH   8  10
ENDBRANCH   6   8
ENDBRANCH   5   6
ENDBRANCH   4   5
ENDBRANCH   3   4
ENDBRANCH   2   3
ENDBRANCH   1   2
BRANCH   1  24
ATOM     24  C   UNL     1     -12.775   3.974   6.199  1.00  0.00     0.188 C 
BRANCH  24  25
ATOM     25  O   UNL     1     -13.770   4.006   5.181  1.00  0.00    -0.376 OA
BRANCH  25  26
ATOM     26  C   UNL     1     -15.094   4.387   5.521  1.00  0.00     0.202 C 
BRANCH  26  27
ATOM     27  C   UNL     1     -15.837   3.634   6.637  1.00  0.00     0.261 C 
BRANCH  27  28
ATOM     28  O   UNL     1     -15.124   3.470   7.876  1.00  0.00    -0.460 OA
BRANCH  28  29
ATOM     29  C   UNL     1     -14.675   2.220   8.146  1.00  0.00     0.338 C 
ATOM     30  O   UNL     1     -14.833   1.221   7.455  1.00  0.00    -0.246 OA
BRANCH  29  31
ATOM     31  C   UNL     1     -13.787   2.236   9.331  1.00  0.00     0.060 A 
ATOM     32  C   UNL     1     -12.468   1.778   9.187  1.00  0.00     0.016 A 
ATOM     33  C   UNL     1     -14.252   2.640  10.582  1.00  0.00     0.016 A 
ATOM     34  C   UNL     1     -11.622   1.696  10.297  1.00  0.00     0.010 A 
ATOM     35  C   UNL     1     -13.410   2.534  11.698  1.00  0.00     0.010 A 
ATOM     36  C   UNL     1     -12.101   2.033  11.569  1.00  0.00    -0.014 A 
BRANCH  36  37
ATOM     37  C   UNL     1     -11.305   1.700  12.780  1.00  0.00     0.031 A 
ATOM     38  C   UNL     1     -11.627   0.436  13.533  1.00  0.00     0.074 A 
ATOM     39  C   UNL     1     -10.321   2.506  13.222  1.00  0.00     0.049 A 
ATOM     40  N   UNL     1     -11.107  -0.026  14.641  1.00  0.00    -0.248 NA
ATOM     41  C   UNL     1     -12.678  -0.420  12.959  1.00  0.00     0.031 C 
ATOM     42  C   UNL     1      -9.890   3.747  12.582  1.00  0.00     0.029 A 
ATOM     43  N   UNL     1      -9.525   2.408  14.339  1.00  0.00    -0.354 N 
ATOM     44  C   UNL     1     -11.789  -1.206  14.916  1.00  0.00     0.074 A 
ATOM     45  C   UNL     1     -12.761  -1.388  13.860  1.00  0.00     0.031 C 
ATOM     46  C   UNL     1      -8.931   4.314  13.335  1.00  0.00     0.029 A 
ATOM     47  C   UNL     1      -8.700   3.494  14.524  1.00  0.00     0.049 A 
ATOM     48  H   UNL     1      -9.544   1.635  14.948  1.00  0.00     0.167 HD
ATOM     49  C   UNL     1     -11.622  -2.065  15.950  1.00  0.00     0.034 A 
ATOM     50  C   UNL     1      -7.878   3.804  15.548  1.00  0.00     0.034 A 
ATOM     51  C   UNL     1     -10.655  -1.893  17.001  1.00  0.00     0.049 A 
ATOM     52  C   UNL     1      -7.745   2.853  16.713  1.00  0.00     0.074 A 
ATOM     53  C   UNL     1     -10.383  -2.736  18.064  1.00  0.00     0.029 A 
ATOM     54  N   UNL     1      -9.820  -0.796  17.139  1.00  0.00    -0.354 N 
ATOM     55  N   UNL     1      -8.311   1.685  16.899  1.00  0.00    -0.248 NA
ATOM     56  C   UNL     1      -6.834   3.252  17.799  1.00  0.00     0.031 C 
ATOM     57  C   UNL     1      -9.415  -2.128  18.869  1.00  0.00     0.029 A 
ATOM     58  C   UNL     1      -9.048  -0.929  18.281  1.00  0.00     0.049 A 
ATOM     59  H   UNL     1      -9.782  -0.033  16.518  1.00  0.00     0.167 HD
ATOM     60  C   UNL     1      -7.793   1.193  18.095  1.00  0.00     0.074 A 
ATOM     61  C   UNL     1      -6.855   2.182  18.582  1.00  0.00     0.031 C 
ATOM     62  C   UNL     1      -8.075   0.031  18.734  1.00  0.00     0.034 A 
BRANCH  49  63
ATOM     63  C   UNL     1     -12.510  -3.281  16.000  1.00  0.00     0.023 A 
ATOM     64  C   UNL     1     -12.315  -4.333  15.082  1.00  0.00     0.012 A 
ATOM     65  C   UNL     1     -13.499  -3.406  16.995  1.00  0.00     0.148 A 
ATOM     66  C   UNL     1     -13.114  -5.474  15.132  1.00  0.00     0.002 A 
ATOM     67  C   UNL     1     -14.259  -4.566  17.069  1.00  0.00     0.091 A 
ATOM     68  F   UNL     1     -13.681  -2.386  17.846  1.00  0.00    -0.205 F 
ATOM     69  C   UNL     1     -14.077  -5.596  16.131  1.00  0.00     0.022 A 
BRANCH  67  70
ATOM     70  S   UNL     1     -15.466  -4.853  18.366  1.00  0.00     0.127 S 
ATOM     71  O   UNL     1     -16.721  -4.804  17.617  1.00  0.00    -0.237 OA
ATOM     72  O   UNL     1     -15.093  -6.185  18.843  1.00  0.00    -0.237 OA
ATOM     73  O   UNL     1     -15.278  -3.784  19.336  1.00  0.00    -0.744 OA
ENDBRANCH  67  70
ENDBRANCH  49  63
BRANCH  50  74
ATOM     74  C   UNL     1      -7.091   5.072  15.524  1.00  0.00     0.023 A 
ATOM     75  C   UNL     1      -5.687   5.017  15.417  1.00  0.00     0.012 A 
ATOM     76  C   UNL     1      -7.723   6.326  15.626  1.00  0.00     0.148 A 
ATOM     77  C   UNL     1      -4.925   6.186  15.450  1.00  0.00     0.002 A 
ATOM     78  C   UNL     1      -6.962   7.489  15.601  1.00  0.00     0.091 A 
ATOM     79  F   UNL     1      -9.057   6.357  15.745  1.00  0.00    -0.205 F 
ATOM     80  C   UNL     1      -5.562   7.421  15.533  1.00  0.00     0.022 A 
BRANCH  78  81
ATOM     81  S   UNL     1      -7.699   9.127  15.588  1.00  0.00     0.127 S 
ATOM     82  O   UNL     1      -7.285   9.652  16.887  1.00  0.00    -0.237 OA
ATOM     83  O   UNL     1      -7.040   9.741  14.435  1.00  0.00    -0.237 OA
ATOM     84  O   UNL     1      -9.130   8.914  15.422  1.00  0.00    -0.744 OA
ENDBRANCH  78  81
ENDBRANCH  50  74
BRANCH  62  85
ATOM     85  C   UNL     1      -7.325  -0.280  20.007  1.00  0.00     0.023 A 
ATOM     86  C   UNL     1      -7.595   0.443  21.186  1.00  0.00     0.012 A 
ATOM     87  C   UNL     1      -6.406  -1.349  20.050  1.00  0.00     0.148 A 
ATOM     88  C   UNL     1      -6.937   0.132  22.376  1.00  0.00     0.002 A 
ATOM     89  C   UNL     1      -5.795  -1.688  21.251  1.00  0.00     0.091 A 
ATOM     90  F   UNL     1      -6.150  -2.018  18.916  1.00  0.00    -0.205 F 
ATOM     91  C   UNL     1      -6.048  -0.940  22.412  1.00  0.00     0.022 A 
BRANCH  89  92
ATOM     92  S   UNL     1      -4.713  -3.114  21.416  1.00  0.00     0.127 S 
ATOM     93  O   UNL     1      -3.410  -2.478  21.610  1.00  0.00    -0.237 OA
ATOM     94  O   UNL     1      -5.252  -3.775  22.605  1.00  0.00    -0.237 OA
ATOM     95  O   UNL     1      -4.857  -3.874  20.182  1.00  0.00    -0.744 OA
ENDBRANCH  89  92
ENDBRANCH  62  85
ENDBRANCH  36  37
ENDBRANCH  29  31
ENDBRANCH  28  29
ENDBRANCH  27  28
ENDBRANCH  26  27
ENDBRANCH  25  26
ENDBRANCH  24  25
ENDBRANCH   1  24
TORSDOF 24
