REMARK SMILES O=C(CC1(NC(=O)c2ccc3cc[nH]c3c2)CCC1)OCCOCCOCCOC(=O)c1ccc(-c2c3nc(c(-c4cccc(S(=O)(=O)[O-])c4F)c4ccc([nH]4)c(-c4cccc(S(=O)(=O)[O-])c4F)c4nc(c(-c5cccc(S(=O)(=O)[O-])c5F)c5ccc2[nH]5)C=C4)C=C3)cc1
REMARK SMILES IDX 24 1 23 2 22 3 21 4 20 5 2 6 1 7 3 8 4 9 17 10 19 11 18 12
REMARK SMILES IDX 5 13 6 14 7 16 8 17 9 18 16 19 10 20 15 21 11 22 14 23 12 24
REMARK SMILES IDX 13 25 25 27 26 28 27 29 28 30 29 31 30 32 31 33 32 34 33 35
REMARK SMILES IDX 94 36 34 37 93 38 35 39 36 40 37 41 87 42 38 43 92 44 86 45
REMARK SMILES IDX 88 46 39 47 91 48 85 49 84 50 40 52 72 53 52 54 71 55 53 56
REMARK SMILES IDX 56 57 70 58 89 59 54 60 55 61 69 63 90 64 57 65 41 66 42 67
REMARK SMILES IDX 50 68 43 69 45 70 51 71 44 72 46 73 47 74 48 75 49 76 73 77
REMARK SMILES IDX 74 78 82 79 75 80 77 81 83 82 76 83 78 84 79 85 80 86 81 87
REMARK SMILES IDX 58 88 59 89 67 90 60 91 62 92 68 93 61 94 63 95 64 96 65 97
REMARK SMILES IDX 66 98
REMARK H PARENT 5 15 14 26 88 51 56 62
REMARK Flexibility Score: inf
ROOT
ATOM      1  C   UNL     1       3.358  -0.542  -2.255  1.00  0.00     0.188 C 
ENDROOT
BRANCH   1   2
ATOM      2  O   UNL     1       4.699  -1.000  -2.085  1.00  0.00    -0.376 OA
BRANCH   2   3
ATOM      3  C   UNL     1       5.029  -1.281  -0.721  1.00  0.00     0.202 C 
BRANCH   3   4
ATOM      4  C   UNL     1       4.298  -2.482  -0.127  1.00  0.00     0.261 C 
BRANCH   4   5
ATOM      5  O   UNL     1       2.893  -2.352   0.223  1.00  0.00    -0.463 OA
BRANCH   5   6
ATOM      6  C   UNL     1       2.190  -1.568   1.061  1.00  0.00     0.308 C 
ATOM      7  O   UNL     1       1.041  -1.909   1.349  1.00  0.00    -0.252 OA
BRANCH   6   8
ATOM      8  C   UNL     1       2.688  -0.218   1.475  1.00  0.00     0.151 C 
BRANCH   8   9
ATOM      9  C   UNL     1       3.868  -0.005   2.426  1.00  0.00     0.051 C 
ATOM     10  C   UNL     1       3.541   0.371   3.910  1.00  0.00     0.029 C 
ATOM     11  C   UNL     1       4.493  -1.325   2.969  1.00  0.00     0.029 C 
ATOM     12  C   UNL     1       4.352  -0.829   4.404  1.00  0.00     0.005 C 
BRANCH   9  13
ATOM     13  N   UNL     1       4.906   0.959   1.911  1.00  0.00    -0.346 N 
ATOM     14  C   UNL     1       4.828   2.141   1.188  1.00  0.00     0.251 C 
ATOM     15  H   UNL     1       5.828   0.697   2.134  1.00  0.00     0.164 HD
ATOM     16  O   UNL     1       5.870   2.700   0.851  1.00  0.00    -0.269 OA
BRANCH  14  17
ATOM     17  C   UNL     1       3.533   2.632   0.665  1.00  0.00     0.041 A 
ATOM     18  C   UNL     1       2.431   2.883   1.475  1.00  0.00     0.014 A 
ATOM     19  C   UNL     1       3.407   2.650  -0.726  1.00  0.00     0.040 A 
ATOM     20  C   UNL     1       1.148   3.010   0.906  1.00  0.00     0.011 A 
ATOM     21  C   UNL     1       2.115   2.707  -1.267  1.00  0.00     0.046 A 
ATOM     22  C   UNL     1       0.977   2.857  -0.484  1.00  0.00    -0.001 A 
ATOM     23  N   UNL     1       1.689   2.610  -2.573  1.00  0.00    -0.361 N 
ATOM     24  C   UNL     1      -0.144   2.808  -1.364  1.00  0.00     0.028 A 
ATOM     25  C   UNL     1       0.326   2.625  -2.644  1.00  0.00     0.083 A 
ATOM     26  H   UNL     1       2.288   2.539  -3.351  1.00  0.00     0.166 HD
ENDBRANCH  14  17
ENDBRANCH   9  13
ENDBRANCH   8   9
ENDBRANCH   6   8
ENDBRANCH   5   6
ENDBRANCH   4   5
ENDBRANCH   3   4
ENDBRANCH   2   3
ENDBRANCH   1   2
BRANCH   1  27
ATOM     27  C   UNL     1       3.116  -0.098  -3.699  1.00  0.00     0.188 C 
BRANCH  27  28
ATOM     28  O   UNL     1       3.407   1.281  -3.982  1.00  0.00    -0.376 OA
BRANCH  28  29
ATOM     29  C   UNL     1       4.786   1.659  -3.991  1.00  0.00     0.202 C 
BRANCH  29  30
ATOM     30  C   UNL     1       4.902   3.165  -4.346  1.00  0.00     0.261 C 
BRANCH  30  31
ATOM     31  O   UNL     1       4.439   4.033  -3.268  1.00  0.00    -0.460 OA
BRANCH  31  32
ATOM     32  C   UNL     1       3.585   5.044  -3.596  1.00  0.00     0.338 C 
ATOM     33  O   UNL     1       3.196   5.298  -4.731  1.00  0.00    -0.246 OA
BRANCH  32  34
ATOM     34  C   UNL     1       2.999   5.712  -2.391  1.00  0.00     0.060 A 
ATOM     35  C   UNL     1       1.603   5.787  -2.317  1.00  0.00     0.016 A 
ATOM     36  C   UNL     1       3.753   6.262  -1.349  1.00  0.00     0.016 A 
ATOM     37  C   UNL     1       0.963   6.316  -1.187  1.00  0.00     0.010 A 
ATOM     38  C   UNL     1       3.105   6.878  -0.247  1.00  0.00     0.010 A 
ATOM     39  C   UNL     1       1.701   6.907  -0.152  1.00  0.00    -0.014 A 
BRANCH  39  40
ATOM     40  C   UNL     1       0.955   7.754   0.837  1.00  0.00     0.031 A 
ATOM     41  C   UNL     1       0.406   9.071   0.341  1.00  0.00     0.074 A 
ATOM     42  C   UNL     1       0.670   7.379   2.102  1.00  0.00     0.049 A 
ATOM     43  N   UNL     1      -0.383   9.927   0.939  1.00  0.00    -0.248 NA
ATOM     44  C   UNL     1       0.785   9.459  -1.028  1.00  0.00     0.031 C 
ATOM     45  C   UNL     1       1.097   6.138   2.733  1.00  0.00     0.029 A 
ATOM     46  N   UNL     1      -0.057   8.012   3.091  1.00  0.00    -0.354 N 
ATOM     47  C   UNL     1      -0.614  10.936   0.012  1.00  0.00     0.074 A 
ATOM     48  C   UNL     1       0.119  10.591  -1.185  1.00  0.00     0.031 C 
ATOM     49  C   UNL     1       0.637   6.096   3.998  1.00  0.00     0.029 A 
ATOM     50  C   UNL     1      -0.091   7.330   4.289  1.00  0.00     0.049 A 
ATOM     51  H   UNL     1      -0.511   8.875   2.952  1.00  0.00     0.167 HD
ATOM     52  C   UNL     1      -1.363  12.057   0.133  1.00  0.00     0.034 A 
ATOM     53  C   UNL     1      -0.620   7.669   5.487  1.00  0.00     0.034 A 
ATOM     54  C   UNL     1      -2.031  12.466   1.336  1.00  0.00     0.049 A 
ATOM     55  C   UNL     1      -1.370   8.977   5.627  1.00  0.00     0.074 A 
ATOM     56  C   UNL     1      -2.764  13.618   1.561  1.00  0.00     0.029 A 
ATOM     57  N   UNL     1      -2.018  11.761   2.527  1.00  0.00    -0.354 N 
ATOM     58  N   UNL     1      -1.656   9.870   4.711  1.00  0.00    -0.248 NA
ATOM     59  C   UNL     1      -1.895   9.310   6.962  1.00  0.00     0.031 C 
ATOM     60  C   UNL     1      -3.165  13.625   2.901  1.00  0.00     0.029 A 
ATOM     61  C   UNL     1      -2.721  12.456   3.496  1.00  0.00     0.049 A 
ATOM     62  H   UNL     1      -1.574  10.893   2.665  1.00  0.00     0.167 HD
ATOM     63  C   UNL     1      -2.413  10.849   5.349  1.00  0.00     0.074 A 
ATOM     64  C   UNL     1      -2.574  10.423   6.722  1.00  0.00     0.031 C 
ATOM     65  C   UNL     1      -2.915  12.007   4.851  1.00  0.00     0.034 A 
BRANCH  52  66
ATOM     66  C   UNL     1      -1.475  12.933  -1.085  1.00  0.00     0.023 A 
ATOM     67  C   UNL     1      -2.274  12.516  -2.169  1.00  0.00     0.012 A 
ATOM     68  C   UNL     1      -0.803  14.167  -1.151  1.00  0.00     0.148 A 
ATOM     69  C   UNL     1      -2.378  13.302  -3.315  1.00  0.00     0.002 A 
ATOM     70  C   UNL     1      -0.946  14.965  -2.278  1.00  0.00     0.091 A 
ATOM     71  F   UNL     1      -0.028  14.528  -0.118  1.00  0.00    -0.205 F 
ATOM     72  C   UNL     1      -1.722  14.529  -3.366  1.00  0.00     0.022 A 
BRANCH  70  73
ATOM     73  S   UNL     1      -0.196  16.590  -2.417  1.00  0.00     0.127 S 
ATOM     74  O   UNL     1       0.756  16.383  -3.508  1.00  0.00    -0.237 OA
ATOM     75  O   UNL     1      -1.345  17.427  -2.761  1.00  0.00    -0.237 OA
ATOM     76  O   UNL     1       0.402  16.873  -1.120  1.00  0.00    -0.744 OA
ENDBRANCH  70  73
ENDBRANCH  52  66
BRANCH  53  77
ATOM     77  C   UNL     1      -0.450   6.783   6.684  1.00  0.00     0.023 A 
ATOM     78  C   UNL     1      -1.573   6.211   7.317  1.00  0.00     0.012 A 
ATOM     79  C   UNL     1       0.827   6.554   7.238  1.00  0.00     0.148 A 
ATOM     80  C   UNL     1      -1.434   5.472   8.496  1.00  0.00     0.002 A 
ATOM     81  C   UNL     1       0.966   5.763   8.373  1.00  0.00     0.091 A 
ATOM     82  F   UNL     1       1.885   7.130   6.650  1.00  0.00    -0.205 F 
ATOM     83  C   UNL     1      -0.165   5.240   9.018  1.00  0.00     0.022 A 
BRANCH  81  84
ATOM     84  S   UNL     1       2.571   5.304   9.036  1.00  0.00     0.127 S 
ATOM     85  O   UNL     1       2.605   6.052  10.290  1.00  0.00    -0.237 OA
ATOM     86  O   UNL     1       2.431   3.855   9.185  1.00  0.00    -0.237 OA
ATOM     87  O   UNL     1       3.542   5.710   8.029  1.00  0.00    -0.744 OA
ENDBRANCH  81  84
ENDBRANCH  53  77
BRANCH  65  88
ATOM     88  C   UNL     1      -3.720  12.886   5.777  1.00  0.00     0.023 A 
ATOM     89  C   UNL     1      -3.085  13.569   6.834  1.00  0.00     0.012 A 
ATOM     90  C   UNL     1      -5.100  13.079   5.566  1.00  0.00     0.148 A 
ATOM     91  C   UNL     1      -3.817  14.389   7.693  1.00  0.00     0.002 A 
ATOM     92  C   UNL     1      -5.814  13.939   6.393  1.00  0.00     0.091 A 
ATOM     93  F   UNL     1      -5.694  12.412   4.566  1.00  0.00    -0.205 F 
ATOM     94  C   UNL     1      -5.178  14.582   7.467  1.00  0.00     0.022 A 
BRANCH  92  95
ATOM     95  S   UNL     1      -7.546  14.325   6.114  1.00  0.00     0.127 S 
ATOM     96  O   UNL     1      -8.195  13.574   7.188  1.00  0.00    -0.237 OA
ATOM     97  O   UNL     1      -7.573  15.778   6.285  1.00  0.00    -0.237 OA
ATOM     98  O   UNL     1      -7.845  13.871   4.763  1.00  0.00    -0.744 OA
ENDBRANCH  92  95
ENDBRANCH  65  88
ENDBRANCH  39  40
ENDBRANCH  32  34
ENDBRANCH  31  32
ENDBRANCH  30  31
ENDBRANCH  29  30
ENDBRANCH  28  29
ENDBRANCH  27  28
ENDBRANCH   1  27
TORSDOF 23
