REMARK SMILES CC(C)(C)Nc1ncnc(N2CCC(C(=O)OCCOCCOCCOC(=O)c3ccc(-c4c5nc(c(-c6cccc(S(=O)(=O)[O-])c6F)c6ccc([nH]6)c(-c6cccc(S(=O)(=O)[O-])c6F)c6nc(c(-c7cccc(S(=O)(=O)[O-])c7F)c7ccc4[nH]7)C=C6)C=C5)cc3)CC2)c1N
REMARK SMILES IDX 21 1 20 2 19 3 18 4 17 5 15 6 16 7 14 8 11 9 12 10 93 11
REMARK SMILES IDX 13 12 92 13 10 14 6 15 7 16 94 17 8 18 9 19 5 20 2 22 1 23
REMARK SMILES IDX 3 24 4 25 95 26 22 29 23 30 24 31 25 32 26 33 27 34 28 35
REMARK SMILES IDX 29 36 30 37 91 38 31 39 90 40 32 41 33 42 34 43 84 44 35 45
REMARK SMILES IDX 89 46 83 47 85 48 36 49 88 50 82 51 81 52 37 54 69 55 49 56
REMARK SMILES IDX 68 57 50 58 53 59 67 60 86 61 51 62 52 63 66 65 87 66 54 67
REMARK SMILES IDX 38 68 39 69 47 70 40 71 42 72 48 73 41 74 43 75 44 76 45 77
REMARK SMILES IDX 46 78 70 79 71 80 79 81 72 82 74 83 80 84 73 85 75 86 76 87
REMARK SMILES IDX 77 88 78 89 55 90 56 91 64 92 57 93 59 94 65 95 58 96 60 97
REMARK SMILES IDX 61 98 62 99 63 100
REMARK H PARENT 5 21 95 27 95 28 85 53 53 64
REMARK Flexibility Score: inf
ROOT
ATOM      1  C   UNL     1       9.605   1.599   5.733  1.00  0.00     0.188 C 
ENDROOT
BRANCH   1   2
ATOM      2  O   UNL     1      10.704   2.498   5.767  1.00  0.00    -0.376 OA
BRANCH   2   3
ATOM      3  C   UNL     1      10.452   3.855   5.415  1.00  0.00     0.202 C 
BRANCH   3   4
ATOM      4  C   UNL     1       9.865   4.128   4.024  1.00  0.00     0.261 C 
BRANCH   4   5
ATOM      5  O   UNL     1       8.630   3.441   3.740  1.00  0.00    -0.463 OA
BRANCH   5   6
ATOM      6  C   UNL     1       8.706   2.511   2.753  1.00  0.00     0.309 C 
ATOM      7  O   UNL     1       9.726   2.247   2.122  1.00  0.00    -0.252 OA
BRANCH   6   8
ATOM      8  C   UNL     1       7.406   1.783   2.474  1.00  0.00     0.103 C 
ATOM      9  N   UNL     1       4.747   1.664   1.450  1.00  0.00    -0.355 N 
ATOM     10  C   UNL     1       4.920   1.447   2.877  1.00  0.00     0.119 C 
ATOM     11  C   UNL     1       5.844   1.342   0.557  1.00  0.00     0.119 C 
ATOM     12  C   UNL     1       6.208   2.107   3.377  1.00  0.00     0.037 C 
ATOM     13  C   UNL     1       7.086   2.076   1.010  1.00  0.00     0.037 C 
BRANCH   9  14
ATOM     14  C   UNL     1       3.584   2.247   0.978  1.00  0.00     0.157 A 
ATOM     15  C   UNL     1       1.730   2.383  -0.512  1.00  0.00     0.155 A 
ATOM     16  N   UNL     1       1.293   3.494   0.099  1.00  0.00    -0.217 NA
ATOM     17  C   UNL     1       2.923   1.743  -0.154  1.00  0.00     0.118 A 
ATOM     18  C   UNL     1       2.014   3.898   1.153  1.00  0.00     0.226 A 
ATOM     19  N   UNL     1       3.109   3.311   1.652  1.00  0.00    -0.217 NA
BRANCH  15  20
ATOM     20  N   UNL     1       0.883   1.896  -1.504  1.00  0.00    -0.364 N 
ATOM     21  H   UNL     1       0.744   2.446  -2.308  1.00  0.00     0.162 HD
BRANCH  20  22
ATOM     22  C   UNL     1       0.181   0.595  -1.414  1.00  0.00     0.030 C 
ATOM     23  C   UNL     1       0.452  -0.221  -0.139  1.00  0.00     0.034 C 
ATOM     24  C   UNL     1       0.529  -0.234  -2.662  1.00  0.00     0.034 C 
ATOM     25  C   UNL     1      -1.334   0.885  -1.452  1.00  0.00     0.034 C 
ENDBRANCH  20  22
ENDBRANCH  15  20
BRANCH  17  26
ATOM     26  N   UNL     1       3.435   0.684  -0.914  1.00  0.00    -0.393 N 
ATOM     27  H   UNL     1       2.940   0.359  -1.701  1.00  0.00     0.156 HD
ATOM     28  H   UNL     1       4.289   0.264  -0.662  1.00  0.00     0.156 HD
ENDBRANCH  17  26
ENDBRANCH   9  14
ENDBRANCH   6   8
ENDBRANCH   5   6
ENDBRANCH   4   5
ENDBRANCH   3   4
ENDBRANCH   2   3
ENDBRANCH   1   2
BRANCH   1  29
ATOM     29  C   UNL     1       8.411   1.939   6.626  1.00  0.00     0.188 C 
BRANCH  29  30
ATOM     30  O   UNL     1       8.104   3.316   6.777  1.00  0.00    -0.376 OA
BRANCH  30  31
ATOM     31  C   UNL     1       7.211   3.646   7.844  1.00  0.00     0.202 C 
BRANCH  31  32
ATOM     32  C   UNL     1       7.652   3.238   9.270  1.00  0.00     0.261 C 
BRANCH  32  33
ATOM     33  O   UNL     1       7.836   1.824   9.512  1.00  0.00    -0.460 OA
BRANCH  33  34
ATOM     34  C   UNL     1       6.829   0.986   9.165  1.00  0.00     0.338 C 
ATOM     35  O   UNL     1       5.679   1.313   8.917  1.00  0.00    -0.246 OA
BRANCH  34  36
ATOM     36  C   UNL     1       7.403  -0.355   8.846  1.00  0.00     0.060 A 
ATOM     37  C   UNL     1       6.925  -1.020   7.706  1.00  0.00     0.016 A 
ATOM     38  C   UNL     1       8.443  -0.925   9.587  1.00  0.00     0.016 A 
ATOM     39  C   UNL     1       7.445  -2.265   7.334  1.00  0.00     0.010 A 
ATOM     40  C   UNL     1       8.950  -2.184   9.225  1.00  0.00     0.010 A 
ATOM     41  C   UNL     1       8.430  -2.879   8.118  1.00  0.00    -0.014 A 
BRANCH  41  42
ATOM     42  C   UNL     1       8.745  -4.322   7.923  1.00  0.00     0.031 A 
ATOM     43  C   UNL     1       8.020  -5.324   8.786  1.00  0.00     0.074 A 
ATOM     44  C   UNL     1       9.632  -4.759   7.008  1.00  0.00     0.049 A 
ATOM     45  N   UNL     1       8.140  -6.625   8.832  1.00  0.00    -0.248 NA
ATOM     46  C   UNL     1       7.020  -4.781   9.722  1.00  0.00     0.031 C 
ATOM     47  C   UNL     1      10.385  -3.915   6.085  1.00  0.00     0.029 A 
ATOM     48  N   UNL     1      10.060  -6.036   6.721  1.00  0.00    -0.354 N 
ATOM     49  C   UNL     1       7.250  -7.054   9.810  1.00  0.00     0.074 A 
ATOM     50  C   UNL     1       6.607  -5.874  10.345  1.00  0.00     0.031 C 
ATOM     51  C   UNL     1      11.198  -4.694   5.347  1.00  0.00     0.029 A 
ATOM     52  C   UNL     1      11.045  -6.089   5.761  1.00  0.00     0.049 A 
ATOM     53  H   UNL     1       9.695  -6.837   7.162  1.00  0.00     0.167 HD
ATOM     54  C   UNL     1       6.971  -8.314  10.216  1.00  0.00     0.034 A 
ATOM     55  C   UNL     1      11.752  -7.137   5.284  1.00  0.00     0.034 A 
ATOM     56  C   UNL     1       7.593  -9.495   9.684  1.00  0.00     0.049 A 
ATOM     57  C   UNL     1      11.470  -8.530   5.801  1.00  0.00     0.074 A 
ATOM     58  C   UNL     1       7.354 -10.815  10.026  1.00  0.00     0.029 A 
ATOM     59  N   UNL     1       8.579  -9.505   8.712  1.00  0.00    -0.354 N 
ATOM     60  N   UNL     1      10.556  -8.927   6.654  1.00  0.00    -0.248 NA
ATOM     61  C   UNL     1      12.300  -9.624   5.269  1.00  0.00     0.031 C 
ATOM     62  C   UNL     1       8.216 -11.622   9.280  1.00  0.00     0.029 A 
ATOM     63  C   UNL     1       8.969 -10.807   8.450  1.00  0.00     0.049 A 
ATOM     64  H   UNL     1       8.948  -8.705   8.273  1.00  0.00     0.167 HD
ATOM     65  C   UNL     1      10.681 -10.313   6.735  1.00  0.00     0.074 A 
ATOM     66  C   UNL     1      11.743 -10.691   5.828  1.00  0.00     0.031 C 
ATOM     67  C   UNL     1       9.987 -11.188   7.504  1.00  0.00     0.034 A 
BRANCH  54  68
ATOM     68  C   UNL     1       5.911  -8.492  11.271  1.00  0.00     0.023 A 
ATOM     69  C   UNL     1       4.557  -8.308  10.927  1.00  0.00     0.012 A 
ATOM     70  C   UNL     1       6.246  -8.923  12.569  1.00  0.00     0.148 A 
ATOM     71  C   UNL     1       3.551  -8.530  11.867  1.00  0.00     0.002 A 
ATOM     72  C   UNL     1       5.235  -9.187  13.485  1.00  0.00     0.091 A 
ATOM     73  F   UNL     1       7.541  -9.071  12.879  1.00  0.00    -0.205 F 
ATOM     74  C   UNL     1       3.889  -8.981  13.139  1.00  0.00     0.022 A 
BRANCH  72  75
ATOM     75  S   UNL     1       5.557  -9.853  15.122  1.00  0.00     0.127 S 
ATOM     76  O   UNL     1       5.163  -8.735  15.978  1.00  0.00    -0.237 OA
ATOM     77  O   UNL     1       4.654 -11.004  15.167  1.00  0.00    -0.237 OA
ATOM     78  O   UNL     1       6.974 -10.187  15.150  1.00  0.00    -0.744 OA
ENDBRANCH  72  75
ENDBRANCH  54  68
BRANCH  55  79
ATOM     79  C   UNL     1      12.779  -6.926   4.219  1.00  0.00     0.023 A 
ATOM     80  C   UNL     1      12.557  -7.451   2.930  1.00  0.00     0.012 A 
ATOM     81  C   UNL     1      13.964  -6.206   4.469  1.00  0.00     0.148 A 
ATOM     82  C   UNL     1      13.504  -7.281   1.918  1.00  0.00     0.002 A 
ATOM     83  C   UNL     1      14.876  -5.992   3.441  1.00  0.00     0.091 A 
ATOM     84  F   UNL     1      14.171  -5.737   5.708  1.00  0.00    -0.205 F 
ATOM     85  C   UNL     1      14.655  -6.542   2.169  1.00  0.00     0.022 A 
BRANCH  83  86
ATOM     86  S   UNL     1      16.328  -4.951   3.634  1.00  0.00     0.127 S 
ATOM     87  O   UNL     1      17.412  -5.920   3.491  1.00  0.00    -0.237 OA
ATOM     88  O   UNL     1      16.180  -4.023   2.513  1.00  0.00    -0.237 OA
ATOM     89  O   UNL     1      16.202  -4.338   4.949  1.00  0.00    -0.744 OA
ENDBRANCH  83  86
ENDBRANCH  55  79
BRANCH  67  90
ATOM     90  C   UNL     1      10.317 -12.659   7.404  1.00  0.00     0.023 A 
ATOM     91  C   UNL     1      11.517 -13.144   7.960  1.00  0.00     0.012 A 
ATOM     92  C   UNL     1       9.381 -13.575   6.880  1.00  0.00     0.148 A 
ATOM     93  C   UNL     1      11.789 -14.512   7.978  1.00  0.00     0.002 A 
ATOM     94  C   UNL     1       9.636 -14.940   6.947  1.00  0.00     0.091 A 
ATOM     95  F   UNL     1       8.249 -13.095   6.344  1.00  0.00    -0.205 F 
ATOM     96  C   UNL     1      10.845 -15.410   7.487  1.00  0.00     0.022 A 
BRANCH  94  97
ATOM     97  S   UNL     1       8.435 -16.178   6.440  1.00  0.00     0.127 S 
ATOM     98  O   UNL     1       9.070 -16.736   5.247  1.00  0.00    -0.237 OA
ATOM     99  O   UNL     1       8.411 -17.077   7.594  1.00  0.00    -0.237 OA
ATOM    100  O   UNL     1       7.190 -15.460   6.204  1.00  0.00    -0.744 OA
ENDBRANCH  94  97
ENDBRANCH  67  90
ENDBRANCH  41  42
ENDBRANCH  34  36
ENDBRANCH  33  34
ENDBRANCH  32  33
ENDBRANCH  31  32
ENDBRANCH  30  31
ENDBRANCH  29  30
ENDBRANCH   1  29
TORSDOF 24
