REMARK SMILES COc1cc(/C=C/C(=O)OCCOCCOCCOC(=O)c2ccc(-c3c4nc(c(-c5cccc(S(=O)(=O)[O-])c5F)c5ccc([nH]5)c(-c5cccc(S(=O)(=O)[O-])c5F)c5nc(c(-c6cccc(S(=O)(=O)[O-])c6F)c6ccc3[nH]6)C=C5)C=C4)cc2)cc(OC)c1O
REMARK SMILES IDX 15 1 14 2 13 3 12 4 11 5 10 6 8 7 9 8 7 9 6 10 5 11 3 12
REMARK SMILES IDX 4 13 89 14 86 15 85 16 2 17 1 18 90 19 87 21 88 22 16 23
REMARK SMILES IDX 17 24 18 25 19 26 20 27 21 28 22 29 23 30 84 31 24 32 83 33
REMARK SMILES IDX 25 34 26 35 27 36 77 37 28 38 82 39 76 40 78 41 29 42 81 43
REMARK SMILES IDX 75 44 74 45 30 47 62 48 42 49 61 50 43 51 46 52 60 53 79 54
REMARK SMILES IDX 44 55 45 56 59 58 80 59 47 60 31 61 32 62 40 63 33 64 35 65
REMARK SMILES IDX 41 66 34 67 36 68 37 69 38 70 39 71 63 72 64 73 72 74 65 75
REMARK SMILES IDX 67 76 73 77 66 78 68 79 69 80 70 81 71 82 48 83 49 84 57 85
REMARK SMILES IDX 50 86 52 87 58 88 51 89 53 90 54 91 55 92 56 93
REMARK H PARENT 90 20 78 46 46 57
REMARK Flexibility Score: inf
ROOT
ATOM      1  C   UNL     1      -3.260   7.233   0.697  1.00  0.00     0.188 C 
ENDROOT
BRANCH   1   2
ATOM      2  C   UNL     1      -2.258   8.310   0.240  1.00  0.00     0.188 C 
BRANCH   2   3
ATOM      3  O   UNL     1      -2.763   9.558  -0.175  1.00  0.00    -0.376 OA
BRANCH   3   4
ATOM      4  C   UNL     1      -3.406   9.706  -1.428  1.00  0.00     0.202 C 
BRANCH   4   5
ATOM      5  C   UNL     1      -3.349   8.698  -2.588  1.00  0.00     0.261 C 
BRANCH   5   6
ATOM      6  O   UNL     1      -3.082   7.329  -2.266  1.00  0.00    -0.460 OA
BRANCH   6   7
ATOM      7  C   UNL     1      -1.942   6.828  -2.805  1.00  0.00     0.330 C 
ATOM      8  O   UNL     1      -1.159   7.427  -3.527  1.00  0.00    -0.247 OA
BRANCH   7   9
ATOM      9  C   UNL     1      -1.655   5.450  -2.357  1.00  0.00     0.094 C 
ATOM     10  C   UNL     1      -2.561   4.562  -1.919  1.00  0.00     0.016 C 
BRANCH  10  11
ATOM     11  C   UNL     1      -2.205   3.188  -1.523  1.00  0.00    -0.018 A 
ATOM     12  C   UNL     1      -0.714   1.564  -0.477  1.00  0.00     0.165 A 
ATOM     13  C   UNL     1      -1.019   2.882  -0.844  1.00  0.00     0.058 A 
ATOM     14  C   UNL     1      -1.627   0.535  -0.755  1.00  0.00     0.200 A 
ATOM     15  C   UNL     1      -2.818   0.819  -1.436  1.00  0.00     0.165 A 
ATOM     16  C   UNL     1      -3.100   2.147  -1.795  1.00  0.00     0.058 A 
BRANCH  12  17
ATOM     17  O   UNL     1       0.450   1.426   0.235  1.00  0.00    -0.493 OA
ATOM     18  C   UNL     1       1.267   0.299  -0.071  1.00  0.00     0.278 C 
ENDBRANCH  12  17
BRANCH  14  19
ATOM     19  O   UNL     1      -1.393  -0.724  -0.274  1.00  0.00    -0.502 OA
ATOM     20  H   UNL     1      -0.595  -0.911   0.181  1.00  0.00     0.293 HD
ENDBRANCH  14  19
BRANCH  15  21
ATOM     21  O   UNL     1      -3.829  -0.045  -1.771  1.00  0.00    -0.493 OA
ATOM     22  C   UNL     1      -3.571  -1.440  -1.690  1.00  0.00     0.278 C 
ENDBRANCH  15  21
ENDBRANCH  10  11
ENDBRANCH   7   9
ENDBRANCH   6   7
ENDBRANCH   5   6
ENDBRANCH   4   5
ENDBRANCH   3   4
ENDBRANCH   2   3
ENDBRANCH   1   2
BRANCH   1  23
ATOM     23  O   UNL     1      -4.652   7.421   0.534  1.00  0.00    -0.376 OA
BRANCH  23  24
ATOM     24  C   UNL     1      -5.302   8.521   1.150  1.00  0.00     0.202 C 
BRANCH  24  25
ATOM     25  C   UNL     1      -4.935   9.071   2.538  1.00  0.00     0.261 C 
BRANCH  25  26
ATOM     26  O   UNL     1      -3.550   9.066   2.887  1.00  0.00    -0.460 OA
BRANCH  26  27
ATOM     27  C   UNL     1      -3.204   8.189   3.855  1.00  0.00     0.338 C 
ATOM     28  O   UNL     1      -3.942   7.395   4.438  1.00  0.00    -0.246 OA
BRANCH  27  29
ATOM     29  C   UNL     1      -1.745   8.188   4.013  1.00  0.00     0.060 A 
ATOM     30  C   UNL     1      -1.036   7.027   3.676  1.00  0.00     0.016 A 
ATOM     31  C   UNL     1      -1.087   9.302   4.535  1.00  0.00     0.016 A 
ATOM     32  C   UNL     1       0.340   6.970   3.879  1.00  0.00     0.010 A 
ATOM     33  C   UNL     1       0.290   9.235   4.758  1.00  0.00     0.010 A 
ATOM     34  C   UNL     1       1.003   8.060   4.457  1.00  0.00    -0.014 A 
BRANCH  34  35
ATOM     35  C   UNL     1       2.410   7.915   4.896  1.00  0.00     0.031 A 
ATOM     36  C   UNL     1       2.688   7.614   6.342  1.00  0.00     0.074 A 
ATOM     37  C   UNL     1       3.423   8.066   4.026  1.00  0.00     0.049 A 
ATOM     38  N   UNL     1       3.834   7.487   6.956  1.00  0.00    -0.248 NA
ATOM     39  C   UNL     1       1.513   7.438   7.213  1.00  0.00     0.031 C 
ATOM     40  C   UNL     1       3.278   8.359   2.602  1.00  0.00     0.029 A 
ATOM     41  N   UNL     1       4.780   8.024   4.228  1.00  0.00    -0.354 N 
ATOM     42  C   UNL     1       3.523   7.247   8.288  1.00  0.00     0.074 A 
ATOM     43  C   UNL     1       2.080   7.256   8.396  1.00  0.00     0.031 C 
ATOM     44  C   UNL     1       4.501   8.505   2.062  1.00  0.00     0.029 A 
ATOM     45  C   UNL     1       5.510   8.340   3.107  1.00  0.00     0.049 A 
ATOM     46  H   UNL     1       5.191   7.789   5.091  1.00  0.00     0.167 HD
ATOM     47  C   UNL     1       4.363   7.029   9.328  1.00  0.00     0.034 A 
ATOM     48  C   UNL     1       6.839   8.503   2.951  1.00  0.00     0.034 A 
ATOM     49  C   UNL     1       5.796   7.011   9.216  1.00  0.00     0.049 A 
ATOM     50  C   UNL     1       7.753   8.279   4.129  1.00  0.00     0.074 A 
ATOM     51  C   UNL     1       6.732   6.744  10.199  1.00  0.00     0.029 A 
ATOM     52  N   UNL     1       6.502   7.290   8.056  1.00  0.00    -0.354 N 
ATOM     53  N   UNL     1       7.451   7.925   5.355  1.00  0.00    -0.248 NA
ATOM     54  C   UNL     1       9.195   8.444   3.892  1.00  0.00     0.031 C 
ATOM     55  C   UNL     1       8.006   6.894   9.640  1.00  0.00     0.029 A 
ATOM     56  C   UNL     1       7.862   7.219   8.300  1.00  0.00     0.049 A 
ATOM     57  H   UNL     1       6.095   7.506   7.186  1.00  0.00     0.167 HD
ATOM     58  C   UNL     1       8.663   7.790   6.025  1.00  0.00     0.074 A 
ATOM     59  C   UNL     1       9.705   8.085   5.063  1.00  0.00     0.031 C 
ATOM     60  C   UNL     1       8.892   7.465   7.322  1.00  0.00     0.034 A 
BRANCH  47  61
ATOM     61  C   UNL     1       3.744   6.776  10.677  1.00  0.00     0.023 A 
ATOM     62  C   UNL     1       3.084   5.556  10.927  1.00  0.00     0.012 A 
ATOM     63  C   UNL     1       3.847   7.730  11.708  1.00  0.00     0.148 A 
ATOM     64  C   UNL     1       2.503   5.304  12.169  1.00  0.00     0.002 A 
ATOM     65  C   UNL     1       3.306   7.454  12.957  1.00  0.00     0.091 A 
ATOM     66  F   UNL     1       4.456   8.895  11.443  1.00  0.00    -0.205 F 
ATOM     67  C   UNL     1       2.623   6.248  13.186  1.00  0.00     0.022 A 
BRANCH  65  68
ATOM     68  S   UNL     1       3.476   8.572  14.352  1.00  0.00     0.127 S 
ATOM     69  O   UNL     1       2.120   9.105  14.470  1.00  0.00    -0.237 OA
ATOM     70  O   UNL     1       3.870   7.664  15.430  1.00  0.00    -0.237 OA
ATOM     71  O   UNL     1       4.498   9.536  13.969  1.00  0.00    -0.744 OA
ENDBRANCH  65  68
ENDBRANCH  47  61
BRANCH  48  72
ATOM     72  C   UNL     1       7.389   8.870   1.616  1.00  0.00     0.023 A 
ATOM     73  C   UNL     1       8.138   7.925   0.890  1.00  0.00     0.012 A 
ATOM     74  C   UNL     1       7.153  10.140   1.055  1.00  0.00     0.148 A 
ATOM     75  C   UNL     1       8.665   8.246  -0.361  1.00  0.00     0.002 A 
ATOM     76  C   UNL     1       7.636  10.436  -0.214  1.00  0.00     0.091 A 
ATOM     77  F   UNL     1       6.451  11.030   1.771  1.00  0.00    -0.205 F 
ATOM     78  C   UNL     1       8.406   9.496  -0.918  1.00  0.00     0.022 A 
BRANCH  76  79
ATOM     79  S   UNL     1       7.254  11.973  -1.060  1.00  0.00     0.127 S 
ATOM     80  O   UNL     1       8.562  12.621  -1.109  1.00  0.00    -0.237 OA
ATOM     81  O   UNL     1       6.757  11.490  -2.349  1.00  0.00    -0.237 OA
ATOM     82  O   UNL     1       6.252  12.638  -0.239  1.00  0.00    -0.744 OA
ENDBRANCH  76  79
ENDBRANCH  48  72
BRANCH  60  83
ATOM     83  C   UNL     1      10.325   7.367   7.781  1.00  0.00     0.023 A 
ATOM     84  C   UNL     1      11.092   8.536   7.946  1.00  0.00     0.012 A 
ATOM     85  C   UNL     1      10.883   6.120   8.127  1.00  0.00     0.148 A 
ATOM     86  C   UNL     1      12.403   8.464   8.418  1.00  0.00     0.002 A 
ATOM     87  C   UNL     1      12.172   6.060   8.644  1.00  0.00     0.091 A 
ATOM     88  F   UNL     1      10.144   5.015   7.947  1.00  0.00    -0.205 F 
ATOM     89  C   UNL     1      12.938   7.229   8.778  1.00  0.00     0.022 A 
BRANCH  87  90
ATOM     90  S   UNL     1      12.907   4.527   9.226  1.00  0.00     0.127 S 
ATOM     91  O   UNL     1      13.896   4.256   8.184  1.00  0.00    -0.237 OA
ATOM     92  O   UNL     1      13.473   4.923  10.516  1.00  0.00    -0.237 OA
ATOM     93  O   UNL     1      11.815   3.567   9.316  1.00  0.00    -0.744 OA
ENDBRANCH  87  90
ENDBRANCH  60  83
ENDBRANCH  34  35
ENDBRANCH  27  29
ENDBRANCH  26  27
ENDBRANCH  25  26
ENDBRANCH  24  25
ENDBRANCH  23  24
ENDBRANCH   1  23
TORSDOF 24
