REMARK SMILES C[C@H](NC(=O)N1CC[C@@H](C(=O)OCCOCCOCCOC(=O)c2ccc(-c3c4nc(c(-c5cccc(S(=O)(=O)[O-])c5F)c5ccc([nH]5)c(-c5cccc(S(=O)(=O)[O-])c5F)c5nc(c(-c6cccc(S(=O)(=O)[O-])c6F)c6ccc3[nH]6)C=C5)C=C4)cc2)[C@H]1C)c1ccc(Cl)cc1
REMARK SMILES IDX 16 1 15 2 14 3 13 4 12 5 10 6 11 7 9 8 6 9 7 10 87 11 8 12
REMARK SMILES IDX 88 13 4 14 3 15 5 17 2 18 1 19 89 20 90 21 95 22 91 23 94 24
REMARK SMILES IDX 92 25 93 26 17 27 18 28 19 29 20 30 21 31 22 32 23 33 24 34
REMARK SMILES IDX 25 35 86 36 26 37 85 38 27 39 28 40 29 41 79 42 30 43 84 44
REMARK SMILES IDX 78 45 80 46 31 47 83 48 77 49 76 50 32 52 64 53 44 54 63 55
REMARK SMILES IDX 45 56 48 57 62 58 81 59 46 60 47 61 61 63 82 64 49 65 33 66
REMARK SMILES IDX 34 67 42 68 35 69 37 70 43 71 36 72 38 73 39 74 40 75 41 76
REMARK SMILES IDX 65 77 66 78 74 79 67 80 69 81 75 82 68 83 70 84 71 85 72 86
REMARK SMILES IDX 73 87 50 88 51 89 59 90 52 91 54 92 60 93 53 94 55 95 56 96
REMARK SMILES IDX 57 97 58 98
REMARK H PARENT 3 16 80 51 48 62
REMARK Flexibility Score: inf
ROOT
ATOM      1  C   UNL     1       2.087  -7.058  -1.220  1.00  0.00     0.188 C 
ENDROOT
BRANCH   1   2
ATOM      2  O   UNL     1       1.997  -8.218  -0.409  1.00  0.00    -0.376 OA
BRANCH   2   3
ATOM      3  C   UNL     1       2.282  -8.087   0.982  1.00  0.00     0.202 C 
BRANCH   3   4
ATOM      4  C   UNL     1       3.473  -7.219   1.413  1.00  0.00     0.261 C 
BRANCH   4   5
ATOM      5  O   UNL     1       3.310  -5.852   0.993  1.00  0.00    -0.463 OA
BRANCH   5   6
ATOM      6  C   UNL     1       4.437  -5.134   0.775  1.00  0.00     0.311 C 
ATOM      7  O   UNL     1       5.569  -5.568   0.955  1.00  0.00    -0.252 OA
BRANCH   6   8
ATOM      8  C   UNL     1       4.154  -3.756   0.195  1.00  0.00     0.123 C 
ATOM      9  N   UNL     1       3.254  -1.551   0.296  1.00  0.00    -0.321 N 
ATOM     10  C   UNL     1       4.704  -1.445   0.166  1.00  0.00     0.122 C 
ATOM     11  C   UNL     1       2.885  -2.966   0.611  1.00  0.00     0.098 C 
ATOM     12  C   UNL     1       5.259  -2.784   0.603  1.00  0.00     0.039 C 
ATOM     13  C   UNL     1       2.531  -3.191   2.090  1.00  0.00     0.032 C 
BRANCH   9  14
ATOM     14  C   UNL     1       2.526  -0.501  -0.218  1.00  0.00     0.318 C 
ATOM     15  N   UNL     1       1.183  -0.406  -0.071  1.00  0.00    -0.331 N 
ATOM     16  H   UNL     1       0.709   0.132  -0.746  1.00  0.00     0.165 HD
ATOM     17  O   UNL     1       3.073   0.433  -0.812  1.00  0.00    -0.249 OA
BRANCH  15  18
ATOM     18  C   UNL     1       0.367  -0.997   0.955  1.00  0.00     0.111 C 
ATOM     19  C   UNL     1       0.743  -0.446   2.336  1.00  0.00     0.036 C 
BRANCH  18  20
ATOM     20  C   UNL     1      -1.135  -0.908   0.759  1.00  0.00    -0.026 A 
ATOM     21  C   UNL     1      -1.840   0.302   0.813  1.00  0.00     0.007 A 
ATOM     22  C   UNL     1      -1.862  -2.113   0.710  1.00  0.00     0.007 A 
ATOM     23  C   UNL     1      -3.238   0.295   0.898  1.00  0.00     0.021 A 
ATOM     24  C   UNL     1      -3.252  -2.119   0.796  1.00  0.00     0.021 A 
ATOM     25  C   UNL     1      -3.934  -0.914   0.912  1.00  0.00     0.041 A 
ATOM     26  Cl  UNL     1      -5.642  -0.921   1.117  1.00  0.00    -0.084 Cl
ENDBRANCH  18  20
ENDBRANCH  15  18
ENDBRANCH   9  14
ENDBRANCH   6   8
ENDBRANCH   5   6
ENDBRANCH   4   5
ENDBRANCH   3   4
ENDBRANCH   2   3
ENDBRANCH   1   2
BRANCH   1  27
ATOM     27  C   UNL     1       1.191  -5.861  -0.875  1.00  0.00     0.188 C 
BRANCH  27  28
ATOM     28  O   UNL     1       0.536  -5.848   0.371  1.00  0.00    -0.376 OA
BRANCH  28  29
ATOM     29  C   UNL     1      -0.787  -6.349   0.514  1.00  0.00     0.202 C 
BRANCH  29  30
ATOM     30  C   UNL     1      -1.622  -7.085  -0.558  1.00  0.00     0.261 C 
BRANCH  30  31
ATOM     31  O   UNL     1      -1.175  -7.058  -1.912  1.00  0.00    -0.460 OA
BRANCH  31  32
ATOM     32  C   UNL     1      -1.531  -5.971  -2.639  1.00  0.00     0.338 C 
ATOM     33  O   UNL     1      -2.204  -5.027  -2.254  1.00  0.00    -0.246 OA
BRANCH  32  34
ATOM     34  C   UNL     1      -0.721  -5.987  -3.879  1.00  0.00     0.060 A 
ATOM     35  C   UNL     1       0.117  -4.892  -4.138  1.00  0.00     0.016 A 
ATOM     36  C   UNL     1      -0.731  -7.088  -4.739  1.00  0.00     0.016 A 
ATOM     37  C   UNL     1       0.920  -4.877  -5.277  1.00  0.00     0.010 A 
ATOM     38  C   UNL     1       0.056  -7.060  -5.895  1.00  0.00     0.010 A 
ATOM     39  C   UNL     1       0.855  -5.939  -6.187  1.00  0.00    -0.014 A 
BRANCH  39  40
ATOM     40  C   UNL     1       1.434  -5.770  -7.542  1.00  0.00     0.031 A 
ATOM     41  C   UNL     1       0.507  -5.368  -8.658  1.00  0.00     0.074 A 
ATOM     42  C   UNL     1       2.745  -5.946  -7.785  1.00  0.00     0.049 A 
ATOM     43  N   UNL     1       0.762  -5.186  -9.927  1.00  0.00    -0.248 NA
ATOM     44  C   UNL     1      -0.903  -5.144  -8.291  1.00  0.00     0.031 C 
ATOM     45  C   UNL     1       3.752  -6.314  -6.792  1.00  0.00     0.029 A 
ATOM     46  N   UNL     1       3.449  -5.855  -8.961  1.00  0.00    -0.354 N 
ATOM     47  C   UNL     1      -0.454  -4.856 -10.512  1.00  0.00     0.074 A 
ATOM     48  C   UNL     1      -1.451  -4.880  -9.466  1.00  0.00     0.031 C 
ATOM     49  C   UNL     1       4.941  -6.444  -7.406  1.00  0.00     0.029 A 
ATOM     50  C   UNL     1       4.776  -6.195  -8.837  1.00  0.00     0.049 A 
ATOM     51  H   UNL     1       3.042  -5.573  -9.812  1.00  0.00     0.167 HD
ATOM     52  C   UNL     1      -0.719  -4.545 -11.802  1.00  0.00     0.034 A 
ATOM     53  C   UNL     1       5.737  -6.313  -9.777  1.00  0.00     0.034 A 
ATOM     54  C   UNL     1       0.272  -4.507 -12.842  1.00  0.00     0.049 A 
ATOM     55  C   UNL     1       5.406  -6.004 -11.217  1.00  0.00     0.074 A 
ATOM     56  C   UNL     1       0.108  -4.167 -14.172  1.00  0.00     0.029 A 
ATOM     57  N   UNL     1       1.608  -4.834 -12.673  1.00  0.00    -0.354 N 
ATOM     58  N   UNL     1       4.276  -5.592 -11.738  1.00  0.00    -0.248 NA
ATOM     59  C   UNL     1       6.496  -6.148 -12.195  1.00  0.00     0.031 C 
ATOM     60  C   UNL     1       1.338  -4.325 -14.818  1.00  0.00     0.029 A 
ATOM     61  C   UNL     1       2.278  -4.720 -13.879  1.00  0.00     0.049 A 
ATOM     62  H   UNL     1       2.020  -5.107 -11.822  1.00  0.00     0.167 HD
ATOM     63  C   UNL     1       4.529  -5.388 -13.092  1.00  0.00     0.074 A 
ATOM     64  C   UNL     1       5.925  -5.704 -13.307  1.00  0.00     0.031 C 
ATOM     65  C   UNL     1       3.681  -4.986 -14.071  1.00  0.00     0.034 A 
BRANCH  52  66
ATOM     66  C   UNL     1      -2.142  -4.208 -12.159  1.00  0.00     0.023 A 
ATOM     67  C   UNL     1      -2.706  -2.992 -11.722  1.00  0.00     0.012 A 
ATOM     68  C   UNL     1      -2.906  -5.075 -12.965  1.00  0.00     0.148 A 
ATOM     69  C   UNL     1      -4.019  -2.659 -12.052  1.00  0.00     0.002 A 
ATOM     70  C   UNL     1      -4.196  -4.714 -13.331  1.00  0.00     0.091 A 
ATOM     71  F   UNL     1      -2.359  -6.237 -13.349  1.00  0.00    -0.205 F 
ATOM     72  C   UNL     1      -4.759  -3.514 -12.865  1.00  0.00     0.022 A 
BRANCH  70  73
ATOM     73  S   UNL     1      -5.202  -5.706 -14.439  1.00  0.00     0.127 S 
ATOM     74  O   UNL     1      -6.251  -6.182 -13.539  1.00  0.00    -0.237 OA
ATOM     75  O   UNL     1      -5.643  -4.716 -15.421  1.00  0.00    -0.237 OA
ATOM     76  O   UNL     1      -4.321  -6.738 -14.969  1.00  0.00    -0.744 OA
ENDBRANCH  70  73
ENDBRANCH  52  66
BRANCH  53  77
ATOM     77  C   UNL     1       7.118  -6.725  -9.393  1.00  0.00     0.023 A 
ATOM     78  C   UNL     1       8.180  -5.808  -9.519  1.00  0.00     0.012 A 
ATOM     79  C   UNL     1       7.387  -8.024  -8.920  1.00  0.00     0.148 A 
ATOM     80  C   UNL     1       9.489  -6.189  -9.218  1.00  0.00     0.002 A 
ATOM     81  C   UNL     1       8.684  -8.379  -8.568  1.00  0.00     0.091 A 
ATOM     82  F   UNL     1       6.367  -8.888  -8.824  1.00  0.00    -0.205 F 
ATOM     83  C   UNL     1       9.739  -7.470  -8.734  1.00  0.00     0.022 A 
BRANCH  81  84
ATOM     84  S   UNL     1       9.083  -9.965  -7.825  1.00  0.00     0.127 S 
ATOM     85  O   UNL     1       9.870 -10.599  -8.879  1.00  0.00    -0.237 OA
ATOM     86  O   UNL     1       9.845  -9.559  -6.644  1.00  0.00    -0.237 OA
ATOM     87  O   UNL     1       7.803 -10.595  -7.528  1.00  0.00    -0.744 OA
ENDBRANCH  81  84
ENDBRANCH  53  77
BRANCH  65  88
ATOM     88  C   UNL     1       4.239  -4.812 -15.462  1.00  0.00     0.023 A 
ATOM     89  C   UNL     1       4.606  -5.939 -16.224  1.00  0.00     0.012 A 
ATOM     90  C   UNL     1       4.327  -3.529 -16.042  1.00  0.00     0.148 A 
ATOM     91  C   UNL     1       5.088  -5.790 -17.524  1.00  0.00     0.002 A 
ATOM     92  C   UNL     1       4.757  -3.393 -17.356  1.00  0.00     0.091 A 
ATOM     93  F   UNL     1       3.985  -2.467 -15.298  1.00  0.00    -0.205 F 
ATOM     94  C   UNL     1       5.152  -4.520 -18.094  1.00  0.00     0.022 A 
BRANCH  92  95
ATOM     95  S   UNL     1       4.778  -1.811 -18.207  1.00  0.00     0.127 S 
ATOM     96  O   UNL     1       6.213  -1.557 -18.329  1.00  0.00    -0.237 OA
ATOM     97  O   UNL     1       4.106  -2.129 -19.467  1.00  0.00    -0.237 OA
ATOM     98  O   UNL     1       4.051  -0.883 -17.351  1.00  0.00    -0.744 OA
ENDBRANCH  92  95
ENDBRANCH  65  88
ENDBRANCH  39  40
ENDBRANCH  32  34
ENDBRANCH  31  32
ENDBRANCH  30  31
ENDBRANCH  29  30
ENDBRANCH  28  29
ENDBRANCH  27  28
ENDBRANCH   1  27
TORSDOF 23
