REMARK SMILES Cc1cc2c(=O)c3ccccc3oc2c(C(=O)OCCOCCOCCOC(=O)c2ccc(-c3c4nc(c(-c5cccc(S(=O)(=O)[O-])c5F)c5ccc([nH]5)c(-c5cccc(S(=O)(=O)[O-])c5F)c5nc(c(-c6cccc(S(=O)(=O)[O-])c6F)c6ccc3[nH]6)C=C5)C=C4)cc2)c1C
REMARK SMILES IDX 24 1 23 2 22 3 21 4 20 5 19 6 18 7 16 8 17 9 15 10 1 11 2 12
REMARK SMILES IDX 3 13 93 14 4 15 94 16 5 17 14 18 6 19 7 20 13 21 8 22 12 23
REMARK SMILES IDX 9 24 11 25 10 26 25 27 26 28 27 29 28 30 29 31 30 32 31 33
REMARK SMILES IDX 92 34 32 35 91 36 33 37 34 38 35 39 85 40 36 41 90 42 84 43
REMARK SMILES IDX 86 44 37 45 89 46 83 47 82 48 38 50 70 51 50 52 69 53 51 54
REMARK SMILES IDX 54 55 68 56 87 57 52 58 53 59 67 61 88 62 55 63 39 64 40 65
REMARK SMILES IDX 48 66 41 67 43 68 49 69 42 70 44 71 45 72 46 73 47 74 71 75
REMARK SMILES IDX 72 76 80 77 73 78 75 79 81 80 74 81 76 82 77 83 78 84 79 85
REMARK SMILES IDX 56 86 57 87 65 88 58 89 60 90 66 91 59 92 61 93 62 94 63 95
REMARK SMILES IDX 64 96
REMARK H PARENT 86 49 54 60
REMARK Flexibility Score: inf
ROOT
ATOM      1  O   UNL     1       2.731  -4.547   3.187  1.00  0.00    -0.376 OA
ENDROOT
BRANCH   1   2
ATOM      2  C   UNL     1       1.590  -4.969   2.461  1.00  0.00     0.188 C 
BRANCH   2   3
ATOM      3  C   UNL     1       1.597  -6.294   1.664  1.00  0.00     0.188 C 
BRANCH   3   4
ATOM      4  O   UNL     1       2.755  -7.109   1.643  1.00  0.00    -0.376 OA
BRANCH   4   5
ATOM      5  C   UNL     1       3.945  -6.646   1.021  1.00  0.00     0.202 C 
BRANCH   5   6
ATOM      6  C   UNL     1       3.896  -5.757  -0.223  1.00  0.00     0.261 C 
BRANCH   6   7
ATOM      7  O   UNL     1       3.018  -4.633  -0.080  1.00  0.00    -0.460 OA
BRANCH   7   8
ATOM      8  C   UNL     1       2.189  -4.401  -1.129  1.00  0.00     0.342 C 
ATOM      9  O   UNL     1       2.173  -5.018  -2.180  1.00  0.00    -0.246 OA
BRANCH   8  10
ATOM     10  C   UNL     1       1.239  -3.299  -0.819  1.00  0.00     0.106 A 
ATOM     11  C   UNL     1       1.134   0.451   0.082  1.00  0.00     0.044 C 
ATOM     12  C   UNL     1       0.770  -0.958  -0.302  1.00  0.00    -0.046 A 
ATOM     13  C   UNL     1      -0.588  -1.214  -0.537  1.00  0.00     0.019 A 
ATOM     14  C   UNL     1       1.699  -2.020  -0.390  1.00  0.00    -0.030 A 
ATOM     15  C   UNL     1      -1.032  -2.494  -0.868  1.00  0.00     0.067 A 
ATOM     16  C   UNL     1       3.136  -1.832   0.034  1.00  0.00     0.046 C 
ATOM     17  C   UNL     1      -2.472  -2.730  -1.038  1.00  0.00     0.200 A 
ATOM     18  C   UNL     1      -0.135  -3.545  -1.024  1.00  0.00     0.153 A 
ATOM     19  O   UNL     1      -3.280  -1.818  -0.924  1.00  0.00    -0.288 OA
ATOM     20  C   UNL     1      -2.884  -4.103  -1.331  1.00  0.00     0.065 A 
ATOM     21  O   UNL     1      -0.548  -4.827  -1.320  1.00  0.00    -0.455 OA
ATOM     22  C   UNL     1      -4.239  -4.417  -1.483  1.00  0.00     0.016 A 
ATOM     23  C   UNL     1      -1.895  -5.075  -1.464  1.00  0.00     0.138 A 
ATOM     24  C   UNL     1      -4.606  -5.722  -1.791  1.00  0.00     0.001 A 
ATOM     25  C   UNL     1      -2.270  -6.381  -1.774  1.00  0.00     0.048 A 
ATOM     26  C   UNL     1      -3.623  -6.696  -1.949  1.00  0.00     0.004 A 
ENDBRANCH   8  10
ENDBRANCH   7   8
ENDBRANCH   6   7
ENDBRANCH   5   6
ENDBRANCH   4   5
ENDBRANCH   3   4
ENDBRANCH   2   3
ENDBRANCH   1   2
BRANCH   1  27
ATOM     27  C   UNL     1       3.292  -5.414   4.160  1.00  0.00     0.202 C 
BRANCH  27  28
ATOM     28  C   UNL     1       2.412  -6.041   5.245  1.00  0.00     0.261 C 
BRANCH  28  29
ATOM     29  O   UNL     1       1.309  -6.800   4.732  1.00  0.00    -0.460 OA
BRANCH  29  30
ATOM     30  C   UNL     1       0.078  -6.324   5.045  1.00  0.00     0.338 C 
ATOM     31  O   UNL     1      -0.184  -5.342   5.721  1.00  0.00    -0.246 OA
BRANCH  30  32
ATOM     32  C   UNL     1      -0.926  -7.077   4.271  1.00  0.00     0.060 A 
ATOM     33  C   UNL     1      -1.035  -8.461   4.413  1.00  0.00     0.016 A 
ATOM     34  C   UNL     1      -1.760  -6.380   3.386  1.00  0.00     0.016 A 
ATOM     35  C   UNL     1      -2.003  -9.148   3.679  1.00  0.00     0.010 A 
ATOM     36  C   UNL     1      -2.707  -7.073   2.632  1.00  0.00     0.010 A 
ATOM     37  C   UNL     1      -2.848  -8.459   2.791  1.00  0.00    -0.014 A 
BRANCH  37  38
ATOM     38  C   UNL     1      -3.980  -9.167   2.152  1.00  0.00     0.031 A 
ATOM     39  C   UNL     1      -3.890  -9.696   0.754  1.00  0.00     0.074 A 
ATOM     40  C   UNL     1      -5.112  -9.315   2.864  1.00  0.00     0.049 A 
ATOM     41  N   UNL     1      -4.815 -10.284   0.041  1.00  0.00    -0.248 NA
ATOM     42  C   UNL     1      -2.604  -9.538   0.061  1.00  0.00     0.031 C 
ATOM     43  C   UNL     1      -5.309  -8.833   4.233  1.00  0.00     0.029 A 
ATOM     44  N   UNL     1      -6.299  -9.921   2.547  1.00  0.00    -0.354 N 
ATOM     45  C   UNL     1      -4.257 -10.492  -1.213  1.00  0.00     0.074 A 
ATOM     46  C   UNL     1      -2.887 -10.026  -1.142  1.00  0.00     0.031 C 
ATOM     47  C   UNL     1      -6.532  -9.192   4.650  1.00  0.00     0.029 A 
ATOM     48  C   UNL     1      -7.212  -9.905   3.573  1.00  0.00     0.049 A 
ATOM     49  H   UNL     1      -6.480 -10.327   1.669  1.00  0.00     0.167 HD
ATOM     50  C   UNL     1      -4.851 -10.998  -2.321  1.00  0.00     0.034 A 
ATOM     51  C   UNL     1      -8.453 -10.422   3.645  1.00  0.00     0.034 A 
ATOM     52  C   UNL     1      -6.179 -11.557  -2.342  1.00  0.00     0.049 A 
ATOM     53  C   UNL     1      -9.017 -11.149   2.460  1.00  0.00     0.074 A 
ATOM     54  C   UNL     1      -6.835 -12.171  -3.396  1.00  0.00     0.029 A 
ATOM     55  N   UNL     1      -7.040 -11.607  -1.257  1.00  0.00    -0.354 N 
ATOM     56  N   UNL     1      -8.466 -11.359   1.290  1.00  0.00    -0.248 NA
ATOM     57  C   UNL     1     -10.358 -11.730   2.608  1.00  0.00     0.031 C 
ATOM     58  C   UNL     1      -8.085 -12.604  -2.945  1.00  0.00     0.029 A 
ATOM     59  C   UNL     1      -8.206 -12.266  -1.607  1.00  0.00     0.049 A 
ATOM     60  H   UNL     1      -6.850 -11.229  -0.367  1.00  0.00     0.167 HD
ATOM     61  C   UNL     1      -9.387 -12.101   0.564  1.00  0.00     0.074 A 
ATOM     62  C   UNL     1     -10.522 -12.330   1.435  1.00  0.00     0.031 C 
ATOM     63  C   UNL     1      -9.307 -12.531  -0.718  1.00  0.00     0.034 A 
BRANCH  50  64
ATOM     64  C   UNL     1      -4.079 -11.008  -3.615  1.00  0.00     0.023 A 
ATOM     65  C   UNL     1      -3.049 -11.947  -3.810  1.00  0.00     0.012 A 
ATOM     66  C   UNL     1      -4.468 -10.176  -4.687  1.00  0.00     0.148 A 
ATOM     67  C   UNL     1      -2.408 -12.050  -5.044  1.00  0.00     0.002 A 
ATOM     68  C   UNL     1      -3.858 -10.317  -5.928  1.00  0.00     0.091 A 
ATOM     69  F   UNL     1      -5.440  -9.277  -4.475  1.00  0.00    -0.205 F 
ATOM     70  C   UNL     1      -2.821 -11.247  -6.105  1.00  0.00     0.022 A 
BRANCH  68  71
ATOM     71  S   UNL     1      -4.381  -9.403  -7.385  1.00  0.00     0.127 S 
ATOM     72  O   UNL     1      -3.207  -8.573  -7.650  1.00  0.00    -0.237 OA
ATOM     73  O   UNL     1      -4.602 -10.475  -8.355  1.00  0.00    -0.237 OA
ATOM     74  O   UNL     1      -5.581  -8.675  -6.994  1.00  0.00    -0.744 OA
ENDBRANCH  68  71
ENDBRANCH  50  64
BRANCH  51  75
ATOM     75  C   UNL     1      -9.190 -10.347   4.933  1.00  0.00     0.023 A 
ATOM     76  C   UNL     1      -9.253 -11.494   5.746  1.00  0.00     0.012 A 
ATOM     77  C   UNL     1      -9.737  -9.136   5.396  1.00  0.00     0.148 A 
ATOM     78  C   UNL     1      -9.856 -11.439   7.002  1.00  0.00     0.002 A 
ATOM     79  C   UNL     1     -10.302  -9.079   6.664  1.00  0.00     0.091 A 
ATOM     80  F   UNL     1      -9.657  -8.060   4.601  1.00  0.00    -0.205 F 
ATOM     81  C   UNL     1     -10.370 -10.231   7.464  1.00  0.00     0.022 A 
BRANCH  79  82
ATOM     82  S   UNL     1     -10.894  -7.549   7.394  1.00  0.00     0.127 S 
ATOM     83  O   UNL     1     -12.319  -7.828   7.553  1.00  0.00    -0.237 OA
ATOM     84  O   UNL     1     -10.132  -7.500   8.642  1.00  0.00    -0.237 OA
ATOM     85  O   UNL     1     -10.565  -6.500   6.439  1.00  0.00    -0.744 OA
ENDBRANCH  79  82
ENDBRANCH  51  75
BRANCH  63  86
ATOM     86  C   UNL     1     -10.470 -13.303  -1.277  1.00  0.00     0.023 A 
ATOM     87  C   UNL     1     -11.620 -12.607  -1.697  1.00  0.00     0.012 A 
ATOM     88  C   UNL     1     -10.380 -14.692  -1.490  1.00  0.00     0.148 A 
ATOM     89  C   UNL     1     -12.671 -13.284  -2.313  1.00  0.00     0.002 A 
ATOM     90  C   UNL     1     -11.419 -15.357  -2.131  1.00  0.00     0.091 A 
ATOM     91  F   UNL     1      -9.278 -15.331  -1.072  1.00  0.00    -0.205 F 
ATOM     92  C   UNL     1     -12.566 -14.655  -2.540  1.00  0.00     0.022 A 
BRANCH  90  93
ATOM     93  S   UNL     1     -11.354 -17.108  -2.526  1.00  0.00     0.127 S 
ATOM     94  O   UNL     1     -12.412 -17.645  -1.670  1.00  0.00    -0.237 OA
ATOM     95  O   UNL     1     -11.664 -17.114  -3.955  1.00  0.00    -0.237 OA
ATOM     96  O   UNL     1     -10.007 -17.549  -2.192  1.00  0.00    -0.744 OA
ENDBRANCH  90  93
ENDBRANCH  63  86
ENDBRANCH  37  38
ENDBRANCH  30  32
ENDBRANCH  29  30
ENDBRANCH  28  29
ENDBRANCH  27  28
ENDBRANCH   1  27
TORSDOF 20
