REMARK SMILES Cc1nn([C@H]2CCS(=O)(=O)C2)c(C)c1/C=C(\CC(=O)OCCOCCOCCOC(=O)c1ccc(-c2c3nc(c(-c4cccc(S(=O)(=O)[O-])c4F)c4ccc([nH]4)c(-c4cccc(S(=O)(=O)[O-])c4F)c4nc(c(-c5cccc(S(=O)(=O)[O-])c5F)c5ccc2[nH]5)C=C4)C=C3)cc1)c1nc2ccccc2s1
REMARK SMILES IDX 24 1 23 2 22 3 21 4 20 5 18 6 19 7 17 8 16 9 15 10 14 11
REMARK SMILES IDX 1 12 2 13 3 14 4 15 12 16 13 17 5 18 6 19 11 20 7 21 8 22
REMARK SMILES IDX 9 23 10 24 95 25 96 26 103 27 97 28 102 29 98 30 101 31
REMARK SMILES IDX 99 32 100 33 25 34 26 35 27 36 28 37 29 38 30 39 31 40 32 41
REMARK SMILES IDX 33 42 94 43 34 44 93 45 35 46 36 47 37 48 87 49 38 50 92 51
REMARK SMILES IDX 86 52 88 53 39 54 91 55 85 56 84 57 40 59 72 60 52 61 71 62
REMARK SMILES IDX 53 63 56 64 70 65 89 66 54 67 55 68 69 70 90 71 57 72 41 73
REMARK SMILES IDX 42 74 50 75 43 76 45 77 51 78 44 79 46 80 47 81 48 82 49 83
REMARK SMILES IDX 73 84 74 85 82 86 75 87 77 88 83 89 76 90 78 91 79 92 80 93
REMARK SMILES IDX 81 94 58 95 59 96 67 97 60 98 62 99 68 100 61 101 63 102
REMARK SMILES IDX 64 103 65 104 66 105
REMARK H PARENT 88 58 56 69
REMARK Flexibility Score: inf
ROOT
ATOM      1  C   UNL     1       5.641  -3.523   8.668  1.00  0.00     0.188 C 
ENDROOT
BRANCH   1   2
ATOM      2  O   UNL     1       5.043  -3.471   9.955  1.00  0.00    -0.376 OA
BRANCH   2   3
ATOM      3  C   UNL     1       3.968  -4.336  10.283  1.00  0.00     0.202 C 
BRANCH   3   4
ATOM      4  C   UNL     1       2.668  -4.216   9.464  1.00  0.00     0.261 C 
BRANCH   4   5
ATOM      5  O   UNL     1       2.796  -4.457   8.038  1.00  0.00    -0.463 OA
BRANCH   5   6
ATOM      6  C   UNL     1       2.857  -3.344   7.288  1.00  0.00     0.310 C 
ATOM      7  O   UNL     1       2.617  -2.217   7.731  1.00  0.00    -0.252 OA
BRANCH   6   8
ATOM      8  C   UNL     1       3.226  -3.467   5.802  1.00  0.00     0.161 C 
BRANCH   8   9
ATOM      9  C   UNL     1       3.453  -4.509   4.686  1.00  0.00    -0.000 C 
ATOM     10  C   UNL     1       2.572  -4.554   3.640  1.00  0.00     0.019 C 
BRANCH  10  11
ATOM     11  C   UNL     1       1.326  -3.853   3.571  1.00  0.00     0.019 A 
ATOM     12  C   UNL     1      -0.312  -5.743   2.849  1.00  0.00     0.069 C 
ATOM     13  C   UNL     1       0.039  -4.392   3.355  1.00  0.00     0.067 A 
ATOM     14  N   UNL     1      -0.911  -3.509   3.707  1.00  0.00    -0.177 NA
ATOM     15  N   UNL     1      -0.213  -2.413   4.072  1.00  0.00    -0.265 N 
ATOM     16  C   UNL     1       1.116  -2.492   3.726  1.00  0.00     0.043 A 
ATOM     17  C   UNL     1       2.055  -1.329   3.760  1.00  0.00     0.067 C 
BRANCH  15  18
ATOM     18  C   UNL     1      -0.859  -1.276   4.691  1.00  0.00     0.123 C 
ATOM     19  C   UNL     1      -2.375  -1.374   4.933  1.00  0.00     0.044 C 
ATOM     20  C   UNL     1      -0.315  -0.913   6.079  1.00  0.00     0.164 C 
ATOM     21  C   UNL     1      -2.763  -0.036   5.563  1.00  0.00     0.139 C 
ATOM     22  S   UNL     1      -1.333   0.484   6.503  1.00  0.00     0.152 S 
ATOM     23  O   UNL     1      -0.780   1.651   5.875  1.00  0.00    -0.229 OA
ATOM     24  O   UNL     1      -1.658   0.439   7.924  1.00  0.00    -0.229 OA
ENDBRANCH  15  18
ENDBRANCH  10  11
BRANCH   9  25
ATOM     25  C   UNL     1       4.719  -5.199   4.441  1.00  0.00     0.121 A 
ATOM     26  N   UNL     1       5.922  -4.659   4.545  1.00  0.00    -0.236 NA
ATOM     27  S   UNL     1       4.763  -6.862   3.913  1.00  0.00    -0.114 S 
ATOM     28  C   UNL     1       6.928  -5.584   4.244  1.00  0.00     0.082 A 
ATOM     29  C   UNL     1       6.483  -6.852   3.881  1.00  0.00     0.055 A 
ATOM     30  C   UNL     1       8.322  -5.361   4.293  1.00  0.00     0.030 A 
ATOM     31  C   UNL     1       7.380  -7.896   3.572  1.00  0.00     0.021 A 
ATOM     32  C   UNL     1       9.221  -6.417   4.098  1.00  0.00     0.002 A 
ATOM     33  C   UNL     1       8.752  -7.670   3.733  1.00  0.00     0.002 A 
ENDBRANCH   9  25
ENDBRANCH   8   9
ENDBRANCH   6   8
ENDBRANCH   5   6
ENDBRANCH   4   5
ENDBRANCH   3   4
ENDBRANCH   2   3
ENDBRANCH   1   2
BRANCH   1  34
ATOM     34  C   UNL     1       5.592  -4.797   7.798  1.00  0.00     0.188 C 
BRANCH  34  35
ATOM     35  O   UNL     1       4.887  -5.909   8.321  1.00  0.00    -0.376 OA
BRANCH  35  36
ATOM     36  C   UNL     1       5.596  -7.131   8.437  1.00  0.00     0.202 C 
BRANCH  36  37
ATOM     37  C   UNL     1       6.602  -7.149   9.593  1.00  0.00     0.261 C 
BRANCH  37  38
ATOM     38  O   UNL     1       7.449  -6.005   9.618  1.00  0.00    -0.460 OA
BRANCH  38  39
ATOM     39  C   UNL     1       8.255  -5.944   8.545  1.00  0.00     0.338 C 
ATOM     40  O   UNL     1       8.325  -6.738   7.621  1.00  0.00    -0.246 OA
BRANCH  39  41
ATOM     41  C   UNL     1       9.025  -4.694   8.614  1.00  0.00     0.060 A 
ATOM     42  C   UNL     1       9.235  -4.108   7.361  1.00  0.00     0.016 A 
ATOM     43  C   UNL     1      10.036  -4.817   9.558  1.00  0.00     0.016 A 
ATOM     44  C   UNL     1      10.512  -4.134   6.865  1.00  0.00     0.010 A 
ATOM     45  C   UNL     1      11.313  -4.836   9.070  1.00  0.00     0.010 A 
ATOM     46  C   UNL     1      11.510  -4.635   7.695  1.00  0.00    -0.014 A 
BRANCH  46  47
ATOM     47  C   UNL     1      12.837  -4.823   7.141  1.00  0.00     0.031 A 
ATOM     48  C   UNL     1      13.488  -3.532   6.795  1.00  0.00     0.074 A 
ATOM     49  C   UNL     1      13.385  -6.056   7.201  1.00  0.00     0.049 A 
ATOM     50  N   UNL     1      14.217  -3.234   5.769  1.00  0.00    -0.248 NA
ATOM     51  C   UNL     1      13.134  -2.362   7.630  1.00  0.00     0.031 C 
ATOM     52  C   UNL     1      12.743  -7.271   7.733  1.00  0.00     0.029 A 
ATOM     53  N   UNL     1      14.686  -6.441   7.050  1.00  0.00    -0.354 N 
ATOM     54  C   UNL     1      14.611  -1.913   5.991  1.00  0.00     0.074 A 
ATOM     55  C   UNL     1      13.725  -1.370   6.975  1.00  0.00     0.031 C 
ATOM     56  C   UNL     1      13.700  -8.116   8.166  1.00  0.00     0.029 A 
ATOM     57  C   UNL     1      14.995  -7.536   7.866  1.00  0.00     0.049 A 
ATOM     58  H   UNL     1      15.327  -6.004   6.443  1.00  0.00     0.167 HD
ATOM     59  C   UNL     1      15.851  -1.487   5.636  1.00  0.00     0.034 A 
ATOM     60  C   UNL     1      16.205  -7.843   8.399  1.00  0.00     0.034 A 
ATOM     61  C   UNL     1      16.378  -2.275   4.553  1.00  0.00     0.049 A 
ATOM     62  C   UNL     1      17.224  -7.046   7.681  1.00  0.00     0.074 A 
ATOM     63  C   UNL     1      15.948  -2.583   3.279  1.00  0.00     0.029 A 
ATOM     64  N   UNL     1      17.367  -3.177   4.857  1.00  0.00    -0.354 N 
ATOM     65  N   UNL     1      17.550  -7.228   6.434  1.00  0.00    -0.248 NA
ATOM     66  C   UNL     1      17.606  -5.761   8.248  1.00  0.00     0.031 C 
ATOM     67  C   UNL     1      16.404  -3.909   3.041  1.00  0.00     0.029 A 
ATOM     68  C   UNL     1      17.122  -4.328   4.162  1.00  0.00     0.049 A 
ATOM     69  H   UNL     1      18.122  -3.022   5.469  1.00  0.00     0.167 HD
ATOM     70  C   UNL     1      17.758  -5.946   5.943  1.00  0.00     0.074 A 
ATOM     71  C   UNL     1      17.907  -5.104   7.126  1.00  0.00     0.031 C 
ATOM     72  C   UNL     1      17.480  -5.644   4.641  1.00  0.00     0.034 A 
BRANCH  59  73
ATOM     73  C   UNL     1      16.748  -0.680   6.562  1.00  0.00     0.023 A 
ATOM     74  C   UNL     1      18.006  -0.302   6.046  1.00  0.00     0.012 A 
ATOM     75  C   UNL     1      16.571  -0.539   7.963  1.00  0.00     0.148 A 
ATOM     76  C   UNL     1      19.058   0.087   6.883  1.00  0.00     0.002 A 
ATOM     77  C   UNL     1      17.597  -0.088   8.783  1.00  0.00     0.091 A 
ATOM     78  F   UNL     1      15.450  -0.946   8.557  1.00  0.00    -0.205 F 
ATOM     79  C   UNL     1      18.856   0.189   8.253  1.00  0.00     0.022 A 
BRANCH  77  80
ATOM     80  S   UNL     1      17.369   0.090  10.560  1.00  0.00     0.127 S 
ATOM     81  O   UNL     1      18.112  -1.062  11.063  1.00  0.00    -0.237 OA
ATOM     82  O   UNL     1      17.991   1.390  10.811  1.00  0.00    -0.237 OA
ATOM     83  O   UNL     1      15.928   0.068  10.780  1.00  0.00    -0.744 OA
ENDBRANCH  77  80
ENDBRANCH  59  73
BRANCH  60  84
ATOM     84  C   UNL     1      16.527  -8.544   9.669  1.00  0.00     0.023 A 
ATOM     85  C   UNL     1      17.807  -9.111   9.835  1.00  0.00     0.012 A 
ATOM     86  C   UNL     1      15.689  -8.463  10.805  1.00  0.00     0.148 A 
ATOM     87  C   UNL     1      18.243  -9.563  11.087  1.00  0.00     0.002 A 
ATOM     88  C   UNL     1      16.116  -8.939  12.042  1.00  0.00     0.091 A 
ATOM     89  F   UNL     1      14.512  -7.832  10.702  1.00  0.00    -0.205 F 
ATOM     90  C   UNL     1      17.398  -9.478  12.191  1.00  0.00     0.022 A 
BRANCH  88  91
ATOM     91  S   UNL     1      15.069  -8.870  13.504  1.00  0.00     0.127 S 
ATOM     92  O   UNL     1      15.249 -10.207  14.073  1.00  0.00    -0.237 OA
ATOM     93  O   UNL     1      15.686  -7.791  14.269  1.00  0.00    -0.237 OA
ATOM     94  O   UNL     1      13.721  -8.610  13.012  1.00  0.00    -0.744 OA
ENDBRANCH  88  91
ENDBRANCH  60  84
BRANCH  72  95
ATOM     95  C   UNL     1      17.248  -6.780   3.679  1.00  0.00     0.023 A 
ATOM     96  C   UNL     1      16.167  -7.675   3.818  1.00  0.00     0.012 A 
ATOM     97  C   UNL     1      18.023  -6.823   2.508  1.00  0.00     0.148 A 
ATOM     98  C   UNL     1      15.879  -8.607   2.817  1.00  0.00     0.002 A 
ATOM     99  C   UNL     1      17.700  -7.713   1.493  1.00  0.00     0.091 A 
ATOM    100  F   UNL     1      19.046  -5.963   2.393  1.00  0.00    -0.205 F 
ATOM    101  C   UNL     1      16.635  -8.614   1.648  1.00  0.00     0.022 A 
BRANCH  99 102
ATOM    102  S   UNL     1      18.545  -7.669  -0.088  1.00  0.00     0.127 S 
ATOM    103  O   UNL     1      19.444  -8.816   0.013  1.00  0.00    -0.237 OA
ATOM    104  O   UNL     1      17.444  -7.835  -1.039  1.00  0.00    -0.237 OA
ATOM    105  O   UNL     1      19.192  -6.364  -0.157  1.00  0.00    -0.744 OA
ENDBRANCH  99 102
ENDBRANCH  72  95
ENDBRANCH  46  47
ENDBRANCH  39  41
ENDBRANCH  38  39
ENDBRANCH  37  38
ENDBRANCH  36  37
ENDBRANCH  35  36
ENDBRANCH  34  35
ENDBRANCH   1  34
TORSDOF 24
