REMARK SMILES C[C@H](C(=O)N[C@H](C)C(=O)OCCOCCOCCOC(=O)c1ccc(-c2c3nc(c(-c4cccc(S(=O)(=O)[O-])c4F)c4ccc([nH]4)c(-c4cccc(S(=O)(=O)[O-])c4F)c4nc(c(-c5cccc(S(=O)(=O)[O-])c5F)c5ccc2[nH]5)C=C4)C=C3)cc1)n1cnc2ccccc21
REMARK SMILES IDX 14 1 13 2 12 3 11 4 10 5 8 6 9 7 6 8 7 9 5 10 3 11 4 12 2 14
REMARK SMILES IDX 1 15 85 16 86 17 93 18 87 19 88 20 92 21 89 22 91 23 90 24
REMARK SMILES IDX 15 25 16 26 17 27 18 28 19 29 20 30 21 31 22 32 23 33 84 34
REMARK SMILES IDX 24 35 83 36 25 37 26 38 27 39 77 40 28 41 82 42 76 43 78 44
REMARK SMILES IDX 29 45 81 46 75 47 74 48 30 50 62 51 42 52 61 53 43 54 46 55
REMARK SMILES IDX 60 56 79 57 44 58 45 59 59 61 80 62 47 63 31 64 32 65 40 66
REMARK SMILES IDX 33 67 35 68 41 69 34 70 36 71 37 72 38 73 39 74 63 75 64 76
REMARK SMILES IDX 72 77 65 78 67 79 73 80 66 81 68 82 69 83 70 84 71 85 48 86
REMARK SMILES IDX 49 87 57 88 50 89 52 90 58 91 51 92 53 93 54 94 55 95 56 96
REMARK H PARENT 5 13 78 49 46 60
REMARK Flexibility Score: inf
ROOT
ATOM      1  C   UNL     1       0.715   5.577   6.628  1.00  0.00     0.188 C 
ENDROOT
BRANCH   1   2
ATOM      2  O   UNL     1       0.246   4.536   7.470  1.00  0.00    -0.376 OA
BRANCH   2   3
ATOM      3  C   UNL     1       0.886   3.270   7.353  1.00  0.00     0.202 C 
BRANCH   3   4
ATOM      4  C   UNL     1       0.799   2.566   5.991  1.00  0.00     0.261 C 
BRANCH   4   5
ATOM      5  O   UNL     1       1.086   3.414   4.864  1.00  0.00    -0.462 OA
BRANCH   5   6
ATOM      6  C   UNL     1       0.024   3.699   4.057  1.00  0.00     0.328 C 
ATOM      7  O   UNL     1      -1.103   3.229   4.176  1.00  0.00    -0.250 OA
BRANCH   6   8
ATOM      8  C   UNL     1       0.423   4.548   2.835  1.00  0.00     0.189 C 
ATOM      9  C   UNL     1       1.587   5.515   3.000  1.00  0.00     0.043 C 
BRANCH   8  10
ATOM     10  N   UNL     1       0.547   3.594   1.732  1.00  0.00    -0.341 N 
ATOM     11  C   UNL     1       1.597   2.705   1.730  1.00  0.00     0.243 C 
ATOM     12  O   UNL     1       1.423   1.574   2.177  1.00  0.00    -0.273 OA
ATOM     13  H   UNL     1      -0.112   3.589   1.001  1.00  0.00     0.164 HD
BRANCH  11  14
ATOM     14  C   UNL     1       2.897   3.184   1.093  1.00  0.00     0.174 C 
ATOM     15  C   UNL     1       4.128   2.433   1.616  1.00  0.00     0.042 C 
BRANCH  14  16
ATOM     16  N   UNL     1       2.786   3.087  -0.358  1.00  0.00    -0.318 N 
ATOM     17  C   UNL     1       2.942   4.124  -1.236  1.00  0.00     0.201 A 
ATOM     18  C   UNL     1       2.614   1.935  -1.087  1.00  0.00     0.069 A 
ATOM     19  N   UNL     1       2.995   3.700  -2.478  1.00  0.00    -0.237 NA
ATOM     20  C   UNL     1       2.818   2.340  -2.402  1.00  0.00     0.088 A 
ATOM     21  C   UNL     1       2.354   0.605  -0.733  1.00  0.00     0.028 A 
ATOM     22  C   UNL     1       2.832   1.372  -3.417  1.00  0.00     0.030 A 
ATOM     23  C   UNL     1       2.358  -0.342  -1.758  1.00  0.00     0.002 A 
ATOM     24  C   UNL     1       2.613   0.030  -3.077  1.00  0.00     0.002 A 
ENDBRANCH  14  16
ENDBRANCH  11  14
ENDBRANCH   8  10
ENDBRANCH   6   8
ENDBRANCH   5   6
ENDBRANCH   4   5
ENDBRANCH   3   4
ENDBRANCH   2   3
ENDBRANCH   1   2
BRANCH   1  25
ATOM     25  C   UNL     1       2.213   5.878   6.658  1.00  0.00     0.188 C 
BRANCH  25  26
ATOM     26  O   UNL     1       3.119   4.786   6.687  1.00  0.00    -0.376 OA
BRANCH  26  27
ATOM     27  C   UNL     1       4.500   5.130   6.868  1.00  0.00     0.202 C 
BRANCH  27  28
ATOM     28  C   UNL     1       4.850   6.179   7.952  1.00  0.00     0.261 C 
BRANCH  28  29
ATOM     29  O   UNL     1       4.238   7.486   7.825  1.00  0.00    -0.460 OA
BRANCH  29  30
ATOM     30  C   UNL     1       4.268   8.110   6.624  1.00  0.00     0.338 C 
ATOM     31  O   UNL     1       4.996   7.819   5.687  1.00  0.00    -0.246 OA
BRANCH  30  32
ATOM     32  C   UNL     1       3.075   9.009   6.507  1.00  0.00     0.060 A 
ATOM     33  C   UNL     1       2.466   9.140   5.247  1.00  0.00     0.016 A 
ATOM     34  C   UNL     1       2.492   9.641   7.611  1.00  0.00     0.016 A 
ATOM     35  C   UNL     1       1.326   9.937   5.076  1.00  0.00     0.010 A 
ATOM     36  C   UNL     1       1.359  10.453   7.437  1.00  0.00     0.010 A 
ATOM     37  C   UNL     1       0.793  10.642   6.161  1.00  0.00    -0.014 A 
BRANCH  37  38
ATOM     38  C   UNL     1      -0.157  11.769   5.935  1.00  0.00     0.031 A 
ATOM     39  C   UNL     1       0.420  13.163   5.885  1.00  0.00     0.074 A 
ATOM     40  C   UNL     1      -1.485  11.602   5.787  1.00  0.00     0.049 A 
ATOM     41  N   UNL     1      -0.189  14.318   5.811  1.00  0.00    -0.248 NA
ATOM     42  C   UNL     1       1.889  13.260   5.931  1.00  0.00     0.031 C 
ATOM     43  C   UNL     1      -2.187  10.322   5.772  1.00  0.00     0.029 A 
ATOM     44  N   UNL     1      -2.488  12.536   5.651  1.00  0.00    -0.354 N 
ATOM     45  C   UNL     1       0.817  15.277   5.846  1.00  0.00     0.074 A 
ATOM     46  C   UNL     1       2.074  14.570   5.952  1.00  0.00     0.031 C 
ATOM     47  C   UNL     1      -3.510  10.551   5.670  1.00  0.00     0.029 A 
ATOM     48  C   UNL     1      -3.753  11.995   5.649  1.00  0.00     0.049 A 
ATOM     49  H   UNL     1      -2.316  13.501   5.563  1.00  0.00     0.167 HD
ATOM     50  C   UNL     1       0.715  16.626   5.790  1.00  0.00     0.034 A 
ATOM     51  C   UNL     1      -4.965  12.592   5.663  1.00  0.00     0.034 A 
ATOM     52  C   UNL     1      -0.525  17.340   5.671  1.00  0.00     0.049 A 
ATOM     53  C   UNL     1      -5.060  14.101   5.653  1.00  0.00     0.074 A 
ATOM     54  C   UNL     1      -0.723  18.707   5.579  1.00  0.00     0.029 A 
ATOM     55  N   UNL     1      -1.779  16.752   5.643  1.00  0.00    -0.354 N 
ATOM     56  N   UNL     1      -4.098  14.991   5.604  1.00  0.00    -0.248 NA
ATOM     57  C   UNL     1      -6.411  14.688   5.674  1.00  0.00     0.031 C 
ATOM     58  C   UNL     1      -2.099  18.947   5.530  1.00  0.00     0.029 A 
ATOM     59  C   UNL     1      -2.756  17.727   5.544  1.00  0.00     0.049 A 
ATOM     60  H   UNL     1      -1.949  15.783   5.686  1.00  0.00     0.167 HD
ATOM     61  C   UNL     1      -4.727  16.233   5.540  1.00  0.00     0.074 A 
ATOM     62  C   UNL     1      -6.152  15.982   5.548  1.00  0.00     0.031 C 
ATOM     63  C   UNL     1      -4.172  17.470   5.486  1.00  0.00     0.034 A 
BRANCH  50  64
ATOM     64  C   UNL     1       1.992  17.421   5.857  1.00  0.00     0.023 A 
ATOM     65  C   UNL     1       2.880  17.419   4.762  1.00  0.00     0.012 A 
ATOM     66  C   UNL     1       2.295  18.197   6.993  1.00  0.00     0.148 A 
ATOM     67  C   UNL     1       4.069  18.145   4.813  1.00  0.00     0.002 A 
ATOM     68  C   UNL     1       3.457  18.957   7.016  1.00  0.00     0.091 A 
ATOM     69  F   UNL     1       1.449  18.166   8.033  1.00  0.00    -0.205 F 
ATOM     70  C   UNL     1       4.352  18.921   5.934  1.00  0.00     0.022 A 
BRANCH  68  71
ATOM     71  S   UNL     1       3.870  20.051   8.379  1.00  0.00     0.127 S 
ATOM     72  O   UNL     1       5.002  19.351   8.984  1.00  0.00    -0.237 OA
ATOM     73  O   UNL     1       4.220  21.289   7.682  1.00  0.00    -0.237 OA
ATOM     74  O   UNL     1       2.673  20.134   9.204  1.00  0.00    -0.744 OA
ENDBRANCH  68  71
ENDBRANCH  50  64
BRANCH  51  75
ATOM     75  C   UNL     1      -6.212  11.769   5.678  1.00  0.00     0.023 A 
ATOM     76  C   UNL     1      -7.068  11.779   4.559  1.00  0.00     0.012 A 
ATOM     77  C   UNL     1      -6.563  10.995   6.801  1.00  0.00     0.148 A 
ATOM     78  C   UNL     1      -8.264  11.059   4.569  1.00  0.00     0.002 A 
ATOM     79  C   UNL     1      -7.728  10.236   6.784  1.00  0.00     0.091 A 
ATOM     80  F   UNL     1      -5.749  11.016   7.866  1.00  0.00    -0.205 F 
ATOM     81  C   UNL     1      -8.589  10.280   5.676  1.00  0.00     0.022 A 
BRANCH  79  82
ATOM     82  S   UNL     1      -8.174   9.115   8.115  1.00  0.00     0.127 S 
ATOM     83  O   UNL     1      -9.381   9.744   8.645  1.00  0.00    -0.237 OA
ATOM     84  O   UNL     1      -8.397   7.865   7.389  1.00  0.00    -0.237 OA
ATOM     85  O   UNL     1      -7.028   9.095   9.014  1.00  0.00    -0.744 OA
ENDBRANCH  79  82
ENDBRANCH  51  75
BRANCH  63  86
ATOM     86  C   UNL     1      -5.087  18.662   5.355  1.00  0.00     0.023 A 
ATOM     87  C   UNL     1      -5.865  19.087   6.450  1.00  0.00     0.012 A 
ATOM     88  C   UNL     1      -5.095  19.423   4.167  1.00  0.00     0.148 A 
ATOM     89  C   UNL     1      -6.658  20.232   6.354  1.00  0.00     0.002 A 
ATOM     90  C   UNL     1      -5.846  20.590   4.097  1.00  0.00     0.091 A 
ATOM     91  F   UNL     1      -4.359  18.996   3.131  1.00  0.00    -0.205 F 
ATOM     92  C   UNL     1      -6.638  20.989   5.185  1.00  0.00     0.022 A 
BRANCH  90  93
ATOM     93  S   UNL     1      -5.803  21.683   2.671  1.00  0.00     0.127 S 
ATOM     94  O   UNL     1      -7.139  21.491   2.108  1.00  0.00    -0.237 OA
ATOM     95  O   UNL     1      -5.585  22.991   3.290  1.00  0.00    -0.237 OA
ATOM     96  O   UNL     1      -4.703  21.216   1.839  1.00  0.00    -0.744 OA
ENDBRANCH  90  93
ENDBRANCH  63  86
ENDBRANCH  37  38
ENDBRANCH  30  32
ENDBRANCH  29  30
ENDBRANCH  28  29
ENDBRANCH  27  28
ENDBRANCH  26  27
ENDBRANCH  25  26
ENDBRANCH   1  25
TORSDOF 23
