REMARK SMILES CCC(CC)(NC(=O)N[C@@H](C)[C@@H]1CCCO1)C(=O)OCCOCCOCCOC(=O)c1ccc(-c2c3nc(c(-c4cccc(S(=O)(=O)[O-])c4F)c4ccc([nH]4)c(-c4cccc(S(=O)(=O)[O-])c4F)c4nc(c(-c5cccc(S(=O)(=O)[O-])c5F)c5ccc2[nH]5)C=C4)C=C3)cc1
REMARK SMILES IDX 23 1 22 2 21 3 20 4 19 5 17 6 18 7 3 8 2 9 1 10 4 11 5 12
REMARK SMILES IDX 6 13 7 14 8 16 9 17 10 19 11 20 12 21 13 22 16 23 14 24
REMARK SMILES IDX 15 25 24 26 25 27 26 28 27 29 28 30 29 31 30 32 31 33 32 34
REMARK SMILES IDX 93 35 33 36 92 37 34 38 35 39 36 40 86 41 37 42 91 43 85 44
REMARK SMILES IDX 87 45 38 46 90 47 84 48 83 49 39 51 71 52 51 53 70 54 52 55
REMARK SMILES IDX 55 56 69 57 88 58 53 59 54 60 68 62 89 63 56 64 40 65 41 66
REMARK SMILES IDX 49 67 42 68 44 69 50 70 43 71 45 72 46 73 47 74 48 75 72 76
REMARK SMILES IDX 73 77 81 78 74 79 76 80 82 81 75 82 77 83 78 84 79 85 80 86
REMARK SMILES IDX 57 87 58 88 66 89 59 90 61 91 67 92 60 93 62 94 63 95 64 96
REMARK SMILES IDX 65 97
REMARK H PARENT 6 15 9 18 87 50 55 61
REMARK Flexibility Score: inf
ROOT
ATOM      1  C   UNL     1       3.688   3.008  -1.507  1.00  0.00     0.188 C 
ENDROOT
BRANCH   1   2
ATOM      2  O   UNL     1       4.967   2.266  -1.838  1.00  0.00    -0.376 OA
BRANCH   2   3
ATOM      3  C   UNL     1       5.847   0.577  -2.492  1.00  0.00     0.202 C 
BRANCH   3   4
ATOM      4  C   UNL     1       5.254  -1.047  -2.241  1.00  0.00     0.261 C 
BRANCH   4   5
ATOM      5  O   UNL     1       3.840  -1.301  -2.586  1.00  0.00    -0.461 OA
BRANCH   5   6
ATOM      6  C   UNL     1       2.835  -1.237  -1.656  1.00  0.00     0.331 C 
ATOM      7  O   UNL     1       2.963  -1.854  -0.599  1.00  0.00    -0.249 OA
BRANCH   6   8
ATOM      8  C   UNL     1       1.382  -0.550  -2.146  1.00  0.00     0.139 C 
BRANCH   8   9
ATOM      9  C   UNL     1       0.784   0.194  -0.877  1.00  0.00     0.037 C 
ATOM     10  C   UNL     1       0.807  -0.451   0.492  1.00  0.00     0.007 C 
ENDBRANCH   8   9
BRANCH   8  11
ATOM     11  C   UNL     1       0.520  -1.785  -2.554  1.00  0.00     0.037 C 
ATOM     12  C   UNL     1      -0.987  -1.556  -2.706  1.00  0.00     0.007 C 
ENDBRANCH   8  11
BRANCH   8  13
ATOM     13  N   UNL     1       1.020   0.535  -3.210  1.00  0.00    -0.322 N 
ATOM     14  C   UNL     1       1.236   1.018  -4.439  1.00  0.00     0.316 C 
ATOM     15  H   UNL     1       0.339   1.115  -2.797  1.00  0.00     0.166 HD
ATOM     16  O   UNL     1       0.332   1.655  -4.982  1.00  0.00    -0.249 OA
ATOM     17  N   UNL     1       2.440   0.975  -5.023  1.00  0.00    -0.333 N 
ATOM     18  H   UNL     1       2.535   1.376  -5.917  1.00  0.00     0.165 HD
BRANCH  17  19
ATOM     19  C   UNL     1       3.603   0.377  -4.421  1.00  0.00     0.109 C 
ATOM     20  C   UNL     1       4.583  -0.074  -5.488  1.00  0.00     0.034 C 
BRANCH  19  21
ATOM     21  C   UNL     1       4.139   1.272  -3.192  1.00  0.00     0.140 C 
ATOM     22  C   UNL     1       5.688   2.525  -3.500  1.00  0.00     0.036 C 
ATOM     23  O   UNL     1       4.291   0.680  -1.356  1.00  0.00    -0.376 OA
ATOM     24  C   UNL     1       6.795   2.515  -1.860  1.00  0.00     0.031 C 
ATOM     25  C   UNL     1       5.882   1.346  -0.538  1.00  0.00     0.160 C 
ENDBRANCH  19  21
ENDBRANCH  17  19
ENDBRANCH   8  13
ENDBRANCH   6   8
ENDBRANCH   5   6
ENDBRANCH   4   5
ENDBRANCH   3   4
ENDBRANCH   2   3
ENDBRANCH   1   2
BRANCH   1  26
ATOM     26  C   UNL     1       2.754   3.601  -2.664  1.00  0.00     0.188 C 
BRANCH  26  27
ATOM     27  O   UNL     1       3.226   3.481  -4.001  1.00  0.00    -0.376 OA
BRANCH  27  28
ATOM     28  C   UNL     1       3.505   4.558  -4.869  1.00  0.00     0.202 C 
BRANCH  28  29
ATOM     29  C   UNL     1       4.324   5.769  -4.393  1.00  0.00     0.261 C 
BRANCH  29  30
ATOM     30  O   UNL     1       4.043   6.218  -3.067  1.00  0.00    -0.460 OA
BRANCH  30  31
ATOM     31  C   UNL     1       2.822   6.783  -2.891  1.00  0.00     0.338 C 
ATOM     32  O   UNL     1       2.031   7.074  -3.770  1.00  0.00    -0.246 OA
BRANCH  31  33
ATOM     33  C   UNL     1       2.481   6.642  -1.448  1.00  0.00     0.060 A 
ATOM     34  C   UNL     1       1.220   6.097  -1.138  1.00  0.00     0.016 A 
ATOM     35  C   UNL     1       3.429   6.839  -0.438  1.00  0.00     0.016 A 
ATOM     36  C   UNL     1       0.894   5.786   0.175  1.00  0.00     0.010 A 
ATOM     37  C   UNL     1       3.076   6.594   0.892  1.00  0.00     0.010 A 
ATOM     38  C   UNL     1       1.786   6.121   1.199  1.00  0.00    -0.014 A 
BRANCH  38  39
ATOM     39  C   UNL     1       1.193   6.371   2.531  1.00  0.00     0.031 A 
ATOM     40  C   UNL     1       0.678   7.766   2.775  1.00  0.00     0.074 A 
ATOM     41  C   UNL     1       1.007   5.401   3.442  1.00  0.00     0.049 A 
ATOM     42  N   UNL     1       0.056   8.255   3.813  1.00  0.00    -0.248 NA
ATOM     43  C   UNL     1       0.882   8.741   1.686  1.00  0.00     0.031 C 
ATOM     44  C   UNL     1       1.417   4.006   3.305  1.00  0.00     0.029 A 
ATOM     45  N   UNL     1       0.418   5.463   4.680  1.00  0.00    -0.354 N 
ATOM     46  C   UNL     1      -0.196   9.586   3.502  1.00  0.00     0.074 A 
ATOM     47  C   UNL     1       0.363   9.841   2.197  1.00  0.00     0.031 C 
ATOM     48  C   UNL     1       1.097   3.348   4.435  1.00  0.00     0.029 A 
ATOM     49  C   UNL     1       0.476   4.280   5.377  1.00  0.00     0.049 A 
ATOM     50  H   UNL     1      -0.006   6.277   5.035  1.00  0.00     0.167 HD
ATOM     51  C   UNL     1      -0.855  10.516   4.227  1.00  0.00     0.034 A 
ATOM     52  C   UNL     1       0.093   4.001   6.639  1.00  0.00     0.034 A 
ATOM     53  C   UNL     1      -1.400  10.271   5.530  1.00  0.00     0.049 A 
ATOM     54  C   UNL     1      -0.569   5.080   7.464  1.00  0.00     0.074 A 
ATOM     55  C   UNL     1      -2.077  11.148   6.356  1.00  0.00     0.029 A 
ATOM     56  N   UNL     1      -1.314   9.064   6.204  1.00  0.00    -0.354 N 
ATOM     57  N   UNL     1      -0.869   6.313   7.131  1.00  0.00    -0.248 NA
ATOM     58  C   UNL     1      -0.979   4.715   8.828  1.00  0.00     0.031 C 
ATOM     59  C   UNL     1      -2.366  10.482   7.550  1.00  0.00     0.029 A 
ATOM     60  C   UNL     1      -1.919   9.174   7.443  1.00  0.00     0.049 A 
ATOM     61  H   UNL     1      -0.887   8.249   5.854  1.00  0.00     0.167 HD
ATOM     62  C   UNL     1      -1.539   6.854   8.226  1.00  0.00     0.074 A 
ATOM     63  C   UNL     1      -1.621   5.806   9.221  1.00  0.00     0.031 C 
ATOM     64  C   UNL     1      -2.033   8.106   8.401  1.00  0.00     0.034 A 
BRANCH  51  65
ATOM     65  C   UNL     1      -1.014  11.882   3.617  1.00  0.00     0.023 A 
ATOM     66  C   UNL     1      -1.881  12.065   2.520  1.00  0.00     0.012 A 
ATOM     67  C   UNL     1      -0.324  12.987   4.147  1.00  0.00     0.148 A 
ATOM     68  C   UNL     1      -2.035  13.323   1.940  1.00  0.00     0.002 A 
ATOM     69  C   UNL     1      -0.523  14.246   3.598  1.00  0.00     0.091 A 
ATOM     70  F   UNL     1       0.518  12.783   5.170  1.00  0.00    -0.205 F 
ATOM     71  C   UNL     1      -1.366  14.415   2.487  1.00  0.00     0.022 A 
BRANCH  69  72
ATOM     72  S   UNL     1       0.231  15.727   4.276  1.00  0.00     0.127 S 
ATOM     73  O   UNL     1       1.119  16.132   3.187  1.00  0.00    -0.237 OA
ATOM     74  O   UNL     1      -0.929  16.596   4.472  1.00  0.00    -0.237 OA
ATOM     75  O   UNL     1       0.902  15.316   5.502  1.00  0.00    -0.744 OA
ENDBRANCH  69  72
ENDBRANCH  51  65
BRANCH  52  76
ATOM     76  C   UNL     1       0.336   2.649   7.222  1.00  0.00     0.023 A 
ATOM     77  C   UNL     1      -0.749   1.827   7.586  1.00  0.00     0.012 A 
ATOM     78  C   UNL     1       1.648   2.197   7.460  1.00  0.00     0.148 A 
ATOM     79  C   UNL     1      -0.530   0.602   8.220  1.00  0.00     0.002 A 
ATOM     80  C   UNL     1       1.860   0.952   8.038  1.00  0.00     0.091 A 
ATOM     81  F   UNL     1       2.667   3.002   7.127  1.00  0.00    -0.205 F 
ATOM     82  C   UNL     1       0.772   0.161   8.439  1.00  0.00     0.022 A 
BRANCH  80  83
ATOM     83  S   UNL     1       3.502   0.260   8.257  1.00  0.00     0.127 S 
ATOM     84  O   UNL     1       3.637   0.265   9.712  1.00  0.00    -0.237 OA
ATOM     85  O   UNL     1       3.351  -1.066   7.657  1.00  0.00    -0.237 OA
ATOM     86  O   UNL     1       4.405   1.148   7.538  1.00  0.00    -0.744 OA
ENDBRANCH  80  83
ENDBRANCH  52  76
BRANCH  64  87
ATOM     87  C   UNL     1      -2.764   8.400   9.687  1.00  0.00     0.023 A 
ATOM     88  C   UNL     1      -2.063   8.461  10.907  1.00  0.00     0.012 A 
ATOM     89  C   UNL     1      -4.147   8.674   9.671  1.00  0.00     0.148 A 
ATOM     90  C   UNL     1      -2.736   8.739  12.097  1.00  0.00     0.002 A 
ATOM     91  C   UNL     1      -4.799   9.008  10.851  1.00  0.00     0.091 A 
ATOM     92  F   UNL     1      -4.800   8.603   8.502  1.00  0.00    -0.205 F 
ATOM     93  C   UNL     1      -4.099   9.022  12.068  1.00  0.00     0.022 A 
BRANCH  91  94
ATOM     94  S   UNL     1      -6.529   9.487  10.895  1.00  0.00     0.127 S 
ATOM     95  O   UNL     1      -7.138   8.341  11.569  1.00  0.00    -0.237 OA
ATOM     96  O   UNL     1      -6.489  10.713  11.692  1.00  0.00    -0.237 OA
ATOM     97  O   UNL     1      -6.931   9.679   9.508  1.00  0.00    -0.744 OA
ENDBRANCH  91  94
ENDBRANCH  64  87
ENDBRANCH  38  39
ENDBRANCH  31  33
ENDBRANCH  30  31
ENDBRANCH  29  30
ENDBRANCH  28  29
ENDBRANCH  27  28
ENDBRANCH  26  27
ENDBRANCH   1  26
TORSDOF 25
