REMARK SMILES O=C(OCCOCCOCCOC(=O)c1ccc(NS(=O)(=O)c2ccc3c(c2)CCC3)cc1Cl)c1ccc(-c2c3nc(c(-c4cccc(S(=O)(=O)[O-])c4F)c4ccc([nH]4)c(-c4cccc(S(=O)(=O)[O-])c4F)c4nc(c(-c5cccc(S(=O)(=O)[O-])c5F)c5ccc2[nH]5)C=C4)C=C3)cc1
REMARK SMILES IDX 7 1 6 2 5 3 4 4 3 5 2 6 1 7 35 8 36 9 97 10 37 11 96 12
REMARK SMILES IDX 38 13 39 14 40 15 90 16 41 17 95 18 89 19 91 20 42 21 94 22
REMARK SMILES IDX 88 23 87 24 43 26 75 27 55 28 74 29 56 30 59 31 73 32 92 33
REMARK SMILES IDX 57 34 58 35 72 37 93 38 60 39 44 40 45 41 53 42 46 43 48 44
REMARK SMILES IDX 54 45 47 46 49 47 50 48 51 49 52 50 76 51 77 52 85 53 78 54
REMARK SMILES IDX 80 55 86 56 79 57 81 58 82 59 83 60 84 61 61 62 62 63 70 64
REMARK SMILES IDX 63 65 65 66 71 67 64 68 66 69 67 70 68 71 69 72 8 73 9 74
REMARK SMILES IDX 10 75 11 76 12 77 13 78 14 79 15 80 16 81 33 82 17 83 32 84
REMARK SMILES IDX 34 85 18 86 19 87 20 89 21 90 22 91 23 92 24 93 28 94 25 95
REMARK SMILES IDX 27 96 26 97 29 98 31 99 30 100
REMARK H PARENT 91 25 59 36 19 88
REMARK Flexibility Score: inf
ROOT
ATOM      1  C   UNL     1       2.686  -1.848  -0.445  1.00  0.00     0.188 C 
ENDROOT
BRANCH   1   2
ATOM      2  O   UNL     1       4.014  -1.433  -0.788  1.00  0.00    -0.376 OA
BRANCH   2   3
ATOM      3  C   UNL     1       4.914  -1.383   0.327  1.00  0.00     0.202 C 
BRANCH   3   4
ATOM      4  C   UNL     1       4.676  -0.255   1.347  1.00  0.00     0.261 C 
BRANCH   4   5
ATOM      5  O   UNL     1       3.307   0.160   1.452  1.00  0.00    -0.460 OA
BRANCH   5   6
ATOM      6  C   UNL     1       2.686   1.195   0.832  1.00  0.00     0.338 C 
ATOM      7  O   UNL     1       1.578   1.524   1.255  1.00  0.00    -0.246 OA
BRANCH   6   8
ATOM      8  C   UNL     1       3.226   1.913  -0.374  1.00  0.00     0.060 A 
ATOM      9  C   UNL     1       4.375   1.566  -1.089  1.00  0.00     0.016 A 
ATOM     10  C   UNL     1       2.490   3.017  -0.841  1.00  0.00     0.016 A 
ATOM     11  C   UNL     1       4.837   2.319  -2.163  1.00  0.00     0.010 A 
ATOM     12  C   UNL     1       2.929   3.769  -1.936  1.00  0.00     0.010 A 
ATOM     13  C   UNL     1       4.138   3.448  -2.566  1.00  0.00    -0.014 A 
BRANCH  13  14
ATOM     14  C   UNL     1       4.796   4.413  -3.466  1.00  0.00     0.031 A 
ATOM     15  C   UNL     1       5.349   5.659  -2.849  1.00  0.00     0.074 A 
ATOM     16  C   UNL     1       4.959   4.165  -4.775  1.00  0.00     0.049 A 
ATOM     17  N   UNL     1       5.870   6.705  -3.424  1.00  0.00    -0.248 NA
ATOM     18  C   UNL     1       5.358   5.710  -1.375  1.00  0.00     0.031 C 
ATOM     19  C   UNL     1       4.642   2.908  -5.439  1.00  0.00     0.029 A 
ATOM     20  N   UNL     1       5.383   4.979  -5.793  1.00  0.00    -0.354 N 
ATOM     21  C   UNL     1       6.249   7.546  -2.389  1.00  0.00     0.074 A 
ATOM     22  C   UNL     1       5.889   6.900  -1.149  1.00  0.00     0.031 C 
ATOM     23  C   UNL     1       4.728   3.074  -6.767  1.00  0.00     0.029 A 
ATOM     24  C   UNL     1       5.111   4.452  -7.035  1.00  0.00     0.049 A 
ATOM     25  H   UNL     1       5.833   5.843  -5.651  1.00  0.00     0.167 HD
ATOM     26  C   UNL     1       6.861   8.747  -2.476  1.00  0.00     0.034 A 
ATOM     27  C   UNL     1       5.119   5.039  -8.245  1.00  0.00     0.034 A 
ATOM     28  C   UNL     1       7.188   9.365  -3.728  1.00  0.00     0.049 A 
ATOM     29  C   UNL     1       5.640   6.443  -8.331  1.00  0.00     0.074 A 
ATOM     30  C   UNL     1       7.806  10.577  -3.958  1.00  0.00     0.029 A 
ATOM     31  N   UNL     1       6.889   8.818  -4.970  1.00  0.00    -0.354 N 
ATOM     32  N   UNL     1       6.050   7.221  -7.357  1.00  0.00    -0.248 NA
ATOM     33  C   UNL     1       5.773   7.030  -9.669  1.00  0.00     0.031 C 
ATOM     34  C   UNL     1       7.845  10.781  -5.341  1.00  0.00     0.029 A 
ATOM     35  C   UNL     1       7.291   9.676  -5.974  1.00  0.00     0.049 A 
ATOM     36  H   UNL     1       6.455   7.946  -5.113  1.00  0.00     0.167 HD
ATOM     37  C   UNL     1       6.557   8.359  -7.963  1.00  0.00     0.074 A 
ATOM     38  C   UNL     1       6.376   8.180  -9.392  1.00  0.00     0.031 C 
ATOM     39  C   UNL     1       7.140   9.440  -7.390  1.00  0.00     0.034 A 
BRANCH  26  40
ATOM     40  C   UNL     1       7.165   9.447  -1.182  1.00  0.00     0.023 A 
ATOM     41  C   UNL     1       8.173   8.950  -0.328  1.00  0.00     0.012 A 
ATOM     42  C   UNL     1       6.412  10.567  -0.784  1.00  0.00     0.148 A 
ATOM     43  C   UNL     1       8.389   9.525   0.924  1.00  0.00     0.002 A 
ATOM     44  C   UNL     1       6.662  11.161   0.446  1.00  0.00     0.091 A 
ATOM     45  F   UNL     1       5.436  11.002  -1.593  1.00  0.00    -0.205 F 
ATOM     46  C   UNL     1       7.638  10.633   1.308  1.00  0.00     0.022 A 
BRANCH  44  47
ATOM     47  S   UNL     1       5.784  12.624   1.002  1.00  0.00     0.127 S 
ATOM     48  O   UNL     1       4.901  12.067   2.025  1.00  0.00    -0.237 OA
ATOM     49  O   UNL     1       6.870  13.456   1.521  1.00  0.00    -0.237 OA
ATOM     50  O   UNL     1       5.120  13.164  -0.176  1.00  0.00    -0.744 OA
ENDBRANCH  44  47
ENDBRANCH  26  40
BRANCH  27  51
ATOM     51  C   UNL     1       4.649   4.276  -9.433  1.00  0.00     0.023 A 
ATOM     52  C   UNL     1       5.575   3.788 -10.371  1.00  0.00     0.012 A 
ATOM     53  C   UNL     1       3.286   3.946  -9.582  1.00  0.00     0.148 A 
ATOM     54  C   UNL     1       5.151   2.998 -11.443  1.00  0.00     0.002 A 
ATOM     55  C   UNL     1       2.877   3.120 -10.624  1.00  0.00     0.091 A 
ATOM     56  F   UNL     1       2.407   4.421  -8.688  1.00  0.00    -0.205 F 
ATOM     57  C   UNL     1       3.806   2.653 -11.564  1.00  0.00     0.022 A 
BRANCH  55  58
ATOM     58  S   UNL     1       1.190   2.509 -10.722  1.00  0.00     0.127 S 
ATOM     59  O   UNL     1       0.572   3.448 -11.650  1.00  0.00    -0.237 OA
ATOM     60  O   UNL     1       1.377   1.153 -11.238  1.00  0.00    -0.237 OA
ATOM     61  O   UNL     1       0.703   2.537  -9.344  1.00  0.00    -0.744 OA
ENDBRANCH  55  58
ENDBRANCH  27  51
BRANCH  39  62
ATOM     62  C   UNL     1       7.704  10.488  -8.304  1.00  0.00     0.023 A 
ATOM     63  C   UNL     1       6.849  11.399  -8.950  1.00  0.00     0.012 A 
ATOM     64  C   UNL     1       9.100  10.639  -8.408  1.00  0.00     0.148 A 
ATOM     65  C   UNL     1       7.381  12.446  -9.699  1.00  0.00     0.002 A 
ATOM     66  C   UNL     1       9.622  11.715  -9.109  1.00  0.00     0.091 A 
ATOM     67  F   UNL     1       9.887   9.740  -7.798  1.00  0.00    -0.205 F 
ATOM     68  C   UNL     1       8.764  12.614  -9.764  1.00  0.00     0.022 A 
BRANCH  66  69
ATOM     69  S   UNL     1      11.380  12.073  -9.147  1.00  0.00     0.127 S 
ATOM     70  O   UNL     1      11.709  11.804 -10.546  1.00  0.00    -0.237 OA
ATOM     71  O   UNL     1      11.413  13.487  -8.773  1.00  0.00    -0.237 OA
ATOM     72  O   UNL     1      11.998  11.176  -8.180  1.00  0.00    -0.744 OA
ENDBRANCH  66  69
ENDBRANCH  39  62
ENDBRANCH  13  14
ENDBRANCH   6   8
ENDBRANCH   5   6
ENDBRANCH   4   5
ENDBRANCH   3   4
ENDBRANCH   2   3
ENDBRANCH   1   2
BRANCH   1  73
ATOM     73  C   UNL     1       2.025  -2.709  -1.523  1.00  0.00     0.188 C 
BRANCH  73  74
ATOM     74  O   UNL     1       2.559  -4.018  -1.696  1.00  0.00    -0.376 OA
BRANCH  74  75
ATOM     75  C   UNL     1       3.952  -4.107  -1.967  1.00  0.00     0.202 C 
BRANCH  75  76
ATOM     76  C   UNL     1       4.462  -3.609  -3.329  1.00  0.00     0.261 C 
BRANCH  76  77
ATOM     77  O   UNL     1       4.016  -2.303  -3.742  1.00  0.00    -0.460 OA
BRANCH  77  78
ATOM     78  C   UNL     1       3.193  -2.315  -4.825  1.00  0.00     0.339 C 
ATOM     79  O   UNL     1       2.734  -3.317  -5.352  1.00  0.00    -0.246 OA
BRANCH  78  80
ATOM     80  C   UNL     1       2.849  -0.951  -5.295  1.00  0.00     0.078 A 
ATOM     81  C   UNL     1       2.458   0.035  -4.384  1.00  0.00     0.019 A 
ATOM     82  C   UNL     1       2.728  -0.691  -6.665  1.00  0.00     0.057 A 
ATOM     83  C   UNL     1       1.855   1.218  -4.844  1.00  0.00     0.028 A 
ATOM     84  C   UNL     1       2.074   0.466  -7.108  1.00  0.00     0.048 A 
ATOM     85  Cl  UNL     1       3.383  -1.745  -7.870  1.00  0.00    -0.083 Cl
ATOM     86  C   UNL     1       1.589   1.414  -6.203  1.00  0.00     0.050 A 
BRANCH  86  87
ATOM     87  N   UNL     1       0.635   2.355  -6.706  1.00  0.00    -0.280 N 
ATOM     88  H   UNL     1       0.208   2.133  -7.564  1.00  0.00     0.180 HD
BRANCH  87  89
ATOM     89  S   UNL     1       0.172   3.795  -5.987  1.00  0.00     0.261 S 
ATOM     90  O   UNL     1       1.352   4.496  -5.527  1.00  0.00    -0.201 OA
ATOM     91  O   UNL     1      -0.822   4.432  -6.826  1.00  0.00    -0.201 OA
BRANCH  89  92
ATOM     92  C   UNL     1      -0.726   3.358  -4.497  1.00  0.00     0.088 A 
ATOM     93  C   UNL     1      -0.857   4.373  -3.526  1.00  0.00     0.022 A 
ATOM     94  C   UNL     1      -1.032   2.029  -4.197  1.00  0.00     0.026 A 
ATOM     95  C   UNL     1      -1.217   4.055  -2.217  1.00  0.00     0.005 A 
ATOM     96  C   UNL     1      -1.272   1.719  -2.869  1.00  0.00    -0.043 A 
ATOM     97  C   UNL     1      -1.381   2.718  -1.895  1.00  0.00    -0.045 A 
ATOM     98  C   UNL     1      -1.222   0.365  -2.236  1.00  0.00     0.036 C 
ATOM     99  C   UNL     1      -1.541   2.124  -0.532  1.00  0.00     0.036 C 
ATOM    100  C   UNL     1      -1.823   0.649  -0.856  1.00  0.00     0.010 C 
ENDBRANCH  89  92
ENDBRANCH  87  89
ENDBRANCH  86  87
ENDBRANCH  78  80
ENDBRANCH  77  78
ENDBRANCH  76  77
ENDBRANCH  75  76
ENDBRANCH  74  75
ENDBRANCH  73  74
ENDBRANCH   1  73
TORSDOF 23
