REMARK SMILES C[NH2+]C[C@H](C)C(=O)N[C@H](Cc1ccccc1)C(=O)OCCOCCOCCOC(=O)c1ccc(-c2c3nc(c(-c4cccc(S(=O)(=O)[O-])c4F)c4ccc([nH]4)c(-c4cccc(S(=O)(=O)[O-])c4F)c4nc(c(-c5cccc(S(=O)(=O)[O-])c5F)c5ccc2[nH]5)C=C4)C=C3)cc1
REMARK SMILES IDX 23 1 22 2 21 3 20 4 19 5 17 6 18 7 9 8 8 9 6 10 7 11 4 13
REMARK SMILES IDX 5 14 3 15 2 16 1 17 10 20 11 21 12 22 16 23 13 24 15 25
REMARK SMILES IDX 14 26 24 27 25 28 26 29 27 30 28 31 29 32 30 33 31 34 32 35
REMARK SMILES IDX 93 36 33 37 92 38 34 39 35 40 36 41 86 42 37 43 91 44 85 45
REMARK SMILES IDX 87 46 38 47 90 48 84 49 83 50 39 52 71 53 51 54 70 55 52 56
REMARK SMILES IDX 55 57 69 58 88 59 53 60 54 61 68 63 89 64 56 65 40 66 41 67
REMARK SMILES IDX 49 68 42 69 44 70 50 71 43 72 45 73 46 74 47 75 48 76 72 77
REMARK SMILES IDX 73 78 81 79 74 80 76 81 82 82 75 83 77 84 78 85 79 86 80 87
REMARK SMILES IDX 57 88 58 89 66 90 59 91 61 92 67 93 60 94 62 95 63 96 64 97
REMARK SMILES IDX 65 98
REMARK H PARENT 8 12 2 18 2 19 87 51 55 62
REMARK Flexibility Score: inf
ROOT
ATOM      1  C   UNL     1      -2.366  -6.061   2.011  1.00  0.00     0.188 C 
ENDROOT
BRANCH   1   2
ATOM      2  O   UNL     1      -2.898  -7.027   2.898  1.00  0.00    -0.376 OA
BRANCH   2   3
ATOM      3  C   UNL     1      -3.969  -6.634   3.745  1.00  0.00     0.202 C 
BRANCH   3   4
ATOM      4  C   UNL     1      -3.963  -5.238   4.382  1.00  0.00     0.261 C 
BRANCH   4   5
ATOM      5  O   UNL     1      -4.128  -4.083   3.496  1.00  0.00    -0.462 OA
BRANCH   5   6
ATOM      6  C   UNL     1      -3.128  -3.163   3.521  1.00  0.00     0.329 C 
ATOM      7  O   UNL     1      -2.125  -3.307   4.223  1.00  0.00    -0.250 OA
BRANCH   6   8
ATOM      8  C   UNL     1      -3.367  -1.797   2.836  1.00  0.00     0.196 C 
BRANCH   8   9
ATOM      9  N   UNL     1      -3.630  -0.824   3.928  1.00  0.00    -0.342 N 
ATOM     10  C   UNL     1      -4.693  -0.570   4.731  1.00  0.00     0.229 C 
ATOM     11  O   UNL     1      -4.600   0.440   5.441  1.00  0.00    -0.275 OA
ATOM     12  H   UNL     1      -2.863  -0.233   4.109  1.00  0.00     0.164 HD
BRANCH  10  13
ATOM     13  C   UNL     1      -5.940  -1.444   4.859  1.00  0.00     0.130 C 
ATOM     14  C   UNL     1      -6.607  -1.853   3.551  1.00  0.00     0.024 C 
BRANCH  13  15
ATOM     15  C   UNL     1      -5.869  -2.621   5.859  1.00  0.00     0.273 C 
BRANCH  15  16
ATOM     16  N   UNL     1      -4.592  -3.057   6.405  1.00  0.00    -0.348 N 
ATOM     17  C   UNL     1      -4.164  -2.369   7.605  1.00  0.00     0.330 C 
ATOM     18  H   UNL     1      -4.664  -4.051   6.622  1.00  0.00     0.346 HD
ATOM     19  H   UNL     1      -3.893  -2.844   5.693  1.00  0.00     0.346 HD
ENDBRANCH  15  16
ENDBRANCH  13  15
ENDBRANCH  10  13
ENDBRANCH   8   9
BRANCH   8  20
ATOM     20  C   UNL     1      -4.068  -1.326   1.540  1.00  0.00     0.072 C 
BRANCH  20  21
ATOM     21  C   UNL     1      -4.237  -2.086   0.249  1.00  0.00    -0.045 A 
ATOM     22  C   UNL     1      -3.394  -1.859  -0.853  1.00  0.00     0.004 A 
ATOM     23  C   UNL     1      -5.369  -2.888   0.051  1.00  0.00     0.004 A 
ATOM     24  C   UNL     1      -3.673  -2.431  -2.102  1.00  0.00     0.000 A 
ATOM     25  C   UNL     1      -5.638  -3.469  -1.192  1.00  0.00     0.000 A 
ATOM     26  C   UNL     1      -4.788  -3.246  -2.268  1.00  0.00     0.000 A 
ENDBRANCH  20  21
ENDBRANCH   8  20
ENDBRANCH   6   8
ENDBRANCH   5   6
ENDBRANCH   4   5
ENDBRANCH   3   4
ENDBRANCH   2   3
ENDBRANCH   1   2
BRANCH   1  27
ATOM     27  C   UNL     1      -3.360  -5.308   1.122  1.00  0.00     0.188 C 
BRANCH  27  28
ATOM     28  O   UNL     1      -4.727  -5.604   1.278  1.00  0.00    -0.376 OA
BRANCH  28  29
ATOM     29  C   UNL     1      -5.334  -6.630   0.516  1.00  0.00     0.202 C 
BRANCH  29  30
ATOM     30  C   UNL     1      -4.624  -7.535  -0.511  1.00  0.00     0.261 C 
BRANCH  30  31
ATOM     31  O   UNL     1      -3.219  -7.363  -0.697  1.00  0.00    -0.460 OA
BRANCH  31  32
ATOM     32  C   UNL     1      -2.843  -6.653  -1.795  1.00  0.00     0.338 C 
ATOM     33  O   UNL     1      -3.555  -6.222  -2.675  1.00  0.00    -0.246 OA
BRANCH  32  34
ATOM     34  C   UNL     1      -1.416  -6.295  -1.623  1.00  0.00     0.060 A 
ATOM     35  C   UNL     1      -1.075  -4.959  -1.356  1.00  0.00     0.016 A 
ATOM     36  C   UNL     1      -0.432  -7.273  -1.704  1.00  0.00     0.016 A 
ATOM     37  C   UNL     1       0.253  -4.586  -1.180  1.00  0.00     0.010 A 
ATOM     38  C   UNL     1       0.903  -6.895  -1.569  1.00  0.00     0.010 A 
ATOM     39  C   UNL     1       1.249  -5.549  -1.337  1.00  0.00    -0.014 A 
BRANCH  39  40
ATOM     40  C   UNL     1       2.660  -5.141  -1.483  1.00  0.00     0.031 A 
ATOM     41  C   UNL     1       3.214  -5.058  -2.876  1.00  0.00     0.074 A 
ATOM     42  C   UNL     1       3.436  -4.919  -0.409  1.00  0.00     0.049 A 
ATOM     43  N   UNL     1       4.452  -4.951  -3.272  1.00  0.00    -0.248 NA
ATOM     44  C   UNL     1       2.231  -5.125  -3.973  1.00  0.00     0.031 C 
ATOM     45  C   UNL     1       2.983  -4.929   0.980  1.00  0.00     0.029 A 
ATOM     46  N   UNL     1       4.786  -4.694  -0.327  1.00  0.00    -0.354 N 
ATOM     47  C   UNL     1       4.405  -5.003  -4.659  1.00  0.00     0.074 A 
ATOM     48  C   UNL     1       3.017  -5.134  -5.038  1.00  0.00     0.031 C 
ATOM     49  C   UNL     1       4.049  -4.777   1.784  1.00  0.00     0.029 A 
ATOM     50  C   UNL     1       5.257  -4.708   0.965  1.00  0.00     0.049 A 
ATOM     51  H   UNL     1       5.359  -4.538  -1.112  1.00  0.00     0.167 HD
ATOM     52  C   UNL     1       5.434  -4.952  -5.536  1.00  0.00     0.034 A 
ATOM     53  C   UNL     1       6.524  -4.721   1.424  1.00  0.00     0.034 A 
ATOM     54  C   UNL     1       6.807  -4.808  -5.136  1.00  0.00     0.049 A 
ATOM     55  C   UNL     1       7.656  -4.692   0.428  1.00  0.00     0.074 A 
ATOM     56  C   UNL     1       7.930  -4.708  -5.936  1.00  0.00     0.029 A 
ATOM     57  N   UNL     1       7.243  -4.758  -3.820  1.00  0.00    -0.354 N 
ATOM     58  N   UNL     1       7.604  -4.666  -0.883  1.00  0.00    -0.248 NA
ATOM     59  C   UNL     1       9.020  -4.669   0.975  1.00  0.00     0.031 C 
ATOM     60  C   UNL     1       9.050  -4.629  -5.101  1.00  0.00     0.029 A 
ATOM     61  C   UNL     1       8.619  -4.638  -3.783  1.00  0.00     0.049 A 
ATOM     62  H   UNL     1       6.658  -4.803  -3.030  1.00  0.00     0.167 HD
ATOM     63  C   UNL     1       8.923  -4.584  -1.317  1.00  0.00     0.074 A 
ATOM     64  C   UNL     1       9.749  -4.548  -0.127  1.00  0.00     0.031 C 
ATOM     65  C   UNL     1       9.412  -4.551  -2.582  1.00  0.00     0.034 A 
BRANCH  52  66
ATOM     66  C   UNL     1       5.111  -5.059  -7.002  1.00  0.00     0.023 A 
ATOM     67  C   UNL     1       4.461  -3.995  -7.661  1.00  0.00     0.012 A 
ATOM     68  C   UNL     1       5.484  -6.202  -7.737  1.00  0.00     0.148 A 
ATOM     69  C   UNL     1       4.157  -4.082  -9.020  1.00  0.00     0.002 A 
ATOM     70  C   UNL     1       5.221  -6.260  -9.100  1.00  0.00     0.091 A 
ATOM     71  F   UNL     1       6.077  -7.214  -7.087  1.00  0.00    -0.205 F 
ATOM     72  C   UNL     1       4.546  -5.208  -9.740  1.00  0.00     0.022 A 
BRANCH  70  73
ATOM     73  S   UNL     1       5.751  -7.631 -10.132  1.00  0.00     0.127 S 
ATOM     74  O   UNL     1       4.471  -8.243 -10.489  1.00  0.00    -0.237 OA
ATOM     75  O   UNL     1       6.425  -6.942 -11.233  1.00  0.00    -0.237 OA
ATOM     76  O   UNL     1       6.622  -8.450  -9.301  1.00  0.00    -0.744 OA
ENDBRANCH  70  73
ENDBRANCH  52  66
BRANCH  53  77
ATOM     77  C   UNL     1       6.790  -4.755   2.890  1.00  0.00     0.023 A 
ATOM     78  C   UNL     1       7.353  -3.628   3.518  1.00  0.00     0.012 A 
ATOM     79  C   UNL     1       6.473  -5.887   3.668  1.00  0.00     0.148 A 
ATOM     80  C   UNL     1       7.623  -3.636   4.887  1.00  0.00     0.002 A 
ATOM     81  C   UNL     1       6.692  -5.868   5.040  1.00  0.00     0.091 A 
ATOM     82  F   UNL     1       5.952  -6.956   3.050  1.00  0.00    -0.205 F 
ATOM     83  C   UNL     1       7.283  -4.750   5.649  1.00  0.00     0.022 A 
BRANCH  81  84
ATOM     84  S   UNL     1       6.176  -7.207   6.121  1.00  0.00     0.127 S 
ATOM     85  O   UNL     1       7.460  -7.760   6.546  1.00  0.00    -0.237 OA
ATOM     86  O   UNL     1       5.441  -6.486   7.161  1.00  0.00    -0.237 OA
ATOM     87  O   UNL     1       5.353  -8.082   5.298  1.00  0.00    -0.744 OA
ENDBRANCH  81  84
ENDBRANCH  53  77
BRANCH  65  88
ATOM     88  C   UNL     1      10.902  -4.412  -2.751  1.00  0.00     0.023 A 
ATOM     89  C   UNL     1      11.752  -5.497  -2.459  1.00  0.00     0.012 A 
ATOM     90  C   UNL     1      11.450  -3.225  -3.276  1.00  0.00     0.148 A 
ATOM     91  C   UNL     1      13.128  -5.389  -2.654  1.00  0.00     0.002 A 
ATOM     92  C   UNL     1      12.814  -3.144  -3.518  1.00  0.00     0.091 A 
ATOM     93  F   UNL     1      10.624  -2.199  -3.532  1.00  0.00    -0.205 F 
ATOM     94  C   UNL     1      13.657  -4.219  -3.195  1.00  0.00     0.022 A 
BRANCH  92  95
ATOM     95  S   UNL     1      13.568  -1.717  -4.308  1.00  0.00     0.127 S 
ATOM     96  O   UNL     1      14.311  -1.121  -3.198  1.00  0.00    -0.237 OA
ATOM     97  O   UNL     1      14.402  -2.338  -5.337  1.00  0.00    -0.237 OA
ATOM     98  O   UNL     1      12.468  -0.914  -4.824  1.00  0.00    -0.744 OA
ENDBRANCH  92  95
ENDBRANCH  65  88
ENDBRANCH  39  40
ENDBRANCH  32  34
ENDBRANCH  31  32
ENDBRANCH  30  31
ENDBRANCH  29  30
ENDBRANCH  28  29
ENDBRANCH  27  28
ENDBRANCH   1  27
TORSDOF 26
