REMARK SMILES COC(=O)c1ccc2c(c1)=N[C@H](c1cn(CCC(=O)OCCOCCOCCOC(=O)c3ccc(-c4c5nc(c(-c6cccc(S(=O)(=O)[O-])c6F)c6ccc([nH]6)c(-c6cccc(S(=O)(=O)[O-])c6F)c6nc(c(-c7cccc(S(=O)(=O)[O-])c7F)c7ccc4[nH]7)C=C6)C=C5)cc3)c3ccccc13)N=2
REMARK SMILES IDX 24 1 23 2 22 3 21 4 20 5 18 6 19 7 17 8 16 9 15 10 13 11
REMARK SMILES IDX 14 12 100 13 95 14 99 15 96 16 98 17 97 18 12 19 5 20 6 21
REMARK SMILES IDX 10 22 7 23 9 24 8 25 11 26 101 27 3 28 4 29 2 30 1 31 25 32
REMARK SMILES IDX 26 33 27 34 28 35 29 36 30 37 31 38 32 39 33 40 94 41 34 42
REMARK SMILES IDX 93 43 35 44 36 45 37 46 87 47 38 48 92 49 86 50 88 51 39 52
REMARK SMILES IDX 91 53 85 54 84 55 40 57 72 58 52 59 71 60 53 61 56 62 70 63
REMARK SMILES IDX 89 64 54 65 55 66 69 68 90 69 57 70 41 71 42 72 50 73 43 74
REMARK SMILES IDX 45 75 51 76 44 77 46 78 47 79 48 80 49 81 73 82 74 83 82 84
REMARK SMILES IDX 75 85 77 86 83 87 76 88 78 89 79 90 80 91 81 92 58 93 59 94
REMARK SMILES IDX 67 95 60 96 62 97 68 98 61 99 63 100 64 101 65 102 66 103
REMARK H PARENT 88 56 56 67
REMARK Flexibility Score: inf
ROOT
ATOM      1  C   UNL     1      -2.142 -11.421   6.638  1.00  0.00     0.188 C 
ENDROOT
BRANCH   1   2
ATOM      2  O   UNL     1      -3.462 -11.200   6.181  1.00  0.00    -0.376 OA
BRANCH   2   3
ATOM      3  C   UNL     1      -4.082  -9.959   6.523  1.00  0.00     0.202 C 
BRANCH   3   4
ATOM      4  C   UNL     1      -3.801  -9.385   7.914  1.00  0.00     0.261 C 
BRANCH   4   5
ATOM      5  O   UNL     1      -2.539  -8.671   7.915  1.00  0.00    -0.463 OA
BRANCH   5   6
ATOM      6  C   UNL     1      -1.860  -8.733   9.078  1.00  0.00     0.307 C 
ATOM      7  O   UNL     1      -2.367  -9.191  10.104  1.00  0.00    -0.252 OA
BRANCH   6   8
ATOM      8  C   UNL     1      -0.361  -8.446   9.042  1.00  0.00     0.144 C 
BRANCH   8   9
ATOM      9  C   UNL     1       0.639  -7.903   8.041  1.00  0.00     0.134 C 
BRANCH   9  10
ATOM     10  N   UNL     1       0.364  -6.547   7.689  1.00  0.00    -0.346 N 
ATOM     11  C   UNL     1      -0.419  -4.577   8.117  1.00  0.00     0.024 A 
ATOM     12  C   UNL     1       0.576  -5.465   8.502  1.00  0.00     0.094 A 
ATOM     13  C   UNL     1      -1.399  -5.386   7.457  1.00  0.00     0.007 A 
ATOM     14  C   UNL     1      -0.556  -6.211   6.738  1.00  0.00     0.048 A 
ATOM     15  C   UNL     1      -2.717  -5.239   7.011  1.00  0.00     0.011 A 
ATOM     16  C   UNL     1      -0.769  -6.561   5.412  1.00  0.00     0.027 A 
ATOM     17  C   UNL     1      -3.013  -5.675   5.716  1.00  0.00     0.001 A 
ATOM     18  C   UNL     1      -2.017  -6.214   4.896  1.00  0.00     0.002 A 
BRANCH  11  19
ATOM     19  C   UNL     1      -0.214  -3.103   7.902  1.00  0.00     0.255 C 
ATOM     20  C   UNL     1       0.204  -1.980   3.533  1.00  0.00     0.062 A 
ATOM     21  C   UNL     1      -1.197  -1.632   3.756  1.00  0.00     0.018 A 
ATOM     22  C   UNL     1       0.969  -2.522   4.498  1.00  0.00     0.046 A 
ATOM     23  C   UNL     1      -1.828  -1.811   4.925  1.00  0.00     0.031 A 
ATOM     24  C   UNL     1       0.372  -2.675   5.835  1.00  0.00     0.087 A 
ATOM     25  C   UNL     1      -1.049  -2.339   6.047  1.00  0.00     0.086 A 
ATOM     26  N   UNL     1       0.945  -2.993   6.941  1.00  0.00    -0.252 NA
ATOM     27  N   UNL     1      -1.419  -2.486   7.273  1.00  0.00    -0.252 NA
BRANCH  20  28
ATOM     28  C   UNL     1       0.855  -1.727   2.213  1.00  0.00     0.337 C 
ATOM     29  O   UNL     1       1.775  -2.393   1.743  1.00  0.00    -0.246 OA
BRANCH  28  30
ATOM     30  O   UNL     1       0.303  -0.629   1.634  1.00  0.00    -0.465 OA
ATOM     31  C   UNL     1       0.874  -0.258   0.378  1.00  0.00     0.282 C 
ENDBRANCH  28  30
ENDBRANCH  20  28
ENDBRANCH  11  19
ENDBRANCH   9  10
ENDBRANCH   8   9
ENDBRANCH   6   8
ENDBRANCH   5   6
ENDBRANCH   4   5
ENDBRANCH   3   4
ENDBRANCH   2   3
ENDBRANCH   1   2
BRANCH   1  32
ATOM     32  C   UNL     1      -1.091 -10.380   6.282  1.00  0.00     0.188 C 
BRANCH  32  33
ATOM     33  O   UNL     1      -1.271  -9.428   5.268  1.00  0.00    -0.376 OA
BRANCH  33  34
ATOM     34  C   UNL     1      -1.552  -9.899   3.968  1.00  0.00     0.202 C 
BRANCH  34  35
ATOM     35  C   UNL     1      -0.554 -10.868   3.301  1.00  0.00     0.261 C 
BRANCH  35  36
ATOM     36  O   UNL     1       0.006 -11.857   4.189  1.00  0.00    -0.460 OA
BRANCH  36  37
ATOM     37  C   UNL     1       1.363 -11.807   4.378  1.00  0.00     0.338 C 
ATOM     38  O   UNL     1       2.172 -11.322   3.605  1.00  0.00    -0.246 OA
BRANCH  37  39
ATOM     39  C   UNL     1       1.660 -12.116   5.818  1.00  0.00     0.060 A 
ATOM     40  C   UNL     1       0.901 -13.045   6.542  1.00  0.00     0.016 A 
ATOM     41  C   UNL     1       2.458 -11.193   6.518  1.00  0.00     0.016 A 
ATOM     42  C   UNL     1       0.855 -12.964   7.945  1.00  0.00     0.010 A 
ATOM     43  C   UNL     1       2.417 -11.129   7.923  1.00  0.00     0.010 A 
ATOM     44  C   UNL     1       1.583 -11.984   8.655  1.00  0.00    -0.014 A 
BRANCH  44  45
ATOM     45  C   UNL     1       1.750 -12.128  10.127  1.00  0.00     0.031 A 
ATOM     46  C   UNL     1       2.351 -13.431  10.456  1.00  0.00     0.074 A 
ATOM     47  C   UNL     1       1.521 -11.289  11.167  1.00  0.00     0.049 A 
ATOM     48  N   UNL     1       1.698 -14.424  10.964  1.00  0.00    -0.248 NA
ATOM     49  C   UNL     1       3.708 -13.744  10.004  1.00  0.00     0.031 C 
ATOM     50  C   UNL     1       0.860 -10.012  11.136  1.00  0.00     0.029 A 
ATOM     51  N   UNL     1       1.850 -11.346  12.497  1.00  0.00    -0.354 N 
ATOM     52  C   UNL     1       2.656 -15.398  11.166  1.00  0.00     0.074 A 
ATOM     53  C   UNL     1       3.809 -15.020  10.384  1.00  0.00     0.031 C 
ATOM     54  C   UNL     1       1.187  -9.223  12.178  1.00  0.00     0.029 A 
ATOM     55  C   UNL     1       1.829 -10.100  13.135  1.00  0.00     0.049 A 
ATOM     56  H   UNL     1       2.079 -12.185  12.959  1.00  0.00     0.167 HD
ATOM     57  C   UNL     1       2.553 -16.252  12.216  1.00  0.00     0.034 A 
ATOM     58  C   UNL     1       1.943  -9.760  14.441  1.00  0.00     0.034 A 
ATOM     59  C   UNL     1       1.270 -16.192  12.856  1.00  0.00     0.049 A 
ATOM     60  C   UNL     1       1.557 -10.949  15.208  1.00  0.00     0.074 A 
ATOM     61  C   UNL     1      -0.011 -16.620  12.586  1.00  0.00     0.029 A 
ATOM     62  N   UNL     1       1.185 -15.220  13.818  1.00  0.00    -0.354 N 
ATOM     63  N   UNL     1       0.332 -11.390  15.270  1.00  0.00    -0.248 NA
ATOM     64  C   UNL     1       2.597 -11.886  15.598  1.00  0.00     0.031 C 
ATOM     65  C   UNL     1      -0.882 -15.742  13.297  1.00  0.00     0.029 A 
ATOM     66  C   UNL     1      -0.110 -14.827  14.010  1.00  0.00     0.049 A 
ATOM     67  H   UNL     1       1.957 -14.852  14.306  1.00  0.00     0.167 HD
ATOM     68  C   UNL     1       0.484 -12.764  15.257  1.00  0.00     0.074 A 
ATOM     69  C   UNL     1       1.875 -13.007  15.621  1.00  0.00     0.031 C 
ATOM     70  C   UNL     1      -0.428 -13.564  14.640  1.00  0.00     0.034 A 
BRANCH  57  71
ATOM     71  C   UNL     1       3.764 -16.741  12.947  1.00  0.00     0.023 A 
ATOM     72  C   UNL     1       3.688 -17.949  13.658  1.00  0.00     0.012 A 
ATOM     73  C   UNL     1       4.898 -15.921  13.152  1.00  0.00     0.148 A 
ATOM     74  C   UNL     1       4.730 -18.351  14.499  1.00  0.00     0.002 A 
ATOM     75  C   UNL     1       5.963 -16.359  13.921  1.00  0.00     0.091 A 
ATOM     76  F   UNL     1       4.884 -14.661  12.697  1.00  0.00    -0.205 F 
ATOM     77  C   UNL     1       5.879 -17.571  14.609  1.00  0.00     0.022 A 
BRANCH  75  78
ATOM     78  S   UNL     1       7.478 -15.407  14.065  1.00  0.00     0.127 S 
ATOM     79  O   UNL     1       7.416 -14.967  15.455  1.00  0.00    -0.237 OA
ATOM     80  O   UNL     1       8.491 -16.422  13.777  1.00  0.00    -0.237 OA
ATOM     81  O   UNL     1       7.373 -14.362  13.056  1.00  0.00    -0.744 OA
ENDBRANCH  75  78
ENDBRANCH  57  71
BRANCH  58  82
ATOM     82  C   UNL     1       2.682  -8.604  15.011  1.00  0.00     0.023 A 
ATOM     83  C   UNL     1       2.690  -8.411  16.409  1.00  0.00     0.012 A 
ATOM     84  C   UNL     1       3.601  -7.862  14.235  1.00  0.00     0.148 A 
ATOM     85  C   UNL     1       3.656  -7.603  17.021  1.00  0.00     0.002 A 
ATOM     86  C   UNL     1       4.565  -7.069  14.848  1.00  0.00     0.091 A 
ATOM     87  F   UNL     1       3.585  -7.995  12.902  1.00  0.00    -0.205 F 
ATOM     88  C   UNL     1       4.611  -6.955  16.243  1.00  0.00     0.022 A 
BRANCH  86  89
ATOM     89  S   UNL     1       5.840  -6.225  13.901  1.00  0.00     0.127 S 
ATOM     90  O   UNL     1       5.895  -4.917  14.554  1.00  0.00    -0.237 OA
ATOM     91  O   UNL     1       7.003  -7.075  14.138  1.00  0.00    -0.237 OA
ATOM     92  O   UNL     1       5.352  -6.186  12.528  1.00  0.00    -0.744 OA
ENDBRANCH  86  89
ENDBRANCH  58  82
BRANCH  70  93
ATOM     93  C   UNL     1      -1.828 -13.051  14.501  1.00  0.00     0.023 A 
ATOM     94  C   UNL     1      -2.221 -12.104  13.538  1.00  0.00     0.012 A 
ATOM     95  C   UNL     1      -2.802 -13.663  15.308  1.00  0.00     0.148 A 
ATOM     96  C   UNL     1      -3.575 -11.781  13.382  1.00  0.00     0.002 A 
ATOM     97  C   UNL     1      -4.143 -13.366  15.129  1.00  0.00     0.091 A 
ATOM     98  F   UNL     1      -2.390 -14.558  16.220  1.00  0.00    -0.205 F 
ATOM     99  C   UNL     1      -4.536 -12.422  14.167  1.00  0.00     0.022 A 
BRANCH  97 100
ATOM    100  S   UNL     1      -5.422 -14.225  16.047  1.00  0.00     0.127 S 
ATOM    101  O   UNL     1      -5.932 -13.173  16.923  1.00  0.00    -0.237 OA
ATOM    102  O   UNL     1      -6.342 -14.638  14.985  1.00  0.00    -0.237 OA
ATOM    103  O   UNL     1      -4.761 -15.333  16.725  1.00  0.00    -0.744 OA
ENDBRANCH  97 100
ENDBRANCH  70  93
ENDBRANCH  44  45
ENDBRANCH  37  39
ENDBRANCH  36  37
ENDBRANCH  35  36
ENDBRANCH  34  35
ENDBRANCH  33  34
ENDBRANCH  32  33
ENDBRANCH   1  32
TORSDOF 25
