REMARK SMILES COc1ccc(/C=C/c2cc(OC)cc(OC)c2/C=C/C(=O)OCCOCCOCCOC(=O)c2ccc(-c3c4nc(c(-c5cccc(S(=O)(=O)[O-])c5F)c5ccc([nH]5)c(-c5cccc(S(=O)(=O)[O-])c5F)c5nc(c(-c6cccc(S(=O)(=O)[O-])c6F)c6ccc3[nH]6)C=C5)C=C4)cc2)cc1
REMARK SMILES IDX 27 1 26 2 25 3 24 4 23 5 21 6 22 7 20 8 19 9 18 10 9 11
REMARK SMILES IDX 10 12 11 13 15 14 14 15 8 16 7 17 6 18 3 19 4 20 99 21 5 22
REMARK SMILES IDX 98 23 2 24 1 25 12 26 13 27 16 28 17 29 28 30 29 31 30 32
REMARK SMILES IDX 31 33 32 34 33 35 34 36 35 37 36 38 97 39 37 40 96 41 38 42
REMARK SMILES IDX 39 43 40 44 90 45 41 46 95 47 89 48 91 49 42 50 94 51 88 52
REMARK SMILES IDX 87 53 43 55 75 56 55 57 74 58 56 59 59 60 73 61 92 62 57 63
REMARK SMILES IDX 58 64 72 66 93 67 60 68 44 69 45 70 53 71 46 72 48 73 54 74
REMARK SMILES IDX 47 75 49 76 50 77 51 78 52 79 76 80 77 81 85 82 78 83 80 84
REMARK SMILES IDX 86 85 79 86 81 87 82 88 83 89 84 90 61 91 62 92 70 93 63 94
REMARK SMILES IDX 65 95 71 96 64 97 66 98 67 99 68 100 69 101
REMARK H PARENT 91 54 59 65
REMARK Flexibility Score: inf
ROOT
ATOM      1  C   UNL     1       6.325   3.118  -8.355  1.00  0.00     0.188 C 
ENDROOT
BRANCH   1   2
ATOM      2  O   UNL     1       6.882   1.846  -8.126  1.00  0.00    -0.376 OA
BRANCH   2   3
ATOM      3  C   UNL     1       6.986   1.332  -6.808  1.00  0.00     0.202 C 
BRANCH   3   4
ATOM      4  C   UNL     1       6.488   2.023  -5.521  1.00  0.00     0.261 C 
BRANCH   4   5
ATOM      5  O   UNL     1       5.720   3.221  -5.666  1.00  0.00    -0.460 OA
BRANCH   5   6
ATOM      6  C   UNL     1       6.162   4.299  -4.971  1.00  0.00     0.330 C 
ATOM      7  O   UNL     1       7.122   4.328  -4.216  1.00  0.00    -0.247 OA
BRANCH   6   8
ATOM      8  C   UNL     1       5.371   5.517  -5.248  1.00  0.00     0.094 C 
ATOM      9  C   UNL     1       4.191   5.529  -5.884  1.00  0.00     0.020 C 
BRANCH   9  10
ATOM     10  C   UNL     1       3.378   6.745  -6.089  1.00  0.00     0.024 A 
ATOM     11  C   UNL     1       2.062   6.757  -5.547  1.00  0.00    -0.011 A 
ATOM     12  C   UNL     1       1.258   7.900  -5.673  1.00  0.00     0.055 A 
ATOM     13  C   UNL     1       1.719   9.032  -6.342  1.00  0.00     0.123 A 
ATOM     14  C   UNL     1       3.826   7.886  -6.785  1.00  0.00     0.130 A 
ATOM     15  C   UNL     1       2.997   9.017  -6.894  1.00  0.00     0.093 A 
BRANCH  11  16
ATOM     16  C   UNL     1       1.456   5.586  -4.876  1.00  0.00     0.009 C 
ATOM     17  C   UNL     1       2.006   5.016  -3.791  1.00  0.00     0.009 C 
BRANCH  17  18
ATOM     18  C   UNL     1       1.588   3.738  -3.200  1.00  0.00    -0.025 A 
ATOM     19  C   UNL     1       0.918   1.295  -1.982  1.00  0.00     0.118 A 
ATOM     20  C   UNL     1      -0.044   2.015  -2.688  1.00  0.00     0.047 A 
ATOM     21  C   UNL     1       2.227   1.765  -1.920  1.00  0.00     0.047 A 
ATOM     22  C   UNL     1       0.284   3.238  -3.281  1.00  0.00     0.012 A 
ATOM     23  C   UNL     1       2.556   2.984  -2.519  1.00  0.00     0.012 A 
BRANCH  19  24
ATOM     24  O   UNL     1       0.508   0.117  -1.419  1.00  0.00    -0.497 OA
ATOM     25  C   UNL     1       0.983  -0.059  -0.085  1.00  0.00     0.278 C 
ENDBRANCH  19  24
ENDBRANCH  17  18
ENDBRANCH  11  16
BRANCH  13  26
ATOM     26  O   UNL     1       0.837  10.078  -6.376  1.00  0.00    -0.497 OA
ATOM     27  C   UNL     1       1.191  11.188  -7.193  1.00  0.00     0.278 C 
ENDBRANCH  13  26
BRANCH  14  28
ATOM     28  O   UNL     1       5.069   8.094  -7.328  1.00  0.00    -0.496 OA
ATOM     29  C   UNL     1       5.644   7.048  -8.101  1.00  0.00     0.278 C 
ENDBRANCH  14  28
ENDBRANCH   9  10
ENDBRANCH   6   8
ENDBRANCH   5   6
ENDBRANCH   4   5
ENDBRANCH   3   4
ENDBRANCH   2   3
ENDBRANCH   1   2
BRANCH   1  30
ATOM     30  C   UNL     1       4.798   3.157  -8.541  1.00  0.00     0.188 C 
BRANCH  30  31
ATOM     31  O   UNL     1       3.987   2.090  -8.086  1.00  0.00    -0.376 OA
BRANCH  31  32
ATOM     32  C   UNL     1       4.159   0.799  -8.661  1.00  0.00     0.202 C 
BRANCH  32  33
ATOM     33  C   UNL     1       4.370   0.583 -10.171  1.00  0.00     0.261 C 
BRANCH  33  34
ATOM     34  O   UNL     1       5.301   1.465 -10.811  1.00  0.00    -0.460 OA
BRANCH  34  35
ATOM     35  C   UNL     1       4.748   2.336 -11.695  1.00  0.00     0.338 C 
ATOM     36  O   UNL     1       3.572   2.445 -11.989  1.00  0.00    -0.246 OA
BRANCH  35  37
ATOM     37  C   UNL     1       5.774   3.302 -12.126  1.00  0.00     0.060 A 
ATOM     38  C   UNL     1       5.609   4.655 -11.790  1.00  0.00     0.016 A 
ATOM     39  C   UNL     1       6.844   2.886 -12.915  1.00  0.00     0.016 A 
ATOM     40  C   UNL     1       6.513   5.606 -12.261  1.00  0.00     0.010 A 
ATOM     41  C   UNL     1       7.730   3.843 -13.409  1.00  0.00     0.010 A 
ATOM     42  C   UNL     1       7.551   5.207 -13.110  1.00  0.00    -0.014 A 
BRANCH  42  43
ATOM     43  C   UNL     1       8.338   6.213 -13.856  1.00  0.00     0.031 A 
ATOM     44  C   UNL     1       7.924   6.531 -15.265  1.00  0.00     0.074 A 
ATOM     45  C   UNL     1       9.433   6.777 -13.319  1.00  0.00     0.049 A 
ATOM     46  N   UNL     1       8.540   7.246 -16.167  1.00  0.00    -0.248 NA
ATOM     47  C   UNL     1       6.647   5.953 -15.719  1.00  0.00     0.031 C 
ATOM     48  C   UNL     1       9.917   6.557 -11.957  1.00  0.00     0.029 A 
ATOM     49  N   UNL     1      10.363   7.617 -13.878  1.00  0.00    -0.354 N 
ATOM     50  C   UNL     1       7.751   7.169 -17.309  1.00  0.00     0.074 A 
ATOM     51  C   UNL     1       6.609   6.343 -16.984  1.00  0.00     0.031 C 
ATOM     52  C   UNL     1      11.083   7.209 -11.801  1.00  0.00     0.029 A 
ATOM     53  C   UNL     1      11.442   7.859 -13.060  1.00  0.00     0.049 A 
ATOM     54  H   UNL     1      10.266   8.009 -14.776  1.00  0.00     0.167 HD
ATOM     55  C   UNL     1       7.959   7.738 -18.518  1.00  0.00     0.034 A 
ATOM     56  C   UNL     1      12.602   8.495 -13.318  1.00  0.00     0.034 A 
ATOM     57  C   UNL     1       9.089   8.568 -18.829  1.00  0.00     0.049 A 
ATOM     58  C   UNL     1      12.824   9.095 -14.684  1.00  0.00     0.074 A 
ATOM     59  C   UNL     1       9.373   9.224 -20.013  1.00  0.00     0.029 A 
ATOM     60  N   UNL     1      10.128   8.845 -17.956  1.00  0.00    -0.354 N 
ATOM     61  N   UNL     1      12.024   9.103 -15.724  1.00  0.00    -0.248 NA
ATOM     62  C   UNL     1      14.098   9.796 -14.906  1.00  0.00     0.031 C 
ATOM     63  C   UNL     1      10.599   9.879 -19.863  1.00  0.00     0.029 A 
ATOM     64  C   UNL     1      11.061   9.657 -18.575  1.00  0.00     0.049 A 
ATOM     65  H   UNL     1      10.193   8.513 -17.031  1.00  0.00     0.167 HD
ATOM     66  C   UNL     1      12.676   9.847 -16.703  1.00  0.00     0.074 A 
ATOM     67  C   UNL     1      13.934  10.279 -16.131  1.00  0.00     0.031 C 
ATOM     68  C   UNL     1      12.273  10.139 -17.965  1.00  0.00     0.034 A 
BRANCH  55  69
ATOM     69  C   UNL     1       6.934   7.493 -19.591  1.00  0.00     0.023 A 
ATOM     70  C   UNL     1       5.677   8.125 -19.515  1.00  0.00     0.012 A 
ATOM     71  C   UNL     1       7.233   6.677 -20.700  1.00  0.00     0.148 A 
ATOM     72  C   UNL     1       4.721   7.926 -20.510  1.00  0.00     0.002 A 
ATOM     73  C   UNL     1       6.293   6.519 -21.710  1.00  0.00     0.091 A 
ATOM     74  F   UNL     1       8.425   6.065 -20.740  1.00  0.00    -0.205 F 
ATOM     75  C   UNL     1       5.033   7.133 -21.612  1.00  0.00     0.022 A 
BRANCH  73  76
ATOM     76  S   UNL     1       6.628   5.581 -23.205  1.00  0.00     0.127 S 
ATOM     77  O   UNL     1       5.784   4.403 -23.009  1.00  0.00    -0.237 OA
ATOM     78  O   UNL     1       6.166   6.494 -24.251  1.00  0.00    -0.237 OA
ATOM     79  O   UNL     1       8.062   5.330 -23.208  1.00  0.00    -0.744 OA
ENDBRANCH  73  76
ENDBRANCH  55  69
BRANCH  56  80
ATOM     80  C   UNL     1      13.639   8.620 -12.255  1.00  0.00     0.023 A 
ATOM     81  C   UNL     1      13.912   9.885 -11.701  1.00  0.00     0.012 A 
ATOM     82  C   UNL     1      14.348   7.497 -11.786  1.00  0.00     0.148 A 
ATOM     83  C   UNL     1      14.895  10.036 -10.722  1.00  0.00     0.002 A 
ATOM     84  C   UNL     1      15.289   7.646 -10.773  1.00  0.00     0.091 A 
ATOM     85  F   UNL     1      14.086   6.304 -12.338  1.00  0.00    -0.205 F 
ATOM     86  C   UNL     1      15.576   8.917 -10.251  1.00  0.00     0.022 A 
BRANCH  84  87
ATOM     87  S   UNL     1      16.128   6.246 -10.022  1.00  0.00     0.127 S 
ATOM     88  O   UNL     1      17.494   6.421 -10.508  1.00  0.00    -0.237 OA
ATOM     89  O   UNL     1      15.943   6.514  -8.595  1.00  0.00    -0.237 OA
ATOM     90  O   UNL     1      15.430   5.063 -10.507  1.00  0.00    -0.744 OA
ENDBRANCH  84  87
ENDBRANCH  56  80
BRANCH  68  91
ATOM     91  C   UNL     1      13.156  11.021 -18.807  1.00  0.00     0.023 A 
ATOM     92  C   UNL     1      14.340  10.505 -19.368  1.00  0.00     0.012 A 
ATOM     93  C   UNL     1      12.744  12.328 -19.138  1.00  0.00     0.148 A 
ATOM     94  C   UNL     1      15.110  11.283 -20.232  1.00  0.00     0.002 A 
ATOM     95  C   UNL     1      13.489  13.079 -20.037  1.00  0.00     0.091 A 
ATOM     96  F   UNL     1      11.621  12.803 -18.579  1.00  0.00    -0.205 F 
ATOM     97  C   UNL     1      14.678  12.562 -20.578  1.00  0.00     0.022 A 
BRANCH  95  98
ATOM     98  S   UNL     1      12.958  14.694 -20.619  1.00  0.00     0.127 S 
ATOM     99  O   UNL     1      13.938  15.575 -19.988  1.00  0.00    -0.237 OA
ATOM    100  O   UNL     1      13.100  14.562 -22.070  1.00  0.00    -0.237 OA
ATOM    101  O   UNL     1      11.586  14.857 -20.158  1.00  0.00    -0.744 OA
ENDBRANCH  95  98
ENDBRANCH  68  91
ENDBRANCH  42  43
ENDBRANCH  35  37
ENDBRANCH  34  35
ENDBRANCH  33  34
ENDBRANCH  32  33
ENDBRANCH  31  32
ENDBRANCH  30  31
ENDBRANCH   1  30
TORSDOF 26
