REMARK SMILES COc1ccc(-c2cc(C(F)(F)F)n3nc(C(=O)OCCOCCOCCOC(=O)c4ccc(-c5c6nc(c(-c7cccc(S(=O)(=O)[O-])c7F)c7ccc([nH]7)c(-c7cccc(S(=O)(=O)[O-])c7F)c7nc(c(-c8cccc(S(=O)(=O)[O-])c8F)c8ccc5[nH]8)C=C7)C=C6)cc4)cc3n2)cc1OC
REMARK SMILES IDX 24 1 23 2 22 3 21 4 20 5 19 6 17 7 18 8 16 9 7 10 8 11 96 12
REMARK SMILES IDX 9 13 95 14 14 15 94 16 15 17 6 18 3 19 4 20 98 21 5 22 97 23
REMARK SMILES IDX 2 24 1 25 99 26 100 27 10 28 11 29 12 30 13 31 25 32 26 33
REMARK SMILES IDX 27 34 28 35 29 36 30 37 31 38 32 39 93 40 33 41 92 42 34 43
REMARK SMILES IDX 35 44 36 45 86 46 37 47 91 48 85 49 87 50 38 51 90 52 84 53
REMARK SMILES IDX 83 54 39 56 71 57 51 58 70 59 52 60 55 61 69 62 88 63 53 64
REMARK SMILES IDX 54 65 68 67 89 68 56 69 40 70 41 71 49 72 42 73 44 74 50 75
REMARK SMILES IDX 43 76 45 77 46 78 47 79 48 80 72 81 73 82 81 83 74 84 76 85
REMARK SMILES IDX 82 86 75 87 77 88 78 89 79 90 80 91 57 92 58 93 66 94 59 95
REMARK SMILES IDX 61 96 67 97 60 98 62 99 63 100 64 101 65 102
REMARK H PARENT 87 55 55 66
REMARK Flexibility Score: inf
ROOT
ATOM      1  C   UNL     1       2.190  -7.710  -9.434  1.00  0.00     0.188 C 
ENDROOT
BRANCH   1   2
ATOM      2  C   UNL     1       2.278  -9.250  -9.454  1.00  0.00     0.188 C 
BRANCH   2   3
ATOM      3  O   UNL     1       1.563  -9.985 -10.441  1.00  0.00    -0.376 OA
BRANCH   3   4
ATOM      4  C   UNL     1       0.242  -9.608 -10.795  1.00  0.00     0.202 C 
BRANCH   4   5
ATOM      5  C   UNL     1      -0.831  -9.659  -9.705  1.00  0.00     0.261 C 
BRANCH   5   6
ATOM      6  O   UNL     1      -0.553  -8.788  -8.597  1.00  0.00    -0.458 OA
BRANCH   6   7
ATOM      7  C   UNL     1      -0.373  -9.413  -7.393  1.00  0.00     0.359 C 
ATOM      8  O   UNL     1      -0.591 -10.602  -7.191  1.00  0.00    -0.244 OA
BRANCH   7   9
ATOM      9  C   UNL     1       0.173  -8.512  -6.370  1.00  0.00     0.173 A 
ATOM     10  C   UNL     1       1.330  -5.664  -3.189  1.00  0.00     0.075 A 
ATOM     11  C   UNL     1       2.353  -6.716  -2.894  1.00  0.00     0.062 A 
ATOM     12  N   UNL     1       0.478  -5.713  -4.175  1.00  0.00    -0.228 NA
ATOM     13  C   UNL     1       2.331  -7.804  -3.688  1.00  0.00     0.150 A 
ATOM     14  C   UNL     1       0.521  -6.825  -4.966  1.00  0.00     0.157 A 
ATOM     15  N   UNL     1       1.400  -7.885  -4.717  1.00  0.00    -0.209 N 
ATOM     16  C   UNL     1      -0.213  -7.184  -6.074  1.00  0.00     0.087 A 
ATOM     17  N   UNL     1       1.181  -8.903  -5.574  1.00  0.00    -0.159 NA
BRANCH  10  18
ATOM     18  C   UNL     1       1.273  -4.522  -2.242  1.00  0.00     0.004 A 
ATOM     19  C   UNL     1       1.079  -2.361  -0.476  1.00  0.00     0.160 A 
ATOM     20  C   UNL     1      -0.073  -3.049  -0.881  1.00  0.00     0.051 A 
ATOM     21  C   UNL     1       2.341  -2.770  -0.932  1.00  0.00     0.161 A 
ATOM     22  C   UNL     1       0.021  -4.114  -1.776  1.00  0.00     0.014 A 
ATOM     23  C   UNL     1       2.426  -3.857  -1.815  1.00  0.00     0.060 A 
BRANCH  19  24
ATOM     24  O   UNL     1       0.952  -1.339   0.428  1.00  0.00    -0.493 OA
ATOM     25  C   UNL     1       0.177  -0.259  -0.095  1.00  0.00     0.278 C 
ENDBRANCH  19  24
BRANCH  21  26
ATOM     26  O   UNL     1       3.565  -2.239  -0.625  1.00  0.00    -0.493 OA
ATOM     27  C   UNL     1       3.610  -0.958  -0.015  1.00  0.00     0.278 C 
ENDBRANCH  21  26
ENDBRANCH  10  18
BRANCH  13  28
ATOM     28  C   UNL     1       3.257  -8.954  -3.541  1.00  0.00     0.433 C 
ATOM     29  F   UNL     1       2.614 -10.123  -3.310  1.00  0.00    -0.165 F 
ATOM     30  F   UNL     1       4.052  -9.110  -4.628  1.00  0.00    -0.165 F 
ATOM     31  F   UNL     1       4.096  -8.771  -2.483  1.00  0.00    -0.165 F 
ENDBRANCH  13  28
ENDBRANCH   7   9
ENDBRANCH   6   7
ENDBRANCH   5   6
ENDBRANCH   4   5
ENDBRANCH   3   4
ENDBRANCH   2   3
ENDBRANCH   1   2
BRANCH   1  32
ATOM     32  O   UNL     1       1.678  -7.131 -10.627  1.00  0.00    -0.376 OA
BRANCH  32  33
ATOM     33  C   UNL     1       2.613  -6.408 -11.417  1.00  0.00     0.202 C 
BRANCH  33  34
ATOM     34  C   UNL     1       3.595  -7.294 -12.191  1.00  0.00     0.261 C 
BRANCH  34  35
ATOM     35  O   UNL     1       4.486  -8.064 -11.369  1.00  0.00    -0.460 OA
BRANCH  35  36
ATOM     36  C   UNL     1       5.362  -7.378 -10.602  1.00  0.00     0.338 C 
ATOM     37  O   UNL     1       5.492  -6.168 -10.539  1.00  0.00    -0.246 OA
BRANCH  36  38
ATOM     38  C   UNL     1       6.032  -8.342  -9.706  1.00  0.00     0.060 A 
ATOM     39  C   UNL     1       5.985  -8.124  -8.324  1.00  0.00     0.016 A 
ATOM     40  C   UNL     1       6.692  -9.458 -10.227  1.00  0.00     0.016 A 
ATOM     41  C   UNL     1       6.623  -9.016  -7.460  1.00  0.00     0.010 A 
ATOM     42  C   UNL     1       7.340 -10.341  -9.360  1.00  0.00     0.010 A 
ATOM     43  C   UNL     1       7.332 -10.111  -7.974  1.00  0.00    -0.014 A 
BRANCH  43  44
ATOM     44  C   UNL     1       8.163 -10.947  -7.074  1.00  0.00     0.031 A 
ATOM     45  C   UNL     1       9.636 -10.660  -6.961  1.00  0.00     0.074 A 
ATOM     46  C   UNL     1       7.623 -11.961  -6.374  1.00  0.00     0.049 A 
ATOM     47  N   UNL     1      10.534 -11.230  -6.201  1.00  0.00    -0.248 NA
ATOM     48  C   UNL     1      10.167  -9.589  -7.821  1.00  0.00     0.031 C 
ATOM     49  C   UNL     1       6.220 -12.368  -6.419  1.00  0.00     0.029 A 
ATOM     50  N   UNL     1       8.204 -12.849  -5.503  1.00  0.00    -0.354 N 
ATOM     51  C   UNL     1      11.735 -10.597  -6.494  1.00  0.00     0.074 A 
ATOM     52  C   UNL     1      11.457  -9.614  -7.519  1.00  0.00     0.031 C 
ATOM     53  C   UNL     1       6.054 -13.445  -5.631  1.00  0.00     0.029 A 
ATOM     54  C   UNL     1       7.337 -13.803  -5.026  1.00  0.00     0.049 A 
ATOM     55  H   UNL     1       9.153 -12.806  -5.243  1.00  0.00     0.167 HD
ATOM     56  C   UNL     1      12.956 -10.795  -5.943  1.00  0.00     0.034 A 
ATOM     57  C   UNL     1       7.554 -14.845  -4.199  1.00  0.00     0.034 A 
ATOM     58  C   UNL     1      13.237 -11.761  -4.915  1.00  0.00     0.049 A 
ATOM     59  C   UNL     1       8.923 -15.045  -3.600  1.00  0.00     0.074 A 
ATOM     60  C   UNL     1      14.429 -11.987  -4.250  1.00  0.00     0.029 A 
ATOM     61  N   UNL     1      12.321 -12.672  -4.415  1.00  0.00    -0.354 N 
ATOM     62  N   UNL     1      10.008 -14.323  -3.753  1.00  0.00    -0.248 NA
ATOM     63  C   UNL     1       9.087 -16.181  -2.679  1.00  0.00     0.031 C 
ATOM     64  C   UNL     1      14.238 -13.048  -3.358  1.00  0.00     0.029 A 
ATOM     65  C   UNL     1      12.924 -13.473  -3.459  1.00  0.00     0.049 A 
ATOM     66  H   UNL     1      11.381 -12.740  -4.697  1.00  0.00     0.167 HD
ATOM     67  C   UNL     1      10.970 -14.898  -2.928  1.00  0.00     0.074 A 
ATOM     68  C   UNL     1      10.333 -16.012  -2.257  1.00  0.00     0.031 C 
ATOM     69  C   UNL     1      12.269 -14.547  -2.756  1.00  0.00     0.034 A 
BRANCH  56  70
ATOM     70  C   UNL     1      14.077  -9.905  -6.406  1.00  0.00     0.023 A 
ATOM     71  C   UNL     1      14.125  -8.570  -5.957  1.00  0.00     0.012 A 
ATOM     72  C   UNL     1      15.105 -10.395  -7.234  1.00  0.00     0.148 A 
ATOM     73  C   UNL     1      15.165  -7.728  -6.343  1.00  0.00     0.002 A 
ATOM     74  C   UNL     1      16.158  -9.559  -7.588  1.00  0.00     0.091 A 
ATOM     75  F   UNL     1      15.026 -11.660  -7.673  1.00  0.00    -0.205 F 
ATOM     76  C   UNL     1      16.186  -8.224  -7.150  1.00  0.00     0.022 A 
BRANCH  74  77
ATOM     77  S   UNL     1      17.551 -10.125  -8.570  1.00  0.00     0.127 S 
ATOM     78  O   UNL     1      17.272  -9.504  -9.864  1.00  0.00    -0.237 OA
ATOM     79  O   UNL     1      18.690  -9.552  -7.853  1.00  0.00    -0.237 OA
ATOM     80  O   UNL     1      17.491 -11.580  -8.545  1.00  0.00    -0.744 OA
ENDBRANCH  74  77
ENDBRANCH  56  70
BRANCH  57  81
ATOM     81  C   UNL     1       6.429 -15.751  -3.834  1.00  0.00     0.023 A 
ATOM     82  C   UNL     1       5.902 -15.710  -2.529  1.00  0.00     0.012 A 
ATOM     83  C   UNL     1       5.878 -16.647  -4.770  1.00  0.00     0.148 A 
ATOM     84  C   UNL     1       4.864 -16.563  -2.153  1.00  0.00     0.002 A 
ATOM     85  C   UNL     1       4.813 -17.463  -4.403  1.00  0.00     0.091 A 
ATOM     86  F   UNL     1       6.411 -16.691  -5.999  1.00  0.00    -0.205 F 
ATOM     87  C   UNL     1       4.313 -17.432  -3.092  1.00  0.00     0.022 A 
BRANCH  85  88
ATOM     88  S   UNL     1       3.978 -18.535  -5.579  1.00  0.00     0.127 S 
ATOM     89  O   UNL     1       4.499 -19.848  -5.208  1.00  0.00    -0.237 OA
ATOM     90  O   UNL     1       2.569 -18.317  -5.248  1.00  0.00    -0.237 OA
ATOM     91  O   UNL     1       4.366 -18.045  -6.894  1.00  0.00    -0.744 OA
ENDBRANCH  85  88
ENDBRANCH  57  81
BRANCH  69  92
ATOM     92  C   UNL     1      13.095 -15.364  -1.797  1.00  0.00     0.023 A 
ATOM     93  C   UNL     1      13.505 -16.661  -2.165  1.00  0.00     0.012 A 
ATOM     94  C   UNL     1      13.525 -14.829  -0.566  1.00  0.00     0.148 A 
ATOM     95  C   UNL     1      14.301 -17.424  -1.311  1.00  0.00     0.002 A 
ATOM     96  C   UNL     1      14.354 -15.579   0.262  1.00  0.00     0.091 A 
ATOM     97  F   UNL     1      13.111 -13.602  -0.219  1.00  0.00    -0.205 F 
ATOM     98  C   UNL     1      14.735 -16.880  -0.104  1.00  0.00     0.022 A 
BRANCH  96  99
ATOM     99  S   UNL     1      15.029 -14.913   1.788  1.00  0.00     0.127 S 
ATOM    100  O   UNL     1      14.124 -15.476   2.788  1.00  0.00    -0.237 OA
ATOM    101  O   UNL     1      16.382 -15.471   1.810  1.00  0.00    -0.237 OA
ATOM    102  O   UNL     1      14.984 -13.464   1.637  1.00  0.00    -0.744 OA
ENDBRANCH  96  99
ENDBRANCH  69  92
ENDBRANCH  43  44
ENDBRANCH  36  38
ENDBRANCH  35  36
ENDBRANCH  34  35
ENDBRANCH  33  34
ENDBRANCH  32  33
ENDBRANCH   1  32
TORSDOF 24
