REMARK SMILES CC(C)(C(=O)OCCOCCOCCOC(=O)c1ccc(-c2c3nc(c(-c4cccc(S(=O)(=O)[O-])c4F)c4ccc([nH]4)c(-c4cccc(S(=O)(=O)[O-])c4F)c4nc(c(-c5cccc(S(=O)(=O)[O-])c5F)c5ccc2[nH]5)C=C4)C=C3)cc1)n1nnnc1C(F)(F)C(F)F
REMARK SMILES IDX 10 1 9 2 8 3 7 4 6 5 4 6 5 7 2 8 1 9 3 10 81 11 82 12 85 13
REMARK SMILES IDX 83 14 84 15 86 16 87 17 88 18 89 19 90 20 91 21 11 22 12 23
REMARK SMILES IDX 13 24 14 25 15 26 16 27 17 28 18 29 19 30 80 31 20 32 79 33
REMARK SMILES IDX 21 34 22 35 23 36 73 37 24 38 78 39 72 40 74 41 25 42 77 43
REMARK SMILES IDX 71 44 70 45 26 47 58 48 38 49 57 50 39 51 42 52 56 53 75 54
REMARK SMILES IDX 40 55 41 56 55 58 76 59 43 60 27 61 28 62 36 63 29 64 31 65
REMARK SMILES IDX 37 66 30 67 32 68 33 69 34 70 35 71 59 72 60 73 68 74 61 75
REMARK SMILES IDX 63 76 69 77 62 78 64 79 65 80 66 81 67 82 44 83 45 84 53 85
REMARK SMILES IDX 46 86 48 87 54 88 47 89 49 90 50 91 51 92 52 93
REMARK H PARENT 74 46 42 57
REMARK Flexibility Score: inf
ROOT
ATOM      1  C   UNL     1      -2.725   2.042  -0.174  1.00  0.00     0.188 C 
ENDROOT
BRANCH   1   2
ATOM      2  O   UNL     1      -4.025   1.583  -0.518  1.00  0.00    -0.376 OA
BRANCH   2   3
ATOM      3  C   UNL     1      -4.181   0.243  -0.970  1.00  0.00     0.202 C 
BRANCH   3   4
ATOM      4  C   UNL     1      -3.207  -0.334  -2.016  1.00  0.00     0.261 C 
BRANCH   4   5
ATOM      5  O   UNL     1      -1.813  -0.386  -1.628  1.00  0.00    -0.461 OA
BRANCH   5   6
ATOM      6  C   UNL     1      -0.926   0.209  -2.475  1.00  0.00     0.333 C 
ATOM      7  O   UNL     1      -1.257   0.707  -3.550  1.00  0.00    -0.249 OA
BRANCH   6   8
ATOM      8  C   UNL     1       0.579   0.068  -2.068  1.00  0.00     0.158 C 
ATOM      9  C   UNL     1       0.881  -0.440  -0.640  1.00  0.00     0.049 C 
ATOM     10  C   UNL     1       0.982  -1.041  -3.051  1.00  0.00     0.049 C 
BRANCH   8  11
ATOM     11  N   UNL     1       1.171   1.409  -2.202  1.00  0.00    -0.207 N 
ATOM     12  N   UNL     1       0.393   2.391  -1.660  1.00  0.00    -0.044 NA
ATOM     13  C   UNL     1       2.375   1.997  -2.556  1.00  0.00     0.228 A 
ATOM     14  N   UNL     1       1.009   3.531  -1.860  1.00  0.00    -0.024 NA
ATOM     15  N   UNL     1       2.223   3.309  -2.403  1.00  0.00    -0.107 NA
BRANCH  13  16
ATOM     16  C   UNL     1       3.722   1.499  -2.959  1.00  0.00     0.367 C 
ATOM     17  F   UNL     1       4.091   2.093  -4.142  1.00  0.00    -0.191 F 
ATOM     18  F   UNL     1       4.641   1.971  -2.047  1.00  0.00    -0.191 F 
BRANCH  16  19
ATOM     19  C   UNL     1       4.020   0.031  -3.103  1.00  0.00     0.419 C 
ATOM     20  F   UNL     1       3.708  -0.653  -1.974  1.00  0.00    -0.203 F 
ATOM     21  F   UNL     1       3.330  -0.526  -4.127  1.00  0.00    -0.203 F 
ENDBRANCH  16  19
ENDBRANCH  13  16
ENDBRANCH   8  11
ENDBRANCH   6   8
ENDBRANCH   5   6
ENDBRANCH   4   5
ENDBRANCH   3   4
ENDBRANCH   2   3
ENDBRANCH   1   2
BRANCH   1  22
ATOM     22  C   UNL     1      -1.876   1.150   0.740  1.00  0.00     0.188 C 
BRANCH  22  23
ATOM     23  O   UNL     1      -2.494  -0.049   1.151  1.00  0.00    -0.376 OA
BRANCH  23  24
ATOM     24  C   UNL     1      -2.915  -0.164   2.499  1.00  0.00     0.202 C 
BRANCH  24  25
ATOM     25  C   UNL     1      -3.632   0.999   3.210  1.00  0.00     0.261 C 
BRANCH  25  26
ATOM     26  O   UNL     1      -3.116   2.322   3.001  1.00  0.00    -0.460 OA
BRANCH  26  27
ATOM     27  C   UNL     1      -1.929   2.635   3.584  1.00  0.00     0.338 C 
ATOM     28  O   UNL     1      -1.262   1.917   4.296  1.00  0.00    -0.246 OA
BRANCH  27  29
ATOM     29  C   UNL     1      -1.469   3.912   2.974  1.00  0.00     0.060 A 
ATOM     30  C   UNL     1      -0.239   3.940   2.299  1.00  0.00     0.016 A 
ATOM     31  C   UNL     1      -2.267   5.056   3.023  1.00  0.00     0.016 A 
ATOM     32  C   UNL     1       0.211   5.119   1.698  1.00  0.00     0.010 A 
ATOM     33  C   UNL     1      -1.803   6.242   2.446  1.00  0.00     0.010 A 
ATOM     34  C   UNL     1      -0.547   6.290   1.811  1.00  0.00    -0.014 A 
BRANCH  34  35
ATOM     35  C   UNL     1       0.051   7.608   1.474  1.00  0.00     0.031 A 
ATOM     36  C   UNL     1       0.589   8.447   2.603  1.00  0.00     0.074 A 
ATOM     37  C   UNL     1       0.095   8.075   0.213  1.00  0.00     0.049 A 
ATOM     38  N   UNL     1       1.060   9.666   2.585  1.00  0.00    -0.248 NA
ATOM     39  C   UNL     1       0.587   7.823   3.937  1.00  0.00     0.031 C 
ATOM     40  C   UNL     1      -0.360   7.359  -0.975  1.00  0.00     0.029 A 
ATOM     41  N   UNL     1       0.521   9.291  -0.266  1.00  0.00    -0.354 N 
ATOM     42  C   UNL     1       1.373   9.969   3.905  1.00  0.00     0.074 A 
ATOM     43  C   UNL     1       1.030   8.810   4.699  1.00  0.00     0.031 C 
ATOM     44  C   UNL     1      -0.229   8.165  -2.044  1.00  0.00     0.029 A 
ATOM     45  C   UNL     1       0.291   9.462  -1.611  1.00  0.00     0.049 A 
ATOM     46  H   UNL     1       0.949   9.974   0.299  1.00  0.00     0.167 HD
ATOM     47  C   UNL     1       1.905  11.105   4.413  1.00  0.00     0.034 A 
ATOM     48  C   UNL     1       0.454  10.549  -2.394  1.00  0.00     0.034 A 
ATOM     49  C   UNL     1       2.259  12.254   3.625  1.00  0.00     0.049 A 
ATOM     50  C   UNL     1       1.009  11.820  -1.798  1.00  0.00     0.074 A 
ATOM     51  C   UNL     1       2.844  13.435   4.045  1.00  0.00     0.029 A 
ATOM     52  N   UNL     1       2.046  12.375   2.261  1.00  0.00    -0.354 N 
ATOM     53  N   UNL     1       1.395  12.060  -0.568  1.00  0.00    -0.248 NA
ATOM     54  C   UNL     1       1.181  12.963  -2.709  1.00  0.00     0.031 C 
ATOM     55  C   UNL     1       2.946  14.288   2.942  1.00  0.00     0.029 A 
ATOM     56  C   UNL     1       2.471  13.618   1.825  1.00  0.00     0.049 A 
ATOM     57  H   UNL     1       1.651  11.680   1.687  1.00  0.00     0.167 HD
ATOM     58  C   UNL     1       1.894  13.361  -0.568  1.00  0.00     0.074 A 
ATOM     59  C   UNL     1       1.774  13.853  -1.924  1.00  0.00     0.031 C 
ATOM     60  C   UNL     1       2.398  14.083   0.464  1.00  0.00     0.034 A 
BRANCH  47  61
ATOM     61  C   UNL     1       2.140  11.159   5.900  1.00  0.00     0.023 A 
ATOM     62  C   UNL     1       3.164  10.382   6.479  1.00  0.00     0.012 A 
ATOM     63  C   UNL     1       1.373  12.011   6.717  1.00  0.00     0.148 A 
ATOM     64  C   UNL     1       3.395  10.425   7.854  1.00  0.00     0.002 A 
ATOM     65  C   UNL     1       1.642  12.086   8.077  1.00  0.00     0.091 A 
ATOM     66  F   UNL     1       0.389  12.725   6.150  1.00  0.00    -0.205 F 
ATOM     67  C   UNL     1       2.642  11.284   8.649  1.00  0.00     0.022 A 
BRANCH  65  68
ATOM     68  S   UNL     1       0.784  13.221   9.173  1.00  0.00     0.127 S 
ATOM     69  O   UNL     1      -0.002  12.301   9.994  1.00  0.00    -0.237 OA
ATOM     70  O   UNL     1       1.894  13.866   9.875  1.00  0.00    -0.237 OA
ATOM     71  O   UNL     1       0.011  14.106   8.314  1.00  0.00    -0.744 OA
ENDBRANCH  65  68
ENDBRANCH  47  61
BRANCH  48  72
ATOM     72  C   UNL     1       0.103  10.488  -3.843  1.00  0.00     0.023 A 
ATOM     73  C   UNL     1       1.124  10.564  -4.810  1.00  0.00     0.012 A 
ATOM     74  C   UNL     1      -1.235  10.366  -4.267  1.00  0.00     0.148 A 
ATOM     75  C   UNL     1       0.818  10.556  -6.172  1.00  0.00     0.002 A 
ATOM     76  C   UNL     1      -1.529  10.304  -5.624  1.00  0.00     0.091 A 
ATOM     77  F   UNL     1      -2.195  10.314  -3.332  1.00  0.00    -0.205 F 
ATOM     78  C   UNL     1      -0.506  10.417  -6.578  1.00  0.00     0.022 A 
BRANCH  76  79
ATOM     79  S   UNL     1      -3.191  10.021  -6.245  1.00  0.00     0.127 S 
ATOM     80  O   UNL     1      -3.479  11.287  -6.916  1.00  0.00    -0.237 OA
ATOM     81  O   UNL     1      -2.987   8.883  -7.141  1.00  0.00    -0.237 OA
ATOM     82  O   UNL     1      -4.009   9.732  -5.075  1.00  0.00    -0.744 OA
ENDBRANCH  76  79
ENDBRANCH  48  72
BRANCH  60  83
ATOM     83  C   UNL     1       2.917  15.471   0.173  1.00  0.00     0.023 A 
ATOM     84  C   UNL     1       2.021  16.515  -0.131  1.00  0.00     0.012 A 
ATOM     85  C   UNL     1       4.294  15.755   0.285  1.00  0.00     0.148 A 
ATOM     86  C   UNL     1       2.490  17.810  -0.353  1.00  0.00     0.002 A 
ATOM     87  C   UNL     1       4.748  17.058   0.115  1.00  0.00     0.091 A 
ATOM     88  F   UNL     1       5.135  14.748   0.562  1.00  0.00    -0.205 F 
ATOM     89  C   UNL     1       3.849  18.084  -0.219  1.00  0.00     0.022 A 
BRANCH  87  90
ATOM     90  S   UNL     1       6.465  17.525   0.367  1.00  0.00     0.127 S 
ATOM     91  O   UNL     1       6.895  17.828  -0.998  1.00  0.00    -0.237 OA
ATOM     92  O   UNL     1       6.342  18.693   1.240  1.00  0.00    -0.237 OA
ATOM     93  O   UNL     1       7.111  16.374   0.983  1.00  0.00    -0.744 OA
ENDBRANCH  87  90
ENDBRANCH  60  83
ENDBRANCH  34  35
ENDBRANCH  27  29
ENDBRANCH  26  27
ENDBRANCH  25  26
ENDBRANCH  24  25
ENDBRANCH  23  24
ENDBRANCH  22  23
ENDBRANCH   1  22
TORSDOF 23
