REMARK SMILES CS(=O)(=O)c1ccc(/C=C(/C(=O)OCCOCCOCCOC(=O)c2ccc(-c3c4nc(c(-c5cccc(S(=O)(=O)[O-])c5F)c5ccc([nH]5)c(-c5cccc(S(=O)(=O)[O-])c5F)c5nc(c(-c6cccc(S(=O)(=O)[O-])c6F)c6ccc3[nH]6)C=C5)C=C4)cc2)c2ccc(O)cc2)cc1
REMARK SMILES IDX 18 1 17 2 16 3 15 4 14 5 13 6 11 7 12 8 10 9 9 10 8 11 5 12
REMARK SMILES IDX 6 13 96 14 7 15 95 16 2 17 1 18 3 19 4 20 88 21 89 22 94 23
REMARK SMILES IDX 90 24 93 25 91 26 92 27 19 29 20 30 21 31 22 32 23 33 24 34
REMARK SMILES IDX 25 35 26 36 87 37 27 38 86 39 28 40 29 41 30 42 80 43 31 44
REMARK SMILES IDX 85 45 79 46 81 47 32 48 84 49 78 50 77 51 33 53 65 54 45 55
REMARK SMILES IDX 64 56 46 57 49 58 63 59 82 60 47 61 48 62 62 64 83 65 50 66
REMARK SMILES IDX 34 67 35 68 43 69 36 70 38 71 44 72 37 73 39 74 40 75 41 76
REMARK SMILES IDX 42 77 66 78 67 79 75 80 68 81 70 82 76 83 69 84 71 85 72 86
REMARK SMILES IDX 73 87 74 88 51 89 52 90 60 91 53 92 55 93 61 94 54 95 56 96
REMARK SMILES IDX 57 97 58 98 59 99
REMARK H PARENT 92 28 81 52 49 63
REMARK Flexibility Score: inf
ROOT
ATOM      1  C   UNL     1       0.114  -8.532   5.288  1.00  0.00     0.188 C 
ENDROOT
BRANCH   1   2
ATOM      2  C   UNL     1       0.618  -9.824   4.612  1.00  0.00     0.188 C 
BRANCH   2   3
ATOM      3  O   UNL     1       1.532 -10.561   5.409  1.00  0.00    -0.376 OA
BRANCH   3   4
ATOM      4  C   UNL     1       2.869 -10.600   4.934  1.00  0.00     0.202 C 
BRANCH   4   5
ATOM      5  C   UNL     1       3.643  -9.284   5.084  1.00  0.00     0.261 C 
BRANCH   5   6
ATOM      6  O   UNL     1       2.989  -8.127   4.533  1.00  0.00    -0.460 OA
BRANCH   6   7
ATOM      7  C   UNL     1       3.094  -7.920   3.197  1.00  0.00     0.338 C 
ATOM      8  O   UNL     1       3.723  -8.625   2.426  1.00  0.00    -0.246 OA
BRANCH   7   9
ATOM      9  C   UNL     1       2.265  -6.735   2.778  1.00  0.00     0.067 C 
ATOM     10  C   UNL     1       2.189  -5.658   3.601  1.00  0.00     0.024 C 
BRANCH  10  11
ATOM     11  C   UNL     1       1.562  -4.336   3.353  1.00  0.00    -0.025 A 
ATOM     12  C   UNL     1       0.727  -1.752   2.639  1.00  0.00     0.067 A 
ATOM     13  C   UNL     1      -0.011  -2.857   2.219  1.00  0.00     0.021 A 
ATOM     14  C   UNL     1       1.798  -1.912   3.516  1.00  0.00     0.021 A 
ATOM     15  C   UNL     1       0.393  -4.139   2.604  1.00  0.00     0.009 A 
ATOM     16  C   UNL     1       2.211  -3.201   3.867  1.00  0.00     0.009 A 
BRANCH  12  17
ATOM     17  S   UNL     1       0.323  -0.143   2.006  1.00  0.00     0.175 S 
ATOM     18  C   UNL     1       0.975  -0.189   0.353  1.00  0.00     0.163 C 
ATOM     19  O   UNL     1       1.095   0.835   2.754  1.00  0.00    -0.224 OA
ATOM     20  O   UNL     1      -1.120  -0.049   1.930  1.00  0.00    -0.224 OA
ENDBRANCH  12  17
ENDBRANCH  10  11
BRANCH   9  21
ATOM     21  C   UNL     1       1.572  -6.790   1.475  1.00  0.00    -0.011 A 
ATOM     22  C   UNL     1       0.405  -7.563   1.352  1.00  0.00     0.013 A 
ATOM     23  C   UNL     1       1.964  -5.975   0.402  1.00  0.00     0.013 A 
ATOM     24  C   UNL     1      -0.382  -7.479   0.204  1.00  0.00     0.047 A 
ATOM     25  C   UNL     1       1.170  -5.888  -0.746  1.00  0.00     0.047 A 
ATOM     26  C   UNL     1      -0.005  -6.629  -0.825  1.00  0.00     0.115 A 
BRANCH  26  27
ATOM     27  O   UNL     1      -0.845  -6.530  -1.891  1.00  0.00    -0.508 OA
ATOM     28  H   UNL     1      -1.630  -7.041  -1.918  1.00  0.00     0.293 HD
ENDBRANCH  26  27
ENDBRANCH   9  21
ENDBRANCH   7   9
ENDBRANCH   6   7
ENDBRANCH   5   6
ENDBRANCH   4   5
ENDBRANCH   3   4
ENDBRANCH   2   3
ENDBRANCH   1   2
BRANCH   1  29
ATOM     29  O   UNL     1       0.228  -8.354   6.695  1.00  0.00    -0.376 OA
BRANCH  29  30
ATOM     30  C   UNL     1       0.065  -9.472   7.553  1.00  0.00     0.202 C 
BRANCH  30  31
ATOM     31  C   UNL     1      -1.278 -10.215   7.553  1.00  0.00     0.261 C 
BRANCH  31  32
ATOM     32  O   UNL     1      -1.833 -10.484   6.257  1.00  0.00    -0.460 OA
BRANCH  32  33
ATOM     33  C   UNL     1      -2.882  -9.700   5.902  1.00  0.00     0.338 C 
ATOM     34  O   UNL     1      -3.403  -8.823   6.569  1.00  0.00    -0.246 OA
BRANCH  33  35
ATOM     35  C   UNL     1      -3.219  -9.933   4.481  1.00  0.00     0.060 A 
ATOM     36  C   UNL     1      -3.226  -8.831   3.614  1.00  0.00     0.016 A 
ATOM     37  C   UNL     1      -3.576 -11.199   4.014  1.00  0.00     0.016 A 
ATOM     38  C   UNL     1      -3.608  -8.987   2.282  1.00  0.00     0.010 A 
ATOM     39  C   UNL     1      -3.986 -11.349   2.684  1.00  0.00     0.010 A 
ATOM     40  C   UNL     1      -4.028 -10.240   1.820  1.00  0.00    -0.014 A 
BRANCH  40  41
ATOM     41  C   UNL     1      -4.671 -10.355   0.488  1.00  0.00     0.031 A 
ATOM     42  C   UNL     1      -6.165 -10.220   0.395  1.00  0.00     0.074 A 
ATOM     43  C   UNL     1      -3.944 -10.588  -0.619  1.00  0.00     0.049 A 
ATOM     44  N   UNL     1      -6.942 -10.310  -0.652  1.00  0.00    -0.248 NA
ATOM     45  C   UNL     1      -6.879  -9.949   1.654  1.00  0.00     0.031 C 
ATOM     46  C   UNL     1      -2.492 -10.732  -0.662  1.00  0.00     0.029 A 
ATOM     47  N   UNL     1      -4.341 -10.765  -1.922  1.00  0.00    -0.354 N 
ATOM     48  C   UNL     1      -8.236 -10.133  -0.179  1.00  0.00     0.074 A 
ATOM     49  C   UNL     1      -8.141  -9.931   1.251  1.00  0.00     0.031 C 
ATOM     50  C   UNL     1      -2.118 -10.996  -1.927  1.00  0.00     0.029 A 
ATOM     51  C   UNL     1      -3.307 -11.071  -2.775  1.00  0.00     0.049 A 
ATOM     52  H   UNL     1      -5.277 -10.681  -2.217  1.00  0.00     0.167 HD
ATOM     53  C   UNL     1      -9.399 -10.130  -0.871  1.00  0.00     0.034 A 
ATOM     54  C   UNL     1      -3.324 -11.399  -4.083  1.00  0.00     0.034 A 
ATOM     55  C   UNL     1      -9.498 -10.333  -2.291  1.00  0.00     0.049 A 
ATOM     56  C   UNL     1      -4.638 -11.428  -4.823  1.00  0.00     0.074 A 
ATOM     57  C   UNL     1     -10.631 -10.317  -3.085  1.00  0.00     0.029 A 
ATOM     58  N   UNL     1      -8.427 -10.608  -3.127  1.00  0.00    -0.354 N 
ATOM     59  N   UNL     1      -5.840 -11.137  -4.388  1.00  0.00    -0.248 NA
ATOM     60  C   UNL     1      -4.595 -11.808  -6.244  1.00  0.00     0.031 C 
ATOM     61  C   UNL     1     -10.248 -10.613  -4.397  1.00  0.00     0.029 A 
ATOM     62  C   UNL     1      -8.873 -10.781  -4.426  1.00  0.00     0.049 A 
ATOM     63  H   UNL     1      -7.488 -10.672  -2.839  1.00  0.00     0.167 HD
ATOM     64  C   UNL     1      -6.687 -11.262  -5.485  1.00  0.00     0.074 A 
ATOM     65  C   UNL     1      -5.858 -11.638  -6.611  1.00  0.00     0.031 C 
ATOM     66  C   UNL     1      -8.032 -11.097  -5.551  1.00  0.00     0.034 A 
BRANCH  53  67
ATOM     67  C   UNL     1     -10.666  -9.888  -0.096  1.00  0.00     0.023 A 
ATOM     68  C   UNL     1     -10.956  -8.593   0.378  1.00  0.00     0.012 A 
ATOM     69  C   UNL     1     -11.587 -10.930   0.126  1.00  0.00     0.148 A 
ATOM     70  C   UNL     1     -12.130  -8.344   1.088  1.00  0.00     0.002 A 
ATOM     71  C   UNL     1     -12.774 -10.665   0.798  1.00  0.00     0.091 A 
ATOM     72  F   UNL     1     -11.280 -12.159  -0.311  1.00  0.00    -0.205 F 
ATOM     73  C   UNL     1     -13.042  -9.377   1.289  1.00  0.00     0.022 A 
BRANCH  71  74
ATOM     74  S   UNL     1     -14.044 -11.912   1.043  1.00  0.00     0.127 S 
ATOM     75  O   UNL     1     -13.930 -12.171   2.478  1.00  0.00    -0.237 OA
ATOM     76  O   UNL     1     -15.258 -11.197   0.647  1.00  0.00    -0.237 OA
ATOM     77  O   UNL     1     -13.685 -13.025   0.176  1.00  0.00    -0.744 OA
ENDBRANCH  71  74
ENDBRANCH  53  67
BRANCH  54  78
ATOM     78  C   UNL     1      -2.050 -11.707  -4.794  1.00  0.00     0.023 A 
ATOM     79  C   UNL     1      -1.581 -10.827  -5.789  1.00  0.00     0.012 A 
ATOM     80  C   UNL     1      -1.306 -12.864  -4.495  1.00  0.00     0.148 A 
ATOM     81  C   UNL     1      -0.411 -11.110  -6.495  1.00  0.00     0.002 A 
ATOM     82  C   UNL     1      -0.113 -13.113  -5.165  1.00  0.00     0.091 A 
ATOM     83  F   UNL     1      -1.779 -13.701  -3.561  1.00  0.00    -0.205 F 
ATOM     84  C   UNL     1       0.327 -12.247  -6.177  1.00  0.00     0.022 A 
BRANCH  82  85
ATOM     85  S   UNL     1       0.962 -14.489  -4.742  1.00  0.00     0.127 S 
ATOM     86  O   UNL     1       0.812 -15.355  -5.908  1.00  0.00    -0.237 OA
ATOM     87  O   UNL     1       2.264 -13.829  -4.627  1.00  0.00    -0.237 OA
ATOM     88  O   UNL     1       0.445 -15.020  -3.488  1.00  0.00    -0.744 OA
ENDBRANCH  82  85
ENDBRANCH  54  78
BRANCH  66  89
ATOM     89  C   UNL     1      -8.702 -11.277  -6.890  1.00  0.00     0.023 A 
ATOM     90  C   UNL     1      -8.852 -12.569  -7.432  1.00  0.00     0.012 A 
ATOM     91  C   UNL     1      -9.265 -10.176  -7.566  1.00  0.00     0.148 A 
ATOM     92  C   UNL     1      -9.526 -12.759  -8.638  1.00  0.00     0.002 A 
ATOM     93  C   UNL     1      -9.977 -10.378  -8.743  1.00  0.00     0.091 A 
ATOM     94  F   UNL     1      -9.098  -8.952  -7.044  1.00  0.00    -0.205 F 
ATOM     95  C   UNL     1     -10.099 -11.667  -9.286  1.00  0.00     0.022 A 
BRANCH  93  96
ATOM     96  S   UNL     1     -10.831  -9.045  -9.594  1.00  0.00     0.127 S 
ATOM     97  O   UNL     1      -9.992  -8.862 -10.777  1.00  0.00    -0.237 OA
ATOM     98  O   UNL     1     -12.142  -9.637  -9.862  1.00  0.00    -0.237 OA
ATOM     99  O   UNL     1     -10.854  -7.924  -8.664  1.00  0.00    -0.744 OA
ENDBRANCH  93  96
ENDBRANCH  66  89
ENDBRANCH  40  41
ENDBRANCH  33  35
ENDBRANCH  32  33
ENDBRANCH  31  32
ENDBRANCH  30  31
ENDBRANCH  29  30
ENDBRANCH   1  29
TORSDOF 24
