REMARK SMILES Cc1ccc2nc(CC3(CC(=O)OCCOCCOCCOC(=O)c4ccc(-c5c6nc(c(-c7cccc(S(=O)(=O)[O-])c7F)c7ccc([nH]7)c(-c7cccc(S(=O)(=O)[O-])c7F)c7nc(c(-c8cccc(S(=O)(=O)[O-])c8F)c8ccc5[nH]8)C=C7)C=C6)cc4)CCCCC3)sc2c1
REMARK SMILES IDX 17 1 16 2 15 3 14 4 13 5 11 6 12 7 10 8 9 9 88 10 92 11
REMARK SMILES IDX 89 12 91 13 90 14 8 15 7 16 1 17 2 18 3 19 95 20 4 21 94 22
REMARK SMILES IDX 5 23 93 24 6 25 18 26 19 27 20 28 21 29 22 30 23 31 24 32
REMARK SMILES IDX 25 33 26 34 87 35 27 36 86 37 28 38 29 39 30 40 80 41 31 42
REMARK SMILES IDX 85 43 79 44 81 45 32 46 84 47 78 48 77 49 33 51 65 52 45 53
REMARK SMILES IDX 64 54 46 55 49 56 63 57 82 58 47 59 48 60 62 62 83 63 50 64
REMARK SMILES IDX 34 65 35 66 43 67 36 68 38 69 44 70 37 71 39 72 40 73 41 74
REMARK SMILES IDX 42 75 66 76 67 77 75 78 68 79 70 80 76 81 69 82 71 83 72 84
REMARK SMILES IDX 73 85 74 86 51 87 52 88 60 89 53 90 55 91 61 92 54 93 56 94
REMARK SMILES IDX 57 95 58 96 59 97
REMARK H PARENT 81 50 49 61
REMARK Flexibility Score: inf
ROOT
ATOM      1  C   UNL     1      -6.688  -2.066   2.359  1.00  0.00     0.188 C 
ENDROOT
BRANCH   1   2
ATOM      2  O   UNL     1      -7.391  -3.286   2.573  1.00  0.00    -0.376 OA
BRANCH   2   3
ATOM      3  C   UNL     1      -6.691  -4.483   2.249  1.00  0.00     0.202 C 
BRANCH   3   4
ATOM      4  C   UNL     1      -6.461  -4.740   0.755  1.00  0.00     0.261 C 
BRANCH   4   5
ATOM      5  O   UNL     1      -5.851  -3.635   0.057  1.00  0.00    -0.463 OA
BRANCH   5   6
ATOM      6  C   UNL     1      -6.499  -3.214  -1.057  1.00  0.00     0.306 C 
ATOM      7  O   UNL     1      -7.518  -3.730  -1.508  1.00  0.00    -0.252 OA
BRANCH   6   8
ATOM      8  C   UNL     1      -5.916  -1.956  -1.680  1.00  0.00     0.130 C 
BRANCH   8   9
ATOM      9  C   UNL     1      -4.369  -1.746  -1.819  1.00  0.00    -0.013 C 
ATOM     10  C   UNL     1      -4.111  -0.885  -3.099  1.00  0.00     0.008 C 
ATOM     11  C   UNL     1      -3.591  -3.075  -1.976  1.00  0.00     0.008 C 
ATOM     12  C   UNL     1      -4.366  -1.625  -4.418  1.00  0.00     0.001 C 
ATOM     13  C   UNL     1      -3.943  -3.829  -3.253  1.00  0.00     0.001 C 
ATOM     14  C   UNL     1      -3.649  -2.969  -4.477  1.00  0.00     0.000 C 
BRANCH   9  15
ATOM     15  C   UNL     1      -3.892  -0.933  -0.573  1.00  0.00     0.075 C 
BRANCH  15  16
ATOM     16  C   UNL     1      -2.408  -0.668  -0.486  1.00  0.00     0.094 A 
ATOM     17  C   UNL     1       3.524   1.042   0.039  1.00  0.00     0.044 C 
ATOM     18  C   UNL     1       2.213   0.314  -0.048  1.00  0.00    -0.050 A 
ATOM     19  C   UNL     1       2.166  -1.076   0.084  1.00  0.00     0.006 A 
ATOM     20  C   UNL     1       1.026   1.040  -0.247  1.00  0.00     0.024 A 
ATOM     21  C   UNL     1       0.948  -1.760   0.023  1.00  0.00     0.030 A 
ATOM     22  C   UNL     1      -0.190   0.338  -0.332  1.00  0.00     0.055 A 
ATOM     23  C   UNL     1      -0.248  -1.046  -0.183  1.00  0.00     0.082 A 
ATOM     24  S   UNL     1      -1.780   0.929  -0.629  1.00  0.00    -0.119 S 
ATOM     25  N   UNL     1      -1.511  -1.602  -0.258  1.00  0.00    -0.241 NA
ENDBRANCH  15  16
ENDBRANCH   9  15
ENDBRANCH   8   9
ENDBRANCH   6   8
ENDBRANCH   5   6
ENDBRANCH   4   5
ENDBRANCH   3   4
ENDBRANCH   2   3
ENDBRANCH   1   2
BRANCH   1  26
ATOM     26  C   UNL     1      -5.326  -1.944   3.050  1.00  0.00     0.188 C 
BRANCH  26  27
ATOM     27  O   UNL     1      -4.364  -2.884   2.585  1.00  0.00    -0.376 OA
BRANCH  27  28
ATOM     28  C   UNL     1      -3.002  -2.710   2.985  1.00  0.00     0.202 C 
BRANCH  28  29
ATOM     29  C   UNL     1      -2.685  -2.024   4.327  1.00  0.00     0.261 C 
BRANCH  29  30
ATOM     30  O   UNL     1      -3.278  -0.722   4.489  1.00  0.00    -0.460 OA
BRANCH  30  31
ATOM     31  C   UNL     1      -2.871   0.244   3.632  1.00  0.00     0.338 C 
ATOM     32  O   UNL     1      -1.912   0.191   2.881  1.00  0.00    -0.246 OA
BRANCH  31  33
ATOM     33  C   UNL     1      -3.933   1.280   3.570  1.00  0.00     0.060 A 
ATOM     34  C   UNL     1      -4.341   1.733   2.308  1.00  0.00     0.016 A 
ATOM     35  C   UNL     1      -4.580   1.744   4.717  1.00  0.00     0.016 A 
ATOM     36  C   UNL     1      -5.356   2.682   2.187  1.00  0.00     0.010 A 
ATOM     37  C   UNL     1      -5.591   2.704   4.598  1.00  0.00     0.010 A 
ATOM     38  C   UNL     1      -5.958   3.206   3.335  1.00  0.00    -0.014 A 
BRANCH  38  39
ATOM     39  C   UNL     1      -6.801   4.424   3.236  1.00  0.00     0.031 A 
ATOM     40  C   UNL     1      -6.168   5.748   3.572  1.00  0.00     0.074 A 
ATOM     41  C   UNL     1      -8.090   4.376   2.855  1.00  0.00     0.049 A 
ATOM     42  N   UNL     1      -6.708   6.936   3.634  1.00  0.00    -0.248 NA
ATOM     43  C   UNL     1      -4.728   5.724   3.883  1.00  0.00     0.031 C 
ATOM     44  C   UNL     1      -8.820   3.169   2.472  1.00  0.00     0.029 A 
ATOM     45  N   UNL     1      -9.023   5.380   2.755  1.00  0.00    -0.354 N 
ATOM     46  C   UNL     1      -5.689   7.792   4.032  1.00  0.00     0.074 A 
ATOM     47  C   UNL     1      -4.498   6.989   4.199  1.00  0.00     0.031 C 
ATOM     48  C   UNL     1     -10.098   3.498   2.212  1.00  0.00     0.029 A 
ATOM     49  C   UNL     1     -10.284   4.931   2.440  1.00  0.00     0.049 A 
ATOM     50  H   UNL     1      -8.809   6.331   2.897  1.00  0.00     0.167 HD
ATOM     51  C   UNL     1      -5.732   9.130   4.230  1.00  0.00     0.034 A 
ATOM     52  C   UNL     1     -11.457   5.595   2.375  1.00  0.00     0.034 A 
ATOM     53  C   UNL     1      -6.904   9.938   4.042  1.00  0.00     0.049 A 
ATOM     54  C   UNL     1     -11.488   7.082   2.636  1.00  0.00     0.074 A 
ATOM     55  C   UNL     1      -7.032  11.309   4.180  1.00  0.00     0.029 A 
ATOM     56  N   UNL     1      -8.152   9.453   3.688  1.00  0.00    -0.354 N 
ATOM     57  N   UNL     1     -10.498   7.894   2.914  1.00  0.00    -0.248 NA
ATOM     58  C   UNL     1     -12.798   7.747   2.548  1.00  0.00     0.031 C 
ATOM     59  C   UNL     1      -8.367  11.649   3.939  1.00  0.00     0.029 A 
ATOM     60  C   UNL     1      -9.061  10.494   3.615  1.00  0.00     0.049 A 
ATOM     61  H   UNL     1      -8.362   8.507   3.513  1.00  0.00     0.167 HD
ATOM     62  C   UNL     1     -11.056   9.167   2.994  1.00  0.00     0.074 A 
ATOM     63  C   UNL     1     -12.470   9.021   2.719  1.00  0.00     0.031 C 
ATOM     64  C   UNL     1     -10.455  10.348   3.283  1.00  0.00     0.034 A 
BRANCH  51  65
ATOM     65  C   UNL     1      -4.463   9.806   4.672  1.00  0.00     0.023 A 
ATOM     66  C   UNL     1      -3.404   9.977   3.758  1.00  0.00     0.012 A 
ATOM     67  C   UNL     1      -4.338  10.310   5.981  1.00  0.00     0.148 A 
ATOM     68  C   UNL     1      -2.225  10.611   4.151  1.00  0.00     0.002 A 
ATOM     69  C   UNL     1      -3.180  10.981   6.351  1.00  0.00     0.091 A 
ATOM     70  F   UNL     1      -5.347  10.112   6.841  1.00  0.00    -0.205 F 
ATOM     71  C   UNL     1      -2.118  11.122   5.442  1.00  0.00     0.022 A 
BRANCH  69  72
ATOM     72  S   UNL     1      -2.979  11.742   7.964  1.00  0.00     0.127 S 
ATOM     73  O   UNL     1      -1.989  10.862   8.584  1.00  0.00    -0.237 OA
ATOM     74  O   UNL     1      -2.478  13.072   7.616  1.00  0.00    -0.237 OA
ATOM     75  O   UNL     1      -4.298  11.732   8.581  1.00  0.00    -0.744 OA
ENDBRANCH  69  72
ENDBRANCH  51  65
BRANCH  52  76
ATOM     76  C   UNL     1     -12.713   4.864   2.036  1.00  0.00     0.023 A 
ATOM     77  C   UNL     1     -13.362   5.120   0.813  1.00  0.00     0.012 A 
ATOM     78  C   UNL     1     -13.270   3.924   2.925  1.00  0.00     0.148 A 
ATOM     79  C   UNL     1     -14.559   4.476   0.493  1.00  0.00     0.002 A 
ATOM     80  C   UNL     1     -14.432   3.246   2.577  1.00  0.00     0.091 A 
ATOM     81  F   UNL     1     -12.650   3.712   4.094  1.00  0.00    -0.205 F 
ATOM     82  C   UNL     1     -15.088   3.532   1.370  1.00  0.00     0.022 A 
BRANCH  80  83
ATOM     83  S   UNL     1     -15.122   1.932   3.589  1.00  0.00     0.127 S 
ATOM     84  O   UNL     1     -16.358   2.543   4.071  1.00  0.00    -0.237 OA
ATOM     85  O   UNL     1     -15.305   0.862   2.607  1.00  0.00    -0.237 OA
ATOM     86  O   UNL     1     -14.119   1.651   4.607  1.00  0.00    -0.744 OA
ENDBRANCH  80  83
ENDBRANCH  52  76
BRANCH  64  87
ATOM     87  C   UNL     1     -11.300  11.598   3.270  1.00  0.00     0.023 A 
ATOM     88  C   UNL     1     -12.227  11.833   4.305  1.00  0.00     0.012 A 
ATOM     89  C   UNL     1     -11.108  12.582   2.279  1.00  0.00     0.148 A 
ATOM     90  C   UNL     1     -12.971  13.013   4.336  1.00  0.00     0.002 A 
ATOM     91  C   UNL     1     -11.816  13.777   2.345  1.00  0.00     0.091 A 
ATOM     92  F   UNL     1     -10.232  12.335   1.294  1.00  0.00    -0.205 F 
ATOM     93  C   UNL     1     -12.757  13.988   3.365  1.00  0.00     0.022 A 
BRANCH  91  94
ATOM     94  S   UNL     1     -11.534  15.129   1.196  1.00  0.00     0.127 S 
ATOM     95  O   UNL     1     -12.751  15.092   0.387  1.00  0.00    -0.237 OA
ATOM     96  O   UNL     1     -11.432  16.282   2.092  1.00  0.00    -0.237 OA
ATOM     97  O   UNL     1     -10.303  14.805   0.488  1.00  0.00    -0.744 OA
ENDBRANCH  91  94
ENDBRANCH  64  87
ENDBRANCH  38  39
ENDBRANCH  31  33
ENDBRANCH  30  31
ENDBRANCH  29  30
ENDBRANCH  28  29
ENDBRANCH  27  28
ENDBRANCH  26  27
ENDBRANCH   1  26
TORSDOF 23
