REMARK SMILES C[N@@H+]1CCN(C(=O)c2ccc3[nH]c4c(c3c2)CSCC4)C[C@H]1C(=O)OCCOCCOCCOC(=O)c1ccc(-c2c3nc(c(-c4cccc(S(=O)(=O)[O-])c4F)c4ccc([nH]4)c(-c4cccc(S(=O)(=O)[O-])c4F)c4nc(c(-c5cccc(S(=O)(=O)[O-])c5F)c5ccc2[nH]5)C=C4)C=C3)cc1
REMARK SMILES IDX 30 1 29 2 28 3 27 4 26 5 25 6 23 7 24 8 22 9 1 10 2 11 3 12
REMARK SMILES IDX 4 14 21 15 5 16 6 17 7 18 8 19 9 20 16 21 10 22 15 23 11 24
REMARK SMILES IDX 14 25 12 26 13 27 17 28 20 30 18 31 19 32 31 33 32 34 33 35
REMARK SMILES IDX 34 36 35 37 36 38 37 39 38 40 99 41 39 42 98 43 40 44 41 45
REMARK SMILES IDX 42 46 92 47 43 48 97 49 91 50 93 51 44 52 96 53 90 54 89 55
REMARK SMILES IDX 45 57 77 58 57 59 76 60 58 61 61 62 75 63 94 64 59 65 60 66
REMARK SMILES IDX 74 68 95 69 62 70 46 71 47 72 55 73 48 74 50 75 56 76 49 77
REMARK SMILES IDX 51 78 52 79 53 80 54 81 78 82 79 83 87 84 80 85 82 86 88 87
REMARK SMILES IDX 81 88 83 89 84 90 85 91 86 92 63 93 64 94 72 95 65 96 67 97
REMARK SMILES IDX 73 98 66 99 68 100 69 101 70 102 71 103
REMARK H PARENT 2 13 12 29 93 56 61 67
REMARK Flexibility Score: inf
ROOT
ATOM      1  C   UNL     1       3.769  -2.830  -1.074  1.00  0.00     0.188 C 
ENDROOT
BRANCH   1   2
ATOM      2  C   UNL     1       3.068  -4.164  -1.316  1.00  0.00     0.188 C 
BRANCH   2   3
ATOM      3  O   UNL     1       2.610  -4.502  -2.606  1.00  0.00    -0.376 OA
BRANCH   3   4
ATOM      4  C   UNL     1       2.258  -3.462  -3.518  1.00  0.00     0.202 C 
BRANCH   4   5
ATOM      5  C   UNL     1       0.903  -2.726  -3.325  1.00  0.00     0.261 C 
BRANCH   5   6
ATOM      6  O   UNL     1       0.862  -1.312  -2.838  1.00  0.00    -0.459 OA
BRANCH   6   7
ATOM      7  C   UNL     1       0.703  -1.231  -1.495  1.00  0.00     0.366 C 
ATOM      8  O   UNL     1       0.918  -2.287  -0.891  1.00  0.00    -0.245 OA
BRANCH   7   9
ATOM      9  C   UNL     1       0.236   0.058  -0.665  1.00  0.00     0.314 C 
ATOM     10  C   UNL     1       2.198   1.450  -1.204  1.00  0.00     0.333 C 
ATOM     11  N   UNL     1       0.800   1.419  -0.792  1.00  0.00    -0.323 N 
ATOM     12  C   UNL     1       0.526   2.171   0.560  1.00  0.00     0.284 C 
ATOM     13  H   UNL     1       0.333   1.903  -1.559  1.00  0.00     0.348 HD
ATOM     14  C   UNL     1      -0.693   1.717   1.731  1.00  0.00     0.181 C 
ATOM     15  C   UNL     1      -1.166   0.251  -0.020  1.00  0.00     0.197 C 
ATOM     16  N   UNL     1      -1.182   0.306   1.582  1.00  0.00    -0.326 N 
BRANCH  16  17
ATOM     17  C   UNL     1      -1.813  -0.634   2.897  1.00  0.00     0.254 C 
ATOM     18  O   UNL     1      -2.138   0.088   3.861  1.00  0.00    -0.269 OA
BRANCH  17  19
ATOM     19  C   UNL     1      -2.090  -2.523   3.243  1.00  0.00     0.040 A 
ATOM     20  C   UNL     1      -1.504  -3.801   2.865  1.00  0.00     0.016 A 
ATOM     21  C   UNL     1      -3.422  -2.816   3.104  1.00  0.00     0.024 A 
ATOM     22  C   UNL     1      -2.189  -4.998   2.259  1.00  0.00     0.027 A 
ATOM     23  C   UNL     1      -4.261  -3.831   2.325  1.00  0.00     0.004 A 
ATOM     24  C   UNL     1      -3.585  -4.996   2.036  1.00  0.00     0.046 A 
ATOM     25  C   UNL     1      -5.524  -3.932   1.509  1.00  0.00    -0.009 A 
ATOM     26  N   UNL     1      -4.567  -5.920   1.697  1.00  0.00    -0.358 N 
ATOM     27  C   UNL     1      -5.774  -5.287   1.457  1.00  0.00     0.021 A 
ATOM     28  C   UNL     1      -6.505  -2.940   0.890  1.00  0.00     0.107 C 
ATOM     29  H   UNL     1      -4.423  -6.892   1.637  1.00  0.00     0.166 HD
ATOM     30  C   UNL     1      -7.094  -5.957   1.145  1.00  0.00     0.065 C 
ATOM     31  S   UNL     1      -7.789  -3.660  -0.201  1.00  0.00    -0.157 SA
ATOM     32  C   UNL     1      -8.266  -4.973   0.940  1.00  0.00     0.076 C 
ENDBRANCH  17  19
ENDBRANCH  16  17
ENDBRANCH   7   9
ENDBRANCH   6   7
ENDBRANCH   5   6
ENDBRANCH   4   5
ENDBRANCH   3   4
ENDBRANCH   2   3
ENDBRANCH   1   2
BRANCH   1  33
ATOM     33  O   UNL     1       4.540  -2.191  -2.073  1.00  0.00    -0.376 OA
BRANCH  33  34
ATOM     34  C   UNL     1       5.924  -2.508  -2.057  1.00  0.00     0.202 C 
BRANCH  34  35
ATOM     35  C   UNL     1       6.753  -1.950  -0.869  1.00  0.00     0.261 C 
BRANCH  35  36
ATOM     36  O   UNL     1       6.268  -2.400   0.417  1.00  0.00    -0.460 OA
BRANCH  36  37
ATOM     37  C   UNL     1       5.980  -1.393   1.312  1.00  0.00     0.338 C 
ATOM     38  O   UNL     1       6.560  -0.363   1.408  1.00  0.00    -0.246 OA
BRANCH  37  39
ATOM     39  C   UNL     1       4.577  -1.636   1.811  1.00  0.00     0.060 A 
ATOM     40  C   UNL     1       3.978  -2.881   2.080  1.00  0.00     0.016 A 
ATOM     41  C   UNL     1       3.761  -0.539   1.681  1.00  0.00     0.016 A 
ATOM     42  C   UNL     1       2.559  -3.060   1.979  1.00  0.00     0.010 A 
ATOM     43  C   UNL     1       2.389  -0.750   1.584  1.00  0.00     0.010 A 
ATOM     44  C   UNL     1       1.723  -2.006   1.585  1.00  0.00    -0.014 A 
BRANCH  44  45
ATOM     45  C   UNL     1       0.149  -2.022   1.728  1.00  0.00     0.031 A 
ATOM     46  C   UNL     1       0.320  -1.607   3.514  1.00  0.00     0.074 A 
ATOM     47  C   UNL     1      -1.132  -2.150   0.793  1.00  0.00     0.049 A 
ATOM     48  N   UNL     1       0.086  -2.321   4.608  1.00  0.00    -0.248 NA
ATOM     49  C   UNL     1       0.862  -0.273   3.935  1.00  0.00     0.031 C 
ATOM     50  C   UNL     1      -1.810  -2.319  -0.633  1.00  0.00     0.029 A 
ATOM     51  N   UNL     1      -2.496  -2.016   1.205  1.00  0.00    -0.354 N 
ATOM     52  C   UNL     1       0.226  -1.479   5.739  1.00  0.00     0.074 A 
ATOM     53  C   UNL     1       0.876  -0.296   5.269  1.00  0.00     0.031 C 
ATOM     54  C   UNL     1      -3.158  -1.789  -0.671  1.00  0.00     0.029 A 
ATOM     55  C   UNL     1      -3.641  -1.399   0.713  1.00  0.00     0.049 A 
ATOM     56  H   UNL     1      -2.668  -2.481   2.056  1.00  0.00     0.167 HD
ATOM     57  C   UNL     1      -0.337  -1.635   6.980  1.00  0.00     0.034 A 
ATOM     58  C   UNL     1      -4.757  -0.815   1.497  1.00  0.00     0.034 A 
ATOM     59  C   UNL     1      -1.350  -2.647   7.094  1.00  0.00     0.049 A 
ATOM     60  C   UNL     1      -5.420  -1.205   3.205  1.00  0.00     0.074 A 
ATOM     61  C   UNL     1      -1.487  -3.839   7.764  1.00  0.00     0.029 A 
ATOM     62  N   UNL     1      -2.581  -2.311   6.568  1.00  0.00    -0.354 N 
ATOM     63  N   UNL     1      -5.800  -2.403   3.737  1.00  0.00    -0.248 NA
ATOM     64  C   UNL     1      -5.154  -0.293   4.356  1.00  0.00     0.031 C 
ATOM     65  C   UNL     1      -2.861  -4.213   7.656  1.00  0.00     0.029 A 
ATOM     66  C   UNL     1      -3.481  -3.342   6.738  1.00  0.00     0.049 A 
ATOM     67  H   UNL     1      -2.788  -1.453   6.131  1.00  0.00     0.167 HD
ATOM     68  C   UNL     1      -5.221  -2.549   5.067  1.00  0.00     0.074 A 
ATOM     69  C   UNL     1      -5.097  -1.121   5.431  1.00  0.00     0.031 C 
ATOM     70  C   UNL     1      -4.473  -3.638   5.656  1.00  0.00     0.034 A 
BRANCH  57  71
ATOM     71  C   UNL     1      -0.294  -0.722   8.212  1.00  0.00     0.023 A 
ATOM     72  C   UNL     1      -0.289  -1.372   9.480  1.00  0.00     0.012 A 
ATOM     73  C   UNL     1      -0.599   0.652   8.209  1.00  0.00     0.148 A 
ATOM     74  C   UNL     1      -0.664  -0.728  10.663  1.00  0.00     0.002 A 
ATOM     75  C   UNL     1      -0.907   1.311   9.409  1.00  0.00     0.091 A 
ATOM     76  F   UNL     1      -0.694   1.297   7.040  1.00  0.00    -0.205 F 
ATOM     77  C   UNL     1      -0.976   0.618  10.627  1.00  0.00     0.022 A 
BRANCH  75  78
ATOM     78  S   UNL     1      -1.244   3.076   9.479  1.00  0.00     0.127 S 
ATOM     79  O   UNL     1      -2.703   3.108   9.492  1.00  0.00    -0.237 OA
ATOM     80  O   UNL     1      -0.615   3.462  10.745  1.00  0.00    -0.237 OA
ATOM     81  O   UNL     1      -0.588   3.629   8.302  1.00  0.00    -0.744 OA
ENDBRANCH  75  78
ENDBRANCH  57  71
BRANCH  58  82
ATOM     82  C   UNL     1      -5.500   0.439   1.043  1.00  0.00     0.023 A 
ATOM     83  C   UNL     1      -6.785   0.718   1.565  1.00  0.00     0.012 A 
ATOM     84  C   UNL     1      -4.830   1.498   0.406  1.00  0.00     0.148 A 
ATOM     85  C   UNL     1      -7.325   2.011   1.549  1.00  0.00     0.002 A 
ATOM     86  C   UNL     1      -5.357   2.789   0.404  1.00  0.00     0.091 A 
ATOM     87  F   UNL     1      -3.658   1.253  -0.172  1.00  0.00    -0.205 F 
ATOM     88  C   UNL     1      -6.597   3.054   0.993  1.00  0.00     0.022 A 
BRANCH  86  89
ATOM     89  S   UNL     1      -4.458   4.191  -0.278  1.00  0.00     0.127 S 
ATOM     90  O   UNL     1      -5.442   4.757  -1.201  1.00  0.00    -0.237 OA
ATOM     91  O   UNL     1      -4.198   4.997   0.912  1.00  0.00    -0.237 OA
ATOM     92  O   UNL     1      -3.274   3.635  -0.920  1.00  0.00    -0.744 OA
ENDBRANCH  86  89
ENDBRANCH  58  82
BRANCH  70  93
ATOM     93  C   UNL     1      -4.060  -5.162   5.147  1.00  0.00     0.023 A 
ATOM     94  C   UNL     1      -2.633  -5.422   5.060  1.00  0.00     0.012 A 
ATOM     95  C   UNL     1      -4.816  -6.332   4.969  1.00  0.00     0.148 A 
ATOM     96  C   UNL     1      -2.001  -6.627   4.704  1.00  0.00     0.002 A 
ATOM     97  C   UNL     1      -4.177  -7.570   4.595  1.00  0.00     0.091 A 
ATOM     98  F   UNL     1      -6.136  -6.301   5.192  1.00  0.00    -0.205 F 
ATOM     99  C   UNL     1      -2.790  -7.699   4.405  1.00  0.00     0.022 A 
BRANCH  97 100
ATOM    100  S   UNL     1      -5.112  -9.096   4.361  1.00  0.00     0.127 S 
ATOM    101  O   UNL     1      -5.903  -8.798   3.171  1.00  0.00    -0.237 OA
ATOM    102  O   UNL     1      -4.081 -10.115   4.136  1.00  0.00    -0.237 OA
ATOM    103  O   UNL     1      -5.826  -9.251   5.622  1.00  0.00    -0.744 OA
ENDBRANCH  97 100
ENDBRANCH  70  93
ENDBRANCH  44  45
ENDBRANCH  37  39
ENDBRANCH  36  37
ENDBRANCH  35  36
ENDBRANCH  34  35
ENDBRANCH  33  34
ENDBRANCH   1  33
TORSDOF 22
