REMARK SMILES Cc1cc2c(cc1S(=O)(=O)N(C)CC(=O)OCCOCCOCCOC(=O)c1ccc(-c3c4nc(c(-c5cccc(S(=O)(=O)[O-])c5F)c5ccc([nH]5)c(-c5cccc(S(=O)(=O)[O-])c5F)c5nc(c(-c6cccc(S(=O)(=O)[O-])c6F)c6ccc3[nH]6)C=C5)C=C4)cc1)OCC(=O)N2
REMARK SMILES IDX 20 1 19 2 18 3 17 4 16 5 14 6 15 7 13 8 11 9 12 10 8 11 9 12
REMARK SMILES IDX 10 13 7 14 1 15 2 16 3 17 4 18 6 19 5 20 95 21 91 22 93 23
REMARK SMILES IDX 92 25 94 26 21 27 22 28 23 29 24 30 25 31 26 32 27 33 28 34
REMARK SMILES IDX 29 35 90 36 30 37 89 38 31 39 32 40 33 41 83 42 34 43 88 44
REMARK SMILES IDX 82 45 84 46 35 47 87 48 81 49 80 50 36 52 68 53 48 54 67 55
REMARK SMILES IDX 49 56 52 57 66 58 85 59 50 60 51 61 65 63 86 64 53 65 37 66
REMARK SMILES IDX 38 67 46 68 39 69 41 70 47 71 40 72 42 73 43 74 44 75 45 76
REMARK SMILES IDX 69 77 70 78 78 79 71 80 73 81 79 82 72 83 74 84 75 85 76 86
REMARK SMILES IDX 77 87 54 88 55 89 63 90 56 91 58 92 64 93 57 94 59 95 60 96
REMARK SMILES IDX 61 97 62 98
REMARK H PARENT 95 24 84 51 52 62
REMARK Flexibility Score: inf
ROOT
ATOM      1  C   UNL     1      -4.913   0.998   1.791  1.00  0.00     0.188 C 
ENDROOT
BRANCH   1   2
ATOM      2  O   UNL     1      -5.954   1.801   1.235  1.00  0.00    -0.376 OA
BRANCH   2   3
ATOM      3  C   UNL     1      -5.756   2.399  -0.040  1.00  0.00     0.202 C 
BRANCH   3   4
ATOM      4  C   UNL     1      -4.652   3.454  -0.109  1.00  0.00     0.261 C 
BRANCH   4   5
ATOM      5  O   UNL     1      -3.348   2.875   0.094  1.00  0.00    -0.462 OA
BRANCH   5   6
ATOM      6  C   UNL     1      -2.539   3.493   0.992  1.00  0.00     0.321 C 
ATOM      7  O   UNL     1      -2.789   4.582   1.496  1.00  0.00    -0.251 OA
BRANCH   6   8
ATOM      8  C   UNL     1      -1.275   2.725   1.321  1.00  0.00     0.224 C 
BRANCH   8   9
ATOM      9  N   UNL     1      -1.020   1.342   0.757  1.00  0.00    -0.190 NA
ATOM     10  C   UNL     1      -0.682   1.392  -0.674  1.00  0.00     0.125 C 
BRANCH   9  11
ATOM     11  S   UNL     1       0.019   0.459   1.803  1.00  0.00     0.243 S 
ATOM     12  O   UNL     1      -0.777   0.150   2.963  1.00  0.00    -0.207 OA
ATOM     13  O   UNL     1       1.237   1.237   1.959  1.00  0.00    -0.207 OA
BRANCH  11  14
ATOM     14  C   UNL     1       0.443  -1.088   0.988  1.00  0.00     0.089 A 
ATOM     15  C   UNL     1       2.285  -0.056  -0.531  1.00  0.00     0.046 C 
ATOM     16  C   UNL     1       1.513  -1.197   0.071  1.00  0.00    -0.029 A 
ATOM     17  C   UNL     1       1.898  -2.482  -0.369  1.00  0.00     0.035 A 
ATOM     18  C   UNL     1       1.268  -3.629   0.106  1.00  0.00     0.084 A 
ATOM     19  C   UNL     1      -0.200  -2.258   1.444  1.00  0.00     0.070 A 
ATOM     20  C   UNL     1       0.208  -3.522   1.000  1.00  0.00     0.144 A 
ATOM     21  N   UNL     1       1.751  -4.878  -0.279  1.00  0.00    -0.320 N 
ATOM     22  O   UNL     1      -0.422  -4.606   1.544  1.00  0.00    -0.482 OA
ATOM     23  C   UNL     1       1.157  -6.036   0.139  1.00  0.00     0.262 C 
ATOM     24  H   UNL     1       2.539  -4.928  -0.867  1.00  0.00     0.170 HD
ATOM     25  C   UNL     1      -0.148  -5.849   0.912  1.00  0.00     0.329 C 
ATOM     26  O   UNL     1       1.617  -7.132  -0.173  1.00  0.00    -0.271 OA
ENDBRANCH  11  14
ENDBRANCH   9  11
ENDBRANCH   8   9
ENDBRANCH   6   8
ENDBRANCH   5   6
ENDBRANCH   4   5
ENDBRANCH   3   4
ENDBRANCH   2   3
ENDBRANCH   1   2
BRANCH   1  27
ATOM     27  C   UNL     1      -4.090   0.117   0.842  1.00  0.00     0.188 C 
BRANCH  27  28
ATOM     28  O   UNL     1      -4.861  -0.376  -0.246  1.00  0.00    -0.376 OA
BRANCH  28  29
ATOM     29  C   UNL     1      -4.701  -1.762  -0.485  1.00  0.00     0.202 C 
BRANCH  29  30
ATOM     30  C   UNL     1      -5.652  -2.572   0.399  1.00  0.00     0.261 C 
BRANCH  30  31
ATOM     31  O   UNL     1      -5.542  -2.298   1.809  1.00  0.00    -0.460 OA
BRANCH  31  32
ATOM     32  C   UNL     1      -4.461  -2.809   2.442  1.00  0.00     0.338 C 
ATOM     33  O   UNL     1      -3.567  -3.459   1.932  1.00  0.00    -0.246 OA
BRANCH  32  34
ATOM     34  C   UNL     1      -4.466  -2.311   3.835  1.00  0.00     0.060 A 
ATOM     35  C   UNL     1      -5.447  -2.725   4.732  1.00  0.00     0.016 A 
ATOM     36  C   UNL     1      -3.465  -1.430   4.253  1.00  0.00     0.016 A 
ATOM     37  C   UNL     1      -5.412  -2.256   6.051  1.00  0.00     0.010 A 
ATOM     38  C   UNL     1      -3.423  -0.971   5.574  1.00  0.00     0.010 A 
ATOM     39  C   UNL     1      -4.393  -1.386   6.492  1.00  0.00    -0.014 A 
BRANCH  39  40
ATOM     40  C   UNL     1      -4.292  -1.044   7.938  1.00  0.00     0.031 A 
ATOM     41  C   UNL     1      -4.538   0.344   8.461  1.00  0.00     0.074 A 
ATOM     42  C   UNL     1      -3.960  -2.026   8.800  1.00  0.00     0.049 A 
ATOM     43  N   UNL     1      -4.704   0.728   9.703  1.00  0.00    -0.248 NA
ATOM     44  C   UNL     1      -4.586   1.444   7.486  1.00  0.00     0.031 C 
ATOM     45  C   UNL     1      -3.555  -3.378   8.411  1.00  0.00     0.029 A 
ATOM     46  N   UNL     1      -3.925  -2.051  10.172  1.00  0.00    -0.354 N 
ATOM     47  C   UNL     1      -4.871   2.107   9.661  1.00  0.00     0.074 A 
ATOM     48  C   UNL     1      -4.754   2.501   8.274  1.00  0.00     0.031 C 
ATOM     49  C   UNL     1      -3.369  -4.117   9.515  1.00  0.00     0.029 A 
ATOM     50  C   UNL     1      -3.639  -3.293  10.690  1.00  0.00     0.049 A 
ATOM     51  H   UNL     1      -4.088  -1.257  10.731  1.00  0.00     0.167 HD
ATOM     52  C   UNL     1      -5.132   2.958  10.683  1.00  0.00     0.034 A 
ATOM     53  C   UNL     1      -3.635  -3.737  11.962  1.00  0.00     0.034 A 
ATOM     54  C   UNL     1      -5.279   2.550  12.056  1.00  0.00     0.049 A 
ATOM     55  C   UNL     1      -4.024  -2.801  13.069  1.00  0.00     0.074 A 
ATOM     56  C   UNL     1      -5.664   3.317  13.142  1.00  0.00     0.029 A 
ATOM     57  N   UNL     1      -5.038   1.272  12.533  1.00  0.00    -0.354 N 
ATOM     58  N   UNL     1      -4.388  -1.545  12.988  1.00  0.00    -0.248 NA
ATOM     59  C   UNL     1      -4.037  -3.346  14.435  1.00  0.00     0.031 C 
ATOM     60  C   UNL     1      -5.640   2.505  14.280  1.00  0.00     0.029 A 
ATOM     61  C   UNL     1      -5.254   1.230  13.899  1.00  0.00     0.049 A 
ATOM     62  H   UNL     1      -4.755   0.507  11.982  1.00  0.00     0.167 HD
ATOM     63  C   UNL     1      -4.686  -1.150  14.286  1.00  0.00     0.074 A 
ATOM     64  C   UNL     1      -4.478  -2.306  15.135  1.00  0.00     0.031 C 
ATOM     65  C   UNL     1      -5.081   0.067  14.730  1.00  0.00     0.034 A 
BRANCH  52  66
ATOM     66  C   UNL     1      -5.376   4.410  10.367  1.00  0.00     0.023 A 
ATOM     67  C   UNL     1      -6.621   4.783   9.820  1.00  0.00     0.012 A 
ATOM     68  C   UNL     1      -4.455   5.410  10.736  1.00  0.00     0.148 A 
ATOM     69  C   UNL     1      -6.942   6.127   9.635  1.00  0.00     0.002 A 
ATOM     70  C   UNL     1      -4.793   6.750  10.574  1.00  0.00     0.091 A 
ATOM     71  F   UNL     1      -3.278   5.034  11.256  1.00  0.00    -0.205 F 
ATOM     72  C   UNL     1      -6.034   7.109  10.021  1.00  0.00     0.022 A 
BRANCH  70  73
ATOM     73  S   UNL     1      -3.727   8.101  11.091  1.00  0.00     0.127 S 
ATOM     74  O   UNL     1      -3.427   8.747   9.813  1.00  0.00    -0.237 OA
ATOM     75  O   UNL     1      -4.609   8.870  11.969  1.00  0.00    -0.237 OA
ATOM     76  O   UNL     1      -2.585   7.486  11.754  1.00  0.00    -0.744 OA
ENDBRANCH  70  73
ENDBRANCH  52  66
BRANCH  53  77
ATOM     77  C   UNL     1      -3.366  -5.178  12.218  1.00  0.00     0.023 A 
ATOM     78  C   UNL     1      -4.446  -6.041  12.484  1.00  0.00     0.012 A 
ATOM     79  C   UNL     1      -2.069  -5.710  12.087  1.00  0.00     0.148 A 
ATOM     80  C   UNL     1      -4.239  -7.414  12.617  1.00  0.00     0.002 A 
ATOM     81  C   UNL     1      -1.876  -7.083  12.182  1.00  0.00     0.091 A 
ATOM     82  F   UNL     1      -1.062  -4.865  11.831  1.00  0.00    -0.205 F 
ATOM     83  C   UNL     1      -2.958  -7.936  12.455  1.00  0.00     0.022 A 
BRANCH  81  84
ATOM     84  S   UNL     1      -0.286  -7.862  11.882  1.00  0.00     0.127 S 
ATOM     85  O   UNL     1       0.008  -8.452  13.187  1.00  0.00    -0.237 OA
ATOM     86  O   UNL     1      -0.619  -8.825  10.833  1.00  0.00    -0.237 OA
ATOM     87  O   UNL     1       0.609  -6.793  11.464  1.00  0.00    -0.744 OA
ENDBRANCH  81  84
ENDBRANCH  53  77
BRANCH  65  88
ATOM     88  C   UNL     1      -5.314   0.246  16.204  1.00  0.00     0.023 A 
ATOM     89  C   UNL     1      -4.209   0.436  17.055  1.00  0.00     0.012 A 
ATOM     90  C   UNL     1      -6.620   0.378  16.715  1.00  0.00     0.148 A 
ATOM     91  C   UNL     1      -4.401   0.757  18.398  1.00  0.00     0.002 A 
ATOM     92  C   UNL     1      -6.803   0.730  18.047  1.00  0.00     0.091 A 
ATOM     93  F   UNL     1      -7.653   0.187  15.882  1.00  0.00    -0.205 F 
ATOM     94  C   UNL     1      -5.695   0.917  18.890  1.00  0.00     0.022 A 
BRANCH  92  95
ATOM     95  S   UNL     1      -8.425   1.034  18.758  1.00  0.00     0.127 S 
ATOM     96  O   UNL     1      -8.514  -0.028  19.759  1.00  0.00    -0.237 OA
ATOM     97  O   UNL     1      -8.273   2.380  19.307  1.00  0.00    -0.237 OA
ATOM     98  O   UNL     1      -9.376   0.925  17.660  1.00  0.00    -0.744 OA
ENDBRANCH  92  95
ENDBRANCH  65  88
ENDBRANCH  39  40
ENDBRANCH  32  34
ENDBRANCH  31  32
ENDBRANCH  30  31
ENDBRANCH  29  30
ENDBRANCH  28  29
ENDBRANCH  27  28
ENDBRANCH   1  27
TORSDOF 23
