REMARK SMILES CC1(C)[C@H](C(=O)Nc2cccc3[nH]ccc23)[C@H]1C(=O)OCCOCCOCCOC(=O)c1ccc(-c2c3nc(c(-c4cccc(S(=O)(=O)[O-])c4F)c4ccc([nH]4)c(-c4cccc(S(=O)(=O)[O-])c4F)c4nc(c(-c5cccc(S(=O)(=O)[O-])c5F)c5ccc2[nH]5)C=C4)C=C3)cc1
REMARK SMILES IDX 25 1 24 2 23 3 22 4 21 5 20 6 18 7 19 8 17 9 1 10 2 11 3 12
REMARK SMILES IDX 4 13 5 14 6 15 7 16 8 18 9 19 16 20 10 21 12 22 15 23 11 24
REMARK SMILES IDX 13 25 14 26 26 28 27 29 28 30 29 31 30 32 31 33 32 34 33 35
REMARK SMILES IDX 94 36 34 37 93 38 35 39 36 40 37 41 87 42 38 43 92 44 86 45
REMARK SMILES IDX 88 46 39 47 91 48 85 49 84 50 40 52 72 53 52 54 71 55 53 56
REMARK SMILES IDX 56 57 70 58 89 59 54 60 55 61 69 63 90 64 57 65 41 66 42 67
REMARK SMILES IDX 50 68 43 69 45 70 51 71 44 72 46 73 47 74 48 75 49 76 73 77
REMARK SMILES IDX 74 78 82 79 75 80 77 81 83 82 76 83 78 84 79 85 80 86 81 87
REMARK SMILES IDX 58 88 59 89 67 90 60 91 62 92 68 93 61 94 63 95 64 96 65 97
REMARK SMILES IDX 66 98
REMARK H PARENT 7 17 13 27 88 51 56 62
REMARK Flexibility Score: inf
ROOT
ATOM      1  C   UNL     1       0.107  -1.557   3.204  1.00  0.00     0.188 C 
ENDROOT
BRANCH   1   2
ATOM      2  C   UNL     1      -1.204  -1.127   3.891  1.00  0.00     0.188 C 
BRANCH   2   3
ATOM      3  O   UNL     1      -2.064  -2.146   4.400  1.00  0.00    -0.376 OA
BRANCH   3   4
ATOM      4  C   UNL     1      -2.438  -3.224   3.542  1.00  0.00     0.202 C 
BRANCH   4   5
ATOM      5  C   UNL     1      -2.992  -2.857   2.160  1.00  0.00     0.261 C 
BRANCH   5   6
ATOM      6  O   UNL     1      -2.004  -2.171   1.379  1.00  0.00    -0.463 OA
BRANCH   6   7
ATOM      7  C   UNL     1      -2.483  -1.273   0.480  1.00  0.00     0.310 C 
ATOM      8  O   UNL     1      -3.625  -1.191   0.084  1.00  0.00    -0.252 OA
BRANCH   7   9
ATOM      9  C   UNL     1      -1.451  -0.267   0.115  1.00  0.00     0.118 C 
ATOM     10  C   UNL     1       0.347  -2.015  -0.722  1.00  0.00     0.013 C 
ATOM     11  C   UNL     1      -0.074  -0.587  -0.467  1.00  0.00    -0.009 C 
ATOM     12  C   UNL     1       1.085   0.270  -0.015  1.00  0.00     0.013 C 
ATOM     13  C   UNL     1      -1.191  -0.028  -1.351  1.00  0.00     0.100 C 
BRANCH  13  14
ATOM     14  C   UNL     1      -1.217   1.330  -1.975  1.00  0.00     0.228 C 
ATOM     15  O   UNL     1      -0.870   1.446  -3.145  1.00  0.00    -0.274 OA
ATOM     16  N   UNL     1      -1.868   2.326  -1.287  1.00  0.00    -0.325 N 
ATOM     17  H   UNL     1      -2.839   2.412  -1.427  1.00  0.00     0.169 HD
BRANCH  16  18
ATOM     18  C   UNL     1      -1.260   3.236  -0.399  1.00  0.00     0.050 A 
ATOM     19  C   UNL     1       0.133   3.339  -0.292  1.00  0.00     0.027 A 
ATOM     20  C   UNL     1      -2.057   4.069   0.422  1.00  0.00     0.023 A 
ATOM     21  C   UNL     1       0.733   4.125   0.691  1.00  0.00     0.004 A 
ATOM     22  C   UNL     1      -1.427   4.853   1.395  1.00  0.00     0.047 A 
ATOM     23  C   UNL     1      -3.455   4.326   0.540  1.00  0.00     0.030 A 
ATOM     24  C   UNL     1      -0.040   4.875   1.575  1.00  0.00     0.027 A 
ATOM     25  N   UNL     1      -2.408   5.535   2.080  1.00  0.00    -0.361 N 
ATOM     26  C   UNL     1      -3.636   5.246   1.548  1.00  0.00     0.083 A 
ATOM     27  H   UNL     1      -2.250   6.140   2.840  1.00  0.00     0.166 HD
ENDBRANCH  16  18
ENDBRANCH  13  14
ENDBRANCH   7   9
ENDBRANCH   6   7
ENDBRANCH   5   6
ENDBRANCH   4   5
ENDBRANCH   3   4
ENDBRANCH   2   3
ENDBRANCH   1   2
BRANCH   1  28
ATOM     28  O   UNL     1       0.344  -2.952   3.253  1.00  0.00    -0.376 OA
BRANCH  28  29
ATOM     29  C   UNL     1       1.448  -3.387   4.029  1.00  0.00     0.202 C 
BRANCH  29  30
ATOM     30  C   UNL     1       1.423  -3.069   5.532  1.00  0.00     0.261 C 
BRANCH  30  31
ATOM     31  O   UNL     1       1.192  -1.696   5.887  1.00  0.00    -0.460 OA
BRANCH  31  32
ATOM     32  C   UNL     1       2.193  -0.820   5.644  1.00  0.00     0.338 C 
ATOM     33  O   UNL     1       3.277  -1.067   5.147  1.00  0.00    -0.246 OA
BRANCH  32  34
ATOM     34  C   UNL     1       1.670   0.542   5.898  1.00  0.00     0.060 A 
ATOM     35  C   UNL     1       1.669   1.471   4.850  1.00  0.00     0.016 A 
ATOM     36  C   UNL     1       1.184   0.898   7.158  1.00  0.00     0.016 A 
ATOM     37  C   UNL     1       1.215   2.772   5.072  1.00  0.00     0.010 A 
ATOM     38  C   UNL     1       0.744   2.207   7.383  1.00  0.00     0.010 A 
ATOM     39  C   UNL     1       0.790   3.160   6.350  1.00  0.00    -0.014 A 
BRANCH  39  40
ATOM     40  C   UNL     1       0.568   4.598   6.644  1.00  0.00     0.031 A 
ATOM     41  C   UNL     1       1.683   5.380   7.287  1.00  0.00     0.074 A 
ATOM     42  C   UNL     1      -0.594   5.205   6.342  1.00  0.00     0.049 A 
ATOM     43  N   UNL     1       1.721   6.641   7.627  1.00  0.00    -0.248 NA
ATOM     44  C   UNL     1       2.920   4.638   7.585  1.00  0.00     0.031 C 
ATOM     45  C   UNL     1      -1.755   4.559   5.734  1.00  0.00     0.029 A 
ATOM     46  N   UNL     1      -0.994   6.505   6.534  1.00  0.00    -0.354 N 
ATOM     47  C   UNL     1       2.972   6.840   8.200  1.00  0.00     0.074 A 
ATOM     48  C   UNL     1       3.659   5.568   8.171  1.00  0.00     0.031 C 
ATOM     49  C   UNL     1      -2.750   5.458   5.632  1.00  0.00     0.029 A 
ATOM     50  C   UNL     1      -2.300   6.740   6.173  1.00  0.00     0.049 A 
ATOM     51  H   UNL     1      -0.402   7.203   6.896  1.00  0.00     0.167 HD
ATOM     52  C   UNL     1       3.511   7.981   8.691  1.00  0.00     0.034 A 
ATOM     53  C   UNL     1      -3.046   7.859   6.279  1.00  0.00     0.034 A 
ATOM     54  C   UNL     1       2.837   9.250   8.713  1.00  0.00     0.049 A 
ATOM     55  C   UNL     1      -2.428   9.114   6.843  1.00  0.00     0.074 A 
ATOM     56  C   UNL     1       3.316  10.470   9.156  1.00  0.00     0.029 A 
ATOM     57  N   UNL     1       1.537   9.461   8.285  1.00  0.00    -0.354 N 
ATOM     58  N   UNL     1      -1.200   9.316   7.255  1.00  0.00    -0.248 NA
ATOM     59  C   UNL     1      -3.289  10.304   6.923  1.00  0.00     0.031 C 
ATOM     60  C   UNL     1       2.296  11.416   9.013  1.00  0.00     0.029 A 
ATOM     61  C   UNL     1       1.192  10.790   8.458  1.00  0.00     0.049 A 
ATOM     62  H   UNL     1       0.945   8.768   7.912  1.00  0.00     0.167 HD
ATOM     63  C   UNL     1      -1.132  10.660   7.611  1.00  0.00     0.074 A 
ATOM     64  C   UNL     1      -2.436  11.229   7.343  1.00  0.00     0.031 C 
ATOM     65  C   UNL     1      -0.090  11.358   8.127  1.00  0.00     0.034 A 
BRANCH  52  66
ATOM     66  C   UNL     1       4.917   7.912   9.224  1.00  0.00     0.023 A 
ATOM     67  C   UNL     1       5.996   7.810   8.323  1.00  0.00     0.012 A 
ATOM     68  C   UNL     1       5.173   7.996  10.606  1.00  0.00     0.148 A 
ATOM     69  C   UNL     1       7.309   7.766   8.791  1.00  0.00     0.002 A 
ATOM     70  C   UNL     1       6.486   7.991  11.062  1.00  0.00     0.091 A 
ATOM     71  F   UNL     1       4.131   8.064  11.447  1.00  0.00    -0.205 F 
ATOM     72  C   UNL     1       7.553   7.867  10.158  1.00  0.00     0.022 A 
BRANCH  70  73
ATOM     73  S   UNL     1       6.904   8.189  12.798  1.00  0.00     0.127 S 
ATOM     74  O   UNL     1       7.331   6.836  13.153  1.00  0.00    -0.237 OA
ATOM     75  O   UNL     1       7.983   9.175  12.745  1.00  0.00    -0.237 OA
ATOM     76  O   UNL     1       5.689   8.655  13.451  1.00  0.00    -0.744 OA
ENDBRANCH  70  73
ENDBRANCH  52  66
BRANCH  53  77
ATOM     77  C   UNL     1      -4.456   7.862   5.796  1.00  0.00     0.023 A 
ATOM     78  C   UNL     1      -4.797   8.611   4.652  1.00  0.00     0.012 A 
ATOM     79  C   UNL     1      -5.457   7.127   6.459  1.00  0.00     0.148 A 
ATOM     80  C   UNL     1      -6.114   8.647   4.192  1.00  0.00     0.002 A 
ATOM     81  C   UNL     1      -6.756   7.124   5.965  1.00  0.00     0.091 A 
ATOM     82  F   UNL     1      -5.117   6.441   7.559  1.00  0.00    -0.205 F 
ATOM     83  C   UNL     1      -7.090   7.896   4.841  1.00  0.00     0.022 A 
BRANCH  81  84
ATOM     84  S   UNL     1      -8.046   6.089   6.664  1.00  0.00     0.127 S 
ATOM     85  O   UNL     1      -8.880   7.074   7.349  1.00  0.00    -0.237 OA
ATOM     86  O   UNL     1      -8.643   5.501   5.465  1.00  0.00    -0.237 OA
ATOM     87  O   UNL     1      -7.355   5.134   7.520  1.00  0.00    -0.744 OA
ENDBRANCH  81  84
ENDBRANCH  53  77
BRANCH  65  88
ATOM     88  C   UNL     1      -0.289  12.827   8.399  1.00  0.00     0.023 A 
ATOM     89  C   UNL     1      -1.077  13.238   9.492  1.00  0.00     0.012 A 
ATOM     90  C   UNL     1       0.374  13.797   7.622  1.00  0.00     0.148 A 
ATOM     91  C   UNL     1      -1.227  14.593   9.788  1.00  0.00     0.002 A 
ATOM     92  C   UNL     1       0.259  15.143   7.951  1.00  0.00     0.091 A 
ATOM     93  F   UNL     1       1.105  13.388   6.574  1.00  0.00    -0.205 F 
ATOM     94  C   UNL     1      -0.550  15.543   9.026  1.00  0.00     0.022 A 
BRANCH  92  95
ATOM     95  S   UNL     1       1.173  16.423   7.083  1.00  0.00     0.127 S 
ATOM     96  O   UNL     1       0.132  17.019   6.248  1.00  0.00    -0.237 OA
ATOM     97  O   UNL     1       1.638  17.274   8.180  1.00  0.00    -0.237 OA
ATOM     98  O   UNL     1       2.237  15.734   6.366  1.00  0.00    -0.744 OA
ENDBRANCH  92  95
ENDBRANCH  65  88
ENDBRANCH  39  40
ENDBRANCH  32  34
ENDBRANCH  31  32
ENDBRANCH  30  31
ENDBRANCH  29  30
ENDBRANCH  28  29
ENDBRANCH   1  28
TORSDOF 22
