REMARK SMILES O=C(OCCOCCOCCOC(=O)c1ccc2c(c1)[C@@H]1C=CC[C@@H]1[C@H](c1ccncc1)N2)c1ccc(-c2c3nc(c(-c4cccc(S(=O)(=O)[O-])c4F)c4ccc([nH]4)c(-c4cccc(S(=O)(=O)[O-])c4F)c4nc(c(-c5cccc(S(=O)(=O)[O-])c5F)c5ccc2[nH]5)C=C4)C=C3)cc1
REMARK SMILES IDX 7 1 6 2 5 3 4 4 3 5 2 6 1 7 34 8 35 9 96 10 36 11 95 12
REMARK SMILES IDX 37 13 38 14 39 15 89 16 40 17 94 18 88 19 90 20 41 21 93 22
REMARK SMILES IDX 87 23 86 24 42 26 74 27 54 28 73 29 55 30 58 31 72 32 91 33
REMARK SMILES IDX 56 34 57 35 71 37 92 38 59 39 43 40 44 41 52 42 45 43 47 44
REMARK SMILES IDX 53 45 46 46 48 47 49 48 50 49 51 50 75 51 76 52 84 53 77 54
REMARK SMILES IDX 79 55 85 56 78 57 80 58 81 59 82 60 83 61 60 62 61 63 69 64
REMARK SMILES IDX 62 65 64 66 70 67 63 68 65 69 66 70 67 71 68 72 8 73 9 74
REMARK SMILES IDX 10 75 11 76 12 77 13 78 14 79 15 80 16 81 20 82 17 83 19 84
REMARK SMILES IDX 18 85 21 86 33 87 22 88 25 89 26 90 23 92 24 93 27 94 28 95
REMARK SMILES IDX 32 96 29 97 31 98 30 99
REMARK H PARENT 90 25 58 36 33 91
REMARK Flexibility Score: inf
ROOT
ATOM      1  C   UNL     1       2.565   0.733  -1.988  1.00  0.00     0.188 C 
ENDROOT
BRANCH   1   2
ATOM      2  O   UNL     1       3.836   0.846  -1.333  1.00  0.00    -0.376 OA
BRANCH   2   3
ATOM      3  C   UNL     1       4.708  -0.259  -1.591  1.00  0.00     0.202 C 
BRANCH   3   4
ATOM      4  C   UNL     1       4.499  -1.462  -0.660  1.00  0.00     0.261 C 
BRANCH   4   5
ATOM      5  O   UNL     1       3.128  -1.604  -0.254  1.00  0.00    -0.460 OA
BRANCH   5   6
ATOM      6  C   UNL     1       2.524  -1.087   0.847  1.00  0.00     0.338 C 
ATOM      7  O   UNL     1       1.320  -1.291   0.999  1.00  0.00    -0.246 OA
BRANCH   6   8
ATOM      8  C   UNL     1       3.249  -0.336   1.921  1.00  0.00     0.060 A 
ATOM      9  C   UNL     1       4.423   0.397   1.742  1.00  0.00     0.016 A 
ATOM     10  C   UNL     1       2.680  -0.351   3.206  1.00  0.00     0.016 A 
ATOM     11  C   UNL     1       5.107   0.944   2.824  1.00  0.00     0.010 A 
ATOM     12  C   UNL     1       3.320   0.269   4.287  1.00  0.00     0.010 A 
ATOM     13  C   UNL     1       4.575   0.864   4.110  1.00  0.00    -0.014 A 
BRANCH  13  14
ATOM     14  C   UNL     1       5.412   1.273   5.263  1.00  0.00     0.031 A 
ATOM     15  C   UNL     1       5.970   0.202   6.160  1.00  0.00     0.074 A 
ATOM     16  C   UNL     1       5.792   2.555   5.425  1.00  0.00     0.049 A 
ATOM     17  N   UNL     1       6.755   0.322   7.197  1.00  0.00    -0.248 NA
ATOM     18  C   UNL     1       5.636  -1.192   5.819  1.00  0.00     0.031 C 
ATOM     19  C   UNL     1       5.466   3.652   4.514  1.00  0.00     0.029 A 
ATOM     20  N   UNL     1       6.571   3.146   6.389  1.00  0.00    -0.354 N 
ATOM     21  C   UNL     1       7.006  -0.972   7.632  1.00  0.00     0.074 A 
ATOM     22  C   UNL     1       6.268  -1.865   6.768  1.00  0.00     0.031 C 
ATOM     23  C   UNL     1       6.064   4.770   4.955  1.00  0.00     0.029 A 
ATOM     24  C   UNL     1       6.710   4.506   6.228  1.00  0.00     0.049 A 
ATOM     25  H   UNL     1       6.989   2.645   7.126  1.00  0.00     0.167 HD
ATOM     26  C   UNL     1       7.808  -1.384   8.640  1.00  0.00     0.034 A 
ATOM     27  C   UNL     1       7.268   5.431   7.034  1.00  0.00     0.034 A 
ATOM     28  C   UNL     1       8.551  -0.493   9.485  1.00  0.00     0.049 A 
ATOM     29  C   UNL     1       7.968   4.961   8.270  1.00  0.00     0.074 A 
ATOM     30  C   UNL     1       9.397  -0.802  10.535  1.00  0.00     0.029 A 
ATOM     31  N   UNL     1       8.525   0.890   9.383  1.00  0.00    -0.354 N 
ATOM     32  N   UNL     1       8.185   3.733   8.669  1.00  0.00    -0.248 NA
ATOM     33  C   UNL     1       8.552   5.999   9.127  1.00  0.00     0.031 C 
ATOM     34  C   UNL     1       9.860   0.399  11.086  1.00  0.00     0.029 A 
ATOM     35  C   UNL     1       9.322   1.452  10.364  1.00  0.00     0.049 A 
ATOM     36  H   UNL     1       8.015   1.397   8.711  1.00  0.00     0.167 HD
ATOM     37  C   UNL     1       8.980   3.845   9.798  1.00  0.00     0.074 A 
ATOM     38  C   UNL     1       9.187   5.263  10.028  1.00  0.00     0.031 C 
ATOM     39  C   UNL     1       9.515   2.864  10.562  1.00  0.00     0.034 A 
BRANCH  26  40
ATOM     40  C   UNL     1       7.910  -2.865   8.870  1.00  0.00     0.023 A 
ATOM     41  C   UNL     1       8.678  -3.661   7.995  1.00  0.00     0.012 A 
ATOM     42  C   UNL     1       7.237  -3.470   9.948  1.00  0.00     0.148 A 
ATOM     43  C   UNL     1       8.748  -5.042   8.171  1.00  0.00     0.002 A 
ATOM     44  C   UNL     1       7.340  -4.843  10.137  1.00  0.00     0.091 A 
ATOM     45  F   UNL     1       6.485  -2.699  10.745  1.00  0.00    -0.205 F 
ATOM     46  C   UNL     1       8.085  -5.632   9.246  1.00  0.00     0.022 A 
BRANCH  44  47
ATOM     47  S   UNL     1       6.559  -5.683  11.518  1.00  0.00     0.127 S 
ATOM     48  O   UNL     1       5.453  -6.372  10.856  1.00  0.00    -0.237 OA
ATOM     49  O   UNL     1       7.631  -6.561  11.990  1.00  0.00    -0.237 OA
ATOM     50  O   UNL     1       6.176  -4.638  12.457  1.00  0.00    -0.744 OA
ENDBRANCH  44  47
ENDBRANCH  26  40
BRANCH  27  51
ATOM     51  C   UNL     1       7.224   6.887   6.721  1.00  0.00     0.023 A 
ATOM     52  C   UNL     1       8.242   7.458   5.938  1.00  0.00     0.012 A 
ATOM     53  C   UNL     1       6.195   7.711   7.226  1.00  0.00     0.148 A 
ATOM     54  C   UNL     1       8.229   8.824   5.646  1.00  0.00     0.002 A 
ATOM     55  C   UNL     1       6.166   9.067   6.901  1.00  0.00     0.091 A 
ATOM     56  F   UNL     1       5.253   7.146   7.993  1.00  0.00    -0.205 F 
ATOM     57  C   UNL     1       7.189   9.625   6.116  1.00  0.00     0.022 A 
BRANCH  55  58
ATOM     58  S   UNL     1       4.804  10.162   7.339  1.00  0.00     0.127 S 
ATOM     59  O   UNL     1       5.483  11.182   8.136  1.00  0.00    -0.237 OA
ATOM     60  O   UNL     1       4.342  10.620   6.028  1.00  0.00    -0.237 OA
ATOM     61  O   UNL     1       3.845   9.344   8.066  1.00  0.00    -0.744 OA
ENDBRANCH  55  58
ENDBRANCH  27  51
BRANCH  39  62
ATOM     62  C   UNL     1      10.405   3.302  11.685  1.00  0.00     0.023 A 
ATOM     63  C   UNL     1       9.845   3.853  12.853  1.00  0.00     0.012 A 
ATOM     64  C   UNL     1      11.800   3.150  11.580  1.00  0.00     0.148 A 
ATOM     65  C   UNL     1      10.669   4.279  13.892  1.00  0.00     0.002 A 
ATOM     66  C   UNL     1      12.611   3.533  12.638  1.00  0.00     0.091 A 
ATOM     67  F   UNL     1      12.307   2.654  10.442  1.00  0.00    -0.205 F 
ATOM     68  C   UNL     1      12.049   4.109  13.790  1.00  0.00     0.022 A 
BRANCH  66  69
ATOM     69  S   UNL     1      14.385   3.265  12.618  1.00  0.00     0.127 S 
ATOM     70  O   UNL     1      14.888   4.611  12.350  1.00  0.00    -0.237 OA
ATOM     71  O   UNL     1      14.641   2.776  13.974  1.00  0.00    -0.237 OA
ATOM     72  O   UNL     1      14.627   2.282  11.571  1.00  0.00    -0.744 OA
ENDBRANCH  66  69
ENDBRANCH  39  62
ENDBRANCH  13  14
ENDBRANCH   6   8
ENDBRANCH   5   6
ENDBRANCH   4   5
ENDBRANCH   3   4
ENDBRANCH   2   3
ENDBRANCH   1   2
BRANCH   1  73
ATOM     73  C   UNL     1       2.050   2.089  -2.473  1.00  0.00     0.188 C 
BRANCH  73  74
ATOM     74  O   UNL     1       2.795   2.704  -3.524  1.00  0.00    -0.376 OA
BRANCH  74  75
ATOM     75  C   UNL     1       4.163   3.002  -3.262  1.00  0.00     0.202 C 
BRANCH  75  76
ATOM     76  C   UNL     1       4.474   4.143  -2.284  1.00  0.00     0.261 C 
BRANCH  76  77
ATOM     77  O   UNL     1       3.786   4.085  -1.025  1.00  0.00    -0.460 OA
BRANCH  77  78
ATOM     78  C   UNL     1       2.781   4.986  -0.909  1.00  0.00     0.338 C 
ATOM     79  O   UNL     1       2.353   5.730  -1.787  1.00  0.00    -0.246 OA
BRANCH  78  80
ATOM     80  C   UNL     1       2.313   5.089   0.478  1.00  0.00     0.060 A 
ATOM     81  C   UNL     1       1.542   4.115   1.110  1.00  0.00     0.018 A 
ATOM     82  C   UNL     1       2.573   6.295   1.117  1.00  0.00     0.022 A 
ATOM     83  C   UNL     1       0.992   4.387   2.375  1.00  0.00     0.027 A 
ATOM     84  C   UNL     1       2.056   6.549   2.395  1.00  0.00    -0.017 A 
ATOM     85  C   UNL     1       1.203   5.620   3.015  1.00  0.00     0.038 A 
ATOM     86  C   UNL     1       2.440   7.836   3.082  1.00  0.00     0.049 C 
ATOM     87  N   UNL     1       0.650   5.866   4.270  1.00  0.00    -0.378 N 
ATOM     88  C   UNL     1       3.929   8.011   3.151  1.00  0.00    -0.023 C 
ATOM     89  C   UNL     1       2.100   7.833   4.574  1.00  0.00     0.031 C 
ATOM     90  C   UNL     1       0.733   7.215   4.838  1.00  0.00     0.114 C 
ATOM     91  H   UNL     1       0.208   5.141   4.769  1.00  0.00     0.161 HD
ATOM     92  C   UNL     1       4.391   7.633   4.345  1.00  0.00    -0.030 C 
ATOM     93  C   UNL     1       3.295   7.155   5.247  1.00  0.00     0.034 C 
BRANCH  90  94
ATOM     94  C   UNL     1       0.338   7.314   6.306  1.00  0.00    -0.022 A 
ATOM     95  C   UNL     1       0.284   8.585   6.907  1.00  0.00     0.026 A 
ATOM     96  C   UNL     1       0.053   6.216   7.121  1.00  0.00     0.026 A 
ATOM     97  C   UNL     1      -0.056   8.701   8.246  1.00  0.00     0.111 A 
ATOM     98  C   UNL     1      -0.306   6.438   8.447  1.00  0.00     0.111 A 
ATOM     99  N   UNL     1      -0.403   7.656   9.021  1.00  0.00    -0.265 NA
ENDBRANCH  90  94
ENDBRANCH  78  80
ENDBRANCH  77  78
ENDBRANCH  76  77
ENDBRANCH  75  76
ENDBRANCH  74  75
ENDBRANCH  73  74
ENDBRANCH   1  73
TORSDOF 21
