REMARK SMILES O=C(OCCOCCOCCOC(=O)C1CN(c2cnccn2)C1)c1ccc(-c2c3nc(c(-c4cccc(S(=O)(=O)[O-])c4F)c4ccc([nH]4)c(-c4cccc(S(=O)(=O)[O-])c4F)c4nc(c(-c5cccc(S(=O)(=O)[O-])c5F)c5ccc2[nH]5)C=C4)C=C3)cc1
REMARK SMILES IDX 7 1 6 2 5 3 4 4 3 5 2 6 1 7 25 8 26 9 87 10 27 11 86 12
REMARK SMILES IDX 28 13 29 14 30 15 80 16 31 17 85 18 79 19 81 20 32 21 84 22
REMARK SMILES IDX 78 23 77 24 33 26 65 27 45 28 64 29 46 30 49 31 63 32 82 33
REMARK SMILES IDX 47 34 48 35 62 37 83 38 50 39 34 40 35 41 43 42 36 43 38 44
REMARK SMILES IDX 44 45 37 46 39 47 40 48 41 49 42 50 66 51 67 52 75 53 68 54
REMARK SMILES IDX 70 55 76 56 69 57 71 58 72 59 73 60 74 61 51 62 52 63 60 64
REMARK SMILES IDX 53 65 55 66 61 67 54 68 56 69 57 70 58 71 59 72 8 73 9 74
REMARK SMILES IDX 10 75 11 76 12 77 13 78 14 79 15 80 16 81 24 82 17 83 18 84
REMARK SMILES IDX 19 85 23 86 20 87 22 88 21 89
REMARK H PARENT 81 25 49 36
REMARK Flexibility Score: inf
ROOT
ATOM      1  C   UNL     1       2.628   0.410  -1.806  1.00  0.00     0.188 C 
ENDROOT
BRANCH   1   2
ATOM      2  O   UNL     1       4.003   0.658  -1.505  1.00  0.00    -0.376 OA
BRANCH   2   3
ATOM      3  C   UNL     1       4.809  -0.521  -1.377  1.00  0.00     0.202 C 
BRANCH   3   4
ATOM      4  C   UNL     1       4.478  -1.493  -0.224  1.00  0.00     0.261 C 
BRANCH   4   5
ATOM      5  O   UNL     1       3.101  -1.490   0.192  1.00  0.00    -0.460 OA
BRANCH   5   6
ATOM      6  C   UNL     1       2.495  -0.762   1.164  1.00  0.00     0.338 C 
ATOM      7  O   UNL     1       1.322  -1.018   1.431  1.00  0.00    -0.246 OA
BRANCH   6   8
ATOM      8  C   UNL     1       3.162   0.354   1.907  1.00  0.00     0.060 A 
ATOM      9  C   UNL     1       4.355   0.962   1.523  1.00  0.00     0.016 A 
ATOM     10  C   UNL     1       2.522   0.848   3.058  1.00  0.00     0.016 A 
ATOM     11  C   UNL     1       4.969   1.925   2.302  1.00  0.00     0.010 A 
ATOM     12  C   UNL     1       3.112   1.854   3.835  1.00  0.00     0.010 A 
ATOM     13  C   UNL     1       4.374   2.347   3.483  1.00  0.00    -0.014 A 
BRANCH  13  14
ATOM     14  C   UNL     1       5.237   3.093   4.418  1.00  0.00     0.031 A 
ATOM     15  C   UNL     1       5.821   2.327   5.571  1.00  0.00     0.074 A 
ATOM     16  C   UNL     1       5.652   4.337   4.111  1.00  0.00     0.049 A 
ATOM     17  N   UNL     1       6.673   2.721   6.475  1.00  0.00    -0.248 NA
ATOM     18  C   UNL     1       5.416   0.914   5.707  1.00  0.00     0.031 C 
ATOM     19  C   UNL     1       5.251   5.089   2.921  1.00  0.00     0.029 A 
ATOM     20  N   UNL     1       6.534   5.171   4.741  1.00  0.00    -0.354 N 
ATOM     21  C   UNL     1       6.859   1.630   7.314  1.00  0.00     0.074 A 
ATOM     22  C   UNL     1       6.049   0.549   6.809  1.00  0.00     0.031 C 
ATOM     23  C   UNL     1       5.908   6.260   2.891  1.00  0.00     0.029 A 
ATOM     24  C   UNL     1       6.714   6.372   4.093  1.00  0.00     0.049 A 
ATOM     25  H   UNL     1       6.996   4.935   5.577  1.00  0.00     0.167 HD
ATOM     26  C   UNL     1       7.637   1.548   8.416  1.00  0.00     0.034 A 
ATOM     27  C   UNL     1       7.435   7.447   4.457  1.00  0.00     0.034 A 
ATOM     28  C   UNL     1       8.438   2.643   8.885  1.00  0.00     0.049 A 
ATOM     29  C   UNL     1       8.201   7.359   5.739  1.00  0.00     0.074 A 
ATOM     30  C   UNL     1       9.247   2.705  10.002  1.00  0.00     0.029 A 
ATOM     31  N   UNL     1       8.514   3.880   8.258  1.00  0.00    -0.354 N 
ATOM     32  N   UNL     1       8.341   6.334   6.544  1.00  0.00    -0.248 NA
ATOM     33  C   UNL     1       8.929   8.565   6.147  1.00  0.00     0.031 C 
ATOM     34  C   UNL     1       9.773   3.998  10.078  1.00  0.00     0.029 A 
ATOM     35  C   UNL     1       9.340   4.721   8.976  1.00  0.00     0.049 A 
ATOM     36  H   UNL     1       8.046   4.121   7.426  1.00  0.00     0.167 HD
ATOM     37  C   UNL     1       9.207   6.755   7.539  1.00  0.00     0.074 A 
ATOM     38  C   UNL     1       9.562   8.128   7.226  1.00  0.00     0.031 C 
ATOM     39  C   UNL     1       9.675   6.074   8.612  1.00  0.00     0.034 A 
BRANCH  26  40
ATOM     40  C   UNL     1       7.586   0.270   9.207  1.00  0.00     0.023 A 
ATOM     41  C   UNL     1       8.171  -0.913   8.710  1.00  0.00     0.012 A 
ATOM     42  C   UNL     1       6.928   0.245  10.452  1.00  0.00     0.148 A 
ATOM     43  C   UNL     1       8.067  -2.108   9.424  1.00  0.00     0.002 A 
ATOM     44  C   UNL     1       6.870  -0.937  11.179  1.00  0.00     0.091 A 
ATOM     45  F   UNL     1       6.348   1.371  10.889  1.00  0.00    -0.205 F 
ATOM     46  C   UNL     1       7.425  -2.118  10.660  1.00  0.00     0.022 A 
BRANCH  44  47
ATOM     47  S   UNL     1       6.124  -1.032  12.809  1.00  0.00     0.127 S 
ATOM     48  O   UNL     1       4.969  -1.893  12.554  1.00  0.00    -0.237 OA
ATOM     49  O   UNL     1       7.190  -1.658  13.593  1.00  0.00    -0.237 OA
ATOM     50  O   UNL     1       5.808   0.335  13.190  1.00  0.00    -0.744 OA
ENDBRANCH  44  47
ENDBRANCH  26  40
BRANCH  27  51
ATOM     51  C   UNL     1       7.475   8.685   3.635  1.00  0.00     0.023 A 
ATOM     52  C   UNL     1       8.610   8.972   2.855  1.00  0.00     0.012 A 
ATOM     53  C   UNL     1       6.413   9.605   3.663  1.00  0.00     0.148 A 
ATOM     54  C   UNL     1       8.688  10.160   2.125  1.00  0.00     0.002 A 
ATOM     55  C   UNL     1       6.478  10.768   2.899  1.00  0.00     0.091 A 
ATOM     56  F   UNL     1       5.344   9.312   4.416  1.00  0.00    -0.205 F 
ATOM     57  C   UNL     1       7.621  11.055   2.141  1.00  0.00     0.022 A 
BRANCH  55  58
ATOM     58  S   UNL     1       5.104  11.924   2.788  1.00  0.00     0.127 S 
ATOM     59  O   UNL     1       5.760  13.212   3.019  1.00  0.00    -0.237 OA
ATOM     60  O   UNL     1       4.649  11.697   1.417  1.00  0.00    -0.237 OA
ATOM     61  O   UNL     1       4.163  11.512   3.814  1.00  0.00    -0.744 OA
ENDBRANCH  55  58
ENDBRANCH  27  51
BRANCH  39  62
ATOM     62  C   UNL     1      10.662   6.793   9.479  1.00  0.00     0.023 A 
ATOM     63  C   UNL     1      10.242   7.844  10.315  1.00  0.00     0.012 A 
ATOM     64  C   UNL     1      12.008   6.386   9.485  1.00  0.00     0.148 A 
ATOM     65  C   UNL     1      11.164   8.512  11.117  1.00  0.00     0.002 A 
ATOM     66  C   UNL     1      12.907   7.012  10.332  1.00  0.00     0.091 A 
ATOM     67  F   UNL     1      12.383   5.400   8.656  1.00  0.00    -0.205 F 
ATOM     68  C   UNL     1      12.492   8.087  11.136  1.00  0.00     0.022 A 
BRANCH  66  69
ATOM     69  S   UNL     1      14.602   6.452  10.501  1.00  0.00     0.127 S 
ATOM     70  O   UNL     1      15.336   7.513   9.814  1.00  0.00    -0.237 OA
ATOM     71  O   UNL     1      14.775   6.428  11.953  1.00  0.00    -0.237 OA
ATOM     72  O   UNL     1      14.657   5.141   9.866  1.00  0.00    -0.744 OA
ENDBRANCH  66  69
ENDBRANCH  39  62
ENDBRANCH  13  14
ENDBRANCH   6   8
ENDBRANCH   5   6
ENDBRANCH   4   5
ENDBRANCH   3   4
ENDBRANCH   2   3
ENDBRANCH   1   2
BRANCH   1  73
ATOM     73  C   UNL     1       2.054   1.216  -2.973  1.00  0.00     0.188 C 
BRANCH  73  74
ATOM     74  O   UNL     1       2.652   1.063  -4.255  1.00  0.00    -0.376 OA
BRANCH  74  75
ATOM     75  C   UNL     1       4.059   1.250  -4.355  1.00  0.00     0.202 C 
BRANCH  75  76
ATOM     76  C   UNL     1       4.655   2.636  -4.050  1.00  0.00     0.261 C 
BRANCH  76  77
ATOM     77  O   UNL     1       4.170   3.232  -2.838  1.00  0.00    -0.463 OA
BRANCH  77  78
ATOM     78  C   UNL     1       3.372   4.335  -2.982  1.00  0.00     0.312 C 
ATOM     79  O   UNL     1       3.190   4.902  -4.060  1.00  0.00    -0.252 OA
BRANCH  78  80
ATOM     80  C   UNL     1       2.618   4.669  -1.697  1.00  0.00     0.138 C 
ATOM     81  C   UNL     1       3.355   4.992  -0.396  1.00  0.00     0.135 C 
ATOM     82  C   UNL     1       2.031   6.072  -1.550  1.00  0.00     0.135 C 
ATOM     83  N   UNL     1       2.292   5.923  -0.148  1.00  0.00    -0.353 N 
BRANCH  83  84
ATOM     84  C   UNL     1       2.257   6.992   0.756  1.00  0.00     0.147 A 
ATOM     85  C   UNL     1       1.018   7.485   1.186  1.00  0.00     0.157 A 
ATOM     86  N   UNL     1       3.398   7.560   1.173  1.00  0.00    -0.236 NA
ATOM     87  N   UNL     1       0.859   8.538   2.025  1.00  0.00    -0.259 NA
ATOM     88  C   UNL     1       3.247   8.632   1.993  1.00  0.00     0.133 A 
ATOM     89  C   UNL     1       2.019   9.110   2.416  1.00  0.00     0.131 A 
ENDBRANCH  83  84
ENDBRANCH  78  80
ENDBRANCH  77  78
ENDBRANCH  76  77
ENDBRANCH  75  76
ENDBRANCH  74  75
ENDBRANCH  73  74
ENDBRANCH   1  73
TORSDOF 21
