REMARK SMILES N#C/C(=C\c1cccn1-c1cccc(C(=O)OCCOCCOCCOC(=O)c2ccc(-c3c4nc(c(-c5cccc(S(=O)(=O)[O-])c5F)c5ccc([nH]5)c(-c5cccc(S(=O)(=O)[O-])c5F)c5nc(c(-c6cccc(S(=O)(=O)[O-])c6F)c6ccc3[nH]6)C=C5)C=C4)cc2)c1)C(=O)Nc1cccc(Cl)c1
REMARK SMILES IDX 21 1 20 2 19 3 18 4 17 5 15 6 16 7 14 8 10 9 11 10 92 11
REMARK SMILES IDX 12 12 13 13 9 14 5 15 6 16 7 17 8 18 4 19 3 20 2 21 1 22
REMARK SMILES IDX 93 23 94 24 95 25 96 27 97 28 102 29 98 30 100 31 99 32
REMARK SMILES IDX 101 33 22 34 23 35 24 36 25 37 26 38 27 39 28 40 29 41 30 42
REMARK SMILES IDX 91 43 31 44 90 45 32 46 33 47 34 48 84 49 35 50 89 51 83 52
REMARK SMILES IDX 85 53 36 54 88 55 82 56 81 57 37 59 69 60 49 61 68 62 50 63
REMARK SMILES IDX 53 64 67 65 86 66 51 67 52 68 66 70 87 71 54 72 38 73 39 74
REMARK SMILES IDX 47 75 40 76 42 77 48 78 41 79 43 80 44 81 45 82 46 83 70 84
REMARK SMILES IDX 71 85 79 86 72 87 74 88 80 89 73 90 75 91 76 92 77 93 78 94
REMARK SMILES IDX 55 95 56 96 64 97 57 98 59 99 65 100 58 101 60 102 61 103
REMARK SMILES IDX 62 104 63 105
REMARK H PARENT 95 26 85 58 53 69
REMARK Flexibility Score: inf
ROOT
ATOM      1  C   UNL     1       5.925  -7.302   2.025  1.00  0.00     0.188 C 
ENDROOT
BRANCH   1   2
ATOM      2  O   UNL     1       6.107  -7.242   3.435  1.00  0.00    -0.376 OA
BRANCH   2   3
ATOM      3  C   UNL     1       5.567  -6.163   4.184  1.00  0.00     0.202 C 
BRANCH   3   4
ATOM      4  C   UNL     1       5.948  -4.724   3.802  1.00  0.00     0.261 C 
BRANCH   4   5
ATOM      5  O   UNL     1       5.753  -4.418   2.412  1.00  0.00    -0.460 OA
BRANCH   5   6
ATOM      6  C   UNL     1       6.848  -4.108   1.694  1.00  0.00     0.338 C 
ATOM      7  O   UNL     1       7.982  -3.876   2.121  1.00  0.00    -0.246 OA
BRANCH   6   8
ATOM      8  C   UNL     1       6.539  -4.199   0.254  1.00  0.00     0.062 A 
ATOM      9  C   UNL     1       5.106  -3.720  -1.640  1.00  0.00     0.046 A 
ATOM     10  C   UNL     1       5.975  -4.424  -2.481  1.00  0.00     0.026 A 
ATOM     11  C   UNL     1       5.353  -3.673  -0.260  1.00  0.00     0.042 A 
ATOM     12  C   UNL     1       7.139  -4.988  -1.955  1.00  0.00     0.003 A 
ATOM     13  C   UNL     1       7.439  -4.847  -0.599  1.00  0.00     0.016 A 
BRANCH   9  14
ATOM     14  N   UNL     1       4.043  -2.956  -2.205  1.00  0.00    -0.317 N 
ATOM     15  C   UNL     1       3.620  -1.679  -1.806  1.00  0.00     0.047 A 
ATOM     16  C   UNL     1       2.602  -1.299  -2.671  1.00  0.00     0.028 A 
ATOM     17  C   UNL     1       2.404  -2.330  -3.610  1.00  0.00     0.020 A 
ATOM     18  C   UNL     1       3.319  -3.315  -3.326  1.00  0.00     0.092 A 
BRANCH  15  19
ATOM     19  C   UNL     1       4.333  -0.963  -0.786  1.00  0.00     0.052 C 
ATOM     20  C   UNL     1       3.820  -0.056   0.073  1.00  0.00     0.119 C 
BRANCH  20  21
ATOM     21  C   UNL     1       2.300  -0.056   0.073  1.00  0.00     0.105 C 
ATOM     22  N   UNL     1       1.039  -0.056   0.073  1.00  0.00    -0.192 NA
ENDBRANCH  20  21
BRANCH  20  23
ATOM     23  C   UNL     1       4.604   0.714   1.084  1.00  0.00     0.266 C 
ATOM     24  O   UNL     1       4.007   1.296   1.992  1.00  0.00    -0.268 OA
ATOM     25  N   UNL     1       5.985   0.721   1.116  1.00  0.00    -0.321 N 
ATOM     26  H   UNL     1       6.364   1.092   1.945  1.00  0.00     0.170 HD
BRANCH  25  27
ATOM     27  C   UNL     1       6.951   0.296   0.183  1.00  0.00     0.042 A 
ATOM     28  C   UNL     1       7.977  -0.531   0.653  1.00  0.00     0.026 A 
ATOM     29  C   UNL     1       6.857   0.565  -1.188  1.00  0.00     0.046 A 
ATOM     30  C   UNL     1       8.800  -1.211  -0.251  1.00  0.00     0.004 A 
ATOM     31  C   UNL     1       7.677  -0.126  -2.084  1.00  0.00     0.043 A 
ATOM     32  C   UNL     1       8.630  -1.032  -1.623  1.00  0.00     0.020 A 
ATOM     33  Cl  UNL     1       7.436   0.064  -3.778  1.00  0.00    -0.084 Cl
ENDBRANCH  25  27
ENDBRANCH  20  23
ENDBRANCH  15  19
ENDBRANCH   9  14
ENDBRANCH   6   8
ENDBRANCH   5   6
ENDBRANCH   4   5
ENDBRANCH   3   4
ENDBRANCH   2   3
ENDBRANCH   1   2
BRANCH   1  34
ATOM     34  C   UNL     1       4.582  -6.908   1.375  1.00  0.00     0.188 C 
BRANCH  34  35
ATOM     35  O   UNL     1       3.628  -6.339   2.255  1.00  0.00    -0.376 OA
BRANCH  35  36
ATOM     36  C   UNL     1       2.459  -7.111   2.503  1.00  0.00     0.202 C 
BRANCH  36  37
ATOM     37  C   UNL     1       2.675  -8.469   3.182  1.00  0.00     0.261 C 
BRANCH  37  38
ATOM     38  O   UNL     1       3.495  -9.405   2.480  1.00  0.00    -0.460 OA
BRANCH  38  39
ATOM     39  C   UNL     1       3.056  -9.765   1.265  1.00  0.00     0.338 C 
ATOM     40  O   UNL     1       2.192  -9.210   0.581  1.00  0.00    -0.246 OA
BRANCH  39  41
ATOM     41  C   UNL     1       3.731 -10.973   0.831  1.00  0.00     0.060 A 
ATOM     42  C   UNL     1       4.114 -11.080  -0.508  1.00  0.00     0.016 A 
ATOM     43  C   UNL     1       3.725 -12.066   1.703  1.00  0.00     0.016 A 
ATOM     44  C   UNL     1       4.397 -12.333  -1.011  1.00  0.00     0.010 A 
ATOM     45  C   UNL     1       3.959 -13.322   1.186  1.00  0.00     0.010 A 
ATOM     46  C   UNL     1       4.257 -13.450  -0.175  1.00  0.00    -0.014 A 
BRANCH  46  47
ATOM     47  C   UNL     1       4.463 -14.782  -0.761  1.00  0.00     0.031 A 
ATOM     48  C   UNL     1       5.935 -15.197  -0.673  1.00  0.00     0.074 A 
ATOM     49  C   UNL     1       3.354 -15.343  -1.340  1.00  0.00     0.049 A 
ATOM     50  N   UNL     1       6.670 -15.818  -1.546  1.00  0.00    -0.248 NA
ATOM     51  C   UNL     1       6.760 -14.725   0.474  1.00  0.00     0.031 C 
ATOM     52  C   UNL     1       1.986 -14.769  -1.285  1.00  0.00     0.029 A 
ATOM     53  N   UNL     1       3.129 -16.482  -2.086  1.00  0.00    -0.354 N 
ATOM     54  C   UNL     1       7.939 -16.016  -0.953  1.00  0.00     0.074 A 
ATOM     55  C   UNL     1       7.986 -15.176   0.200  1.00  0.00     0.031 C 
ATOM     56  C   UNL     1       1.118 -15.502  -2.019  1.00  0.00     0.029 A 
ATOM     57  C   UNL     1       1.814 -16.635  -2.599  1.00  0.00     0.049 A 
ATOM     58  H   UNL     1       3.835 -17.147  -2.252  1.00  0.00     0.167 HD
ATOM     59  C   UNL     1       8.799 -16.997  -1.360  1.00  0.00     0.034 A 
ATOM     60  C   UNL     1       1.327 -17.581  -3.464  1.00  0.00     0.034 A 
ATOM     61  C   UNL     1       8.175 -17.754  -2.396  1.00  0.00     0.049 A 
ATOM     62  C   UNL     1       2.432 -18.526  -3.670  1.00  0.00     0.074 A 
ATOM     63  C   UNL     1       7.922 -17.503  -3.717  1.00  0.00     0.029 A 
ATOM     64  N   UNL     1       7.398 -18.802  -1.962  1.00  0.00    -0.354 N 
ATOM     65  N   UNL     1       2.830 -19.404  -2.798  1.00  0.00    -0.248 NA
ATOM     66  C   UNL     1       3.236 -18.407  -4.894  1.00  0.00     0.031 C 
ATOM     67  C   UNL     1       6.688 -18.144  -3.940  1.00  0.00     0.029 A 
ATOM     68  C   UNL     1       6.338 -18.910  -2.820  1.00  0.00     0.049 A 
ATOM     69  H   UNL     1       7.573 -19.371  -1.177  1.00  0.00     0.167 HD
ATOM     70  C   UNL     1       4.112 -19.654  -3.219  1.00  0.00     0.074 A 
ATOM     71  C   UNL     1       4.155 -19.329  -4.626  1.00  0.00     0.031 C 
ATOM     72  C   UNL     1       5.138 -19.550  -2.335  1.00  0.00     0.034 A 
BRANCH  59  73
ATOM     73  C   UNL     1      10.067 -17.589  -0.791  1.00  0.00     0.023 A 
ATOM     74  C   UNL     1      10.806 -18.410  -1.692  1.00  0.00     0.012 A 
ATOM     75  C   UNL     1      10.419 -17.650   0.567  1.00  0.00     0.148 A 
ATOM     76  C   UNL     1      11.742 -19.346  -1.261  1.00  0.00     0.002 A 
ATOM     77  C   UNL     1      11.402 -18.553   0.989  1.00  0.00     0.091 A 
ATOM     78  F   UNL     1       9.756 -16.908   1.457  1.00  0.00    -0.205 F 
ATOM     79  C   UNL     1      12.028 -19.428   0.087  1.00  0.00     0.022 A 
BRANCH  77  80
ATOM     80  S   UNL     1      11.934 -18.681   2.700  1.00  0.00     0.127 S 
ATOM     81  O   UNL     1      11.298 -19.925   3.124  1.00  0.00    -0.237 OA
ATOM     82  O   UNL     1      13.391 -18.764   2.557  1.00  0.00    -0.237 OA
ATOM     83  O   UNL     1      11.473 -17.461   3.347  1.00  0.00    -0.744 OA
ENDBRANCH  77  80
ENDBRANCH  59  73
BRANCH  60  84
ATOM     84  C   UNL     1       0.072 -17.811  -4.282  1.00  0.00     0.023 A 
ATOM     85  C   UNL     1      -1.168 -17.213  -4.017  1.00  0.00     0.012 A 
ATOM     86  C   UNL     1       0.113 -18.651  -5.440  1.00  0.00     0.148 A 
ATOM     87  C   UNL     1      -2.261 -17.367  -4.899  1.00  0.00     0.002 A 
ATOM     88  C   UNL     1      -0.920 -18.706  -6.369  1.00  0.00     0.091 A 
ATOM     89  F   UNL     1       1.155 -19.461  -5.640  1.00  0.00    -0.205 F 
ATOM     90  C   UNL     1      -2.126 -18.073  -6.095  1.00  0.00     0.022 A 
BRANCH  88  91
ATOM     91  S   UNL     1      -0.698 -19.470  -7.991  1.00  0.00     0.127 S 
ATOM     92  O   UNL     1      -1.795 -20.434  -8.036  1.00  0.00    -0.237 OA
ATOM     93  O   UNL     1      -0.856 -18.318  -8.879  1.00  0.00    -0.237 OA
ATOM     94  O   UNL     1       0.638 -20.052  -7.995  1.00  0.00    -0.744 OA
ENDBRANCH  88  91
ENDBRANCH  60  84
BRANCH  72  95
ATOM     95  C   UNL     1       4.757 -19.822  -0.883  1.00  0.00     0.023 A 
ATOM     96  C   UNL     1       4.268 -21.110  -0.585  1.00  0.00     0.012 A 
ATOM     97  C   UNL     1       4.742 -18.867   0.162  1.00  0.00     0.148 A 
ATOM     98  C   UNL     1       3.775 -21.434   0.682  1.00  0.00     0.002 A 
ATOM     99  C   UNL     1       4.236 -19.185   1.427  1.00  0.00     0.091 A 
ATOM    100  F   UNL     1       5.219 -17.648  -0.083  1.00  0.00    -0.205 F 
ATOM    101  C   UNL     1       3.756 -20.474   1.687  1.00  0.00     0.022 A 
BRANCH  99 102
ATOM    102  S   UNL     1       4.088 -17.996   2.780  1.00  0.00     0.127 S 
ATOM    103  O   UNL     1       2.691 -18.159   3.193  1.00  0.00    -0.237 OA
ATOM    104  O   UNL     1       5.058 -18.506   3.746  1.00  0.00    -0.237 OA
ATOM    105  O   UNL     1       4.392 -16.685   2.219  1.00  0.00    -0.744 OA
ENDBRANCH  99 102
ENDBRANCH  72  95
ENDBRANCH  46  47
ENDBRANCH  39  41
ENDBRANCH  38  39
ENDBRANCH  37  38
ENDBRANCH  36  37
ENDBRANCH  35  36
ENDBRANCH  34  35
ENDBRANCH   1  34
TORSDOF 25
