REMARK SMILES CC1=NN(c2ccc(Cl)c(C(=O)OCCOCCOCCOC(=O)c3ccc(-c4c5nc(c(-c6cccc(S(=O)(=O)[O-])c6F)c6ccc([nH]6)c(-c6cccc(S(=O)(=O)[O-])c6F)c6nc(c(-c7cccc(S(=O)(=O)[O-])c7F)c7ccc4[nH]7)C=C6)C=C5)cc3)c2)C(=O)/C1=C\c1ccccc1Cl
REMARK SMILES IDX 18 1 17 2 16 3 15 4 14 5 13 6 11 7 12 8 10 9 5 10 6 11 88 12
REMARK SMILES IDX 7 13 8 14 9 15 4 16 1 17 2 18 3 19 91 20 89 21 92 22 90 23
REMARK SMILES IDX 93 24 94 25 98 26 95 27 97 28 99 29 96 30 19 31 20 32 21 33
REMARK SMILES IDX 22 34 23 35 24 36 25 37 26 38 87 39 27 40 86 41 28 42 29 43
REMARK SMILES IDX 30 44 80 45 31 46 85 47 79 48 81 49 32 50 84 51 78 52 77 53
REMARK SMILES IDX 33 55 65 56 45 57 64 58 46 59 49 60 63 61 82 62 47 63 48 64
REMARK SMILES IDX 62 66 83 67 50 68 34 69 35 70 43 71 36 72 38 73 44 74 37 75
REMARK SMILES IDX 39 76 40 77 41 78 42 79 66 80 67 81 75 82 68 83 70 84 76 85
REMARK SMILES IDX 69 86 71 87 72 88 73 89 74 90 51 91 52 92 60 93 53 94 55 95
REMARK SMILES IDX 61 96 54 97 56 98 57 99 58 100 59 101
REMARK H PARENT 81 54 49 65
REMARK Flexibility Score: inf
ROOT
ATOM      1  C   UNL     1      -0.017   7.035   1.193  1.00  0.00     0.188 C 
ENDROOT
BRANCH   1   2
ATOM      2  C   UNL     1      -0.273   6.593   2.652  1.00  0.00     0.188 C 
BRANCH   2   3
ATOM      3  O   UNL     1      -0.051   7.496   3.719  1.00  0.00    -0.376 OA
BRANCH   3   4
ATOM      4  C   UNL     1       1.258   7.979   3.988  1.00  0.00     0.202 C 
BRANCH   4   5
ATOM      5  C   UNL     1       2.482   7.074   3.844  1.00  0.00     0.261 C 
BRANCH   5   6
ATOM      6  O   UNL     1       2.545   6.425   2.570  1.00  0.00    -0.460 OA
BRANCH   6   7
ATOM      7  C   UNL     1       2.818   5.099   2.612  1.00  0.00     0.339 C 
ATOM      8  O   UNL     1       3.086   4.434   3.598  1.00  0.00    -0.246 OA
BRANCH   7   9
ATOM      9  C   UNL     1       2.586   4.495   1.290  1.00  0.00     0.080 A 
ATOM     10  C   UNL     1       1.527   2.714   0.034  1.00  0.00     0.070 A 
ATOM     11  C   UNL     1       2.256   3.098  -1.095  1.00  0.00     0.030 A 
ATOM     12  C   UNL     1       1.669   3.429   1.224  1.00  0.00     0.045 A 
ATOM     13  C   UNL     1       3.108   4.203  -1.048  1.00  0.00     0.023 A 
ATOM     14  C   UNL     1       3.292   4.896   0.150  1.00  0.00     0.055 A 
ATOM     15  Cl  UNL     1       4.446   6.180   0.157  1.00  0.00    -0.083 Cl
BRANCH  10  16
ATOM     16  N   UNL     1       0.793   1.523   0.011  1.00  0.00    -0.196 N 
ATOM     17  C   UNL     1      -2.343  -0.223   0.324  1.00  0.00     0.069 C 
ATOM     18  C   UNL     1      -0.936   0.261   0.199  1.00  0.00     0.071 C 
ATOM     19  N   UNL     1      -0.560   1.514   0.322  1.00  0.00    -0.169 NA
ATOM     20  C   UNL     1       0.206  -0.632  -0.082  1.00  0.00     0.065 C 
ATOM     21  C   UNL     1       1.335   0.286  -0.342  1.00  0.00     0.280 C 
ATOM     22  C   UNL     1       0.254  -1.965   0.058  1.00  0.00     0.025 C 
ATOM     23  O   UNL     1       2.450   0.005  -0.746  1.00  0.00    -0.267 OA
BRANCH  22  24
ATOM     24  C   UNL     1       1.539  -2.685   0.090  1.00  0.00    -0.006 A 
ATOM     25  C   UNL     1       1.932  -3.430  -1.029  1.00  0.00     0.009 A 
ATOM     26  C   UNL     1       2.423  -2.585   1.184  1.00  0.00     0.048 A 
ATOM     27  C   UNL     1       3.194  -4.032  -1.068  1.00  0.00     0.001 A 
ATOM     28  C   UNL     1       3.686  -3.180   1.136  1.00  0.00     0.021 A 
ATOM     29  Cl  UNL     1       2.006  -1.715   2.623  1.00  0.00    -0.084 Cl
ATOM     30  C   UNL     1       4.073  -3.898   0.007  1.00  0.00     0.002 A 
ENDBRANCH  22  24
ENDBRANCH  10  16
ENDBRANCH   7   9
ENDBRANCH   6   7
ENDBRANCH   5   6
ENDBRANCH   4   5
ENDBRANCH   3   4
ENDBRANCH   2   3
ENDBRANCH   1   2
BRANCH   1  31
ATOM     31  O   UNL     1       0.417   8.344   0.881  1.00  0.00    -0.376 OA
BRANCH  31  32
ATOM     32  C   UNL     1      -0.325   9.461   1.341  1.00  0.00     0.202 C 
BRANCH  32  33
ATOM     33  C   UNL     1      -1.848   9.536   1.187  1.00  0.00     0.261 C 
BRANCH  33  34
ATOM     34  O   UNL     1      -2.557   8.360   1.592  1.00  0.00    -0.460 OA
BRANCH  34  35
ATOM     35  C   UNL     1      -3.191   7.704   0.588  1.00  0.00     0.338 C 
ATOM     36  O   UNL     1      -3.225   8.012  -0.592  1.00  0.00    -0.246 OA
BRANCH  35  37
ATOM     37  C   UNL     1      -3.714   6.425   1.095  1.00  0.00     0.060 A 
ATOM     38  C   UNL     1      -3.227   5.238   0.530  1.00  0.00     0.016 A 
ATOM     39  C   UNL     1      -4.713   6.394   2.068  1.00  0.00     0.016 A 
ATOM     40  C   UNL     1      -3.764   4.013   0.915  1.00  0.00     0.010 A 
ATOM     41  C   UNL     1      -5.265   5.165   2.436  1.00  0.00     0.010 A 
ATOM     42  C   UNL     1      -4.817   3.974   1.836  1.00  0.00    -0.014 A 
BRANCH  42  43
ATOM     43  C   UNL     1      -5.575   2.717   2.036  1.00  0.00     0.031 A 
ATOM     44  C   UNL     1      -6.861   2.527   1.279  1.00  0.00     0.074 A 
ATOM     45  C   UNL     1      -5.138   1.768   2.883  1.00  0.00     0.049 A 
ATOM     46  N   UNL     1      -7.718   1.542   1.335  1.00  0.00    -0.248 NA
ATOM     47  C   UNL     1      -7.230   3.593   0.331  1.00  0.00     0.031 C 
ATOM     48  C   UNL     1      -3.904   1.832   3.664  1.00  0.00     0.029 A 
ATOM     49  N   UNL     1      -5.710   0.575   3.250  1.00  0.00    -0.354 N 
ATOM     50  C   UNL     1      -8.739   1.879   0.453  1.00  0.00     0.074 A 
ATOM     51  C   UNL     1      -8.400   3.163  -0.119  1.00  0.00     0.031 C 
ATOM     52  C   UNL     1      -3.833   0.746   4.454  1.00  0.00     0.029 A 
ATOM     53  C   UNL     1      -5.024  -0.076   4.248  1.00  0.00     0.049 A 
ATOM     54  H   UNL     1      -6.531   0.221   2.839  1.00  0.00     0.167 HD
ATOM     55  C   UNL     1      -9.851   1.176   0.135  1.00  0.00     0.034 A 
ATOM     56  C   UNL     1      -5.341  -1.193   4.934  1.00  0.00     0.034 A 
ATOM     57  C   UNL     1     -10.182  -0.105   0.696  1.00  0.00     0.049 A 
ATOM     58  C   UNL     1      -6.608  -1.936   4.590  1.00  0.00     0.074 A 
ATOM     59  C   UNL     1     -11.267  -0.914   0.411  1.00  0.00     0.029 A 
ATOM     60  N   UNL     1      -9.440  -0.757   1.668  1.00  0.00    -0.354 N 
ATOM     61  N   UNL     1      -7.498  -1.670   3.665  1.00  0.00    -0.248 NA
ATOM     62  C   UNL     1      -6.895  -3.155   5.362  1.00  0.00     0.031 C 
ATOM     63  C   UNL     1     -11.191  -2.049   1.226  1.00  0.00     0.029 A 
ATOM     64  C   UNL     1     -10.044  -1.957   1.998  1.00  0.00     0.049 A 
ATOM     65  H   UNL     1      -8.606  -0.416   2.065  1.00  0.00     0.167 HD
ATOM     66  C   UNL     1      -8.424  -2.708   3.715  1.00  0.00     0.074 A 
ATOM     67  C   UNL     1      -7.977  -3.616   4.750  1.00  0.00     0.031 C 
ATOM     68  C   UNL     1      -9.550  -2.886   2.981  1.00  0.00     0.034 A 
BRANCH  55  69
ATOM     69  C   UNL     1     -10.778   1.763  -0.894  1.00  0.00     0.023 A 
ATOM     70  C   UNL     1     -10.398   1.761  -2.252  1.00  0.00     0.012 A 
ATOM     71  C   UNL     1     -12.045   2.259  -0.530  1.00  0.00     0.148 A 
ATOM     72  C   UNL     1     -11.253   2.267  -3.229  1.00  0.00     0.002 A 
ATOM     73  C   UNL     1     -12.909   2.723  -1.515  1.00  0.00     0.091 A 
ATOM     74  F   UNL     1     -12.377   2.273   0.768  1.00  0.00    -0.205 F 
ATOM     75  C   UNL     1     -12.511   2.737  -2.862  1.00  0.00     0.022 A 
BRANCH  73  76
ATOM     76  S   UNL     1     -14.578   3.280  -1.156  1.00  0.00     0.127 S 
ATOM     77  O   UNL     1     -14.471   4.716  -1.411  1.00  0.00    -0.237 OA
ATOM     78  O   UNL     1     -15.367   2.542  -2.143  1.00  0.00    -0.237 OA
ATOM     79  O   UNL     1     -14.837   2.910   0.228  1.00  0.00    -0.744 OA
ENDBRANCH  73  76
ENDBRANCH  55  69
BRANCH  56  80
ATOM     80  C   UNL     1      -4.433  -1.704   6.000  1.00  0.00     0.023 A 
ATOM     81  C   UNL     1      -3.738  -2.912   5.796  1.00  0.00     0.012 A 
ATOM     82  C   UNL     1      -4.266  -1.012   7.215  1.00  0.00     0.148 A 
ATOM     83  C   UNL     1      -2.921  -3.440   6.797  1.00  0.00     0.002 A 
ATOM     84  C   UNL     1      -3.411  -1.517   8.188  1.00  0.00     0.091 A 
ATOM     85  F   UNL     1      -4.953   0.125   7.398  1.00  0.00    -0.205 F 
ATOM     86  C   UNL     1      -2.751  -2.739   7.988  1.00  0.00     0.022 A 
BRANCH  84  87
ATOM     87  S   UNL     1      -3.050  -0.629   9.707  1.00  0.00     0.127 S 
ATOM     88  O   UNL     1      -3.776  -1.422  10.695  1.00  0.00    -0.237 OA
ATOM     89  O   UNL     1      -1.593  -0.736   9.781  1.00  0.00    -0.237 OA
ATOM     90  O   UNL     1      -3.543   0.725   9.493  1.00  0.00    -0.744 OA
ENDBRANCH  84  87
ENDBRANCH  56  80
BRANCH  68  91
ATOM     91  C   UNL     1     -10.356  -4.137   3.219  1.00  0.00     0.023 A 
ATOM     92  C   UNL     1     -11.125  -4.267   4.392  1.00  0.00     0.012 A 
ATOM     93  C   UNL     1     -10.416  -5.147   2.238  1.00  0.00     0.148 A 
ATOM     94  C   UNL     1     -11.918  -5.396   4.598  1.00  0.00     0.002 A 
ATOM     95  C   UNL     1     -11.245  -6.246   2.428  1.00  0.00     0.091 A 
ATOM     96  F   UNL     1      -9.662  -5.014   1.137  1.00  0.00    -0.205 F 
ATOM     97  C   UNL     1     -11.988  -6.378   3.612  1.00  0.00     0.022 A 
BRANCH  95  98
ATOM     98  S   UNL     1     -11.471  -7.508   1.170  1.00  0.00     0.127 S 
ATOM     99  O   UNL     1     -10.727  -8.632   1.738  1.00  0.00    -0.237 OA
ATOM    100  O   UNL     1     -12.924  -7.681   1.159  1.00  0.00    -0.237 OA
ATOM    101  O   UNL     1     -10.920  -6.952  -0.059  1.00  0.00    -0.744 OA
ENDBRANCH  95  98
ENDBRANCH  68  91
ENDBRANCH  42  43
ENDBRANCH  35  37
ENDBRANCH  34  35
ENDBRANCH  33  34
ENDBRANCH  32  33
ENDBRANCH  31  32
ENDBRANCH   1  31
TORSDOF 22
