REMARK SMILES COc1ccc([N+](=O)[O-])cc1C(=O)N[C@@H](Cc1c[nH]c2ccccc12)C(=O)OCCOCCOCCOC(=O)c1ccc(-c2c3nc(c(-c4cccc(S(=O)(=O)[O-])c4F)c4ccc([nH]4)c(-c4cccc(S(=O)(=O)[O-])c4F)c4nc(c(-c5cccc(S(=O)(=O)[O-])c5F)c5ccc2[nH]5)C=C4)C=C3)cc1
REMARK SMILES IDX 32 1 31 2 30 3 29 4 28 5 26 6 27 7 15 8 14 9 12 10 13 11
REMARK SMILES IDX 11 13 3 14 4 15 5 16 10 17 6 18 2 19 1 20 7 21 8 22 9 23
REMARK SMILES IDX 16 24 17 25 18 26 25 27 19 28 20 29 24 30 21 32 23 33 22 34
REMARK SMILES IDX 33 35 34 36 35 37 36 38 37 39 38 40 39 41 40 42 41 43 102 44
REMARK SMILES IDX 42 45 101 46 43 47 44 48 45 49 95 50 46 51 100 52 94 53
REMARK SMILES IDX 96 54 47 55 99 56 93 57 92 58 48 60 80 61 60 62 79 63 61 64
REMARK SMILES IDX 64 65 78 66 97 67 62 68 63 69 77 71 98 72 65 73 49 74 50 75
REMARK SMILES IDX 58 76 51 77 53 78 59 79 52 80 54 81 55 82 56 83 57 84 81 85
REMARK SMILES IDX 82 86 90 87 83 88 85 89 91 90 84 91 86 92 87 93 88 94 89 95
REMARK SMILES IDX 66 96 67 97 75 98 68 99 70 100 76 101 69 102 71 103 72 104
REMARK SMILES IDX 73 105 74 106
REMARK H PARENT 14 12 19 31 96 59 64 70
REMARK Flexibility Score: inf
ROOT
ATOM      1  C   UNL     1      -0.167  -1.270  -2.573  1.00  0.00     0.188 C 
ENDROOT
BRANCH   1   2
ATOM      2  O   UNL     1      -0.405  -0.706  -3.840  1.00  0.00    -0.376 OA
BRANCH   2   3
ATOM      3  C   UNL     1       0.089   0.615  -4.037  1.00  0.00     0.202 C 
BRANCH   3   4
ATOM      4  C   UNL     1       0.251   1.581  -2.841  1.00  0.00     0.261 C 
BRANCH   4   5
ATOM      5  O   UNL     1       1.066   1.083  -1.748  1.00  0.00    -0.462 OA
BRANCH   5   6
ATOM      6  C   UNL     1       0.981   1.804  -0.585  1.00  0.00     0.329 C 
ATOM      7  O   UNL     1       0.316   2.834  -0.493  1.00  0.00    -0.250 OA
BRANCH   6   8
ATOM      8  C   UNL     1       1.861   1.272   0.591  1.00  0.00     0.197 C 
BRANCH   8   9
ATOM      9  N   UNL     1       2.426  -0.086   0.417  1.00  0.00    -0.338 N 
ATOM     10  C   UNL     1       2.697  -1.173   1.203  1.00  0.00     0.256 C 
ATOM     11  O   UNL     1       3.736  -1.770   0.894  1.00  0.00    -0.269 OA
ATOM     12  H   UNL     1       2.674  -0.253  -0.521  1.00  0.00     0.164 HD
BRANCH  10  13
ATOM     13  C   UNL     1       1.830  -1.841   2.229  1.00  0.00     0.088 A 
ATOM     14  C   UNL     1       0.491  -1.575   2.530  1.00  0.00     0.132 A 
ATOM     15  C   UNL     1      -0.253  -2.435   3.370  1.00  0.00     0.054 A 
ATOM     16  C   UNL     1       0.300  -3.613   3.873  1.00  0.00     0.089 A 
ATOM     17  C   UNL     1       2.389  -3.021   2.792  1.00  0.00     0.103 A 
ATOM     18  C   UNL     1       1.629  -3.904   3.581  1.00  0.00     0.270 A 
BRANCH  14  19
ATOM     19  O   UNL     1      -0.173  -0.492   2.026  1.00  0.00    -0.496 OA
ATOM     20  C   UNL     1      -0.998  -0.905   0.939  1.00  0.00     0.278 C 
ENDBRANCH  14  19
BRANCH  18  21
ATOM     21  N   UNL     1       2.215  -5.178   4.027  1.00  0.00     0.062 N 
ATOM     22  O   UNL     1       1.542  -5.884   4.786  1.00  0.00    -0.258 OA
ATOM     23  O   UNL     1       3.345  -5.466   3.610  1.00  0.00    -0.258 OA
ENDBRANCH  18  21
ENDBRANCH  10  13
ENDBRANCH   8   9
BRANCH   8  24
ATOM     24  C   UNL     1       3.003   2.336   0.828  1.00  0.00     0.074 C 
BRANCH  24  25
ATOM     25  C   UNL     1       4.059   2.362  -0.272  1.00  0.00    -0.020 A 
ATOM     26  C   UNL     1       3.849   2.326  -1.638  1.00  0.00     0.087 A 
ATOM     27  C   UNL     1       5.373   1.815  -0.192  1.00  0.00     0.003 A 
ATOM     28  N   UNL     1       4.310   1.085  -1.995  1.00  0.00    -0.361 N 
ATOM     29  C   UNL     1       5.372   0.811  -1.165  1.00  0.00     0.046 A 
ATOM     30  C   UNL     1       6.492   1.937   0.648  1.00  0.00     0.010 A 
ATOM     31  H   UNL     1       3.952   0.505  -2.705  1.00  0.00     0.166 HD
ATOM     32  C   UNL     1       6.310  -0.215  -1.198  1.00  0.00     0.026 A 
ATOM     33  C   UNL     1       7.545   1.026   0.491  1.00  0.00     0.001 A 
ATOM     34  C   UNL     1       7.419  -0.070  -0.365  1.00  0.00     0.002 A 
ENDBRANCH  24  25
ENDBRANCH   8  24
ENDBRANCH   6   8
ENDBRANCH   5   6
ENDBRANCH   4   5
ENDBRANCH   3   4
ENDBRANCH   2   3
ENDBRANCH   1   2
BRANCH   1  35
ATOM     35  C   UNL     1       1.253  -1.754  -2.280  1.00  0.00     0.188 C 
BRANCH  35  36
ATOM     36  O   UNL     1       2.389  -1.249  -2.956  1.00  0.00    -0.376 OA
BRANCH  36  37
ATOM     37  C   UNL     1       2.678  -1.687  -4.278  1.00  0.00     0.202 C 
BRANCH  37  38
ATOM     38  C   UNL     1       2.545  -3.143  -4.781  1.00  0.00     0.261 C 
BRANCH  38  39
ATOM     39  O   UNL     1       1.745  -4.047  -4.020  1.00  0.00    -0.460 OA
BRANCH  39  40
ATOM     40  C   UNL     1       2.424  -4.700  -3.035  1.00  0.00     0.338 C 
ATOM     41  O   UNL     1       3.614  -4.651  -2.823  1.00  0.00    -0.246 OA
BRANCH  40  42
ATOM     42  C   UNL     1       1.432  -5.278  -2.092  1.00  0.00     0.060 A 
ATOM     43  C   UNL     1       1.505  -4.874  -0.752  1.00  0.00     0.016 A 
ATOM     44  C   UNL     1       0.448  -6.177  -2.505  1.00  0.00     0.016 A 
ATOM     45  C   UNL     1       0.639  -5.423   0.189  1.00  0.00     0.010 A 
ATOM     46  C   UNL     1      -0.401  -6.751  -1.548  1.00  0.00     0.010 A 
ATOM     47  C   UNL     1      -0.270  -6.417  -0.187  1.00  0.00    -0.014 A 
BRANCH  47  48
ATOM     48  C   UNL     1      -0.836  -7.292   0.875  1.00  0.00     0.031 A 
ATOM     49  C   UNL     1      -0.178  -8.631   1.104  1.00  0.00     0.074 A 
ATOM     50  C   UNL     1      -1.844  -6.901   1.678  1.00  0.00     0.049 A 
ATOM     51  N   UNL     1      -0.500  -9.587   1.935  1.00  0.00    -0.248 NA
ATOM     52  C   UNL     1       1.004  -8.927   0.277  1.00  0.00     0.031 C 
ATOM     53  C   UNL     1      -2.538  -5.617   1.613  1.00  0.00     0.029 A 
ATOM     54  N   UNL     1      -2.467  -7.568   2.705  1.00  0.00    -0.354 N 
ATOM     55  C   UNL     1       0.415 -10.609   1.707  1.00  0.00     0.074 A 
ATOM     56  C   UNL     1       1.292 -10.165   0.646  1.00  0.00     0.031 C 
ATOM     57  C   UNL     1      -3.510  -5.600   2.543  1.00  0.00     0.029 A 
ATOM     58  C   UNL     1      -3.527  -6.882   3.249  1.00  0.00     0.049 A 
ATOM     59  H   UNL     1      -2.180  -8.455   3.023  1.00  0.00     0.167 HD
ATOM     60  C   UNL     1       0.536 -11.805   2.330  1.00  0.00     0.034 A 
ATOM     61  C   UNL     1      -4.422  -7.258   4.186  1.00  0.00     0.034 A 
ATOM     62  C   UNL     1      -0.309 -12.244   3.406  1.00  0.00     0.049 A 
ATOM     63  C   UNL     1      -4.301  -8.618   4.832  1.00  0.00     0.074 A 
ATOM     64  C   UNL     1      -0.260 -13.437   4.106  1.00  0.00     0.029 A 
ATOM     65  N   UNL     1      -1.355 -11.510   3.941  1.00  0.00    -0.354 N 
ATOM     66  N   UNL     1      -3.401  -9.552   4.640  1.00  0.00    -0.248 NA
ATOM     67  C   UNL     1      -5.304  -8.960   5.854  1.00  0.00     0.031 C 
ATOM     68  C   UNL     1      -1.300 -13.439   5.041  1.00  0.00     0.029 A 
ATOM     69  C   UNL     1      -1.964 -12.226   4.957  1.00  0.00     0.049 A 
ATOM     70  H   UNL     1      -1.625 -10.612   3.642  1.00  0.00     0.167 HD
ATOM     71  C   UNL     1      -3.695 -10.562   5.552  1.00  0.00     0.074 A 
ATOM     72  C   UNL     1      -4.849 -10.120   6.306  1.00  0.00     0.031 C 
ATOM     73  C   UNL     1      -3.072 -11.752   5.746  1.00  0.00     0.034 A 
BRANCH  60  74
ATOM     74  C   UNL     1       1.629 -12.727   1.857  1.00  0.00     0.023 A 
ATOM     75  C   UNL     1       2.978 -12.421   2.127  1.00  0.00     0.012 A 
ATOM     76  C   UNL     1       1.313 -13.916   1.171  1.00  0.00     0.148 A 
ATOM     77  C   UNL     1       3.998 -13.264   1.688  1.00  0.00     0.002 A 
ATOM     78  C   UNL     1       2.332 -14.778   0.783  1.00  0.00     0.091 A 
ATOM     79  F   UNL     1       0.026 -14.177   0.903  1.00  0.00    -0.205 F 
ATOM     80  C   UNL     1       3.675 -14.447   1.027  1.00  0.00     0.022 A 
BRANCH  78  81
ATOM     81  S   UNL     1       2.012 -16.362   0.002  1.00  0.00     0.127 S 
ATOM     82  O   UNL     1       2.523 -16.134  -1.350  1.00  0.00    -0.237 OA
ATOM     83  O   UNL     1       2.820 -17.273   0.813  1.00  0.00    -0.237 OA
ATOM     84  O   UNL     1       0.575 -16.576   0.095  1.00  0.00    -0.744 OA
ENDBRANCH  78  81
ENDBRANCH  60  74
BRANCH  61  85
ATOM     85  C   UNL     1      -5.520  -6.334   4.598  1.00  0.00     0.023 A 
ATOM     86  C   UNL     1      -5.547  -5.819   5.909  1.00  0.00     0.012 A 
ATOM     87  C   UNL     1      -6.555  -5.992   3.706  1.00  0.00     0.148 A 
ATOM     88  C   UNL     1      -6.607  -5.018   6.338  1.00  0.00     0.002 A 
ATOM     89  C   UNL     1      -7.575  -5.144   4.121  1.00  0.00     0.091 A 
ATOM     90  F   UNL     1      -6.521  -6.505   2.469  1.00  0.00    -0.205 F 
ATOM     91  C   UNL     1      -7.616  -4.674   5.443  1.00  0.00     0.022 A 
BRANCH  89  92
ATOM     92  S   UNL     1      -8.844  -4.543   3.002  1.00  0.00     0.127 S 
ATOM     93  O   UNL     1     -10.043  -5.186   3.535  1.00  0.00    -0.237 OA
ATOM     94  O   UNL     1      -8.769  -3.098   3.218  1.00  0.00    -0.237 OA
ATOM     95  O   UNL     1      -8.434  -4.975   1.673  1.00  0.00    -0.744 OA
ENDBRANCH  89  92
ENDBRANCH  61  85
BRANCH  73  96
ATOM     96  C   UNL     1      -3.566 -12.634   6.867  1.00  0.00     0.023 A 
ATOM     97  C   UNL     1      -4.824 -13.264   6.782  1.00  0.00     0.012 A 
ATOM     98  C   UNL     1      -2.753 -12.874   7.995  1.00  0.00     0.148 A 
ATOM     99  C   UNL     1      -5.286 -14.071   7.822  1.00  0.00     0.002 A 
ATOM    100  C   UNL     1      -3.196 -13.724   9.001  1.00  0.00     0.091 A 
ATOM    101  F   UNL     1      -1.564 -12.257   8.070  1.00  0.00    -0.205 F 
ATOM    102  C   UNL     1      -4.470 -14.309   8.925  1.00  0.00     0.022 A 
BRANCH 100 103
ATOM    103  S   UNL     1      -2.170 -14.166  10.407  1.00  0.00     0.127 S 
ATOM    104  O   UNL     1      -2.780 -13.382  11.480  1.00  0.00    -0.237 OA
ATOM    105  O   UNL     1      -2.386 -15.610  10.509  1.00  0.00    -0.237 OA
ATOM    106  O   UNL     1      -0.811 -13.786  10.046  1.00  0.00    -0.744 OA
ENDBRANCH 100 103
ENDBRANCH  73  96
ENDBRANCH  47  48
ENDBRANCH  40  42
ENDBRANCH  39  40
ENDBRANCH  38  39
ENDBRANCH  37  38
ENDBRANCH  36  37
ENDBRANCH  35  36
ENDBRANCH   1  35
TORSDOF 26
