REMARK SMILES CCc1nc(Oc2ccc(C(=O)OCCOCCOCCOC(=O)c3ccc(-c4c5nc(c(-c6cccc(S(=O)(=O)[O-])c6F)c6ccc([nH]6)c(-c6cccc(S(=O)(=O)[O-])c6F)c6nc(c(-c7cccc(S(=O)(=O)[O-])c7F)c7ccc4[nH]7)C=C6)C=C5)cc3)cc2)cc(C(C)C)n1
REMARK SMILES IDX 17 1 16 2 15 3 14 4 13 5 11 6 12 7 10 8 7 9 8 10 89 11 9 12
REMARK SMILES IDX 88 13 6 14 5 15 3 16 4 17 95 18 91 19 90 20 2 21 1 22 92 23
REMARK SMILES IDX 93 24 94 25 18 26 19 27 20 28 21 29 22 30 23 31 24 32 25 33
REMARK SMILES IDX 26 34 87 35 27 36 86 37 28 38 29 39 30 40 80 41 31 42 85 43
REMARK SMILES IDX 79 44 81 45 32 46 84 47 78 48 77 49 33 51 65 52 45 53 64 54
REMARK SMILES IDX 46 55 49 56 63 57 82 58 47 59 48 60 62 62 83 63 50 64 34 65
REMARK SMILES IDX 35 66 43 67 36 68 38 69 44 70 37 71 39 72 40 73 41 74 42 75
REMARK SMILES IDX 66 76 67 77 75 78 68 79 70 80 76 81 69 82 71 83 72 84 73 85
REMARK SMILES IDX 74 86 51 87 52 88 60 89 53 90 55 91 61 92 54 93 56 94 57 95
REMARK SMILES IDX 58 96 59 97
REMARK H PARENT 81 50 49 61
REMARK Flexibility Score: inf
ROOT
ATOM      1  C   UNL     1       5.129  -3.954 -11.278  1.00  0.00     0.188 C 
ENDROOT
BRANCH   1   2
ATOM      2  O   UNL     1       5.254  -5.129 -12.046  1.00  0.00    -0.376 OA
BRANCH   2   3
ATOM      3  C   UNL     1       4.572  -6.320 -11.695  1.00  0.00     0.202 C 
BRANCH   3   4
ATOM      4  C   UNL     1       3.782  -6.558 -10.398  1.00  0.00     0.261 C 
BRANCH   4   5
ATOM      5  O   UNL     1       3.306  -5.402  -9.710  1.00  0.00    -0.460 OA
BRANCH   5   6
ATOM      6  C   UNL     1       3.861  -5.195  -8.494  1.00  0.00     0.338 C 
ATOM      7  O   UNL     1       4.659  -5.923  -7.913  1.00  0.00    -0.246 OA
BRANCH   6   8
ATOM      8  C   UNL     1       3.476  -3.870  -7.972  1.00  0.00     0.060 A 
ATOM      9  C   UNL     1       2.784  -1.524  -6.685  1.00  0.00     0.129 A 
ATOM     10  C   UNL     1       4.118  -1.927  -6.683  1.00  0.00     0.048 A 
ATOM     11  C   UNL     1       1.822  -2.191  -7.455  1.00  0.00     0.048 A 
ATOM     12  C   UNL     1       4.462  -3.114  -7.321  1.00  0.00     0.019 A 
ATOM     13  C   UNL     1       2.165  -3.387  -8.084  1.00  0.00     0.019 A 
BRANCH   9  14
ATOM     14  O   UNL     1       2.394  -0.562  -5.780  1.00  0.00    -0.439 OA
BRANCH  14  15
ATOM     15  C   UNL     1       1.854  -1.038  -4.587  1.00  0.00     0.222 A 
ATOM     16  C   UNL     1       0.944  -0.494  -2.561  1.00  0.00     0.132 A 
ATOM     17  N   UNL     1       1.521  -0.081  -3.704  1.00  0.00    -0.198 NA
ATOM     18  N   UNL     1       0.614  -1.772  -2.280  1.00  0.00    -0.237 NA
ATOM     19  C   UNL     1       0.964  -2.707  -3.179  1.00  0.00     0.050 A 
ATOM     20  C   UNL     1       1.632  -2.380  -4.335  1.00  0.00     0.093 A 
BRANCH  16  21
ATOM     21  C   UNL     1       0.599   0.548  -1.532  1.00  0.00     0.074 C 
ATOM     22  C   UNL     1       1.117   0.180  -0.148  1.00  0.00     0.012 C 
ENDBRANCH  16  21
BRANCH  19  23
ATOM     23  C   UNL     1       0.565  -4.147  -2.932  1.00  0.00     0.032 C 
ATOM     24  C   UNL     1       1.279  -4.716  -1.711  1.00  0.00     0.014 C 
ATOM     25  C   UNL     1      -0.954  -4.266  -2.803  1.00  0.00     0.014 C 
ENDBRANCH  19  23
ENDBRANCH  14  15
ENDBRANCH   9  14
ENDBRANCH   6   8
ENDBRANCH   5   6
ENDBRANCH   4   5
ENDBRANCH   3   4
ENDBRANCH   2   3
ENDBRANCH   1   2
BRANCH   1  26
ATOM     26  C   UNL     1       3.854  -3.105 -11.466  1.00  0.00     0.188 C 
BRANCH  26  27
ATOM     27  O   UNL     1       2.785  -3.568 -12.269  1.00  0.00    -0.376 OA
BRANCH  27  28
ATOM     28  C   UNL     1       3.030  -3.927 -13.619  1.00  0.00     0.202 C 
BRANCH  28  29
ATOM     29  C   UNL     1       3.943  -3.111 -14.551  1.00  0.00     0.261 C 
BRANCH  29  30
ATOM     30  O   UNL     1       5.147  -2.593 -13.975  1.00  0.00    -0.460 OA
BRANCH  30  31
ATOM     31  C   UNL     1       5.174  -1.249 -13.810  1.00  0.00     0.338 C 
ATOM     32  O   UNL     1       4.287  -0.452 -14.089  1.00  0.00    -0.246 OA
BRANCH  31  33
ATOM     33  C   UNL     1       6.382  -0.869 -13.059  1.00  0.00     0.060 A 
ATOM     34  C   UNL     1       6.228  -0.285 -11.794  1.00  0.00     0.016 A 
ATOM     35  C   UNL     1       7.650  -1.029 -13.619  1.00  0.00     0.016 A 
ATOM     36  C   UNL     1       7.344   0.167 -11.093  1.00  0.00     0.010 A 
ATOM     37  C   UNL     1       8.766  -0.552 -12.925  1.00  0.00     0.010 A 
ATOM     38  C   UNL     1       8.614   0.076 -11.675  1.00  0.00    -0.014 A 
BRANCH  38  39
ATOM     39  C   UNL     1       9.754   0.804 -11.068  1.00  0.00     0.031 A 
ATOM     40  C   UNL     1      10.123   2.151 -11.630  1.00  0.00     0.074 A 
ATOM     41  C   UNL     1      10.448   0.282 -10.041  1.00  0.00     0.049 A 
ATOM     42  N   UNL     1      11.117   2.937 -11.311  1.00  0.00    -0.248 NA
ATOM     43  C   UNL     1       9.254   2.681 -12.695  1.00  0.00     0.031 C 
ATOM     44  C   UNL     1      10.180  -1.006  -9.405  1.00  0.00     0.029 A 
ATOM     45  N   UNL     1      11.547   0.766  -9.375  1.00  0.00    -0.354 N 
ATOM     46  C   UNL     1      11.006   4.044 -12.145  1.00  0.00     0.074 A 
ATOM     47  C   UNL     1       9.859   3.820 -12.998  1.00  0.00     0.031 C 
ATOM     48  C   UNL     1      11.117  -1.231  -8.467  1.00  0.00     0.029 A 
ATOM     49  C   UNL     1      12.062  -0.116  -8.454  1.00  0.00     0.049 A 
ATOM     50  H   UNL     1      11.930   1.657  -9.541  1.00  0.00     0.167 HD
ATOM     51  C   UNL     1      11.775   5.157 -12.185  1.00  0.00     0.034 A 
ATOM     52  C   UNL     1      13.185  -0.041  -7.712  1.00  0.00     0.034 A 
ATOM     53  C   UNL     1      12.911   5.382 -11.333  1.00  0.00     0.049 A 
ATOM     54  C   UNL     1      14.049   1.194  -7.804  1.00  0.00     0.074 A 
ATOM     55  C   UNL     1      13.752   6.479 -11.295  1.00  0.00     0.029 A 
ATOM     56  N   UNL     1      13.366   4.494 -10.372  1.00  0.00    -0.354 N 
ATOM     57  N   UNL     1      13.877   2.272  -8.530  1.00  0.00    -0.248 NA
ATOM     58  C   UNL     1      15.243   1.237  -6.946  1.00  0.00     0.031 C 
ATOM     59  C   UNL     1      14.727   6.248 -10.319  1.00  0.00     0.029 A 
ATOM     60  C   UNL     1      14.473   5.019  -9.731  1.00  0.00     0.049 A 
ATOM     61  H   UNL     1      12.961   3.618 -10.175  1.00  0.00     0.167 HD
ATOM     62  C   UNL     1      14.910   3.137  -8.183  1.00  0.00     0.074 A 
ATOM     63  C   UNL     1      15.693   2.465  -7.168  1.00  0.00     0.031 C 
ATOM     64  C   UNL     1      15.197   4.369  -8.670  1.00  0.00     0.034 A 
BRANCH  51  65
ATOM     65  C   UNL     1      11.390   6.239 -13.157  1.00  0.00     0.023 A 
ATOM     66  C   UNL     1      10.257   7.035 -12.891  1.00  0.00     0.012 A 
ATOM     67  C   UNL     1      12.181   6.515 -14.290  1.00  0.00     0.148 A 
ATOM     68  C   UNL     1       9.902   8.074 -13.750  1.00  0.00     0.002 A 
ATOM     69  C   UNL     1      11.845   7.580 -15.117  1.00  0.00     0.091 A 
ATOM     70  F   UNL     1      13.242   5.734 -14.534  1.00  0.00    -0.205 F 
ATOM     71  C   UNL     1      10.702   8.354 -14.854  1.00  0.00     0.022 A 
BRANCH  69  72
ATOM     72  S   UNL     1      12.848   8.072 -16.523  1.00  0.00     0.127 S 
ATOM     73  O   UNL     1      11.957   7.769 -17.642  1.00  0.00    -0.237 OA
ATOM     74  O   UNL     1      13.048   9.499 -16.272  1.00  0.00    -0.237 OA
ATOM     75  O   UNL     1      14.059   7.265 -16.459  1.00  0.00    -0.744 OA
ENDBRANCH  69  72
ENDBRANCH  51  65
BRANCH  52  76
ATOM     76  C   UNL     1      13.565  -1.159  -6.800  1.00  0.00     0.023 A 
ATOM     77  C   UNL     1      13.560  -0.956  -5.405  1.00  0.00     0.012 A 
ATOM     78  C   UNL     1      13.962  -2.411  -7.308  1.00  0.00     0.148 A 
ATOM     79  C   UNL     1      13.988  -1.963  -4.538  1.00  0.00     0.002 A 
ATOM     80  C   UNL     1      14.332  -3.428  -6.436  1.00  0.00     0.091 A 
ATOM     81  F   UNL     1      13.981  -2.580  -8.638  1.00  0.00    -0.205 F 
ATOM     82  C   UNL     1      14.367  -3.200  -5.052  1.00  0.00     0.022 A 
BRANCH  80  83
ATOM     83  S   UNL     1      14.713  -5.087  -7.009  1.00  0.00     0.127 S 
ATOM     84  O   UNL     1      16.168  -5.121  -6.880  1.00  0.00    -0.237 OA
ATOM     85  O   UNL     1      13.990  -5.916  -6.044  1.00  0.00    -0.237 OA
ATOM     86  O   UNL     1      14.191  -5.158  -8.367  1.00  0.00    -0.744 OA
ENDBRANCH  80  83
ENDBRANCH  52  76
BRANCH  64  87
ATOM     87  C   UNL     1      16.367   5.109  -8.073  1.00  0.00     0.023 A 
ATOM     88  C   UNL     1      17.683   4.698  -8.360  1.00  0.00     0.012 A 
ATOM     89  C   UNL     1      16.158   6.261  -7.289  1.00  0.00     0.148 A 
ATOM     90  C   UNL     1      18.773   5.401  -7.847  1.00  0.00     0.002 A 
ATOM     91  C   UNL     1      17.248   6.986  -6.823  1.00  0.00     0.091 A 
ATOM     92  F   UNL     1      14.898   6.627  -7.013  1.00  0.00    -0.205 F 
ATOM     93  C   UNL     1      18.556   6.550  -7.090  1.00  0.00     0.022 A 
BRANCH  91  94
ATOM     94  S   UNL     1      17.066   8.531  -5.924  1.00  0.00     0.127 S 
ATOM     95  O   UNL     1      17.443   8.133  -4.569  1.00  0.00    -0.237 OA
ATOM     96  O   UNL     1      18.033   9.398  -6.597  1.00  0.00    -0.237 OA
ATOM     97  O   UNL     1      15.675   8.932  -6.094  1.00  0.00    -0.744 OA
ENDBRANCH  91  94
ENDBRANCH  64  87
ENDBRANCH  38  39
ENDBRANCH  31  33
ENDBRANCH  30  31
ENDBRANCH  29  30
ENDBRANCH  28  29
ENDBRANCH  27  28
ENDBRANCH  26  27
ENDBRANCH   1  26
TORSDOF 24
