REMARK SMILES O=C(CCc1cn(-c2ccc(Br)cc2)nc1-c1ccccc1)OCCOCCOCCOC(=O)c1ccc(-c2c3nc(c(-c4cccc(S(=O)(=O)[O-])c4F)c4ccc([nH]4)c(-c4cccc(S(=O)(=O)[O-])c4F)c4nc(c(-c5cccc(S(=O)(=O)[O-])c5F)c5ccc2[nH]5)C=C4)C=C3)cc1
REMARK SMILES IDX 27 1 26 2 25 3 24 4 23 5 2 6 1 7 3 8 4 9 5 10 6 11 16 12
REMARK SMILES IDX 7 13 15 14 17 15 18 16 22 17 19 18 21 19 20 20 8 21 9 22
REMARK SMILES IDX 14 23 10 24 13 25 11 26 12 27 28 28 29 29 30 30 31 31 32 32
REMARK SMILES IDX 33 33 34 34 35 35 36 36 97 37 37 38 96 39 38 40 39 41 40 42
REMARK SMILES IDX 90 43 41 44 95 45 89 46 91 47 42 48 94 49 88 50 87 51 43 53
REMARK SMILES IDX 75 54 55 55 74 56 56 57 59 58 73 59 92 60 57 61 58 62 72 64
REMARK SMILES IDX 93 65 60 66 44 67 45 68 53 69 46 70 48 71 54 72 47 73 49 74
REMARK SMILES IDX 50 75 51 76 52 77 76 78 77 79 85 80 78 81 80 82 86 83 79 84
REMARK SMILES IDX 81 85 82 86 83 87 84 88 61 89 62 90 70 91 63 92 65 93 71 94
REMARK SMILES IDX 64 95 66 96 67 97 68 98 69 99
REMARK H PARENT 91 52 59 63
REMARK Flexibility Score: inf
ROOT
ATOM      1  C   UNL     1       2.558  -1.884   0.543  1.00  0.00     0.188 C 
ENDROOT
BRANCH   1   2
ATOM      2  O   UNL     1       3.760  -1.146   0.738  1.00  0.00    -0.376 OA
BRANCH   2   3
ATOM      3  C   UNL     1       3.767  -0.167   1.760  1.00  0.00     0.202 C 
BRANCH   3   4
ATOM      4  C   UNL     1       3.124   1.158   1.393  1.00  0.00     0.261 C 
BRANCH   4   5
ATOM      5  O   UNL     1       1.997   1.048   0.524  1.00  0.00    -0.463 OA
BRANCH   5   6
ATOM      6  C   UNL     1       2.130   1.507  -0.746  1.00  0.00     0.306 C 
ATOM      7  O   UNL     1       1.352   2.351  -1.185  1.00  0.00    -0.252 OA
BRANCH   6   8
ATOM      8  C   UNL     1       3.141   0.817  -1.643  1.00  0.00     0.127 C 
BRANCH   8   9
ATOM      9  C   UNL     1       4.367   1.636  -2.014  1.00  0.00     0.051 C 
BRANCH   9  10
ATOM     10  C   UNL     1       5.472   1.678  -1.003  1.00  0.00    -0.001 A 
ATOM     11  C   UNL     1       5.767   2.793  -0.241  1.00  0.00     0.119 A 
ATOM     12  C   UNL     1       6.422   0.692  -0.557  1.00  0.00     0.096 A 
ATOM     13  N   UNL     1       6.756   2.442   0.636  1.00  0.00    -0.240 N 
ATOM     14  N   UNL     1       7.252   1.227   0.361  1.00  0.00    -0.168 NA
BRANCH  12  15
ATOM     15  C   UNL     1       6.575  -0.730  -0.902  1.00  0.00     0.002 A 
ATOM     16  C   UNL     1       6.963  -1.641   0.101  1.00  0.00     0.010 A 
ATOM     17  C   UNL     1       6.365  -1.219  -2.195  1.00  0.00     0.010 A 
ATOM     18  C   UNL     1       7.140  -2.997  -0.179  1.00  0.00     0.001 A 
ATOM     19  C   UNL     1       6.545  -2.579  -2.477  1.00  0.00     0.001 A 
ATOM     20  C   UNL     1       6.944  -3.462  -1.475  1.00  0.00     0.000 A 
ENDBRANCH  12  15
BRANCH  13  21
ATOM     21  C   UNL     1       7.188   3.179   1.766  1.00  0.00     0.065 A 
ATOM     22  C   UNL     1       6.300   4.053   2.411  1.00  0.00     0.029 A 
ATOM     23  C   UNL     1       8.490   3.015   2.253  1.00  0.00     0.029 A 
ATOM     24  C   UNL     1       6.722   4.775   3.528  1.00  0.00     0.018 A 
ATOM     25  C   UNL     1       8.922   3.775   3.344  1.00  0.00     0.018 A 
ATOM     26  C   UNL     1       8.036   4.649   3.975  1.00  0.00     0.018 A 
ATOM     27  Br  UNL     1       8.620   5.680   5.449  1.00  0.00    -0.051 Br
ENDBRANCH  13  21
ENDBRANCH   9  10
ENDBRANCH   8   9
ENDBRANCH   6   8
ENDBRANCH   5   6
ENDBRANCH   4   5
ENDBRANCH   3   4
ENDBRANCH   2   3
ENDBRANCH   1   2
BRANCH   1  28
ATOM     28  C   UNL     1       1.835  -2.417   1.787  1.00  0.00     0.188 C 
BRANCH  28  29
ATOM     29  O   UNL     1       2.566  -2.710   2.974  1.00  0.00    -0.376 OA
BRANCH  29  30
ATOM     30  C   UNL     1       3.860  -3.295   2.890  1.00  0.00     0.202 C 
BRANCH  30  31
ATOM     31  C   UNL     1       3.898  -4.715   2.380  1.00  0.00     0.261 C 
BRANCH  31  32
ATOM     32  O   UNL     1       3.814  -4.717   0.963  1.00  0.00    -0.460 OA
BRANCH  32  33
ATOM     33  C   UNL     1       2.708  -5.293   0.455  1.00  0.00     0.338 C 
ATOM     34  O   UNL     1       1.631  -5.442   1.001  1.00  0.00    -0.246 OA
BRANCH  33  35
ATOM     35  C   UNL     1       3.079  -5.938  -0.806  1.00  0.00     0.060 A 
ATOM     36  C   UNL     1       2.067  -6.639  -1.454  1.00  0.00     0.016 A 
ATOM     37  C   UNL     1       4.437  -6.122  -1.117  1.00  0.00     0.016 A 
ATOM     38  C   UNL     1       2.436  -7.693  -2.253  1.00  0.00     0.010 A 
ATOM     39  C   UNL     1       4.805  -7.167  -1.928  1.00  0.00     0.010 A 
ATOM     40  C   UNL     1       3.799  -7.993  -2.405  1.00  0.00    -0.014 A 
BRANCH  40  41
ATOM     41  C   UNL     1       4.128  -9.175  -3.163  1.00  0.00     0.031 A 
ATOM     42  C   UNL     1       3.780  -9.030  -4.584  1.00  0.00     0.074 A 
ATOM     43  C   UNL     1       4.673 -10.281  -2.628  1.00  0.00     0.049 A 
ATOM     44  N   UNL     1       2.719  -9.485  -5.158  1.00  0.00    -0.248 NA
ATOM     45  C   UNL     1       4.555  -8.081  -5.391  1.00  0.00     0.031 C 
ATOM     46  C   UNL     1       5.296 -10.447  -1.315  1.00  0.00     0.029 A 
ATOM     47  N   UNL     1       4.872 -11.486  -3.224  1.00  0.00    -0.354 N 
ATOM     48  C   UNL     1       2.838  -9.099  -6.484  1.00  0.00     0.074 A 
ATOM     49  C   UNL     1       3.828  -8.054  -6.509  1.00  0.00     0.031 C 
ATOM     50  C   UNL     1       6.010 -11.598  -1.311  1.00  0.00     0.029 A 
ATOM     51  C   UNL     1       5.772 -12.306  -2.558  1.00  0.00     0.049 A 
ATOM     52  H   UNL     1       4.417 -11.754  -4.055  1.00  0.00     0.167 HD
ATOM     53  C   UNL     1       2.335  -9.887  -7.470  1.00  0.00     0.034 A 
ATOM     54  C   UNL     1       6.324 -13.442  -3.049  1.00  0.00     0.034 A 
ATOM     55  C   UNL     1       1.408 -10.859  -6.937  1.00  0.00     0.049 A 
ATOM     56  C   UNL     1       5.445 -13.923  -4.141  1.00  0.00     0.074 A 
ATOM     57  C   UNL     1       0.234 -10.801  -6.211  1.00  0.00     0.029 A 
ATOM     58  N   UNL     1       1.878 -12.143  -6.806  1.00  0.00    -0.354 N 
ATOM     59  N   UNL     1       4.252 -14.409  -3.944  1.00  0.00    -0.248 NA
ATOM     60  C   UNL     1       5.728 -13.492  -5.501  1.00  0.00     0.031 C 
ATOM     61  C   UNL     1       0.281 -11.925  -5.336  1.00  0.00     0.029 A 
ATOM     62  C   UNL     1       1.446 -12.644  -5.610  1.00  0.00     0.049 A 
ATOM     63  H   UNL     1       2.434 -12.622  -7.463  1.00  0.00     0.167 HD
ATOM     64  C   UNL     1       3.502 -13.912  -5.001  1.00  0.00     0.074 A 
ATOM     65  C   UNL     1       4.484 -13.472  -5.988  1.00  0.00     0.031 C 
ATOM     66  C   UNL     1       2.175 -13.633  -4.845  1.00  0.00     0.034 A 
BRANCH  53  67
ATOM     67  C   UNL     1       2.988 -10.088  -8.820  1.00  0.00     0.023 A 
ATOM     68  C   UNL     1       2.297 -10.908  -9.740  1.00  0.00     0.012 A 
ATOM     69  C   UNL     1       4.333  -9.777  -9.128  1.00  0.00     0.148 A 
ATOM     70  C   UNL     1       2.935 -11.459 -10.855  1.00  0.00     0.002 A 
ATOM     71  C   UNL     1       4.939 -10.260 -10.280  1.00  0.00     0.091 A 
ATOM     72  F   UNL     1       5.095  -9.120  -8.254  1.00  0.00    -0.205 F 
ATOM     73  C   UNL     1       4.257 -11.133 -11.128  1.00  0.00     0.022 A 
BRANCH  71  74
ATOM     74  S   UNL     1       6.632  -9.827 -10.705  1.00  0.00     0.127 S 
ATOM     75  O   UNL     1       7.318 -11.100 -10.505  1.00  0.00    -0.237 OA
ATOM     76  O   UNL     1       6.487  -9.410 -12.100  1.00  0.00    -0.237 OA
ATOM     77  O   UNL     1       7.009  -8.751  -9.797  1.00  0.00    -0.744 OA
ENDBRANCH  71  74
ENDBRANCH  53  67
BRANCH  54  78
ATOM     78  C   UNL     1       7.661 -14.034  -2.822  1.00  0.00     0.023 A 
ATOM     79  C   UNL     1       7.886 -15.382  -3.170  1.00  0.00     0.012 A 
ATOM     80  C   UNL     1       8.782 -13.218  -2.559  1.00  0.00     0.148 A 
ATOM     81  C   UNL     1       9.184 -15.887  -3.303  1.00  0.00     0.002 A 
ATOM     82  C   UNL     1      10.071 -13.726  -2.687  1.00  0.00     0.091 A 
ATOM     83  F   UNL     1       8.588 -11.922  -2.281  1.00  0.00    -0.205 F 
ATOM     84  C   UNL     1      10.277 -15.056  -3.073  1.00  0.00     0.022 A 
BRANCH  82  85
ATOM     85  S   UNL     1      11.530 -12.704  -2.442  1.00  0.00     0.127 S 
ATOM     86  O   UNL     1      12.348 -13.547  -1.570  1.00  0.00    -0.237 OA
ATOM     87  O   UNL     1      12.033 -12.564  -3.806  1.00  0.00    -0.237 OA
ATOM     88  O   UNL     1      11.056 -11.477  -1.814  1.00  0.00    -0.744 OA
ENDBRANCH  82  85
ENDBRANCH  54  78
BRANCH  66  89
ATOM     89  C   UNL     1       1.463 -14.205  -3.647  1.00  0.00     0.023 A 
ATOM     90  C   UNL     1       1.814 -13.886  -2.319  1.00  0.00     0.012 A 
ATOM     91  C   UNL     1       0.306 -14.967  -3.880  1.00  0.00     0.148 A 
ATOM     92  C   UNL     1       1.038 -14.339  -1.248  1.00  0.00     0.002 A 
ATOM     93  C   UNL     1      -0.492 -15.369  -2.818  1.00  0.00     0.091 A 
ATOM     94  F   UNL     1      -0.010 -15.270  -5.149  1.00  0.00    -0.205 F 
ATOM     95  C   UNL     1      -0.124 -15.067  -1.499  1.00  0.00     0.022 A 
BRANCH  93  96
ATOM     96  S   UNL     1      -2.063 -16.188  -3.099  1.00  0.00     0.127 S 
ATOM     97  O   UNL     1      -1.731 -17.586  -2.839  1.00  0.00    -0.237 OA
ATOM     98  O   UNL     1      -2.929 -15.566  -2.095  1.00  0.00    -0.237 OA
ATOM     99  O   UNL     1      -2.433 -15.872  -4.474  1.00  0.00    -0.744 OA
ENDBRANCH  93  96
ENDBRANCH  66  89
ENDBRANCH  40  41
ENDBRANCH  33  35
ENDBRANCH  32  33
ENDBRANCH  31  32
ENDBRANCH  30  31
ENDBRANCH  29  30
ENDBRANCH  28  29
ENDBRANCH   1  28
TORSDOF 24
