REMARK SMILES C[C@H](CNC(=O)[C@H]1CCCCC[C@@H]1[NH3+])C(=O)OCCOCCOCCOC(=O)c1ccc(-c2c3nc(c(-c4cccc(S(=O)(=O)[O-])c4F)c4ccc([nH]4)c(-c4cccc(S(=O)(=O)[O-])c4F)c4nc(c(-c5cccc(S(=O)(=O)[O-])c5F)c5ccc2[nH]5)C=C4)C=C3)cc1
REMARK SMILES IDX 20 1 19 2 18 3 17 4 15 5 16 6 2 7 1 8 3 9 4 10 5 11 6 13
REMARK SMILES IDX 7 14 8 15 9 16 10 17 13 19 12 20 11 21 14 23 21 27 22 28
REMARK SMILES IDX 23 29 24 30 25 31 26 32 27 33 28 34 29 35 30 36 91 37 31 38
REMARK SMILES IDX 90 39 32 40 33 41 34 42 84 43 35 44 89 45 83 46 85 47 36 48
REMARK SMILES IDX 88 49 82 50 81 51 37 53 69 54 49 55 68 56 50 57 53 58 67 59
REMARK SMILES IDX 86 60 51 61 52 62 66 64 87 65 54 66 38 67 39 68 47 69 40 70
REMARK SMILES IDX 42 71 48 72 41 73 43 74 44 75 45 76 46 77 70 78 71 79 79 80
REMARK SMILES IDX 72 81 74 82 80 83 73 84 75 85 76 86 77 87 78 88 55 89 56 90
REMARK SMILES IDX 64 91 57 92 59 93 65 94 58 95 60 96 61 97 62 98 63 99
REMARK H PARENT 4 12 14 24 14 25 14 26 85 52 53 63
REMARK Flexibility Score: 90.00
ROOT
ATOM      1  O   UNL     1       2.149  -0.032   0.599  1.00  0.00    -0.376 OA
ENDROOT
BRANCH   1   2
ATOM      2  C   UNL     1       2.389   1.358   0.710  1.00  0.00     0.202 C 
BRANCH   2   3
ATOM      3  C   UNL     1       1.565   2.065   1.788  1.00  0.00     0.261 C 
BRANCH   3   4
ATOM      4  O   UNL     1       1.595   1.428   3.078  1.00  0.00    -0.463 OA
BRANCH   4   5
ATOM      5  C   UNL     1       0.564   0.583   3.345  1.00  0.00     0.310 C 
ATOM      6  O   UNL     1      -0.343   0.330   2.561  1.00  0.00    -0.252 OA
BRANCH   5   7
ATOM      7  C   UNL     1       0.546   0.086   4.785  1.00  0.00     0.115 C 
ATOM      8  C   UNL     1      -0.534   0.910   5.496  1.00  0.00     0.022 C 
BRANCH   7   9
ATOM      9  C   UNL     1       1.866   0.207   5.559  1.00  0.00     0.130 C 
BRANCH   9  10
ATOM     10  N   UNL     1       2.607  -1.039   5.715  1.00  0.00    -0.355 N 
ATOM     11  C   UNL     1       3.860  -1.236   6.234  1.00  0.00     0.229 C 
ATOM     12  H   UNL     1       2.144  -1.850   5.406  1.00  0.00     0.163 HD
ATOM     13  O   UNL     1       4.014  -2.291   6.857  1.00  0.00    -0.275 OA
BRANCH  11  14
ATOM     14  C   UNL     1       5.063  -0.325   5.900  1.00  0.00     0.136 C 
BRANCH  14  15
ATOM     15  C   UNL     1       4.893   1.194   5.997  1.00  0.00     0.020 C 
BRANCH  15  16
ATOM     16  C   UNL     1       4.301   1.637   7.328  1.00  0.00     0.001 C 
BRANCH  16  17
ATOM     17  C   UNL     1       5.332   1.947   8.402  1.00  0.00     0.000 CG0
ATOM     18  G   UNL     1       6.620   1.126   8.377  1.00  0.00     0.000 G0
ENDBRANCH  16  17
ENDBRANCH  15  16
ENDBRANCH  14  15
BRANCH  14  19
ATOM     19  C   UNL     1       6.348  -0.806   6.635  1.00  0.00     0.193 C 
BRANCH  19  20
ATOM     20  C   UNL     1       6.445  -0.373   8.114  1.00  0.00     0.066 C 
BRANCH  20  21
ATOM     21  C   UNL     1       6.620   1.126   8.377  1.00  0.00     0.006 CG0
ATOM     22  G   UNL     1       5.332   1.947   8.402  1.00  0.00     0.000 G0
ENDBRANCH  20  21
ENDBRANCH  19  20
BRANCH  19  23
ATOM     23  N   UNL     1       7.556  -0.367   5.896  1.00  0.00    -0.354 N 
ATOM     24  H   UNL     1       7.600   0.652   5.891  1.00  0.00     0.344 HD
ATOM     25  H   UNL     1       7.510  -0.710   4.936  1.00  0.00     0.344 HD
ATOM     26  H   UNL     1       8.388  -0.742   6.352  1.00  0.00     0.344 HD
ENDBRANCH  19  23
ENDBRANCH  14  19
ENDBRANCH  11  14
ENDBRANCH   9  10
ENDBRANCH   7   9
ENDBRANCH   5   7
ENDBRANCH   4   5
ENDBRANCH   3   4
ENDBRANCH   2   3
ENDBRANCH   1   2
BRANCH   1  27
ATOM     27  C   UNL     1       2.887  -0.943   1.411  1.00  0.00     0.188 C 
BRANCH  27  28
ATOM     28  C   UNL     1       3.996  -0.429   2.334  1.00  0.00     0.188 C 
BRANCH  28  29
ATOM     29  O   UNL     1       5.012   0.246   1.595  1.00  0.00    -0.376 OA
BRANCH  29  30
ATOM     30  C   UNL     1       6.331   0.051   2.091  1.00  0.00     0.202 C 
BRANCH  30  31
ATOM     31  C   UNL     1       7.002  -1.104   1.344  1.00  0.00     0.261 C 
BRANCH  31  32
ATOM     32  O   UNL     1       6.297  -2.355   1.476  1.00  0.00    -0.460 OA
BRANCH  32  33
ATOM     33  C   UNL     1       6.356  -2.939   2.693  1.00  0.00     0.338 C 
ATOM     34  O   UNL     1       6.981  -2.524   3.662  1.00  0.00    -0.246 OA
BRANCH  33  35
ATOM     35  C   UNL     1       5.384  -4.053   2.741  1.00  0.00     0.060 A 
ATOM     36  C   UNL     1       4.490  -4.105   3.815  1.00  0.00     0.016 A 
ATOM     37  C   UNL     1       5.355  -5.050   1.762  1.00  0.00     0.016 A 
ATOM     38  C   UNL     1       3.589  -5.163   3.938  1.00  0.00     0.010 A 
ATOM     39  C   UNL     1       4.459  -6.120   1.891  1.00  0.00     0.010 A 
ATOM     40  C   UNL     1       3.590  -6.198   2.995  1.00  0.00    -0.014 A 
BRANCH  40  41
ATOM     41  C   UNL     1       2.785  -7.423   3.240  1.00  0.00     0.031 A 
ATOM     42  C   UNL     1       3.478  -8.664   3.740  1.00  0.00     0.074 A 
ATOM     43  C   UNL     1       1.454  -7.434   3.037  1.00  0.00     0.049 A 
ATOM     44  N   UNL     1       2.990  -9.858   3.954  1.00  0.00    -0.248 NA
ATOM     45  C   UNL     1       4.915  -8.540   4.036  1.00  0.00     0.031 C 
ATOM     46  C   UNL     1       0.660  -6.298   2.570  1.00  0.00     0.029 A 
ATOM     47  N   UNL     1       0.539  -8.449   3.176  1.00  0.00    -0.354 N 
ATOM     48  C   UNL     1       4.061 -10.636   4.380  1.00  0.00     0.074 A 
ATOM     49  C   UNL     1       5.228  -9.780   4.385  1.00  0.00     0.031 C 
ATOM     50  C   UNL     1      -0.619  -6.689   2.429  1.00  0.00     0.029 A 
ATOM     51  C   UNL     1      -0.730  -8.106   2.769  1.00  0.00     0.049 A 
ATOM     52  H   UNL     1       0.769  -9.338   3.533  1.00  0.00     0.167 HD
ATOM     53  C   UNL     1       4.072 -11.938   4.752  1.00  0.00     0.034 A 
ATOM     54  C   UNL     1      -1.844  -8.856   2.654  1.00  0.00     0.034 A 
ATOM     55  C   UNL     1       2.909 -12.784   4.774  1.00  0.00     0.049 A 
ATOM     56  C   UNL     1      -1.801 -10.308   3.059  1.00  0.00     0.074 A 
ATOM     57  C   UNL     1       2.817 -14.113   5.151  1.00  0.00     0.029 A 
ATOM     58  N   UNL     1       1.633 -12.385   4.407  1.00  0.00    -0.354 N 
ATOM     59  N   UNL     1      -0.799 -11.005   3.539  1.00  0.00    -0.248 NA
ATOM     60  C   UNL     1      -3.054 -11.070   2.937  1.00  0.00     0.031 C 
ATOM     61  C   UNL     1       1.488 -14.521   4.999  1.00  0.00     0.029 A 
ATOM     62  C   UNL     1       0.747 -13.441   4.549  1.00  0.00     0.049 A 
ATOM     63  H   UNL     1       1.392 -11.484   4.092  1.00  0.00     0.167 HD
ATOM     64  C   UNL     1      -1.305 -12.275   3.798  1.00  0.00     0.074 A 
ATOM     65  C   UNL     1      -2.712 -12.241   3.456  1.00  0.00     0.031 C 
ATOM     66  C   UNL     1      -0.661 -13.378   4.254  1.00  0.00     0.034 A 
BRANCH  53  67
ATOM     67  C   UNL     1       5.384 -12.526   5.201  1.00  0.00     0.023 A 
ATOM     68  C   UNL     1       5.901 -12.181   6.467  1.00  0.00     0.012 A 
ATOM     69  C   UNL     1       6.071 -13.463   4.405  1.00  0.00     0.148 A 
ATOM     70  C   UNL     1       7.093 -12.741   6.923  1.00  0.00     0.002 A 
ATOM     71  C   UNL     1       7.238 -14.048   4.884  1.00  0.00     0.091 A 
ATOM     72  F   UNL     1       5.574 -13.762   3.197  1.00  0.00    -0.205 F 
ATOM     73  C   UNL     1       7.755 -13.681   6.138  1.00  0.00     0.022 A 
BRANCH  71  74
ATOM     74  S   UNL     1       8.129 -15.321   3.983  1.00  0.00     0.127 S 
ATOM     75  O   UNL     1       9.363 -14.623   3.628  1.00  0.00    -0.237 OA
ATOM     76  O   UNL     1       8.289 -16.361   5.000  1.00  0.00    -0.237 OA
ATOM     77  O   UNL     1       7.279 -15.691   2.861  1.00  0.00    -0.744 OA
ENDBRANCH  71  74
ENDBRANCH  53  67
BRANCH  54  78
ATOM     78  C   UNL     1      -3.108  -8.251   2.142  1.00  0.00     0.023 A 
ATOM     79  C   UNL     1      -4.213  -8.102   3.003  1.00  0.00     0.012 A 
ATOM     80  C   UNL     1      -3.222  -7.829   0.803  1.00  0.00     0.148 A 
ATOM     81  C   UNL     1      -5.417  -7.576   2.531  1.00  0.00     0.002 A 
ATOM     82  C   UNL     1      -4.405  -7.252   0.355  1.00  0.00     0.091 A 
ATOM     83  F   UNL     1      -2.171  -8.005  -0.012  1.00  0.00    -0.205 F 
ATOM     84  C   UNL     1      -5.510  -7.141   1.212  1.00  0.00     0.022 A 
BRANCH  82  85
ATOM     85  S   UNL     1      -4.561  -6.552  -1.292  1.00  0.00     0.127 S 
ATOM     86  O   UNL     1      -5.348  -7.572  -1.978  1.00  0.00    -0.237 OA
ATOM     87  O   UNL     1      -5.273  -5.301  -1.026  1.00  0.00    -0.237 OA
ATOM     88  O   UNL     1      -3.195  -6.372  -1.766  1.00  0.00    -0.744 OA
ENDBRANCH  82  85
ENDBRANCH  54  78
BRANCH  66  89
ATOM     89  C   UNL     1      -1.475 -14.634   4.436  1.00  0.00     0.023 A 
ATOM     90  C   UNL     1      -1.922 -15.346   3.305  1.00  0.00     0.012 A 
ATOM     91  C   UNL     1      -1.758 -15.134   5.722  1.00  0.00     0.148 A 
ATOM     92  C   UNL     1      -2.673 -16.512   3.450  1.00  0.00     0.002 A 
ATOM     93  C   UNL     1      -2.468 -16.323   5.859  1.00  0.00     0.091 A 
ATOM     94  F   UNL     1      -1.343 -14.436   6.789  1.00  0.00    -0.205 F 
ATOM     95  C   UNL     1      -2.937 -17.005   4.726  1.00  0.00     0.022 A 
BRANCH  93  96
ATOM     96  S   UNL     1      -2.774 -17.075   7.462  1.00  0.00     0.127 S 
ATOM     97  O   UNL     1      -4.172 -16.721   7.697  1.00  0.00    -0.237 OA
ATOM     98  O   UNL     1      -2.542 -18.495   7.192  1.00  0.00    -0.237 OA
ATOM     99  O   UNL     1      -1.809 -16.473   8.373  1.00  0.00    -0.744 OA
ENDBRANCH  93  96
ENDBRANCH  66  89
ENDBRANCH  40  41
ENDBRANCH  33  35
ENDBRANCH  32  33
ENDBRANCH  31  32
ENDBRANCH  30  31
ENDBRANCH  29  30
ENDBRANCH  28  29
ENDBRANCH  27  28
ENDBRANCH   1  27
TORSDOF 24
