REMARK SMILES COc1ccc([C@@H]2[C@H](C(=O)OCCOCCOCCOC(=O)c3ccc(-c4c5nc(c(-c6cccc(S(=O)(=O)[O-])c6F)c6ccc([nH]6)c(-c6cccc(S(=O)(=O)[O-])c6F)c6nc(c(-c7cccc(S(=O)(=O)[O-])c7F)c7ccc4[nH]7)C=C6)C=C5)cc3)c3ccccc3C(=O)N2C2CC2)cc1
REMARK SMILES IDX 16 1 15 2 14 3 13 4 12 5 11 6 9 7 10 8 8 9 7 10 94 11 86 12
REMARK SMILES IDX 92 13 87 14 91 15 93 16 88 17 90 18 89 19 6 20 3 21 4 22
REMARK SMILES IDX 99 23 5 24 98 25 2 26 1 27 95 28 96 29 97 30 17 31 18 32
REMARK SMILES IDX 19 33 20 34 21 35 22 36 23 37 24 38 85 39 25 40 84 41 26 42
REMARK SMILES IDX 27 43 28 44 78 45 29 46 83 47 77 48 79 49 30 50 82 51 76 52
REMARK SMILES IDX 75 53 31 55 63 56 43 57 62 58 44 59 47 60 61 61 80 62 45 63
REMARK SMILES IDX 46 64 60 66 81 67 48 68 32 69 33 70 41 71 34 72 36 73 42 74
REMARK SMILES IDX 35 75 37 76 38 77 39 78 40 79 64 80 65 81 73 82 66 83 68 84
REMARK SMILES IDX 74 85 67 86 69 87 70 88 71 89 72 90 49 91 50 92 58 93 51 94
REMARK SMILES IDX 53 95 59 96 52 97 54 98 55 99 56 100 57 101
REMARK H PARENT 79 54 47 65
REMARK Flexibility Score: inf
ROOT
ATOM      1  C   UNL     1      -2.439  -2.130   9.473  1.00  0.00     0.188 C 
ENDROOT
BRANCH   1   2
ATOM      2  C   UNL     1      -3.431  -1.165   8.811  1.00  0.00     0.188 C 
BRANCH   2   3
ATOM      3  O   UNL     1      -4.599  -1.850   8.367  1.00  0.00    -0.376 OA
BRANCH   3   4
ATOM      4  C   UNL     1      -4.711  -1.957   6.949  1.00  0.00     0.202 C 
BRANCH   4   5
ATOM      5  C   UNL     1      -3.807  -3.039   6.331  1.00  0.00     0.261 C 
BRANCH   5   6
ATOM      6  O   UNL     1      -2.384  -2.759   6.418  1.00  0.00    -0.463 OA
BRANCH   6   7
ATOM      7  C   UNL     1      -1.589  -2.892   5.309  1.00  0.00     0.316 C 
ATOM      8  O   UNL     1      -2.035  -3.003   4.172  1.00  0.00    -0.251 OA
BRANCH   7   9
ATOM      9  C   UNL     1      -0.082  -3.015   5.638  1.00  0.00     0.157 C 
ATOM     10  C   UNL     1       0.841  -1.746   5.447  1.00  0.00     0.135 C 
ATOM     11  N   UNL     1       0.700  -0.871   6.612  1.00  0.00    -0.327 N 
ATOM     12  C   UNL     1       0.154  -3.580   7.068  1.00  0.00    -0.019 A 
ATOM     13  C   UNL     1       1.397  -1.472   7.680  1.00  0.00     0.254 C 
ATOM     14  C   UNL     1      -0.396  -4.808   7.476  1.00  0.00     0.005 A 
ATOM     15  C   UNL     1       0.919  -2.851   8.008  1.00  0.00     0.044 A 
ATOM     16  O   UNL     1       2.363  -0.996   8.256  1.00  0.00    -0.269 OA
ATOM     17  C   UNL     1      -0.183  -5.284   8.777  1.00  0.00     0.000 A 
ATOM     18  C   UNL     1       1.190  -3.368   9.280  1.00  0.00     0.014 A 
ATOM     19  C   UNL     1       0.625  -4.578   9.668  1.00  0.00     0.001 A 
BRANCH  10  20
ATOM     20  C   UNL     1       1.131  -1.002   4.149  1.00  0.00    -0.024 A 
ATOM     21  C   UNL     1       1.552   0.366   1.723  1.00  0.00     0.118 A 
ATOM     22  C   UNL     1       0.955   1.026   2.771  1.00  0.00     0.047 A 
ATOM     23  C   UNL     1       2.146  -0.876   1.943  1.00  0.00     0.047 A 
ATOM     24  C   UNL     1       0.836   0.359   3.981  1.00  0.00     0.010 A 
ATOM     25  C   UNL     1       1.905  -1.574   3.134  1.00  0.00     0.010 A 
BRANCH  21  26
ATOM     26  O   UNL     1       1.541   0.992   0.511  1.00  0.00    -0.497 OA
ATOM     27  C   UNL     1       1.165   0.092  -0.529  1.00  0.00     0.278 C 
ENDBRANCH  21  26
ENDBRANCH  10  20
BRANCH  11  28
ATOM     28  C   UNL     1      -0.619  -0.300   6.903  1.00  0.00     0.086 C 
ATOM     29  C   UNL     1      -1.124   1.093   6.638  1.00  0.00     0.027 C 
ATOM     30  C   UNL     1      -1.686  -0.032   5.851  1.00  0.00     0.027 C 
ENDBRANCH  11  28
ENDBRANCH   7   9
ENDBRANCH   6   7
ENDBRANCH   5   6
ENDBRANCH   4   5
ENDBRANCH   3   4
ENDBRANCH   2   3
ENDBRANCH   1   2
BRANCH   1  31
ATOM     31  O   UNL     1      -2.905  -2.891  10.582  1.00  0.00    -0.376 OA
BRANCH  31  32
ATOM     32  C   UNL     1      -3.903  -2.280  11.382  1.00  0.00     0.202 C 
BRANCH  32  33
ATOM     33  C   UNL     1      -3.447  -1.106  12.265  1.00  0.00     0.261 C 
BRANCH  33  34
ATOM     34  O   UNL     1      -2.706  -0.061  11.594  1.00  0.00    -0.460 OA
BRANCH  34  35
ATOM     35  C   UNL     1      -1.366  -0.058  11.808  1.00  0.00     0.338 C 
ATOM     36  O   UNL     1      -0.743  -0.874  12.483  1.00  0.00    -0.246 OA
BRANCH  35  37
ATOM     37  C   UNL     1      -0.681   0.984  10.999  1.00  0.00     0.060 A 
ATOM     38  C   UNL     1       0.430   0.597  10.246  1.00  0.00     0.016 A 
ATOM     39  C   UNL     1      -1.027   2.336  11.049  1.00  0.00     0.016 A 
ATOM     40  C   UNL     1       1.198   1.543   9.553  1.00  0.00     0.010 A 
ATOM     41  C   UNL     1      -0.230   3.291  10.380  1.00  0.00     0.010 A 
ATOM     42  C   UNL     1       0.903   2.904   9.642  1.00  0.00    -0.014 A 
BRANCH  42  43
ATOM     43  C   UNL     1       1.905   3.902   9.155  1.00  0.00     0.031 A 
ATOM     44  C   UNL     1       2.943   4.397  10.116  1.00  0.00     0.074 A 
ATOM     45  C   UNL     1       1.942   4.352   7.886  1.00  0.00     0.049 A 
ATOM     46  N   UNL     1       3.850   5.322   9.948  1.00  0.00    -0.248 NA
ATOM     47  C   UNL     1       2.953   3.770  11.446  1.00  0.00     0.031 C 
ATOM     48  C   UNL     1       1.042   3.916   6.838  1.00  0.00     0.029 A 
ATOM     49  N   UNL     1       2.744   5.277   7.258  1.00  0.00    -0.354 N 
ATOM     50  C   UNL     1       4.512   5.422  11.162  1.00  0.00     0.074 A 
ATOM     51  C   UNL     1       3.907   4.457  12.056  1.00  0.00     0.031 C 
ATOM     52  C   UNL     1       1.319   4.559   5.694  1.00  0.00     0.029 A 
ATOM     53  C   UNL     1       2.385   5.523   5.949  1.00  0.00     0.049 A 
ATOM     54  H   UNL     1       3.503   5.721   7.702  1.00  0.00     0.167 HD
ATOM     55  C   UNL     1       5.528   6.247  11.505  1.00  0.00     0.034 A 
ATOM     56  C   UNL     1       2.825   6.450   5.073  1.00  0.00     0.034 A 
ATOM     57  C   UNL     1       6.135   7.202  10.619  1.00  0.00     0.049 A 
ATOM     58  C   UNL     1       3.911   7.403   5.502  1.00  0.00     0.074 A 
ATOM     59  C   UNL     1       7.176   8.074  10.884  1.00  0.00     0.029 A 
ATOM     60  N   UNL     1       5.752   7.426   9.306  1.00  0.00    -0.354 N 
ATOM     61  N   UNL     1       4.562   7.453   6.639  1.00  0.00    -0.248 NA
ATOM     62  C   UNL     1       4.338   8.417   4.526  1.00  0.00     0.031 C 
ATOM     63  C   UNL     1       7.395   8.854   9.745  1.00  0.00     0.029 A 
ATOM     64  C   UNL     1       6.525   8.434   8.753  1.00  0.00     0.049 A 
ATOM     65  H   UNL     1       5.036   6.940   8.835  1.00  0.00     0.167 HD
ATOM     66  C   UNL     1       5.500   8.470   6.500  1.00  0.00     0.074 A 
ATOM     67  C   UNL     1       5.343   9.003   5.163  1.00  0.00     0.031 C 
ATOM     68  C   UNL     1       6.403   8.924   7.403  1.00  0.00     0.034 A 
BRANCH  55  69
ATOM     69  C   UNL     1       6.029   6.164  12.920  1.00  0.00     0.023 A 
ATOM     70  C   UNL     1       6.779   5.047  13.340  1.00  0.00     0.012 A 
ATOM     71  C   UNL     1       5.779   7.213  13.825  1.00  0.00     0.148 A 
ATOM     72  C   UNL     1       7.240   4.959  14.652  1.00  0.00     0.002 A 
ATOM     73  C   UNL     1       6.284   7.141  15.116  1.00  0.00     0.091 A 
ATOM     74  F   UNL     1       5.041   8.253  13.410  1.00  0.00    -0.205 F 
ATOM     75  C   UNL     1       7.002   6.010  15.536  1.00  0.00     0.022 A 
BRANCH  73  76
ATOM     76  S   UNL     1       6.099   8.477  16.301  1.00  0.00     0.127 S 
ATOM     77  O   UNL     1       5.190   7.881  17.279  1.00  0.00    -0.237 OA
ATOM     78  O   UNL     1       7.471   8.657  16.774  1.00  0.00    -0.237 OA
ATOM     79  O   UNL     1       5.559   9.606  15.557  1.00  0.00    -0.744 OA
ENDBRANCH  73  76
ENDBRANCH  55  69
BRANCH  56  80
ATOM     80  C   UNL     1       2.232   6.550   3.704  1.00  0.00     0.023 A 
ATOM     81  C   UNL     1       3.028   6.272   2.575  1.00  0.00     0.012 A 
ATOM     82  C   UNL     1       0.892   6.944   3.513  1.00  0.00     0.148 A 
ATOM     83  C   UNL     1       2.513   6.420   1.285  1.00  0.00     0.002 A 
ATOM     84  C   UNL     1       0.369   7.033   2.227  1.00  0.00     0.091 A 
ATOM     85  F   UNL     1       0.153   7.226   4.595  1.00  0.00    -0.205 F 
ATOM     86  C   UNL     1       1.183   6.792   1.111  1.00  0.00     0.022 A 
BRANCH  84  87
ATOM     87  S   UNL     1      -1.363   7.391   1.911  1.00  0.00     0.127 S 
ATOM     88  O   UNL     1      -1.289   8.707   1.281  1.00  0.00    -0.237 OA
ATOM     89  O   UNL     1      -1.738   6.298   1.014  1.00  0.00    -0.237 OA
ATOM     90  O   UNL     1      -2.020   7.351   3.211  1.00  0.00    -0.744 OA
ENDBRANCH  84  87
ENDBRANCH  56  80
BRANCH  68  91
ATOM     91  C   UNL     1       7.347  10.018   6.972  1.00  0.00     0.023 A 
ATOM     92  C   UNL     1       6.874  11.332   6.786  1.00  0.00     0.012 A 
ATOM     93  C   UNL     1       8.725   9.755   6.836  1.00  0.00     0.148 A 
ATOM     94  C   UNL     1       7.753  12.360   6.440  1.00  0.00     0.002 A 
ATOM     95  C   UNL     1       9.602  10.793   6.545  1.00  0.00     0.091 A 
ATOM     96  F   UNL     1       9.154   8.495   7.001  1.00  0.00    -0.205 F 
ATOM     97  C   UNL     1       9.116  12.093   6.333  1.00  0.00     0.022 A 
BRANCH  95  98
ATOM     98  S   UNL     1      11.383  10.565   6.487  1.00  0.00     0.127 S 
ATOM     99  O   UNL     1      11.659  10.730   5.060  1.00  0.00    -0.237 OA
ATOM    100  O   UNL     1      11.862  11.661   7.330  1.00  0.00    -0.237 OA
ATOM    101  O   UNL     1      11.639   9.234   7.020  1.00  0.00    -0.744 OA
ENDBRANCH  95  98
ENDBRANCH  68  91
ENDBRANCH  42  43
ENDBRANCH  35  37
ENDBRANCH  34  35
ENDBRANCH  33  34
ENDBRANCH  32  33
ENDBRANCH  31  32
ENDBRANCH   1  31
TORSDOF 23
