REMARK SMILES O=C(CC1(NC(=O)c2cc(Cl)ccc2Cl)CCC1)OCCOCCOCCOC(=O)c1ccc(-c2c3nc(c(-c4cccc(S(=O)(=O)[O-])c4F)c4ccc([nH]4)c(-c4cccc(S(=O)(=O)[O-])c4F)c4nc(c(-c5cccc(S(=O)(=O)[O-])c5F)c5ccc2[nH]5)C=C4)C=C3)cc1
REMARK SMILES IDX 23 1 22 2 21 3 20 4 19 5 2 6 1 7 3 8 4 9 16 10 18 11 17 12
REMARK SMILES IDX 5 13 6 14 7 16 8 17 9 18 14 19 10 20 13 21 15 22 11 23 12 24
REMARK SMILES IDX 24 25 25 26 26 27 27 28 28 29 29 30 30 31 31 32 32 33 93 34
REMARK SMILES IDX 33 35 92 36 34 37 35 38 36 39 86 40 37 41 91 42 85 43 87 44
REMARK SMILES IDX 38 45 90 46 84 47 83 48 39 50 71 51 51 52 70 53 52 54 55 55
REMARK SMILES IDX 69 56 88 57 53 58 54 59 68 61 89 62 56 63 40 64 41 65 49 66
REMARK SMILES IDX 42 67 44 68 50 69 43 70 45 71 46 72 47 73 48 74 72 75 73 76
REMARK SMILES IDX 81 77 74 78 76 79 82 80 75 81 77 82 78 83 79 84 80 85 57 86
REMARK SMILES IDX 58 87 66 88 59 89 61 90 67 91 60 92 62 93 63 94 64 95 65 96
REMARK H PARENT 5 15 87 49 55 60
REMARK Flexibility Score: inf
ROOT
ATOM      1  C   UNL     1       2.445  -0.117  -2.397  1.00  0.00     0.188 C 
ENDROOT
BRANCH   1   2
ATOM      2  O   UNL     1       3.683   0.127  -1.723  1.00  0.00    -0.376 OA
BRANCH   2   3
ATOM      3  C   UNL     1       4.571  -0.987  -1.716  1.00  0.00     0.202 C 
BRANCH   3   4
ATOM      4  C   UNL     1       4.404  -1.913  -0.509  1.00  0.00     0.261 C 
BRANCH   4   5
ATOM      5  O   UNL     1       3.036  -2.187  -0.171  1.00  0.00    -0.463 OA
BRANCH   5   6
ATOM      6  C   UNL     1       2.382  -1.543   0.827  1.00  0.00     0.308 C 
ATOM      7  O   UNL     1       1.276  -1.939   1.187  1.00  0.00    -0.252 OA
BRANCH   6   8
ATOM      8  C   UNL     1       2.998  -0.304   1.420  1.00  0.00     0.151 C 
BRANCH   8   9
ATOM      9  C   UNL     1       4.038  -0.410   2.541  1.00  0.00     0.051 C 
ATOM     10  C   UNL     1       3.555  -0.051   3.989  1.00  0.00     0.029 C 
ATOM     11  C   UNL     1       4.260  -1.858   3.088  1.00  0.00     0.029 C 
ATOM     12  C   UNL     1       4.299  -1.287   4.509  1.00  0.00     0.005 C 
BRANCH   9  13
ATOM     13  N   UNL     1       5.346   0.292   2.259  1.00  0.00    -0.346 N 
ATOM     14  C   UNL     1       5.638   1.615   1.959  1.00  0.00     0.253 C 
ATOM     15  H   UNL     1       6.135  -0.297   2.294  1.00  0.00     0.164 HD
ATOM     16  O   UNL     1       6.792   2.020   2.053  1.00  0.00    -0.269 OA
BRANCH  14  17
ATOM     17  C   UNL     1       4.590   2.464   1.369  1.00  0.00     0.059 A 
ATOM     18  C   UNL     1       3.388   2.682   2.058  1.00  0.00     0.036 A 
ATOM     19  C   UNL     1       4.683   2.731   0.005  1.00  0.00     0.053 A 
ATOM     20  C   UNL     1       2.221   2.907   1.330  1.00  0.00     0.041 A 
ATOM     21  C   UNL     1       3.513   3.008  -0.687  1.00  0.00     0.023 A 
ATOM     22  Cl  UNL     1       6.142   2.600  -0.911  1.00  0.00    -0.083 Cl
ATOM     23  Cl  UNL     1       0.681   2.785   2.091  1.00  0.00    -0.084 Cl
ATOM     24  C   UNL     1       2.277   3.038  -0.046  1.00  0.00     0.022 A 
ENDBRANCH  14  17
ENDBRANCH   9  13
ENDBRANCH   8   9
ENDBRANCH   6   8
ENDBRANCH   5   6
ENDBRANCH   4   5
ENDBRANCH   3   4
ENDBRANCH   2   3
ENDBRANCH   1   2
BRANCH   1  25
ATOM     25  C   UNL     1       2.177   0.949  -3.470  1.00  0.00     0.188 C 
BRANCH  25  26
ATOM     26  O   UNL     1       3.147   0.936  -4.520  1.00  0.00    -0.376 OA
BRANCH  26  27
ATOM     27  C   UNL     1       4.281   1.789  -4.311  1.00  0.00     0.202 C 
BRANCH  27  28
ATOM     28  C   UNL     1       4.072   3.230  -4.816  1.00  0.00     0.261 C 
BRANCH  28  29
ATOM     29  O   UNL     1       3.700   4.145  -3.753  1.00  0.00    -0.460 OA
BRANCH  29  30
ATOM     30  C   UNL     1       2.442   4.667  -3.798  1.00  0.00     0.338 C 
ATOM     31  O   UNL     1       1.621   4.451  -4.660  1.00  0.00    -0.246 OA
BRANCH  30  32
ATOM     32  C   UNL     1       2.118   5.422  -2.542  1.00  0.00     0.060 A 
ATOM     33  C   UNL     1       0.783   5.388  -2.116  1.00  0.00     0.016 A 
ATOM     34  C   UNL     1       3.059   6.108  -1.757  1.00  0.00     0.016 A 
ATOM     35  C   UNL     1       0.390   6.027  -0.931  1.00  0.00     0.010 A 
ATOM     36  C   UNL     1       2.658   6.765  -0.570  1.00  0.00     0.010 A 
ATOM     37  C   UNL     1       1.314   6.748  -0.159  1.00  0.00    -0.014 A 
BRANCH  37  38
ATOM     38  C   UNL     1       0.767   7.657   0.897  1.00  0.00     0.031 A 
ATOM     39  C   UNL     1       0.259   9.001   0.456  1.00  0.00     0.074 A 
ATOM     40  C   UNL     1       0.596   7.301   2.186  1.00  0.00     0.049 A 
ATOM     41  N   UNL     1      -0.481   9.862   1.102  1.00  0.00    -0.248 NA
ATOM     42  C   UNL     1       0.638   9.423  -0.902  1.00  0.00     0.031 C 
ATOM     43  C   UNL     1       1.095   6.077   2.787  1.00  0.00     0.029 A 
ATOM     44  N   UNL     1      -0.061   7.929   3.222  1.00  0.00    -0.354 N 
ATOM     45  C   UNL     1      -0.675  10.918   0.225  1.00  0.00     0.074 A 
ATOM     46  C   UNL     1       0.049  10.604  -0.988  1.00  0.00     0.031 C 
ATOM     47  C   UNL     1       0.684   6.002   4.065  1.00  0.00     0.029 A 
ATOM     48  C   UNL     1      -0.075   7.206   4.397  1.00  0.00     0.049 A 
ATOM     49  H   UNL     1      -0.482   8.814   3.132  1.00  0.00     0.167 HD
ATOM     50  C   UNL     1      -1.403  12.045   0.399  1.00  0.00     0.034 A 
ATOM     51  C   UNL     1      -0.627   7.481   5.599  1.00  0.00     0.034 A 
ATOM     52  C   UNL     1      -2.079  12.402   1.614  1.00  0.00     0.049 A 
ATOM     53  C   UNL     1      -1.409   8.762   5.778  1.00  0.00     0.074 A 
ATOM     54  C   UNL     1      -2.818  13.541   1.882  1.00  0.00     0.029 A 
ATOM     55  N   UNL     1      -2.075  11.647   2.775  1.00  0.00    -0.354 N 
ATOM     56  N   UNL     1      -1.706   9.681   4.891  1.00  0.00    -0.248 NA
ATOM     57  C   UNL     1      -1.954   9.033   7.119  1.00  0.00     0.031 C 
ATOM     58  C   UNL     1      -3.239  13.486   3.215  1.00  0.00     0.029 A 
ATOM     59  C   UNL     1      -2.792  12.297   3.766  1.00  0.00     0.049 A 
ATOM     60  H   UNL     1      -1.628  10.776   2.880  1.00  0.00     0.167 HD
ATOM     61  C   UNL     1      -2.484  10.622   5.558  1.00  0.00     0.074 A 
ATOM     62  C   UNL     1      -2.651  10.141   6.913  1.00  0.00     0.031 C 
ATOM     63  C   UNL     1      -2.994  11.792   5.099  1.00  0.00     0.034 A 
BRANCH  50  64
ATOM     64  C   UNL     1      -1.508  12.967  -0.782  1.00  0.00     0.023 A 
ATOM     65  C   UNL     1      -2.318  12.596  -1.876  1.00  0.00     0.012 A 
ATOM     66  C   UNL     1      -0.821  14.193  -0.808  1.00  0.00     0.148 A 
ATOM     67  C   UNL     1      -2.418  13.422  -2.993  1.00  0.00     0.002 A 
ATOM     68  C   UNL     1      -0.959  15.030  -1.908  1.00  0.00     0.091 A 
ATOM     69  F   UNL     1      -0.035  14.508   0.231  1.00  0.00    -0.205 F 
ATOM     70  C   UNL     1      -1.747  14.641  -3.005  1.00  0.00     0.022 A 
BRANCH  68  71
ATOM     71  S   UNL     1      -0.185  16.647  -1.998  1.00  0.00     0.127 S 
ATOM     72  O   UNL     1       0.783  16.450  -3.076  1.00  0.00    -0.237 OA
ATOM     73  O   UNL     1      -1.317  17.506  -2.343  1.00  0.00    -0.237 OA
ATOM     74  O   UNL     1       0.390  16.892  -0.683  1.00  0.00    -0.744 OA
ENDBRANCH  68  71
ENDBRANCH  50  64
BRANCH  51  75
ATOM     75  C   UNL     1      -0.476   6.536   6.752  1.00  0.00     0.023 A 
ATOM     76  C   UNL     1      -1.612   5.917   7.315  1.00  0.00     0.012 A 
ATOM     77  C   UNL     1       0.785   6.287   7.326  1.00  0.00     0.148 A 
ATOM     78  C   UNL     1      -1.499   5.111   8.451  1.00  0.00     0.002 A 
ATOM     79  C   UNL     1       0.899   5.430   8.416  1.00  0.00     0.091 A 
ATOM     80  F   UNL     1       1.854   6.904   6.804  1.00  0.00    -0.205 F 
ATOM     81  C   UNL     1      -0.244   4.859   8.996  1.00  0.00     0.022 A 
BRANCH  79  82
ATOM     82  S   UNL     1       2.492   4.944   9.089  1.00  0.00     0.127 S 
ATOM     83  O   UNL     1       2.518   5.671  10.356  1.00  0.00    -0.237 OA
ATOM     84  O   UNL     1       2.339   3.494   9.213  1.00  0.00    -0.237 OA
ATOM     85  O   UNL     1       3.475   5.357   8.097  1.00  0.00    -0.744 OA
ENDBRANCH  79  82
ENDBRANCH  51  75
BRANCH  63  86
ATOM     86  C   UNL     1      -3.803  12.632   6.057  1.00  0.00     0.023 A 
ATOM     87  C   UNL     1      -3.166  13.287   7.131  1.00  0.00     0.012 A 
ATOM     88  C   UNL     1      -5.186  12.821   5.860  1.00  0.00     0.148 A 
ATOM     89  C   UNL     1      -3.897  14.079   8.016  1.00  0.00     0.002 A 
ATOM     90  C   UNL     1      -5.899  13.653   6.716  1.00  0.00     0.091 A 
ATOM     91  F   UNL     1      -5.782  12.178   4.845  1.00  0.00    -0.205 F 
ATOM     92  C   UNL     1      -5.260  14.270   7.803  1.00  0.00     0.022 A 
BRANCH  90  93
ATOM     93  S   UNL     1      -7.636  14.034   6.457  1.00  0.00     0.127 S 
ATOM     94  O   UNL     1      -8.277  13.219   7.487  1.00  0.00    -0.237 OA
ATOM     95  O   UNL     1      -7.680  15.476   6.705  1.00  0.00    -0.237 OA
ATOM     96  O   UNL     1      -7.926  13.651   5.082  1.00  0.00    -0.744 OA
ENDBRANCH  90  93
ENDBRANCH  63  86
ENDBRANCH  37  38
ENDBRANCH  30  32
ENDBRANCH  29  30
ENDBRANCH  28  29
ENDBRANCH  27  28
ENDBRANCH  26  27
ENDBRANCH  25  26
ENDBRANCH   1  25
TORSDOF 23
