REMARK SMILES O=C(OCCOCCOCCOC(=O)c1ccc(-c2c3nc(c(-c4cccc(S(=O)(=O)[O-])c4F)c4ccc([nH]4)c(-c4cccc(S(=O)(=O)[O-])c4F)c4nc(c(-c5cccc(S(=O)(=O)[O-])c5F)c5ccc2[nH]5)C=C4)C=C3)cc1)C1=Cc2cc(S(F)(F)(F)(F)F)ccc2O[C@H]1C(F)(F)F
REMARK SMILES IDX 8 1 7 2 6 3 5 4 4 5 3 6 2 7 1 8 78 9 79 10 93 11 80 12 92 13
REMARK SMILES IDX 81 14 91 15 82 16 90 17 89 18 94 19 95 20 96 21 97 22 83 23
REMARK SMILES IDX 84 24 85 25 86 26 87 27 88 28 9 29 10 30 11 31 12 32 13 33
REMARK SMILES IDX 14 34 15 35 16 36 77 37 17 38 76 39 18 40 19 41 20 42 70 43
REMARK SMILES IDX 21 44 75 45 69 46 71 47 22 48 74 49 68 50 67 51 23 53 55 54
REMARK SMILES IDX 35 55 54 56 36 57 39 58 53 59 72 60 37 61 38 62 52 64 73 65
REMARK SMILES IDX 40 66 24 67 25 68 33 69 26 70 28 71 34 72 27 73 29 74 30 75
REMARK SMILES IDX 31 76 32 77 56 78 57 79 65 80 58 81 60 82 66 83 59 84 61 85
REMARK SMILES IDX 62 86 63 87 64 88 41 89 42 90 50 91 43 92 45 93 51 94 44 95
REMARK SMILES IDX 46 96 47 97 48 98 49 99
REMARK H PARENT 71 52 39 63
REMARK Flexibility Score: inf
ROOT
ATOM      1  C   UNL     1       2.569   1.030   2.185  1.00  0.00     0.188 C 
ENDROOT
BRANCH   1   2
ATOM      2  C   UNL     1       3.076  -0.194   1.439  1.00  0.00     0.188 C 
BRANCH   2   3
ATOM      3  O   UNL     1       4.496  -0.194   1.439  1.00  0.00    -0.376 OA
BRANCH   3   4
ATOM      4  C   UNL     1       4.969   0.981   0.797  1.00  0.00     0.202 C 
BRANCH   4   5
ATOM      5  C   UNL     1       4.463   1.016  -0.635  1.00  0.00     0.261 C 
BRANCH   5   6
ATOM      6  O   UNL     1       3.043   1.016  -0.635  1.00  0.00    -0.460 OA
BRANCH   6   7
ATOM      7  C   UNL     1       2.333  -0.064  -0.046  1.00  0.00     0.338 C 
ATOM      8  O   UNL     1       1.062  -0.064  -0.046  1.00  0.00    -0.246 OA
BRANCH   7   9
ATOM      9  C   UNL     1       3.093  -1.219   0.585  1.00  0.00     0.087 C 
ATOM     10  C   UNL     1       4.453  -1.219   0.585  1.00  0.00     0.027 C 
ATOM     11  C   UNL     1       2.333  -2.375   1.215  1.00  0.00     0.316 C 
ATOM     12  C   UNL     1       5.213  -0.064  -0.046  1.00  0.00     0.019 A 
ATOM     13  O   UNL     1       3.592   1.294   1.040  1.00  0.00    -0.475 OA
ATOM     14  C   UNL     1       6.261  -0.244  -0.933  1.00  0.00     0.036 A 
ATOM     15  C   UNL     1       4.768   1.150   0.256  1.00  0.00     0.128 A 
ATOM     16  C   UNL     1       6.971   0.943  -1.232  1.00  0.00     0.107 A 
ATOM     17  C   UNL     1       5.433   2.269  -0.184  1.00  0.00     0.048 A 
ATOM     18  C   UNL     1       6.513   2.163  -1.016  1.00  0.00     0.028 A 
BRANCH  11  19
ATOM     19  C   UNL     1       0.838  -2.131   1.082  1.00  0.00     0.430 C 
ATOM     20  F   UNL     1       0.300  -3.328   0.867  1.00  0.00    -0.167 F 
ATOM     21  F   UNL     1       0.381  -1.639   2.230  1.00  0.00    -0.167 F 
ATOM     22  F   UNL     1       0.510  -1.312   0.087  1.00  0.00    -0.167 F 
ENDBRANCH  11  19
BRANCH  16  23
ATOM     23  S   UNL     1       8.618   0.778  -1.962  1.00  0.00     0.310 S 
ATOM     24  F   UNL     1       9.318   0.748  -0.539  1.00  0.00    -0.094 F 
ATOM     25  F   UNL     1       8.762   2.347  -1.924  1.00  0.00    -0.094 F 
ATOM     26  F   UNL     1      10.033   0.636  -2.592  1.00  0.00    -0.094 F 
ATOM     27  F   UNL     1       8.514  -0.794  -1.863  1.00  0.00    -0.094 F 
ATOM     28  F   UNL     1       7.229   0.903  -1.220  1.00  0.00    -0.094 F 
ENDBRANCH  16  23
ENDBRANCH   7   9
ENDBRANCH   6   7
ENDBRANCH   5   6
ENDBRANCH   4   5
ENDBRANCH   3   4
ENDBRANCH   2   3
ENDBRANCH   1   2
BRANCH   1  29
ATOM     29  O   UNL     1       3.043   2.205   1.544  1.00  0.00    -0.376 OA
BRANCH  29  30
ATOM     30  C   UNL     1       4.463   2.205   1.544  1.00  0.00     0.202 C 
BRANCH  30  31
ATOM     31  C   UNL     1       4.969   2.170   2.976  1.00  0.00     0.261 C 
BRANCH  31  32
ATOM     32  O   UNL     1       4.496   0.995   3.618  1.00  0.00    -0.460 OA
BRANCH  32  33
ATOM     33  C   UNL     1       3.100   0.767   3.742  1.00  0.00     0.338 C 
ATOM     34  O   UNL     1       2.274   1.615   3.279  1.00  0.00    -0.246 OA
BRANCH  33  35
ATOM     35  C   UNL     1       2.593  -0.491   4.428  1.00  0.00     0.060 A 
ATOM     36  C   UNL     1       1.480  -1.169   3.960  1.00  0.00     0.016 A 
ATOM     37  C   UNL     1       3.181  -0.834   5.569  1.00  0.00     0.016 A 
ATOM     38  C   UNL     1       0.882  -2.021   4.920  1.00  0.00     0.010 A 
ATOM     39  C   UNL     1       2.610  -1.773   6.394  1.00  0.00     0.010 A 
ATOM     40  C   UNL     1       1.477  -2.441   6.022  1.00  0.00    -0.014 A 
BRANCH  40  41
ATOM     41  C   UNL     1       0.930  -3.605   6.832  1.00  0.00     0.031 A 
ATOM     42  C   UNL     1       0.595  -3.279   8.147  1.00  0.00     0.074 A 
ATOM     43  C   UNL     1       0.661  -4.830   6.245  1.00  0.00     0.049 A 
ATOM     44  N   UNL     1      -0.050  -4.038   9.035  1.00  0.00    -0.248 NA
ATOM     45  C   UNL     1       0.910  -1.991   8.784  1.00  0.00     0.031 C 
ATOM     46  C   UNL     1       0.988  -5.163   4.917  1.00  0.00     0.029 A 
ATOM     47  N   UNL     1       0.046  -5.923   6.815  1.00  0.00    -0.354 N 
ATOM     48  C   UNL     1      -0.204  -3.376  10.183  1.00  0.00     0.074 A 
ATOM     49  C   UNL     1       0.417  -2.052  10.040  1.00  0.00     0.031 C 
ATOM     50  C   UNL     1       0.587  -6.442   4.692  1.00  0.00     0.029 A 
ATOM     51  C   UNL     1       0.002  -6.929   5.876  1.00  0.00     0.049 A 
ATOM     52  H   UNL     1      -0.302  -5.975   7.734  1.00  0.00     0.167 HD
ATOM     53  C   UNL     1      -0.840  -3.822  11.342  1.00  0.00     0.034 A 
ATOM     54  C   UNL     1      -0.513  -8.207   6.025  1.00  0.00     0.034 A 
ATOM     55  C   UNL     1      -1.394  -5.086  11.477  1.00  0.00     0.049 A 
ATOM     56  C   UNL     1      -1.097  -8.675   7.205  1.00  0.00     0.074 A 
ATOM     57  C   UNL     1      -2.045  -5.549  12.636  1.00  0.00     0.029 A 
ATOM     58  N   UNL     1      -1.416  -6.101  10.546  1.00  0.00    -0.354 N 
ATOM     59  N   UNL     1      -1.287  -7.998   8.339  1.00  0.00    -0.248 NA
ATOM     60  C   UNL     1      -1.617 -10.037   7.384  1.00  0.00     0.031 C 
ATOM     61  C   UNL     1      -2.446  -6.829  12.411  1.00  0.00     0.029 A 
ATOM     62  C   UNL     1      -2.051  -7.186  11.108  1.00  0.00     0.049 A 
ATOM     63  H   UNL     1      -1.042  -6.058   9.636  1.00  0.00     0.167 HD
ATOM     64  C   UNL     1      -1.895  -8.773   9.239  1.00  0.00     0.074 A 
ATOM     65  C   UNL     1      -2.110 -10.098   8.641  1.00  0.00     0.031 C 
ATOM     66  C   UNL     1      -2.282  -8.427  10.535  1.00  0.00     0.034 A 
BRANCH  53  67
ATOM     67  C   UNL     1      -0.930  -2.870  12.524  1.00  0.00     0.023 A 
ATOM     68  C   UNL     1      -1.541  -1.633  12.407  1.00  0.00     0.012 A 
ATOM     69  C   UNL     1      -0.361  -3.253  13.661  1.00  0.00     0.148 A 
ATOM     70  C   UNL     1      -1.245  -0.745  13.468  1.00  0.00     0.002 A 
ATOM     71  C   UNL     1      -0.226  -2.372  14.707  1.00  0.00     0.091 A 
ATOM     72  F   UNL     1       0.083  -4.500  13.788  1.00  0.00    -0.205 F 
ATOM     73  C   UNL     1      -0.754  -1.113  14.638  1.00  0.00     0.022 A 
BRANCH  71  74
ATOM     74  S   UNL     1       0.662  -2.886  16.197  1.00  0.00     0.127 S 
ATOM     75  O   UNL     1       1.862  -1.963  16.420  1.00  0.00    -0.237 OA
ATOM     76  O   UNL     1      -0.276  -2.805  17.404  1.00  0.00    -0.237 OA
ATOM     77  O   UNL     1       1.209  -4.496  16.008  1.00  0.00    -0.744 OA
ENDBRANCH  71  74
ENDBRANCH  53  67
BRANCH  54  78
ATOM     78  C   UNL     1      -0.438  -9.153   4.838  1.00  0.00     0.023 A 
ATOM     79  C   UNL     1      -1.635  -9.621   4.320  1.00  0.00     0.012 A 
ATOM     80  C   UNL     1       0.726  -9.497   4.300  1.00  0.00     0.148 A 
ATOM     81  C   UNL     1      -1.484 -10.687   3.402  1.00  0.00     0.002 A 
ATOM     82  C   UNL     1       0.786 -10.449   3.311  1.00  0.00     0.091 A 
ATOM     83  F   UNL     1       1.845  -8.915   4.723  1.00  0.00    -0.205 F 
ATOM     84  C   UNL     1      -0.354 -10.997   2.793  1.00  0.00     0.022 A 
BRANCH  82  85
ATOM     85  S   UNL     1       2.398 -10.984   2.684  1.00  0.00     0.127 S 
ATOM     86  O   UNL     1       2.562 -12.487   2.919  1.00  0.00    -0.237 OA
ATOM     87  O   UNL     1       2.486 -10.689   1.185  1.00  0.00    -0.237 OA
ATOM     88  O   UNL     1       3.637 -10.140   3.505  1.00  0.00    -0.744 OA
ENDBRANCH  82  85
ENDBRANCH  54  78
BRANCH  66  89
ATOM     89  C   UNL     1      -3.001  -9.475  11.369  1.00  0.00     0.023 A 
ATOM     90  C   UNL     1      -2.475 -10.739  11.577  1.00  0.00     0.012 A 
ATOM     91  C   UNL     1      -4.223  -9.161  11.784  1.00  0.00     0.148 A 
ATOM     92  C   UNL     1      -3.433 -11.700  11.980  1.00  0.00     0.002 A 
ATOM     93  C   UNL     1      -5.058 -10.125  12.294  1.00  0.00     0.091 A 
ATOM     94  F   UNL     1      -4.642  -7.901  11.704  1.00  0.00    -0.205 F 
ATOM     95  C   UNL     1      -4.624 -11.409  12.472  1.00  0.00     0.022 A 
BRANCH  93  96
ATOM     96  S   UNL     1      -6.758  -9.689  12.736  1.00  0.00     0.127 S 
ATOM     97  O   UNL     1      -7.733 -10.534  11.912  1.00  0.00    -0.237 OA
ATOM     98  O   UNL     1      -6.983  -9.959  14.226  1.00  0.00    -0.237 OA
ATOM     99  O   UNL     1      -7.025  -8.032  12.411  1.00  0.00    -0.744 OA
ENDBRANCH  93  96
ENDBRANCH  66  89
ENDBRANCH  40  41
ENDBRANCH  33  35
ENDBRANCH  32  33
ENDBRANCH  31  32
ENDBRANCH  30  31
ENDBRANCH  29  30
ENDBRANCH   1  29
TORSDOF 22
