REMARK SMILES O=C(OCCOCCOCCOC(=O)[C@]1(C2CCCC2)CCOc2ccccc21)c1ccc(-c2c3nc(c(-c4cccc(S(=O)(=O)[O-])c4F)c4ccc([nH]4)c(-c4cccc(S(=O)(=O)[O-])c4F)c4nc(c(-c5cccc(S(=O)(=O)[O-])c5F)c5ccc2[nH]5)C=C4)C=C3)cc1
REMARK SMILES IDX 7 1 6 2 5 3 4 4 3 5 2 6 1 7 30 8 31 9 92 10 32 11 91 12
REMARK SMILES IDX 33 13 34 14 35 15 85 16 36 17 90 18 84 19 86 20 37 21 89 22
REMARK SMILES IDX 83 23 82 24 38 26 70 27 50 28 69 29 51 30 54 31 68 32 87 33
REMARK SMILES IDX 52 34 53 35 67 37 88 38 55 39 39 40 40 41 48 42 41 43 43 44
REMARK SMILES IDX 49 45 42 46 44 47 45 48 46 49 47 50 71 51 72 52 80 53 73 54
REMARK SMILES IDX 75 55 81 56 74 57 76 58 77 59 78 60 79 61 56 62 57 63 65 64
REMARK SMILES IDX 58 65 60 66 66 67 59 68 61 69 62 70 63 71 64 72 8 73 9 74
REMARK SMILES IDX 10 75 11 76 12 77 13 78 14 79 15 80 21 81 29 82 22 83 24 84
REMARK SMILES IDX 28 85 23 86 25 87 27 88 26 89 16 90 17 91 20 92 18 93 19 94
REMARK H PARENT 86 25 54 36
REMARK Flexibility Score: inf
ROOT
ATOM      1  C   UNL     1       2.615   1.713   0.397  1.00  0.00     0.188 C 
ENDROOT
BRANCH   1   2
ATOM      2  O   UNL     1       3.984   1.345   0.593  1.00  0.00    -0.376 OA
BRANCH   2   3
ATOM      3  C   UNL     1       4.790   1.551  -0.572  1.00  0.00     0.202 C 
BRANCH   3   4
ATOM      4  C   UNL     1       4.547   0.577  -1.742  1.00  0.00     0.261 C 
BRANCH   4   5
ATOM      5  O   UNL     1       3.223   0.018  -1.787  1.00  0.00    -0.460 OA
BRANCH   5   6
ATOM      6  C   UNL     1       2.733  -1.101  -1.195  1.00  0.00     0.338 C 
ATOM      7  O   UNL     1       1.577  -1.427  -1.465  1.00  0.00    -0.246 OA
BRANCH   6   8
ATOM      8  C   UNL     1       3.500  -1.956  -0.228  1.00  0.00     0.060 A 
ATOM      9  C   UNL     1       4.755  -1.652   0.298  1.00  0.00     0.016 A 
ATOM     10  C   UNL     1       2.897  -3.155   0.198  1.00  0.00     0.016 A 
ATOM     11  C   UNL     1       5.435  -2.528   1.131  1.00  0.00     0.010 A 
ATOM     12  C   UNL     1       3.555  -4.027   1.077  1.00  0.00     0.010 A 
ATOM     13  C   UNL     1       4.846  -3.725   1.521  1.00  0.00    -0.014 A 
BRANCH  13  14
ATOM     14  C   UNL     1       5.672  -4.666   2.303  1.00  0.00     0.031 A 
ATOM     15  C   UNL     1       6.285  -5.821   1.587  1.00  0.00     0.074 A 
ATOM     16  C   UNL     1       5.993  -4.396   3.583  1.00  0.00     0.049 A 
ATOM     17  N   UNL     1       7.158  -6.677   2.035  1.00  0.00    -0.248 NA
ATOM     18  C   UNL     1       5.935  -5.990   0.166  1.00  0.00     0.031 C 
ATOM     19  C   UNL     1       5.590  -3.189   4.288  1.00  0.00     0.029 A 
ATOM     20  N   UNL     1       6.720  -5.076   4.519  1.00  0.00    -0.354 N 
ATOM     21  C   UNL     1       7.483  -7.472   0.949  1.00  0.00     0.074 A 
ATOM     22  C   UNL     1       6.692  -7.022  -0.174  1.00  0.00     0.031 C 
ATOM     23  C   UNL     1       5.959  -3.252   5.574  1.00  0.00     0.029 A 
ATOM     24  C   UNL     1       6.687  -4.492   5.768  1.00  0.00     0.049 A 
ATOM     25  H   UNL     1       7.219  -5.901   4.320  1.00  0.00     0.167 HD
ATOM     26  C   UNL     1       8.390  -8.470   0.899  1.00  0.00     0.034 A 
ATOM     27  C   UNL     1       7.209  -4.911   6.934  1.00  0.00     0.034 A 
ATOM     28  C   UNL     1       9.130  -8.918   2.045  1.00  0.00     0.049 A 
ATOM     29  C   UNL     1       8.102  -6.114   6.875  1.00  0.00     0.074 A 
ATOM     30  C   UNL     1      10.019  -9.969   2.139  1.00  0.00     0.029 A 
ATOM     31  N   UNL     1       9.041  -8.348   3.310  1.00  0.00    -0.354 N 
ATOM     32  N   UNL     1       8.442  -6.827   5.827  1.00  0.00    -0.248 NA
ATOM     33  C   UNL     1       8.745  -6.525   8.126  1.00  0.00     0.031 C 
ATOM     34  C   UNL     1      10.440 -10.059   3.470  1.00  0.00     0.029 A 
ATOM     35  C   UNL     1       9.844  -9.039   4.198  1.00  0.00     0.049 A 
ATOM     36  H   UNL     1       8.487  -7.567   3.539  1.00  0.00     0.167 HD
ATOM     37  C   UNL     1       9.369  -7.749   6.281  1.00  0.00     0.074 A 
ATOM     38  C   UNL     1       9.554  -7.484   7.697  1.00  0.00     0.031 C 
ATOM     39  C   UNL     1      10.008  -8.729   5.597  1.00  0.00     0.034 A 
BRANCH  26  40
ATOM     40  C   UNL     1       8.588  -9.137  -0.430  1.00  0.00     0.023 A 
ATOM     41  C   UNL     1       9.296  -8.471  -1.452  1.00  0.00     0.012 A 
ATOM     42  C   UNL     1       8.049 -10.412  -0.674  1.00  0.00     0.148 A 
ATOM     43  C   UNL     1       9.441  -9.057  -2.709  1.00  0.00     0.002 A 
ATOM     44  C   UNL     1       8.229 -11.005  -1.916  1.00  0.00     0.091 A 
ATOM     45  F   UNL     1       7.352 -11.007   0.304  1.00  0.00    -0.205 F 
ATOM     46  C   UNL     1       8.914 -10.326  -2.938  1.00  0.00     0.022 A 
BRANCH  44  47
ATOM     47  S   UNL     1       7.628 -12.651  -2.301  1.00  0.00     0.127 S 
ATOM     48  O   UNL     1       6.672 -12.374  -3.372  1.00  0.00    -0.237 OA
ATOM     49  O   UNL     1       8.850 -13.327  -2.729  1.00  0.00    -0.237 OA
ATOM     50  O   UNL     1       7.040 -13.165  -1.069  1.00  0.00    -0.744 OA
ENDBRANCH  44  47
ENDBRANCH  26  40
BRANCH  27  51
ATOM     51  C   UNL     1       6.961  -4.182   8.209  1.00  0.00     0.023 A 
ATOM     52  C   UNL     1       8.000  -3.455   8.821  1.00  0.00     0.012 A 
ATOM     53  C   UNL     1       5.706  -4.252   8.849  1.00  0.00     0.148 A 
ATOM     54  C   UNL     1       7.808  -2.849  10.065  1.00  0.00     0.002 A 
ATOM     55  C   UNL     1       5.519  -3.640  10.086  1.00  0.00     0.091 A 
ATOM     56  F   UNL     1       4.724  -4.939   8.249  1.00  0.00    -0.205 F 
ATOM     57  C   UNL     1       6.570  -2.940  10.696  1.00  0.00     0.022 A 
BRANCH  55  58
ATOM     58  S   UNL     1       3.942  -3.694  10.954  1.00  0.00     0.127 S 
ATOM     59  O   UNL     1       4.171  -4.763  11.922  1.00  0.00    -0.237 OA
ATOM     60  O   UNL     1       3.859  -2.351  11.531  1.00  0.00    -0.237 OA
ATOM     61  O   UNL     1       2.948  -3.965   9.924  1.00  0.00    -0.744 OA
ENDBRANCH  55  58
ENDBRANCH  27  51
BRANCH  39  62
ATOM     62  C   UNL     1      10.961  -9.579   6.384  1.00  0.00     0.023 A 
ATOM     63  C   UNL     1      10.461 -10.498   7.328  1.00  0.00     0.012 A 
ATOM     64  C   UNL     1      12.346  -9.500   6.151  1.00  0.00     0.148 A 
ATOM     65  C   UNL     1      11.333 -11.297   8.062  1.00  0.00     0.002 A 
ATOM     66  C   UNL     1      13.204 -10.342   6.843  1.00  0.00     0.091 A 
ATOM     67  F   UNL     1      12.797  -8.600   5.265  1.00  0.00    -0.205 F 
ATOM     68  C   UNL     1      12.702 -11.229   7.810  1.00  0.00     0.022 A 
BRANCH  66  69
ATOM     69  S   UNL     1      14.964 -10.398   6.503  1.00  0.00     0.127 S 
ATOM     70  O   UNL     1      15.516  -9.721   7.675  1.00  0.00    -0.237 OA
ATOM     71  O   UNL     1      15.223 -11.838   6.449  1.00  0.00    -0.237 OA
ATOM     72  O   UNL     1      15.149  -9.706   5.235  1.00  0.00    -0.744 OA
ENDBRANCH  66  69
ENDBRANCH  39  62
ENDBRANCH  13  14
ENDBRANCH   6   8
ENDBRANCH   5   6
ENDBRANCH   4   5
ENDBRANCH   3   4
ENDBRANCH   2   3
ENDBRANCH   1   2
BRANCH   1  73
ATOM     73  C   UNL     1       2.008   2.580   1.498  1.00  0.00     0.188 C 
BRANCH  73  74
ATOM     74  O   UNL     1       2.663   3.794   1.846  1.00  0.00    -0.376 OA
BRANCH  74  75
ATOM     75  C   UNL     1       4.046   3.746   2.168  1.00  0.00     0.202 C 
BRANCH  75  76
ATOM     76  C   UNL     1       4.538   2.913   3.363  1.00  0.00     0.261 C 
BRANCH  76  77
ATOM     77  O   UNL     1       3.892   1.655   3.583  1.00  0.00    -0.463 OA
BRANCH  77  78
ATOM     78  C   UNL     1       2.849   1.705   4.461  1.00  0.00     0.317 C 
ATOM     79  O   UNL     1       2.433   2.761   4.935  1.00  0.00    -0.251 OA
BRANCH  78  80
ATOM     80  C   UNL     1       2.331   0.299   4.894  1.00  0.00     0.102 C 
ATOM     81  C   UNL     1       3.015  -0.823   4.092  1.00  0.00     0.065 C 
ATOM     82  C   UNL     1       0.816   0.184   4.606  1.00  0.00     0.012 A 
ATOM     83  C   UNL     1       2.232  -2.127   4.135  1.00  0.00     0.231 C 
ATOM     84  C   UNL     1       0.283  -0.901   3.878  1.00  0.00     0.123 A 
ATOM     85  C   UNL     1      -0.081   1.210   4.949  1.00  0.00     0.009 A 
ATOM     86  O   UNL     1       1.011  -1.970   3.431  1.00  0.00    -0.493 OA
ATOM     87  C   UNL     1      -1.058  -0.941   3.485  1.00  0.00     0.047 A 
ATOM     88  C   UNL     1      -1.418   1.184   4.530  1.00  0.00     0.001 A 
ATOM     89  C   UNL     1      -1.908   0.108   3.799  1.00  0.00     0.004 A 
BRANCH  80  90
ATOM     90  C   UNL     1       2.744   0.270   6.414  1.00  0.00     0.011 C 
ATOM     91  C   UNL     1       2.619  -1.035   7.194  1.00  0.00     0.005 C 
ATOM     92  C   UNL     1       4.237   0.633   6.670  1.00  0.00     0.005 C 
ATOM     93  C   UNL     1       3.380  -0.735   8.476  1.00  0.00     0.000 C 
ATOM     94  C   UNL     1       4.596   0.064   8.037  1.00  0.00     0.000 C 
ENDBRANCH  80  90
ENDBRANCH  78  80
ENDBRANCH  77  78
ENDBRANCH  76  77
ENDBRANCH  75  76
ENDBRANCH  74  75
ENDBRANCH  73  74
ENDBRANCH   1  73
TORSDOF 21
