REMARK SMILES Cc1ccc(NC(=O)Cn2c(CCC(=O)OCCOCCOCCOC(=O)c3ccc(-c4c5nc(c(-c6cccc(S(=O)(=O)[O-])c6F)c6ccc([nH]6)c(-c6cccc(S(=O)(=O)[O-])c6F)c6nc(c(-c7cccc(S(=O)(=O)[O-])c7F)c7ccc4[nH]7)C=C6)C=C5)cc3)ccc2-c2ccccc2)cc1
REMARK SMILES IDX 20 1 19 2 18 3 17 4 16 5 14 6 15 7 13 8 12 9 11 10 10 11
REMARK SMILES IDX 93 12 91 13 92 14 9 15 7 16 6 17 8 19 5 20 1 21 2 22 3 23
REMARK SMILES IDX 101 24 4 25 100 26 94 27 95 28 99 29 96 30 98 31 97 32 21 33
REMARK SMILES IDX 22 34 23 35 24 36 25 37 26 38 27 39 28 40 29 41 90 42 30 43
REMARK SMILES IDX 89 44 31 45 32 46 33 47 83 48 34 49 88 50 82 51 84 52 35 53
REMARK SMILES IDX 87 54 81 55 80 56 36 58 68 59 48 60 67 61 49 62 52 63 66 64
REMARK SMILES IDX 85 65 50 66 51 67 65 69 86 70 53 71 37 72 38 73 46 74 39 75
REMARK SMILES IDX 41 76 47 77 40 78 42 79 43 80 44 81 45 82 69 83 70 84 78 85
REMARK SMILES IDX 71 86 73 87 79 88 72 89 74 90 75 91 76 92 77 93 54 94 55 95
REMARK SMILES IDX 63 96 56 97 58 98 64 99 57 100 59 101 60 102 61 103 62 104
REMARK H PARENT 6 18 84 57 52 68
REMARK Flexibility Score: inf
ROOT
ATOM      1  C   UNL     1      -4.287  -1.514   3.150  1.00  0.00     0.188 C 
ENDROOT
BRANCH   1   2
ATOM      2  O   UNL     1      -5.622  -1.874   2.805  1.00  0.00    -0.376 OA
BRANCH   2   3
ATOM      3  C   UNL     1      -5.819  -2.977   1.913  1.00  0.00     0.202 C 
BRANCH   3   4
ATOM      4  C   UNL     1      -6.346  -2.800   0.380  1.00  0.00     0.261 C 
BRANCH   4   5
ATOM      5  O   UNL     1      -5.907  -1.882  -0.806  1.00  0.00    -0.463 OA
BRANCH   5   6
ATOM      6  C   UNL     1      -6.099  -0.585  -1.269  1.00  0.00     0.306 C 
ATOM      7  O   UNL     1      -7.154   0.028  -1.095  1.00  0.00    -0.252 OA
BRANCH   6   8
ATOM      8  C   UNL     1      -4.598   0.445  -1.748  1.00  0.00     0.129 C 
BRANCH   8   9
ATOM      9  C   UNL     1      -2.461   0.156  -2.632  1.00  0.00     0.066 C 
BRANCH   9  10
ATOM     10  C   UNL     1      -1.777  -1.692  -2.875  1.00  0.00     0.019 A 
ATOM     11  N   UNL     1      -2.455  -2.930  -2.114  1.00  0.00    -0.335 N 
ATOM     12  C   UNL     1      -1.804  -4.098  -2.443  1.00  0.00     0.049 A 
ATOM     13  C   UNL     1      -0.750  -2.297  -3.580  1.00  0.00     0.024 A 
ATOM     14  C   UNL     1      -0.777  -3.726  -3.310  1.00  0.00     0.029 A 
BRANCH  11  15
ATOM     15  C   UNL     1      -3.728  -2.770  -0.867  1.00  0.00     0.222 C 
BRANCH  15  16
ATOM     16  C   UNL     1      -4.071  -0.965  -0.091  1.00  0.00     0.244 C 
ATOM     17  N   UNL     1      -3.046   0.365  -0.761  1.00  0.00    -0.325 N 
ATOM     18  H   UNL     1      -3.540   1.188  -0.980  1.00  0.00     0.169 HD
ATOM     19  O   UNL     1      -4.830  -0.491   0.761  1.00  0.00    -0.273 OA
BRANCH  17  20
ATOM     20  C   UNL     1      -1.046   0.455  -1.140  1.00  0.00     0.041 A 
ATOM     21  C   UNL     1       3.366   0.422   0.093  1.00  0.00     0.044 C 
ATOM     22  C   UNL     1       1.932   0.495  -0.328  1.00  0.00    -0.051 A 
ATOM     23  C   UNL     1       1.277  -0.690  -0.494  1.00  0.00     0.005 A 
ATOM     24  C   UNL     1       1.222   1.651  -0.659  1.00  0.00     0.005 A 
ATOM     25  C   UNL     1      -0.058  -0.696  -0.922  1.00  0.00     0.026 A 
ATOM     26  C   UNL     1      -0.163   1.640  -1.102  1.00  0.00     0.026 A 
ENDBRANCH  17  20
ENDBRANCH  15  16
ENDBRANCH  11  15
BRANCH  12  27
ATOM     27  C   UNL     1      -2.217  -5.420  -1.929  1.00  0.00    -0.002 A 
ATOM     28  C   UNL     1      -1.286  -6.336  -1.423  1.00  0.00     0.010 A 
ATOM     29  C   UNL     1      -3.571  -5.795  -1.920  1.00  0.00     0.010 A 
ATOM     30  C   UNL     1      -1.701  -7.581  -0.920  1.00  0.00     0.001 A 
ATOM     31  C   UNL     1      -3.993  -7.015  -1.381  1.00  0.00     0.001 A 
ATOM     32  C   UNL     1      -3.055  -7.915  -0.891  1.00  0.00     0.000 A 
ENDBRANCH  12  27
ENDBRANCH   9  10
ENDBRANCH   8   9
ENDBRANCH   6   8
ENDBRANCH   5   6
ENDBRANCH   4   5
ENDBRANCH   3   4
ENDBRANCH   2   3
ENDBRANCH   1   2
BRANCH   1  33
ATOM     33  C   UNL     1      -3.307  -2.020   2.120  1.00  0.00     0.188 C 
BRANCH  33  34
ATOM     34  O   UNL     1      -2.286  -2.940   1.917  1.00  0.00    -0.376 OA
BRANCH  34  35
ATOM     35  C   UNL     1      -1.611  -3.296   3.050  1.00  0.00     0.202 C 
BRANCH  35  36
ATOM     36  C   UNL     1      -1.209  -2.028   3.770  1.00  0.00     0.261 C 
BRANCH  36  37
ATOM     37  O   UNL     1      -1.000  -0.692   2.969  1.00  0.00    -0.460 OA
BRANCH  37  38
ATOM     38  C   UNL     1      -1.224   0.286   2.008  1.00  0.00     0.338 C 
ATOM     39  O   UNL     1      -0.865   1.422   2.353  1.00  0.00    -0.246 OA
BRANCH  38  40
ATOM     40  C   UNL     1      -1.936   0.327   0.574  1.00  0.00     0.060 A 
ATOM     41  C   UNL     1      -2.394   2.016  -0.356  1.00  0.00     0.016 A 
ATOM     42  C   UNL     1      -2.325  -1.178  -0.682  1.00  0.00     0.016 A 
ATOM     43  C   UNL     1      -3.248   2.062  -2.123  1.00  0.00     0.010 A 
ATOM     44  C   UNL     1      -3.632  -1.021  -2.268  1.00  0.00     0.010 A 
ATOM     45  C   UNL     1      -3.962   0.691  -3.340  1.00  0.00    -0.014 A 
BRANCH  45  46
ATOM     46  C   UNL     1      -4.990   0.577  -4.729  1.00  0.00     0.031 A 
ATOM     47  C   UNL     1      -4.667  -0.733  -5.234  1.00  0.00     0.074 A 
ATOM     48  C   UNL     1      -6.180   0.918  -5.459  1.00  0.00     0.049 A 
ATOM     49  N   UNL     1      -5.399  -1.691  -4.805  1.00  0.00    -0.248 NA
ATOM     50  C   UNL     1      -3.444  -1.079  -5.916  1.00  0.00     0.031 C 
ATOM     51  C   UNL     1      -7.111   2.036  -5.276  1.00  0.00     0.029 A 
ATOM     52  N   UNL     1      -6.956   0.176  -6.536  1.00  0.00    -0.354 N 
ATOM     53  C   UNL     1      -4.839  -2.826  -5.272  1.00  0.00     0.074 A 
ATOM     54  C   UNL     1      -3.565  -2.408  -5.833  1.00  0.00     0.031 C 
ATOM     55  C   UNL     1      -8.292   1.813  -5.921  1.00  0.00     0.029 A 
ATOM     56  C   UNL     1      -8.354   0.485  -6.626  1.00  0.00     0.049 A 
ATOM     57  H   UNL     1      -6.526  -0.476  -7.135  1.00  0.00     0.167 HD
ATOM     58  C   UNL     1      -5.589  -3.945  -5.198  1.00  0.00     0.034 A 
ATOM     59  C   UNL     1      -9.618  -0.104  -6.965  1.00  0.00     0.034 A 
ATOM     60  C   UNL     1      -6.776  -3.870  -4.261  1.00  0.00     0.049 A 
ATOM     61  C   UNL     1     -10.041  -0.230  -5.551  1.00  0.00     0.074 A 
ATOM     62  C   UNL     1      -7.371  -4.803  -3.434  1.00  0.00     0.029 A 
ATOM     63  N   UNL     1      -7.518  -2.687  -4.000  1.00  0.00    -0.354 N 
ATOM     64  N   UNL     1      -9.435  -1.090  -4.803  1.00  0.00    -0.248 NA
ATOM     65  C   UNL     1     -11.013   0.629  -4.917  1.00  0.00     0.031 C 
ATOM     66  C   UNL     1      -8.444  -4.183  -2.714  1.00  0.00     0.029 A 
ATOM     67  C   UNL     1      -8.502  -2.826  -2.994  1.00  0.00     0.049 A 
ATOM     68  H   UNL     1      -7.361  -1.842  -4.480  1.00  0.00     0.167 HD
ATOM     69  C   UNL     1      -9.861  -0.875  -3.534  1.00  0.00     0.074 A 
ATOM     70  C   UNL     1     -10.730   0.300  -3.654  1.00  0.00     0.031 C 
ATOM     71  C   UNL     1      -9.410  -1.688  -2.537  1.00  0.00     0.034 A 
BRANCH  58  72
ATOM     72  C   UNL     1      -5.319  -5.056  -6.202  1.00  0.00     0.023 A 
ATOM     73  C   UNL     1      -6.445  -5.792  -6.612  1.00  0.00     0.012 A 
ATOM     74  C   UNL     1      -4.111  -5.326  -6.907  1.00  0.00     0.148 A 
ATOM     75  C   UNL     1      -6.391  -6.705  -7.671  1.00  0.00     0.002 A 
ATOM     76  C   UNL     1      -4.075  -6.171  -8.019  1.00  0.00     0.091 A 
ATOM     77  F   UNL     1      -2.951  -4.827  -6.479  1.00  0.00    -0.205 F 
ATOM     78  C   UNL     1      -5.217  -6.874  -8.396  1.00  0.00     0.022 A 
BRANCH  76  79
ATOM     79  S   UNL     1      -2.608  -6.343  -9.063  1.00  0.00     0.127 S 
ATOM     80  O   UNL     1      -2.223  -7.734  -8.830  1.00  0.00    -0.237 OA
ATOM     81  O   UNL     1      -3.138  -6.072 -10.400  1.00  0.00    -0.237 OA
ATOM     82  O   UNL     1      -1.647  -5.349  -8.596  1.00  0.00    -0.744 OA
ENDBRANCH  76  79
ENDBRANCH  58  72
BRANCH  59  83
ATOM     83  C   UNL     1     -10.553  -1.231  -7.715  1.00  0.00     0.023 A 
ATOM     84  C   UNL     1     -11.059  -0.958  -9.013  1.00  0.00     0.012 A 
ATOM     85  C   UNL     1     -11.234  -2.371  -7.092  1.00  0.00     0.148 A 
ATOM     86  C   UNL     1     -12.015  -1.796  -9.677  1.00  0.00     0.002 A 
ATOM     87  C   UNL     1     -12.138  -3.230  -7.777  1.00  0.00     0.091 A 
ATOM     88  F   UNL     1     -11.135  -2.569  -5.776  1.00  0.00    -0.205 F 
ATOM     89  C   UNL     1     -12.518  -2.949  -9.083  1.00  0.00     0.022 A 
BRANCH  87  90
ATOM     90  S   UNL     1     -12.905  -4.723  -7.050  1.00  0.00     0.127 S 
ATOM     91  O   UNL     1     -14.322  -4.550  -7.386  1.00  0.00    -0.237 OA
ATOM     92  O   UNL     1     -12.244  -5.791  -7.799  1.00  0.00    -0.237 OA
ATOM     93  O   UNL     1     -12.621  -4.682  -5.625  1.00  0.00    -0.744 OA
ENDBRANCH  87  90
ENDBRANCH  59  83
BRANCH  71  94
ATOM     94  C   UNL     1      -9.798  -1.372  -1.072  1.00  0.00     0.023 A 
ATOM     95  C   UNL     1     -10.483  -0.207  -0.670  1.00  0.00     0.012 A 
ATOM     96  C   UNL     1      -9.461  -2.174   0.017  1.00  0.00     0.148 A 
ATOM     97  C   UNL     1     -10.470   0.335   0.618  1.00  0.00     0.002 A 
ATOM     98  C   UNL     1      -9.473  -1.672   1.338  1.00  0.00     0.091 A 
ATOM     99  F   UNL     1      -9.175  -3.462  -0.206  1.00  0.00    -0.205 F 
ATOM    100  C   UNL     1      -9.857  -0.365   1.619  1.00  0.00     0.022 A 
BRANCH  98 101
ATOM    101  S   UNL     1      -9.181  -2.686   2.788  1.00  0.00     0.127 S 
ATOM    102  O   UNL     1      -8.248  -1.879   3.572  1.00  0.00    -0.237 OA
ATOM    103  O   UNL     1     -10.516  -2.763   3.375  1.00  0.00    -0.237 OA
ATOM    104  O   UNL     1      -8.661  -3.955   2.294  1.00  0.00    -0.744 OA
ENDBRANCH  98 101
ENDBRANCH  71  94
ENDBRANCH  45  46
ENDBRANCH  38  40
ENDBRANCH  37  38
ENDBRANCH  36  37
ENDBRANCH  35  36
ENDBRANCH  34  35
ENDBRANCH  33  34
ENDBRANCH   1  33
TORSDOF 26
