REMARK SMILES [NH3+][C@@H](Cc1cccc(O)c1)C(=O)OCCOCCOCCOC(=O)c1ccc(-c2c3nc(c(-c4cccc(S(=O)(=O)[O-])c4F)c4ccc([nH]4)c(-c4cccc(S(=O)(=O)[O-])c4F)c4nc(c(-c5cccc(S(=O)(=O)[O-])c5F)c5ccc2[nH]5)C=C4)C=C3)cc1
REMARK SMILES IDX 17 1 16 2 15 3 14 4 13 5 11 6 12 7 2 8 1 9 3 13 4 14 5 15
REMARK SMILES IDX 10 16 6 17 8 18 7 19 9 20 18 22 19 23 20 24 21 25 22 26
REMARK SMILES IDX 23 27 24 28 25 29 26 30 87 31 27 32 86 33 28 34 29 35 30 36
REMARK SMILES IDX 80 37 31 38 85 39 79 40 81 41 32 42 84 43 78 44 77 45 33 47
REMARK SMILES IDX 65 48 45 49 64 50 46 51 49 52 63 53 82 54 47 55 48 56 62 58
REMARK SMILES IDX 83 59 50 60 34 61 35 62 43 63 36 64 38 65 44 66 37 67 39 68
REMARK SMILES IDX 40 69 41 70 42 71 66 72 67 73 75 74 68 75 70 76 76 77 69 78
REMARK SMILES IDX 71 79 72 80 73 81 74 82 51 83 52 84 60 85 53 86 55 87 61 88
REMARK SMILES IDX 54 89 56 90 57 91 58 92 59 93
REMARK H PARENT 1 10 1 11 1 12 9 21 81 46 49 57
REMARK Flexibility Score: inf
ROOT
ATOM      1  C   UNL     1      -2.264   0.201   1.888  1.00  0.00     0.188 C 
ENDROOT
BRANCH   1   2
ATOM      2  O   UNL     1      -3.592   0.640   1.616  1.00  0.00    -0.376 OA
BRANCH   2   3
ATOM      3  C   UNL     1      -3.952   0.924   0.270  1.00  0.00     0.202 C 
BRANCH   3   4
ATOM      4  C   UNL     1      -3.048   1.830  -0.585  1.00  0.00     0.261 C 
BRANCH   4   5
ATOM      5  O   UNL     1      -1.635   1.563  -0.498  1.00  0.00    -0.459 OA
BRANCH   5   6
ATOM      6  C   UNL     1      -0.837   2.625  -0.181  1.00  0.00     0.365 C 
ATOM      7  O   UNL     1      -1.240   3.777  -0.044  1.00  0.00    -0.245 OA
BRANCH   6   8
ATOM      8  C   UNL     1       0.664   2.276  -0.096  1.00  0.00     0.296 C 
BRANCH   8   9
ATOM      9  N   UNL     1       0.951   0.848   0.159  1.00  0.00    -0.346 N 
ATOM     10  H   UNL     1       1.960   0.705   0.200  1.00  0.00     0.345 HD
ATOM     11  H   UNL     1       0.558   0.282  -0.594  1.00  0.00     0.345 HD
ATOM     12  H   UNL     1       0.532   0.570   1.047  1.00  0.00     0.345 HD
ENDBRANCH   8   9
BRANCH   8  13
ATOM     13  C   UNL     1       1.400   2.779  -1.349  1.00  0.00     0.113 C 
BRANCH  13  14
ATOM     14  C   UNL     1       0.829   2.264  -2.653  1.00  0.00    -0.038 A 
ATOM     15  C   UNL     1       0.035   3.110  -3.439  1.00  0.00     0.004 A 
ATOM     16  C   UNL     1       1.012   0.935  -3.062  1.00  0.00     0.050 A 
ATOM     17  C   UNL     1      -0.581   2.632  -4.596  1.00  0.00     0.004 A 
ATOM     18  C   UNL     1       0.361   0.458  -4.194  1.00  0.00     0.115 A 
ATOM     19  C   UNL     1      -0.430   1.297  -4.970  1.00  0.00     0.046 A 
BRANCH  18  20
ATOM     20  O   UNL     1       0.510  -0.862  -4.503  1.00  0.00    -0.508 OA
ATOM     21  H   UNL     1       0.085  -1.217  -5.258  1.00  0.00     0.293 HD
ENDBRANCH  18  20
ENDBRANCH  13  14
ENDBRANCH   8  13
ENDBRANCH   6   8
ENDBRANCH   5   6
ENDBRANCH   4   5
ENDBRANCH   3   4
ENDBRANCH   2   3
ENDBRANCH   1   2
BRANCH   1  22
ATOM     22  C   UNL     1      -1.669  -0.929   1.027  1.00  0.00     0.188 C 
BRANCH  22  23
ATOM     23  O   UNL     1      -2.470  -1.322  -0.062  1.00  0.00    -0.376 OA
BRANCH  23  24
ATOM     24  C   UNL     1      -3.039  -2.616  -0.026  1.00  0.00     0.202 C 
BRANCH  24  25
ATOM     25  C   UNL     1      -3.674  -3.193   1.259  1.00  0.00     0.261 C 
BRANCH  25  26
ATOM     26  O   UNL     1      -3.164  -2.750   2.529  1.00  0.00    -0.460 OA
BRANCH  26  27
ATOM     27  C   UNL     1      -2.094  -3.408   3.033  1.00  0.00     0.338 C 
ATOM     28  O   UNL     1      -1.514  -4.356   2.518  1.00  0.00    -0.246 OA
BRANCH  27  29
ATOM     29  C   UNL     1      -1.578  -2.653   4.200  1.00  0.00     0.060 A 
ATOM     30  C   UNL     1      -0.307  -2.062   4.123  1.00  0.00     0.016 A 
ATOM     31  C   UNL     1      -2.333  -2.538   5.368  1.00  0.00     0.016 A 
ATOM     32  C   UNL     1       0.227  -1.386   5.224  1.00  0.00     0.010 A 
ATOM     33  C   UNL     1      -1.786  -1.883   6.478  1.00  0.00     0.010 A 
ATOM     34  C   UNL     1      -0.489  -1.337   6.426  1.00  0.00    -0.014 A 
BRANCH  34  35
ATOM     35  C   UNL     1       0.191  -0.917   7.679  1.00  0.00     0.031 A 
ATOM     36  C   UNL     1       0.700  -1.990   8.606  1.00  0.00     0.074 A 
ATOM     37  C   UNL     1       0.353   0.379   8.003  1.00  0.00     0.049 A 
ATOM     38  N   UNL     1       1.269  -1.879   9.777  1.00  0.00    -0.248 NA
ATOM     39  C   UNL     1       0.537  -3.380   8.147  1.00  0.00     0.031 C 
ATOM     40  C   UNL     1      -0.072   1.516   7.190  1.00  0.00     0.029 A 
ATOM     41  N   UNL     1       0.899   0.952   9.127  1.00  0.00    -0.354 N 
ATOM     42  C   UNL     1       1.496  -3.179  10.213  1.00  0.00     0.074 A 
ATOM     43  C   UNL     1       0.995  -4.064   9.184  1.00  0.00     0.031 C 
ATOM     44  C   UNL     1       0.203   2.653   7.856  1.00  0.00     0.029 A 
ATOM     45  C   UNL     1       0.795   2.324   9.152  1.00  0.00     0.049 A 
ATOM     46  H   UNL     1       1.323   0.431   9.846  1.00  0.00     0.167 HD
ATOM     47  C   UNL     1       2.079  -3.604  11.360  1.00  0.00     0.034 A 
ATOM     48  C   UNL     1       1.118   3.206  10.119  1.00  0.00     0.034 A 
ATOM     49  C   UNL     1       2.589  -2.727  12.378  1.00  0.00     0.049 A 
ATOM     50  C   UNL     1       1.730   2.707  11.406  1.00  0.00     0.074 A 
ATOM     51  C   UNL     1       3.237  -3.061  13.554  1.00  0.00     0.029 A 
ATOM     52  N   UNL     1       2.494  -1.344  12.353  1.00  0.00    -0.354 N 
ATOM     53  N   UNL     1       2.038   1.482  11.757  1.00  0.00    -0.248 NA
ATOM     54  C   UNL     1       2.070   3.720  12.417  1.00  0.00     0.031 C 
ATOM     55  C   UNL     1       3.497  -1.881  14.260  1.00  0.00     0.029 A 
ATOM     56  C   UNL     1       3.056  -0.810  13.500  1.00  0.00     0.049 A 
ATOM     57  H   UNL     1       2.087  -0.820  11.626  1.00  0.00     0.167 HD
ATOM     58  C   UNL     1       2.648   1.581  13.005  1.00  0.00     0.074 A 
ATOM     59  C   UNL     1       2.680   2.989  13.341  1.00  0.00     0.031 C 
ATOM     60  C   UNL     1       3.131   0.597  13.803  1.00  0.00     0.034 A 
BRANCH  47  61
ATOM     61  C   UNL     1       2.197  -5.091  11.571  1.00  0.00     0.023 A 
ATOM     62  C   UNL     1       3.097  -5.845  10.789  1.00  0.00     0.012 A 
ATOM     63  C   UNL     1       1.444  -5.737  12.571  1.00  0.00     0.148 A 
ATOM     64  C   UNL     1       3.216  -7.222  10.971  1.00  0.00     0.002 A 
ATOM     65  C   UNL     1       1.605  -7.101  12.781  1.00  0.00     0.091 A 
ATOM     66  F   UNL     1       0.578  -5.009  13.290  1.00  0.00    -0.205 F 
ATOM     67  C   UNL     1       2.478  -7.848  11.973  1.00  0.00     0.022 A 
BRANCH  65  68
ATOM     68  S   UNL     1       0.764  -7.984  14.100  1.00  0.00     0.127 S 
ATOM     69  O   UNL     1      -0.180  -8.809  13.348  1.00  0.00    -0.237 OA
ATOM     70  O   UNL     1       1.862  -8.726  14.721  1.00  0.00    -0.237 OA
ATOM     71  O   UNL     1       0.164  -6.964  14.948  1.00  0.00    -0.744 OA
ENDBRANCH  65  68
ENDBRANCH  47  61
BRANCH  48  72
ATOM     72  C   UNL     1       0.901   4.667   9.908  1.00  0.00     0.023 A 
ATOM     73  C   UNL     1       2.013   5.525   9.797  1.00  0.00     0.012 A 
ATOM     74  C   UNL     1      -0.395   5.212   9.827  1.00  0.00     0.148 A 
ATOM     75  C   UNL     1       1.840   6.902   9.645  1.00  0.00     0.002 A 
ATOM     76  C   UNL     1      -0.561   6.577   9.620  1.00  0.00     0.091 A 
ATOM     77  F   UNL     1      -1.441   4.383   9.953  1.00  0.00    -0.205 F 
ATOM     78  C   UNL     1       0.554   7.426   9.548  1.00  0.00     0.022 A 
BRANCH  76  79
ATOM     79  S   UNL     1      -2.173   7.329   9.369  1.00  0.00     0.127 S 
ATOM     80  O   UNL     1      -2.306   8.156  10.566  1.00  0.00    -0.237 OA
ATOM     81  O   UNL     1      -1.965   8.073   8.126  1.00  0.00    -0.237 OA
ATOM     82  O   UNL     1      -3.114   6.223   9.261  1.00  0.00    -0.744 OA
ENDBRANCH  76  79
ENDBRANCH  48  72
BRANCH  60  83
ATOM     83  C   UNL     1       3.795   0.999  15.097  1.00  0.00     0.023 A 
ATOM     84  C   UNL     1       3.027   1.512  16.161  1.00  0.00     0.012 A 
ATOM     85  C   UNL     1       5.180   0.803  15.280  1.00  0.00     0.148 A 
ATOM     86  C   UNL     1       3.632   1.863  17.369  1.00  0.00     0.002 A 
ATOM     87  C   UNL     1       5.766   1.103  16.504  1.00  0.00     0.091 A 
ATOM     88  F   UNL     1       5.899   0.327  14.253  1.00  0.00    -0.205 F 
ATOM     89  C   UNL     1       4.997   1.648  17.544  1.00  0.00     0.022 A 
BRANCH  87  90
ATOM     90  S   UNL     1       7.496   0.764  16.853  1.00  0.00     0.127 S 
ATOM     91  O   UNL     1       8.062   2.112  16.888  1.00  0.00    -0.237 OA
ATOM     92  O   UNL     1       7.424   0.099  18.155  1.00  0.00    -0.237 OA
ATOM     93  O   UNL     1       7.968  -0.083  15.767  1.00  0.00    -0.744 OA
ENDBRANCH  87  90
ENDBRANCH  60  83
ENDBRANCH  34  35
ENDBRANCH  27  29
ENDBRANCH  26  27
ENDBRANCH  25  26
ENDBRANCH  24  25
ENDBRANCH  23  24
ENDBRANCH  22  23
ENDBRANCH   1  22
TORSDOF 24
