REMARK SMILES CC(C)OC(=O)c1c(NC(=O)[C@H]2[C@@H](C(=O)OCCOCCOCCOC(=O)c3ccc(-c4c5nc(c(-c6cccc(S(=O)(=O)[O-])c6F)c6ccc([nH]6)c(-c6cccc(S(=O)(=O)[O-])c6F)c6nc(c(-c7cccc(S(=O)(=O)[O-])c7F)c7ccc4[nH]7)C=C6)C=C5)cc3)[C@@H]3C=C[C@H]2CC3)sc2c1CCC2
REMARK SMILES IDX 20 1 19 2 18 3 17 4 16 5 14 6 15 7 13 8 12 9 94 10 91 11
REMARK SMILES IDX 93 12 95 13 92 14 96 15 10 16 9 17 11 19 8 20 7 21 99 22
REMARK SMILES IDX 97 23 98 24 100 25 102 26 101 27 5 28 6 29 4 30 2 31 1 32
REMARK SMILES IDX 3 33 21 34 22 35 23 36 24 37 25 38 26 39 27 40 28 41 29 42
REMARK SMILES IDX 90 43 30 44 89 45 31 46 32 47 33 48 83 49 34 50 88 51 82 52
REMARK SMILES IDX 84 53 35 54 87 55 81 56 80 57 36 59 68 60 48 61 67 62 49 63
REMARK SMILES IDX 52 64 66 65 85 66 50 67 51 68 65 70 86 71 53 72 37 73 38 74
REMARK SMILES IDX 46 75 39 76 41 77 47 78 40 79 42 80 43 81 44 82 45 83 69 84
REMARK SMILES IDX 70 85 78 86 71 87 73 88 79 89 72 90 74 91 75 92 76 93 77 94
REMARK SMILES IDX 54 95 55 96 63 97 56 98 58 99 64 100 57 101 59 102 60 103
REMARK SMILES IDX 61 104 62 105
REMARK H PARENT 9 18 84 58 52 69
REMARK Flexibility Score: inf
ROOT
ATOM      1  C   UNL     1      -5.831   1.086  -0.514  1.00  0.00     0.188 C 
ENDROOT
BRANCH   1   2
ATOM      2  O   UNL     1      -6.704   1.723  -1.436  1.00  0.00    -0.376 OA
BRANCH   2   3
ATOM      3  C   UNL     1      -7.809   0.927  -1.870  1.00  0.00     0.202 C 
BRANCH   3   4
ATOM      4  C   UNL     1      -8.928   0.793  -0.824  1.00  0.00     0.261 C 
BRANCH   4   5
ATOM      5  O   UNL     1      -8.485   0.172   0.393  1.00  0.00    -0.463 OA
BRANCH   5   6
ATOM      6  C   UNL     1      -8.230  -1.167   0.318  1.00  0.00     0.310 C 
ATOM      7  O   UNL     1      -8.495  -1.839  -0.661  1.00  0.00    -0.252 OA
BRANCH   6   8
ATOM      8  C   UNL     1      -7.461  -1.588   1.563  1.00  0.00     0.119 C 
ATOM      9  C   UNL     1      -6.788  -2.989   1.642  1.00  0.00     0.100 C 
ATOM     10  C   UNL     1      -7.399  -3.769   2.838  1.00  0.00     0.025 C 
ATOM     11  C   UNL     1      -8.274  -1.321   2.861  1.00  0.00     0.026 C 
ATOM     12  C   UNL     1      -6.996  -2.976   4.070  1.00  0.00    -0.027 C 
ATOM     13  C   UNL     1      -8.947  -3.739   2.759  1.00  0.00     0.009 C 
ATOM     14  C   UNL     1      -7.412  -1.698   4.061  1.00  0.00    -0.027 C 
ATOM     15  C   UNL     1      -9.469  -2.290   2.881  1.00  0.00     0.009 C 
BRANCH   9  16
ATOM     16  C   UNL     1      -6.710  -3.872   0.411  1.00  0.00     0.229 C 
ATOM     17  N   UNL     1      -5.522  -4.335  -0.084  1.00  0.00    -0.317 N 
ATOM     18  H   UNL     1      -5.513  -4.424  -1.064  1.00  0.00     0.170 HD
ATOM     19  O   UNL     1      -7.730  -4.253  -0.169  1.00  0.00    -0.274 OA
BRANCH  17  20
ATOM     20  C   UNL     1      -4.324  -4.704   0.520  1.00  0.00     0.110 A 
ATOM     21  C   UNL     1      -3.312  -5.450  -0.100  1.00  0.00     0.098 A 
ATOM     22  C   UNL     1      -2.324  -5.820   0.857  1.00  0.00    -0.017 A 
ATOM     23  S   UNL     1      -3.993  -4.440   2.179  1.00  0.00    -0.122 S 
ATOM     24  C   UNL     1      -2.569  -5.284   2.087  1.00  0.00     0.011 A 
ATOM     25  C   UNL     1      -1.080  -6.636   0.884  1.00  0.00     0.038 C 
ATOM     26  C   UNL     1      -1.553  -5.607   3.113  1.00  0.00     0.047 C 
ATOM     27  C   UNL     1      -0.828  -6.797   2.420  1.00  0.00     0.010 C 
BRANCH  21  28
ATOM     28  C   UNL     1      -3.369  -5.825  -1.507  1.00  0.00     0.341 C 
ATOM     29  O   UNL     1      -3.920  -5.123  -2.348  1.00  0.00    -0.246 OA
BRANCH  28  30
ATOM     30  O   UNL     1      -2.849  -7.060  -1.740  1.00  0.00    -0.459 OA
BRANCH  30  31
ATOM     31  C   UNL     1      -2.910  -7.627  -3.067  1.00  0.00     0.170 C 
ATOM     32  C   UNL     1      -4.305  -7.615  -3.694  1.00  0.00     0.052 C 
ATOM     33  C   UNL     1      -1.850  -7.003  -3.963  1.00  0.00     0.052 C 
ENDBRANCH  30  31
ENDBRANCH  28  30
ENDBRANCH  21  28
ENDBRANCH  17  20
ENDBRANCH   9  16
ENDBRANCH   6   8
ENDBRANCH   5   6
ENDBRANCH   4   5
ENDBRANCH   3   4
ENDBRANCH   2   3
ENDBRANCH   1   2
BRANCH   1  34
ATOM     34  C   UNL     1      -5.797   1.702   0.902  1.00  0.00     0.188 C 
BRANCH  34  35
ATOM     35  O   UNL     1      -6.795   2.612   1.344  1.00  0.00    -0.376 OA
BRANCH  35  36
ATOM     36  C   UNL     1      -7.192   3.702   0.521  1.00  0.00     0.202 C 
BRANCH  36  37
ATOM     37  C   UNL     1      -6.160   4.716   0.038  1.00  0.00     0.261 C 
BRANCH  37  38
ATOM     38  O   UNL     1      -5.048   4.123  -0.613  1.00  0.00    -0.460 OA
BRANCH  38  39
ATOM     39  C   UNL     1      -3.947   4.037   0.161  1.00  0.00     0.338 C 
ATOM     40  O   UNL     1      -3.857   4.307   1.348  1.00  0.00    -0.246 OA
BRANCH  39  41
ATOM     41  C   UNL     1      -2.818   3.556  -0.641  1.00  0.00     0.060 A 
ATOM     42  C   UNL     1      -1.674   3.168   0.063  1.00  0.00     0.016 A 
ATOM     43  C   UNL     1      -2.816   3.723  -2.032  1.00  0.00     0.016 A 
ATOM     44  C   UNL     1      -0.466   3.181  -0.594  1.00  0.00     0.010 A 
ATOM     45  C   UNL     1      -1.605   3.740  -2.688  1.00  0.00     0.010 A 
ATOM     46  C   UNL     1      -0.444   3.574  -1.935  1.00  0.00    -0.014 A 
BRANCH  46  47
ATOM     47  C   UNL     1       0.843   3.934  -2.491  1.00  0.00     0.031 A 
ATOM     48  C   UNL     1       1.704   2.811  -2.900  1.00  0.00     0.074 A 
ATOM     49  C   UNL     1       1.176   5.226  -2.682  1.00  0.00     0.049 A 
ATOM     50  N   UNL     1       2.869   2.495  -2.438  1.00  0.00    -0.248 NA
ATOM     51  C   UNL     1       1.155   1.871  -3.886  1.00  0.00     0.031 C 
ATOM     52  C   UNL     1       0.290   6.392  -2.591  1.00  0.00     0.029 A 
ATOM     53  N   UNL     1       2.342   5.751  -3.150  1.00  0.00    -0.354 N 
ATOM     54  C   UNL     1       3.299   1.448  -3.243  1.00  0.00     0.074 A 
ATOM     55  C   UNL     1       2.155   0.998  -3.996  1.00  0.00     0.031 C 
ATOM     56  C   UNL     1       0.868   7.431  -3.232  1.00  0.00     0.029 A 
ATOM     57  C   UNL     1       2.200   7.036  -3.655  1.00  0.00     0.049 A 
ATOM     58  H   UNL     1       3.200   5.268  -3.132  1.00  0.00     0.167 HD
ATOM     59  C   UNL     1       4.617   1.183  -3.433  1.00  0.00     0.034 A 
ATOM     60  C   UNL     1       3.077   7.689  -4.451  1.00  0.00     0.034 A 
ATOM     61  C   UNL     1       5.460   1.787  -2.441  1.00  0.00     0.049 A 
ATOM     62  C   UNL     1       4.394   7.027  -4.312  1.00  0.00     0.074 A 
ATOM     63  C   UNL     1       5.559   1.719  -1.067  1.00  0.00     0.029 A 
ATOM     64  N   UNL     1       6.186   2.887  -2.822  1.00  0.00    -0.354 N 
ATOM     65  N   UNL     1       5.125   7.068  -3.235  1.00  0.00    -0.248 NA
ATOM     66  C   UNL     1       4.765   6.008  -5.280  1.00  0.00     0.031 C 
ATOM     67  C   UNL     1       5.981   3.015  -0.655  1.00  0.00     0.029 A 
ATOM     68  C   UNL     1       6.126   3.800  -1.801  1.00  0.00     0.049 A 
ATOM     69  H   UNL     1       6.665   3.001  -3.675  1.00  0.00     0.167 HD
ATOM     70  C   UNL     1       5.752   5.829  -3.190  1.00  0.00     0.074 A 
ATOM     71  C   UNL     1       5.613   5.292  -4.539  1.00  0.00     0.031 C 
ATOM     72  C   UNL     1       6.059   5.235  -1.998  1.00  0.00     0.034 A 
BRANCH  59  73
ATOM     73  C   UNL     1       5.155   0.640  -4.725  1.00  0.00     0.023 A 
ATOM     74  C   UNL     1       6.433   0.049  -4.728  1.00  0.00     0.012 A 
ATOM     75  C   UNL     1       4.550   0.884  -5.979  1.00  0.00     0.148 A 
ATOM     76  C   UNL     1       7.069  -0.296  -5.925  1.00  0.00     0.002 A 
ATOM     77  C   UNL     1       5.139   0.445  -7.156  1.00  0.00     0.091 A 
ATOM     78  F   UNL     1       3.459   1.658  -6.056  1.00  0.00    -0.205 F 
ATOM     79  C   UNL     1       6.412  -0.123  -7.139  1.00  0.00     0.022 A 
BRANCH  77  80
ATOM     80  S   UNL     1       4.250   0.553  -8.712  1.00  0.00     0.127 S 
ATOM     81  O   UNL     1       4.753   1.809  -9.256  1.00  0.00    -0.237 OA
ATOM     82  O   UNL     1       4.703  -0.652  -9.409  1.00  0.00    -0.237 OA
ATOM     83  O   UNL     1       2.842   0.520  -8.332  1.00  0.00    -0.744 OA
ENDBRANCH  77  80
ENDBRANCH  59  73
BRANCH  60  84
ATOM     84  C   UNL     1       2.813   8.709  -5.490  1.00  0.00     0.023 A 
ATOM     85  C   UNL     1       3.850   9.572  -5.892  1.00  0.00     0.012 A 
ATOM     86  C   UNL     1       1.631   8.679  -6.265  1.00  0.00     0.148 A 
ATOM     87  C   UNL     1       3.725  10.362  -7.040  1.00  0.00     0.002 A 
ATOM     88  C   UNL     1       1.504   9.480  -7.396  1.00  0.00     0.091 A 
ATOM     89  F   UNL     1       0.670   7.800  -5.950  1.00  0.00    -0.205 F 
ATOM     90  C   UNL     1       2.555  10.314  -7.794  1.00  0.00     0.022 A 
BRANCH  88  91
ATOM     91  S   UNL     1       0.019   9.467  -8.410  1.00  0.00     0.127 S 
ATOM     92  O   UNL     1      -0.191  10.893  -8.664  1.00  0.00    -0.237 OA
ATOM     93  O   UNL     1       0.454   8.697  -9.572  1.00  0.00    -0.237 OA
ATOM     94  O   UNL     1      -1.014   8.851  -7.587  1.00  0.00    -0.744 OA
ENDBRANCH  88  91
ENDBRANCH  60  84
BRANCH  72  95
ATOM     95  C   UNL     1       6.000   6.079  -0.746  1.00  0.00     0.023 A 
ATOM     96  C   UNL     1       4.803   6.692  -0.319  1.00  0.00     0.012 A 
ATOM     97  C   UNL     1       7.118   6.117   0.107  1.00  0.00     0.148 A 
ATOM     98  C   UNL     1       4.731   7.356   0.908  1.00  0.00     0.002 A 
ATOM     99  C   UNL     1       7.028   6.736   1.351  1.00  0.00     0.091 A 
ATOM    100  F   UNL     1       8.251   5.523  -0.299  1.00  0.00    -0.205 F 
ATOM    101  C   UNL     1       5.840   7.367   1.749  1.00  0.00     0.022 A 
BRANCH  99 102
ATOM    102  S   UNL     1       8.375   6.661   2.537  1.00  0.00     0.127 S 
ATOM    103  O   UNL     1       8.999   7.972   2.379  1.00  0.00    -0.237 OA
ATOM    104  O   UNL     1       7.672   6.467   3.807  1.00  0.00    -0.237 OA
ATOM    105  O   UNL     1       9.191   5.520   2.135  1.00  0.00    -0.744 OA
ENDBRANCH  99 102
ENDBRANCH  72  95
ENDBRANCH  46  47
ENDBRANCH  39  41
ENDBRANCH  38  39
ENDBRANCH  37  38
ENDBRANCH  36  37
ENDBRANCH  35  36
ENDBRANCH  34  35
ENDBRANCH   1  34
TORSDOF 25
