REMARK SMILES CC[C@@H](C)C[C@@H](C)NC(=O)NC1(CC(=O)OCCOCCOCCOC(=O)c2ccc(-c3c4nc(c(-c5cccc(S(=O)(=O)[O-])c5F)c5ccc([nH]5)c(-c5cccc(S(=O)(=O)[O-])c5F)c5nc(c(-c6cccc(S(=O)(=O)[O-])c6F)c6ccc3[nH]6)C=C5)C=C4)cc2)CCC1
REMARK SMILES IDX 19 1 18 2 17 3 16 4 14 5 15 6 13 7 12 8 91 9 93 10 92 11
REMARK SMILES IDX 11 12 8 13 9 14 10 16 6 18 7 19 5 20 3 21 4 22 2 23 1 24
REMARK SMILES IDX 20 25 21 26 22 27 23 28 24 29 25 30 26 31 27 32 28 33 29 34
REMARK SMILES IDX 90 35 30 36 89 37 31 38 32 39 33 40 83 41 34 42 88 43 82 44
REMARK SMILES IDX 84 45 35 46 87 47 81 48 80 49 36 51 68 52 48 53 67 54 49 55
REMARK SMILES IDX 52 56 66 57 85 58 50 59 51 60 65 62 86 63 53 64 37 65 38 66
REMARK SMILES IDX 46 67 39 68 41 69 47 70 40 71 42 72 43 73 44 74 45 75 69 76
REMARK SMILES IDX 70 77 78 78 71 79 73 80 79 81 72 82 74 83 75 84 76 85 77 86
REMARK SMILES IDX 54 87 55 88 63 89 56 90 58 91 64 92 57 93 59 94 60 95 61 96
REMARK SMILES IDX 62 97
REMARK H PARENT 8 15 11 17 84 50 52 61
REMARK Flexibility Score: inf
ROOT
ATOM      1  O   UNL     1      -2.656  -6.974   4.260  1.00  0.00    -0.376 OA
ENDROOT
BRANCH   1   2
ATOM      2  C   UNL     1      -1.764  -7.886   3.645  1.00  0.00     0.202 C 
BRANCH   2   3
ATOM      3  C   UNL     1      -1.176  -7.359   2.333  1.00  0.00     0.261 C 
BRANCH   3   4
ATOM      4  O   UNL     1      -0.949  -5.940   2.372  1.00  0.00    -0.463 OA
BRANCH   4   5
ATOM      5  C   UNL     1      -1.878  -5.177   1.761  1.00  0.00     0.308 C 
ATOM      6  O   UNL     1      -2.759  -5.614   1.028  1.00  0.00    -0.252 OA
BRANCH   5   7
ATOM      7  C   UNL     1      -1.818  -3.718   2.114  1.00  0.00     0.151 C 
BRANCH   7   8
ATOM      8  C   UNL     1      -0.549  -3.023   2.689  1.00  0.00     0.052 C 
ATOM      9  C   UNL     1      -0.050  -2.068   1.587  1.00  0.00     0.029 C 
ATOM     10  C   UNL     1       0.893  -3.635   2.712  1.00  0.00     0.029 C 
ATOM     11  C   UNL     1       1.194  -2.939   1.385  1.00  0.00     0.005 C 
BRANCH   8  12
ATOM     12  N   UNL     1      -0.926  -2.288   3.946  1.00  0.00    -0.332 N 
ATOM     13  N   UNL     1       0.865  -0.991   4.900  1.00  0.00    -0.336 N 
ATOM     14  C   UNL     1      -0.361  -1.511   4.883  1.00  0.00     0.315 C 
ATOM     15  H   UNL     1       1.312  -1.078   5.773  1.00  0.00     0.165 HD
ATOM     16  O   UNL     1      -1.052  -1.262   5.876  1.00  0.00    -0.249 OA
ATOM     17  H   UNL     1      -1.883  -2.416   4.142  1.00  0.00     0.165 HD
BRANCH  13  18
ATOM     18  C   UNL     1       1.687  -0.317   3.892  1.00  0.00     0.081 C 
ATOM     19  C   UNL     1       3.097  -0.114   4.456  1.00  0.00     0.031 C 
BRANCH  18  20
ATOM     20  C   UNL     1       1.040   1.038   3.508  1.00  0.00     0.028 C 
BRANCH  20  21
ATOM     21  C   UNL     1       1.521   1.711   2.189  1.00  0.00    -0.013 C 
ATOM     22  C   UNL     1       0.857   3.090   2.083  1.00  0.00     0.008 C 
BRANCH  21  23
ATOM     23  C   UNL     1       1.177   0.856   0.958  1.00  0.00    -0.000 C 
ATOM     24  C   UNL     1       1.564   1.393  -0.406  1.00  0.00     0.004 C 
ENDBRANCH  21  23
ENDBRANCH  20  21
ENDBRANCH  18  20
ENDBRANCH  13  18
ENDBRANCH   8  12
ENDBRANCH   7   8
ENDBRANCH   5   7
ENDBRANCH   4   5
ENDBRANCH   3   4
ENDBRANCH   2   3
ENDBRANCH   1   2
BRANCH   1  25
ATOM     25  C   UNL     1      -2.148  -5.971   5.141  1.00  0.00     0.188 C 
BRANCH  25  26
ATOM     26  C   UNL     1      -0.640  -5.723   5.311  1.00  0.00     0.188 C 
BRANCH  26  27
ATOM     27  O   UNL     1       0.086  -6.902   5.642  1.00  0.00    -0.376 OA
BRANCH  27  28
ATOM     28  C   UNL     1       0.901  -6.776   6.799  1.00  0.00     0.202 C 
BRANCH  28  29
ATOM     29  C   UNL     1       0.111  -7.068   8.079  1.00  0.00     0.261 C 
BRANCH  29  30
ATOM     30  O   UNL     1      -1.097  -6.296   8.220  1.00  0.00    -0.460 OA
BRANCH  30  31
ATOM     31  C   UNL     1      -0.951  -5.032   8.666  1.00  0.00     0.338 C 
ATOM     32  O   UNL     1       0.107  -4.479   8.944  1.00  0.00    -0.246 OA
BRANCH  31  33
ATOM     33  C   UNL     1      -2.259  -4.350   8.624  1.00  0.00     0.060 A 
ATOM     34  C   UNL     1      -2.459  -3.356   7.666  1.00  0.00     0.016 A 
ATOM     35  C   UNL     1      -3.258  -4.624   9.556  1.00  0.00     0.016 A 
ATOM     36  C   UNL     1      -3.626  -2.587   7.660  1.00  0.00     0.010 A 
ATOM     37  C   UNL     1      -4.435  -3.859   9.548  1.00  0.00     0.010 A 
ATOM     38  C   UNL     1      -4.614  -2.809   8.625  1.00  0.00    -0.014 A 
BRANCH  38  39
ATOM     39  C   UNL     1      -5.762  -1.870   8.767  1.00  0.00     0.031 A 
ATOM     40  C   UNL     1      -5.808  -0.943   9.953  1.00  0.00     0.074 A 
ATOM     41  C   UNL     1      -6.765  -1.839   7.869  1.00  0.00     0.049 A 
ATOM     42  N   UNL     1      -6.773  -0.160  10.361  1.00  0.00    -0.248 NA
ATOM     43  C   UNL     1      -4.602  -0.900  10.795  1.00  0.00     0.031 C 
ATOM     44  C   UNL     1      -6.837  -2.644   6.652  1.00  0.00     0.029 A 
ATOM     45  N   UNL     1      -7.937  -1.118   7.865  1.00  0.00    -0.354 N 
ATOM     46  C   UNL     1      -6.318   0.421  11.539  1.00  0.00     0.074 A 
ATOM     47  C   UNL     1      -4.986  -0.095  11.775  1.00  0.00     0.031 C 
ATOM     48  C   UNL     1      -8.005  -2.397   6.035  1.00  0.00     0.029 A 
ATOM     49  C   UNL     1      -8.785  -1.456   6.837  1.00  0.00     0.049 A 
ATOM     50  H   UNL     1      -8.148  -0.427   8.534  1.00  0.00     0.167 HD
ATOM     51  C   UNL     1      -6.946   1.306  12.351  1.00  0.00     0.034 A 
ATOM     52  C   UNL     1     -10.059  -1.087   6.591  1.00  0.00     0.034 A 
ATOM     53  C   UNL     1      -8.250   1.858  12.098  1.00  0.00     0.049 A 
ATOM     54  C   UNL     1     -10.751  -0.123   7.521  1.00  0.00     0.074 A 
ATOM     55  C   UNL     1      -8.945   2.797  12.840  1.00  0.00     0.029 A 
ATOM     56  N   UNL     1      -9.060   1.518  11.026  1.00  0.00    -0.354 N 
ATOM     57  N   UNL     1     -10.284   0.473   8.591  1.00  0.00    -0.248 NA
ATOM     58  C   UNL     1     -12.142   0.234   7.198  1.00  0.00     0.031 C 
ATOM     59  C   UNL     1     -10.188   3.005  12.231  1.00  0.00     0.029 A 
ATOM     60  C   UNL     1     -10.255   2.217  11.093  1.00  0.00     0.049 A 
ATOM     61  H   UNL     1      -8.822   0.875  10.319  1.00  0.00     0.167 HD
ATOM     62  C   UNL     1     -11.309   1.294   9.052  1.00  0.00     0.074 A 
ATOM     63  C   UNL     1     -12.416   1.136   8.132  1.00  0.00     0.031 C 
ATOM     64  C   UNL     1     -11.336   2.093  10.148  1.00  0.00     0.034 A 
BRANCH  51  65
ATOM     65  C   UNL     1      -6.221   1.735  13.601  1.00  0.00     0.023 A 
ATOM     66  C   UNL     1      -5.115   2.604  13.512  1.00  0.00     0.012 A 
ATOM     67  C   UNL     1      -6.658   1.298  14.867  1.00  0.00     0.148 A 
ATOM     68  C   UNL     1      -4.429   2.998  14.661  1.00  0.00     0.002 A 
ATOM     69  C   UNL     1      -5.997   1.731  16.011  1.00  0.00     0.091 A 
ATOM     70  F   UNL     1      -7.697   0.453  14.931  1.00  0.00    -0.205 F 
ATOM     71  C   UNL     1      -4.875   2.569  15.909  1.00  0.00     0.022 A 
BRANCH  69  72
ATOM     72  S   UNL     1      -6.546   1.293  17.664  1.00  0.00     0.127 S 
ATOM     73  O   UNL     1      -5.550   0.296  18.053  1.00  0.00    -0.237 OA
ATOM     74  O   UNL     1      -6.441   2.569  18.374  1.00  0.00    -0.237 OA
ATOM     75  O   UNL     1      -7.907   0.798  17.514  1.00  0.00    -0.744 OA
ENDBRANCH  69  72
ENDBRANCH  51  65
BRANCH  52  76
ATOM     76  C   UNL     1     -10.770  -1.635   5.400  1.00  0.00     0.023 A 
ATOM     77  C   UNL     1     -11.080  -0.785   4.321  1.00  0.00     0.012 A 
ATOM     78  C   UNL     1     -11.113  -3.000   5.320  1.00  0.00     0.148 A 
ATOM     79  C   UNL     1     -11.734  -1.280   3.192  1.00  0.00     0.002 A 
ATOM     80  C   UNL     1     -11.713  -3.497   4.170  1.00  0.00     0.091 A 
ATOM     81  F   UNL     1     -10.831  -3.787   6.368  1.00  0.00    -0.205 F 
ATOM     82  C   UNL     1     -12.038  -2.636   3.110  1.00  0.00     0.022 A 
BRANCH  80  83
ATOM     83  S   UNL     1     -12.028  -5.249   3.923  1.00  0.00     0.127 S 
ATOM     84  O   UNL     1     -13.488  -5.293   3.920  1.00  0.00    -0.237 OA
ATOM     85  O   UNL     1     -11.402  -5.484   2.621  1.00  0.00    -0.237 OA
ATOM     86  O   UNL     1     -11.380  -5.928   5.036  1.00  0.00    -0.744 OA
ENDBRANCH  80  83
ENDBRANCH  52  76
BRANCH  64  87
ATOM     87  C   UNL     1     -12.589   2.891  10.409  1.00  0.00     0.023 A 
ATOM     88  C   UNL     1     -13.752   2.240  10.868  1.00  0.00     0.012 A 
ATOM     89  C   UNL     1     -12.594   4.294  10.275  1.00  0.00     0.148 A 
ATOM     90  C   UNL     1     -14.906   2.968  11.159  1.00  0.00     0.002 A 
ATOM     91  C   UNL     1     -13.732   5.018  10.612  1.00  0.00     0.091 A 
ATOM     92  F   UNL     1     -11.485   4.896   9.819  1.00  0.00    -0.205 F 
ATOM     93  C   UNL     1     -14.893   4.356  11.043  1.00  0.00     0.022 A 
BRANCH  91  94
ATOM     94  S   UNL     1     -13.776   6.814  10.583  1.00  0.00     0.127 S 
ATOM     95  O   UNL     1     -14.598   7.074   9.402  1.00  0.00    -0.237 OA
ATOM     96  O   UNL     1     -14.423   7.131  11.857  1.00  0.00    -0.237 OA
ATOM     97  O   UNL     1     -12.389   7.248  10.488  1.00  0.00    -0.744 OA
ENDBRANCH  91  94
ENDBRANCH  64  87
ENDBRANCH  38  39
ENDBRANCH  31  33
ENDBRANCH  30  31
ENDBRANCH  29  30
ENDBRANCH  28  29
ENDBRANCH  27  28
ENDBRANCH  26  27
ENDBRANCH  25  26
ENDBRANCH   1  25
TORSDOF 26
