REMARK SMILES CC1=[NH+]/C(=C/c2ccco2)C(=O)N1c1ccc(C(=O)OCCOCCOCCOC(=O)c2ccc(-c3c4nc(c(-c5cccc(S(=O)(=O)[O-])c5F)c5ccc([nH]5)c(-c5cccc(S(=O)(=O)[O-])c5F)c5nc(c(-c6cccc(S(=O)(=O)[O-])c6F)c6ccc3[nH]6)C=C5)C=C4)cc2)cc1
REMARK SMILES IDX 25 1 24 2 23 3 22 4 21 5 20 6 18 7 19 8 17 9 14 10 15 11
REMARK SMILES IDX 96 12 16 13 95 14 13 15 1 16 2 17 3 18 4 19 11 21 5 22 12 23
REMARK SMILES IDX 6 24 7 25 10 26 8 27 9 28 26 29 27 30 28 31 29 32 30 33
REMARK SMILES IDX 31 34 32 35 33 36 94 37 34 38 93 39 35 40 36 41 37 42 87 43
REMARK SMILES IDX 38 44 92 45 86 46 88 47 39 48 91 49 85 50 84 51 40 53 72 54
REMARK SMILES IDX 52 55 71 56 53 57 56 58 70 59 89 60 54 61 55 62 69 64 90 65
REMARK SMILES IDX 57 66 41 67 42 68 50 69 43 70 45 71 51 72 44 73 46 74 47 75
REMARK SMILES IDX 48 76 49 77 73 78 74 79 82 80 75 81 77 82 83 83 76 84 78 85
REMARK SMILES IDX 79 86 80 87 81 88 58 89 59 90 67 91 60 92 62 93 68 94 61 95
REMARK SMILES IDX 63 96 64 97 65 98 66 99
REMARK H PARENT 3 20 88 52 56 63
REMARK Flexibility Score: inf
ROOT
ATOM      1  C   UNL     1      -0.235  -7.363  -1.230  1.00  0.00     0.188 C 
ENDROOT
BRANCH   1   2
ATOM      2  C   UNL     1      -0.487  -8.112   0.093  1.00  0.00     0.188 C 
BRANCH   2   3
ATOM      3  O   UNL     1      -1.097  -9.377  -0.014  1.00  0.00    -0.376 OA
BRANCH   3   4
ATOM      4  C   UNL     1      -2.499  -9.500  -0.174  1.00  0.00     0.202 C 
BRANCH   4   5
ATOM      5  C   UNL     1      -3.519  -8.345  -0.238  1.00  0.00     0.261 C 
BRANCH   5   6
ATOM      6  O   UNL     1      -3.025  -7.020  -0.437  1.00  0.00    -0.460 OA
BRANCH   6   7
ATOM      7  C   UNL     1      -3.083  -6.212   0.650  1.00  0.00     0.338 C 
ATOM      8  O   UNL     1      -3.538  -6.483   1.747  1.00  0.00    -0.246 OA
BRANCH   7   9
ATOM      9  C   UNL     1      -2.360  -4.955   0.369  1.00  0.00     0.060 A 
ATOM     10  C   UNL     1      -1.078  -2.501   0.008  1.00  0.00     0.136 A 
ATOM     11  C   UNL     1      -0.719  -3.323   1.081  1.00  0.00     0.053 A 
ATOM     12  C   UNL     1      -2.005  -2.963  -0.939  1.00  0.00     0.053 A 
ATOM     13  C   UNL     1      -1.387  -4.532   1.282  1.00  0.00     0.020 A 
ATOM     14  C   UNL     1      -2.634  -4.199  -0.772  1.00  0.00     0.020 A 
BRANCH  10  15
ATOM     15  N   UNL     1      -0.576  -1.190  -0.065  1.00  0.00    -0.158 N 
ATOM     16  C   UNL     1      -2.799  -0.037  -0.087  1.00  0.00     0.146 C 
ATOM     17  C   UNL     1      -1.300  -0.045  -0.112  1.00  0.00     0.259 C 
ATOM     18  N   UNL     1      -0.615   1.060  -0.108  1.00  0.00    -0.237 N 
ATOM     19  C   UNL     1       0.702   0.648  -0.037  1.00  0.00     0.219 C 
ATOM     20  H   UNL     1      -0.958   1.982  -0.148  1.00  0.00     0.312 HD
ATOM     21  C   UNL     1       0.747  -0.851   0.044  1.00  0.00     0.385 C 
ATOM     22  C   UNL     1       1.732   1.503  -0.033  1.00  0.00     0.107 C 
ATOM     23  O   UNL     1       1.720  -1.576   0.158  1.00  0.00    -0.236 OA
BRANCH  22  24
ATOM     24  C   UNL     1       3.087   1.097  -0.051  1.00  0.00     0.131 A 
ATOM     25  C   UNL     1       3.771   0.345  -1.000  1.00  0.00     0.050 A 
ATOM     26  O   UNL     1       3.988   1.454   0.924  1.00  0.00    -0.465 OA
ATOM     27  C   UNL     1       5.100   0.184  -0.549  1.00  0.00     0.042 A 
ATOM     28  C   UNL     1       5.178   0.871   0.635  1.00  0.00     0.195 A 
ENDBRANCH  22  24
ENDBRANCH  10  15
ENDBRANCH   7   9
ENDBRANCH   6   7
ENDBRANCH   5   6
ENDBRANCH   4   5
ENDBRANCH   3   4
ENDBRANCH   2   3
ENDBRANCH   1   2
BRANCH   1  29
ATOM     29  O   UNL     1      -0.835  -7.836  -2.419  1.00  0.00    -0.376 OA
BRANCH  29  30
ATOM     30  C   UNL     1      -0.497  -9.118  -2.923  1.00  0.00     0.202 C 
BRANCH  30  31
ATOM     31  C   UNL     1       0.834  -9.859  -2.666  1.00  0.00     0.261 C 
BRANCH  31  32
ATOM     32  O   UNL     1       1.555  -9.556  -1.469  1.00  0.00    -0.460 OA
BRANCH  32  33
ATOM     33  C   UNL     1       2.661  -8.788  -1.633  1.00  0.00     0.338 C 
ATOM     34  O   UNL     1       3.083  -8.319  -2.676  1.00  0.00    -0.246 OA
BRANCH  33  35
ATOM     35  C   UNL     1       3.202  -8.438  -0.306  1.00  0.00     0.060 A 
ATOM     36  C   UNL     1       3.136  -7.103   0.117  1.00  0.00     0.016 A 
ATOM     37  C   UNL     1       3.810  -9.407   0.493  1.00  0.00     0.016 A 
ATOM     38  C   UNL     1       3.702  -6.727   1.334  1.00  0.00     0.010 A 
ATOM     39  C   UNL     1       4.397  -9.023   1.702  1.00  0.00     0.010 A 
ATOM     40  C   UNL     1       4.374  -7.677   2.112  1.00  0.00    -0.014 A 
BRANCH  40  41
ATOM     41  C   UNL     1       5.199  -7.233   3.262  1.00  0.00     0.031 A 
ATOM     42  C   UNL     1       6.688  -7.121   3.082  1.00  0.00     0.074 A 
ATOM     43  C   UNL     1       4.637  -6.934   4.447  1.00  0.00     0.049 A 
ATOM     44  N   UNL     1       7.608  -6.801   3.953  1.00  0.00    -0.248 NA
ATOM     45  C   UNL     1       7.210  -7.417   1.736  1.00  0.00     0.031 C 
ATOM     46  C   UNL     1       3.207  -6.991   4.744  1.00  0.00     0.029 A 
ATOM     47  N   UNL     1       5.214  -6.548   5.632  1.00  0.00    -0.354 N 
ATOM     48  C   UNL     1       8.818  -6.888   3.276  1.00  0.00     0.074 A 
ATOM     49  C   UNL     1       8.517  -7.303   1.923  1.00  0.00     0.031 C 
ATOM     50  C   UNL     1       3.020  -6.681   6.039  1.00  0.00     0.029 A 
ATOM     51  C   UNL     1       4.317  -6.434   6.667  1.00  0.00     0.049 A 
ATOM     52  H   UNL     1       6.177  -6.370   5.730  1.00  0.00     0.167 HD
ATOM     53  C   UNL     1      10.067  -6.636   3.734  1.00  0.00     0.034 A 
ATOM     54  C   UNL     1       4.524  -6.187   7.977  1.00  0.00     0.034 A 
ATOM     55  C   UNL     1      10.363  -6.213   5.076  1.00  0.00     0.049 A 
ATOM     56  C   UNL     1       5.928  -5.942   8.470  1.00  0.00     0.074 A 
ATOM     57  C   UNL     1      11.592  -5.889   5.624  1.00  0.00     0.029 A 
ATOM     58  N   UNL     1       9.426  -6.073   6.088  1.00  0.00    -0.354 N 
ATOM     59  N   UNL     1       7.052  -5.924   7.794  1.00  0.00    -0.248 NA
ATOM     60  C   UNL     1       6.087  -5.649   9.902  1.00  0.00     0.031 C 
ATOM     61  C   UNL     1      11.403  -5.596   6.978  1.00  0.00     0.029 A 
ATOM     62  C   UNL     1      10.050  -5.685   7.261  1.00  0.00     0.049 A 
ATOM     63  H   UNL     1       8.459  -6.228   5.987  1.00  0.00     0.167 HD
ATOM     64  C   UNL     1       8.042  -5.576   8.707  1.00  0.00     0.074 A 
ATOM     65  C   UNL     1       7.382  -5.376   9.981  1.00  0.00     0.031 C 
ATOM     66  C   UNL     1       9.378  -5.440   8.512  1.00  0.00     0.034 A 
BRANCH  53  67
ATOM     67  C   UNL     1      11.213  -6.807   2.771  1.00  0.00     0.023 A 
ATOM     68  C   UNL     1      11.384  -5.895   1.710  1.00  0.00     0.012 A 
ATOM     69  C   UNL     1      12.152  -7.842   2.950  1.00  0.00     0.148 A 
ATOM     70  C   UNL     1      12.449  -6.032   0.820  1.00  0.00     0.002 A 
ATOM     71  C   UNL     1      13.238  -7.943   2.089  1.00  0.00     0.091 A 
ATOM     72  F   UNL     1      11.961  -8.712   3.952  1.00  0.00    -0.205 F 
ATOM     73  C   UNL     1      13.381  -7.048   1.016  1.00  0.00     0.022 A 
BRANCH  71  74
ATOM     74  S   UNL     1      14.537  -9.163   2.307  1.00  0.00     0.127 S 
ATOM     75  O   UNL     1      14.327 -10.028   1.146  1.00  0.00    -0.237 OA
ATOM     76  O   UNL     1      15.745  -8.340   2.243  1.00  0.00    -0.237 OA
ATOM     77  O   UNL     1      14.293  -9.788   3.599  1.00  0.00    -0.744 OA
ENDBRANCH  71  74
ENDBRANCH  53  67
BRANCH  54  78
ATOM     78  C   UNL     1       3.370  -6.138   8.920  1.00  0.00     0.023 A 
ATOM     79  C   UNL     1       3.010  -4.916   9.520  1.00  0.00     0.012 A 
ATOM     80  C   UNL     1       2.633  -7.298   9.229  1.00  0.00     0.148 A 
ATOM     81  C   UNL     1       1.961  -4.856  10.438  1.00  0.00     0.002 A 
ATOM     82  C   UNL     1       1.553  -7.221  10.099  1.00  0.00     0.091 A 
ATOM     83  F   UNL     1       3.001  -8.454   8.659  1.00  0.00    -0.205 F 
ATOM     84  C   UNL     1       1.227  -6.005  10.720  1.00  0.00     0.022 A 
BRANCH  82  85
ATOM     85  S   UNL     1       0.477  -8.620  10.430  1.00  0.00     0.127 S 
ATOM     86  O   UNL     1       0.760  -8.888  11.838  1.00  0.00    -0.237 OA
ATOM     87  O   UNL     1      -0.844  -8.050  10.165  1.00  0.00    -0.237 OA
ATOM     88  O   UNL     1       0.883  -9.661   9.497  1.00  0.00    -0.744 OA
ENDBRANCH  82  85
ENDBRANCH  54  78
BRANCH  66  89
ATOM     89  C   UNL     1      10.220  -4.998   9.683  1.00  0.00     0.023 A 
ATOM     90  C   UNL     1      10.444  -5.869  10.768  1.00  0.00     0.012 A 
ATOM     91  C   UNL     1      10.845  -3.734   9.673  1.00  0.00     0.148 A 
ATOM     92  C   UNL     1      11.242  -5.473  11.842  1.00  0.00     0.002 A 
ATOM     93  C   UNL     1      11.683  -3.369  10.720  1.00  0.00     0.091 A 
ATOM     94  F   UNL     1      10.610  -2.912   8.640  1.00  0.00    -0.205 F 
ATOM     95  C   UNL     1      11.870  -4.230  11.812  1.00  0.00     0.022 A 
BRANCH  93  96
ATOM     96  S   UNL     1      12.613  -1.832  10.720  1.00  0.00     0.127 S 
ATOM     97  O   UNL     1      11.931  -1.071  11.765  1.00  0.00    -0.237 OA
ATOM     98  O   UNL     1      13.958  -2.284  11.075  1.00  0.00    -0.237 OA
ATOM     99  O   UNL     1      12.494  -1.288   9.374  1.00  0.00    -0.744 OA
ENDBRANCH  93  96
ENDBRANCH  66  89
ENDBRANCH  40  41
ENDBRANCH  33  35
ENDBRANCH  32  33
ENDBRANCH  31  32
ENDBRANCH  30  31
ENDBRANCH  29  30
ENDBRANCH   1  29
TORSDOF 22
