REMARK SMILES C[C@@H](C(=O)OCCOCCOCCOC(=O)c1ccc(-c2c3nc(c(-c4cccc(S(=O)(=O)[O-])c4F)c4ccc([nH]4)c(-c4cccc(S(=O)(=O)[O-])c4F)c4nc(c(-c5cccc(S(=O)(=O)[O-])c5F)c5ccc2[nH]5)C=C4)C=C3)cc1)c1ccc(-c2ccccc2)c(F)c1
REMARK SMILES IDX 10 1 9 2 8 3 7 4 6 5 5 6 3 7 4 8 2 9 1 10 80 11 81 12 92 13
REMARK SMILES IDX 82 14 90 15 83 16 91 17 84 18 85 19 89 20 86 21 88 22 87 23
REMARK SMILES IDX 11 24 12 25 13 26 14 27 15 28 16 29 17 30 18 31 79 32 19 33
REMARK SMILES IDX 78 34 20 35 21 36 22 37 72 38 23 39 77 40 71 41 73 42 24 43
REMARK SMILES IDX 76 44 70 45 69 46 25 48 57 49 37 50 56 51 38 52 41 53 55 54
REMARK SMILES IDX 74 55 39 56 40 57 54 59 75 60 42 61 26 62 27 63 35 64 28 65
REMARK SMILES IDX 30 66 36 67 29 68 31 69 32 70 33 71 34 72 58 73 59 74 67 75
REMARK SMILES IDX 60 76 62 77 68 78 61 79 63 80 64 81 65 82 66 83 43 84 44 85
REMARK SMILES IDX 52 86 45 87 47 88 53 89 46 90 48 91 49 92 50 93 51 94
REMARK H PARENT 73 47 41 58
REMARK Flexibility Score: inf
ROOT
ATOM      1  C   UNL     1       0.944  -0.416   2.768  1.00  0.00     0.188 C 
ENDROOT
BRANCH   1   2
ATOM      2  C   UNL     1       0.301  -1.711   3.285  1.00  0.00     0.188 C 
BRANCH   2   3
ATOM      3  O   UNL     1       1.067  -2.539   4.147  1.00  0.00    -0.376 OA
BRANCH   3   4
ATOM      4  C   UNL     1       2.344  -2.983   3.697  1.00  0.00     0.202 C 
BRANCH   4   5
ATOM      5  C   UNL     1       2.526  -3.442   2.237  1.00  0.00     0.261 C 
BRANCH   5   6
ATOM      6  O   UNL     1       2.109  -2.469   1.255  1.00  0.00    -0.463 OA
BRANCH   6   7
ATOM      7  C   UNL     1       1.480  -2.955   0.154  1.00  0.00     0.313 C 
ATOM      8  O   UNL     1       1.386  -4.152  -0.102  1.00  0.00    -0.252 OA
BRANCH   7   9
ATOM      9  C   UNL     1       0.842  -1.869  -0.732  1.00  0.00     0.126 C 
ATOM     10  C   UNL     1       1.677  -0.584  -0.832  1.00  0.00     0.025 C 
BRANCH   9  11
ATOM     11  C   UNL     1      -0.667  -1.690  -0.518  1.00  0.00    -0.031 A 
ATOM     12  C   UNL     1      -1.317  -0.446  -0.520  1.00  0.00     0.005 A 
ATOM     13  C   UNL     1      -1.485  -2.826  -0.431  1.00  0.00     0.044 A 
ATOM     14  C   UNL     1      -2.723  -0.351  -0.460  1.00  0.00     0.012 A 
ATOM     15  C   UNL     1      -2.879  -2.724  -0.387  1.00  0.00     0.131 A 
ATOM     16  C   UNL     1      -3.545  -1.490  -0.416  1.00  0.00     0.017 A 
ATOM     17  F   UNL     1      -3.564  -3.878  -0.369  1.00  0.00    -0.206 F 
BRANCH  16  18
ATOM     18  C   UNL     1      -5.025  -1.391  -0.424  1.00  0.00    -0.015 A 
ATOM     19  C   UNL     1      -5.712  -0.372  -1.113  1.00  0.00     0.009 A 
ATOM     20  C   UNL     1      -5.814  -2.334   0.248  1.00  0.00     0.009 A 
ATOM     21  C   UNL     1      -7.113  -0.290  -1.109  1.00  0.00     0.001 A 
ATOM     22  C   UNL     1      -7.207  -2.269   0.223  1.00  0.00     0.001 A 
ATOM     23  C   UNL     1      -7.864  -1.241  -0.434  1.00  0.00     0.000 A 
ENDBRANCH  16  18
ENDBRANCH   9  11
ENDBRANCH   7   9
ENDBRANCH   6   7
ENDBRANCH   5   6
ENDBRANCH   4   5
ENDBRANCH   3   4
ENDBRANCH   2   3
ENDBRANCH   1   2
BRANCH   1  24
ATOM     24  O   UNL     1       2.335  -0.293   2.943  1.00  0.00    -0.376 OA
BRANCH  24  25
ATOM     25  C   UNL     1       2.863   0.512   3.983  1.00  0.00     0.202 C 
BRANCH  25  26
ATOM     26  C   UNL     1       2.109   0.944   5.260  1.00  0.00     0.261 C 
BRANCH  26  27
ATOM     27  O   UNL     1       0.680   0.897   5.266  1.00  0.00    -0.460 OA
BRANCH  27  28
ATOM     28  C   UNL     1       0.030   1.970   4.753  1.00  0.00     0.338 C 
ATOM     29  O   UNL     1       0.537   2.973   4.272  1.00  0.00    -0.246 OA
BRANCH  28  30
ATOM     30  C   UNL     1      -1.402   1.611   4.641  1.00  0.00     0.060 A 
ATOM     31  C   UNL     1      -1.982   1.506   3.367  1.00  0.00     0.016 A 
ATOM     32  C   UNL     1      -2.159   1.353   5.784  1.00  0.00     0.016 A 
ATOM     33  C   UNL     1      -3.326   1.154   3.235  1.00  0.00     0.010 A 
ATOM     34  C   UNL     1      -3.513   1.034   5.650  1.00  0.00     0.010 A 
ATOM     35  C   UNL     1      -4.109   0.957   4.378  1.00  0.00    -0.014 A 
BRANCH  35  36
ATOM     36  C   UNL     1      -5.587   0.871   4.256  1.00  0.00     0.031 A 
ATOM     37  C   UNL     1      -6.383   2.135   4.425  1.00  0.00     0.074 A 
ATOM     38  C   UNL     1      -6.211  -0.303   4.046  1.00  0.00     0.049 A 
ATOM     39  N   UNL     1      -7.676   2.314   4.380  1.00  0.00    -0.248 NA
ATOM     40  C   UNL     1      -5.615   3.362   4.703  1.00  0.00     0.031 C 
ATOM     41  C   UNL     1      -5.543  -1.591   3.882  1.00  0.00     0.029 A 
ATOM     42  N   UNL     1      -7.549  -0.602   3.943  1.00  0.00    -0.354 N 
ATOM     43  C   UNL     1      -7.882   3.650   4.701  1.00  0.00     0.074 A 
ATOM     44  C   UNL     1      -6.580   4.245   4.906  1.00  0.00     0.031 C 
ATOM     45  C   UNL     1      -6.474  -2.542   3.687  1.00  0.00     0.029 A 
ATOM     46  C   UNL     1      -7.807  -1.937   3.716  1.00  0.00     0.049 A 
ATOM     47  H   UNL     1      -8.259   0.075   4.024  1.00  0.00     0.167 HD
ATOM     48  C   UNL     1      -9.053   4.316   4.832  1.00  0.00     0.034 A 
ATOM     49  C   UNL     1      -8.980  -2.581   3.524  1.00  0.00     0.034 A 
ATOM     50  C   UNL     1     -10.344   3.725   4.608  1.00  0.00     0.049 A 
ATOM     51  C   UNL     1     -10.261  -1.778   3.568  1.00  0.00     0.074 A 
ATOM     52  C   UNL     1     -11.588   4.325   4.686  1.00  0.00     0.029 A 
ATOM     53  N   UNL     1     -10.559   2.397   4.278  1.00  0.00    -0.354 N 
ATOM     54  N   UNL     1     -10.430  -0.486   3.725  1.00  0.00    -0.248 NA
ATOM     55  C   UNL     1     -11.517  -2.521   3.378  1.00  0.00     0.031 C 
ATOM     56  C   UNL     1     -12.559   3.349   4.444  1.00  0.00     0.029 A 
ATOM     57  C   UNL     1     -11.917   2.153   4.166  1.00  0.00     0.049 A 
ATOM     58  H   UNL     1      -9.851   1.726   4.144  1.00  0.00     0.167 HD
ATOM     59  C   UNL     1     -11.801  -0.265   3.640  1.00  0.00     0.074 A 
ATOM     60  C   UNL     1     -12.412  -1.544   3.348  1.00  0.00     0.031 C 
ATOM     61  C   UNL     1     -12.502   0.882   3.827  1.00  0.00     0.034 A 
BRANCH  48  62
ATOM     62  C   UNL     1      -8.994   5.754   5.272  1.00  0.00     0.023 A 
ATOM     63  C   UNL     1      -8.526   6.750   4.392  1.00  0.00     0.012 A 
ATOM     64  C   UNL     1      -9.449   6.121   6.555  1.00  0.00     0.148 A 
ATOM     65  C   UNL     1      -8.481   8.085   4.794  1.00  0.00     0.002 A 
ATOM     66  C   UNL     1      -9.449   7.458   6.929  1.00  0.00     0.091 A 
ATOM     67  F   UNL     1      -9.865   5.155   7.386  1.00  0.00    -0.205 F 
ATOM     68  C   UNL     1      -8.953   8.440   6.056  1.00  0.00     0.022 A 
BRANCH  66  69
ATOM     69  S   UNL     1     -10.115   8.023   8.498  1.00  0.00     0.127 S 
ATOM     70  O   UNL     1      -8.904   8.465   9.190  1.00  0.00    -0.237 OA
ATOM     71  O   UNL     1     -11.007   9.104   8.079  1.00  0.00    -0.237 OA
ATOM     72  O   UNL     1     -10.786   6.875   9.090  1.00  0.00    -0.744 OA
ENDBRANCH  66  69
ENDBRANCH  48  62
BRANCH  49  73
ATOM     73  C   UNL     1      -9.013  -4.034   3.148  1.00  0.00     0.023 A 
ATOM     74  C   UNL     1      -9.561  -4.408   1.899  1.00  0.00     0.012 A 
ATOM     75  C   UNL     1      -8.485  -5.043   3.973  1.00  0.00     0.148 A 
ATOM     76  C   UNL     1      -9.564  -5.735   1.471  1.00  0.00     0.002 A 
ATOM     77  C   UNL     1      -8.448  -6.361   3.522  1.00  0.00     0.091 A 
ATOM     78  F   UNL     1      -8.018  -4.699   5.181  1.00  0.00    -0.205 F 
ATOM     79  C   UNL     1      -8.991  -6.710   2.276  1.00  0.00     0.022 A 
BRANCH  77  80
ATOM     80  S   UNL     1      -7.632  -7.668   4.446  1.00  0.00     0.127 S 
ATOM     81  O   UNL     1      -8.770  -8.447   4.927  1.00  0.00    -0.237 OA
ATOM     82  O   UNL     1      -6.833  -8.322   3.408  1.00  0.00    -0.237 OA
ATOM     83  O   UNL     1      -6.847  -6.991   5.468  1.00  0.00    -0.744 OA
ENDBRANCH  77  80
ENDBRANCH  49  73
BRANCH  61  84
ATOM     84  C   UNL     1     -14.005   0.810   3.721  1.00  0.00     0.023 A 
ATOM     85  C   UNL     1     -14.744   0.121   4.705  1.00  0.00     0.012 A 
ATOM     86  C   UNL     1     -14.691   1.485   2.692  1.00  0.00     0.148 A 
ATOM     87  C   UNL     1     -16.136   0.066   4.642  1.00  0.00     0.002 A 
ATOM     88  C   UNL     1     -16.081   1.473   2.667  1.00  0.00     0.091 A 
ATOM     89  F   UNL     1     -13.973   2.127   1.759  1.00  0.00    -0.205 F 
ATOM     90  C   UNL     1     -16.804   0.751   3.630  1.00  0.00     0.022 A 
BRANCH  88  91
ATOM     91  S   UNL     1     -17.035   2.406   1.464  1.00  0.00     0.127 S 
ATOM     92  O   UNL     1     -17.611   1.338   0.648  1.00  0.00    -0.237 OA
ATOM     93  O   UNL     1     -17.995   3.111   2.312  1.00  0.00    -0.237 OA
ATOM     94  O   UNL     1     -16.084   3.269   0.776  1.00  0.00    -0.744 OA
ENDBRANCH  88  91
ENDBRANCH  61  84
ENDBRANCH  35  36
ENDBRANCH  28  30
ENDBRANCH  27  28
ENDBRANCH  26  27
ENDBRANCH  25  26
ENDBRANCH  24  25
ENDBRANCH   1  24
TORSDOF 22
