REMARK SMILES COCCNC(=O)NC(=O)C[N@H+]1CC[C@H](C(=O)OCCOCCOCCOC(=O)c2ccc(-c3c4nc(c(-c5cccc(S(=O)(=O)[O-])c5F)c5ccc([nH]5)c(-c5cccc(S(=O)(=O)[O-])c5F)c5nc(c(-c6cccc(S(=O)(=O)[O-])c6F)c6ccc3[nH]6)C=C5)C=C4)cc2)[C@@H]1C
REMARK SMILES IDX 22 1 21 2 20 3 19 4 18 5 16 6 17 7 15 8 12 9 13 10 93 11
REMARK SMILES IDX 14 13 94 14 11 15 9 16 5 17 6 18 7 20 8 21 10 23 4 24 3 25
REMARK SMILES IDX 2 26 1 27 23 28 24 29 25 30 26 31 27 32 28 33 29 34 30 35
REMARK SMILES IDX 31 36 92 37 32 38 91 39 33 40 34 41 35 42 85 43 36 44 90 45
REMARK SMILES IDX 84 46 86 47 37 48 89 49 83 50 82 51 38 53 70 54 50 55 69 56
REMARK SMILES IDX 51 57 54 58 68 59 87 60 52 61 53 62 67 64 88 65 55 66 39 67
REMARK SMILES IDX 40 68 48 69 41 70 43 71 49 72 42 73 44 74 45 75 46 76 47 77
REMARK SMILES IDX 71 78 72 79 80 80 73 81 75 82 81 83 74 84 76 85 77 86 78 87
REMARK SMILES IDX 79 88 56 89 57 90 65 91 58 92 60 93 66 94 59 95 61 96 62 97
REMARK SMILES IDX 63 98 64 99
REMARK H PARENT 12 12 5 19 8 22 86 52 54 63
REMARK Flexibility Score: inf
ROOT
ATOM      1  C   UNL     1       7.398   2.321  -0.338  1.00  0.00     0.188 C 
ENDROOT
BRANCH   1   2
ATOM      2  O   UNL     1       8.017   1.050  -0.164  1.00  0.00    -0.376 OA
BRANCH   2   3
ATOM      3  C   UNL     1       7.220  -0.107  -0.394  1.00  0.00     0.202 C 
BRANCH   3   4
ATOM      4  C   UNL     1       6.024  -0.308   0.546  1.00  0.00     0.261 C 
BRANCH   4   5
ATOM      5  O   UNL     1       5.021   0.701   0.329  1.00  0.00    -0.463 OA
BRANCH   5   6
ATOM      6  C   UNL     1       4.337   1.127   1.427  1.00  0.00     0.315 C 
ATOM      7  O   UNL     1       4.519   0.719   2.552  1.00  0.00    -0.252 OA
BRANCH   6   8
ATOM      8  C   UNL     1       3.302   2.187   1.080  1.00  0.00     0.162 C 
ATOM      9  N   UNL     1       1.787   2.982  -0.594  1.00  0.00    -0.324 N 
ATOM     10  C   UNL     1       3.058   3.669  -0.830  1.00  0.00     0.264 C 
ATOM     11  C   UNL     1       2.142   1.770   0.174  1.00  0.00     0.195 C 
ATOM     12  H   UNL     1       1.312   2.681  -1.446  1.00  0.00     0.348 HD
ATOM     13  C   UNL     1       3.865   3.440   0.434  1.00  0.00     0.083 C 
ATOM     14  C   UNL     1       2.433   0.647  -0.828  1.00  0.00     0.076 C 
BRANCH   9  15
ATOM     15  C   UNL     1       0.755   3.881  -0.042  1.00  0.00     0.364 C 
BRANCH  15  16
ATOM     16  C   UNL     1       0.867   4.320   1.409  1.00  0.00     0.283 C 
ATOM     17  N   UNL     1      -0.858   1.619   1.905  1.00  0.00    -0.335 N 
ATOM     18  C   UNL     1      -0.055   2.394   2.658  1.00  0.00     0.321 C 
ATOM     19  H   UNL     1      -0.761   0.656   2.085  1.00  0.00     0.165 HD
ATOM     20  O   UNL     1       0.496   1.882   3.630  1.00  0.00    -0.248 OA
ATOM     21  N   UNL     1       0.118   3.715   2.397  1.00  0.00    -0.273 N 
ATOM     22  H   UNL     1      -0.360   4.330   3.000  1.00  0.00     0.175 HD
ATOM     23  O   UNL     1       1.614   5.249   1.733  1.00  0.00    -0.268 OA
BRANCH  17  24
ATOM     24  C   UNL     1      -1.838   1.927   0.878  1.00  0.00     0.146 C 
BRANCH  24  25
ATOM     25  C   UNL     1      -1.541   1.213  -0.452  1.00  0.00     0.181 C 
BRANCH  25  26
ATOM     26  O   UNL     1      -1.880  -0.175  -0.366  1.00  0.00    -0.383 OA
ATOM     27  C   UNL     1      -0.746  -1.023  -0.237  1.00  0.00     0.194 C 
ENDBRANCH  25  26
ENDBRANCH  24  25
ENDBRANCH  17  24
ENDBRANCH  15  16
ENDBRANCH   9  15
ENDBRANCH   6   8
ENDBRANCH   5   6
ENDBRANCH   4   5
ENDBRANCH   3   4
ENDBRANCH   2   3
ENDBRANCH   1   2
BRANCH   1  28
ATOM     28  C   UNL     1       6.535   2.516  -1.602  1.00  0.00     0.188 C 
BRANCH  28  29
ATOM     29  O   UNL     1       7.130   2.220  -2.856  1.00  0.00    -0.376 OA
BRANCH  29  30
ATOM     30  C   UNL     1       8.306   2.942  -3.203  1.00  0.00     0.202 C 
BRANCH  30  31
ATOM     31  C   UNL     1       8.240   4.477  -3.133  1.00  0.00     0.261 C 
BRANCH  31  32
ATOM     32  O   UNL     1       8.231   5.005  -1.784  1.00  0.00    -0.460 OA
BRANCH  32  33
ATOM     33  C   UNL     1       7.269   5.933  -1.538  1.00  0.00     0.338 C 
ATOM     34  O   UNL     1       6.413   6.308  -2.326  1.00  0.00    -0.246 OA
BRANCH  33  35
ATOM     35  C   UNL     1       7.229   6.351  -0.120  1.00  0.00     0.060 A 
ATOM     36  C   UNL     1       6.040   6.104   0.569  1.00  0.00     0.016 A 
ATOM     37  C   UNL     1       8.215   7.134   0.477  1.00  0.00     0.016 A 
ATOM     38  C   UNL     1       5.819   6.617   1.848  1.00  0.00     0.010 A 
ATOM     39  C   UNL     1       7.985   7.676   1.757  1.00  0.00     0.010 A 
ATOM     40  C   UNL     1       6.777   7.437   2.448  1.00  0.00    -0.014 A 
BRANCH  40  41
ATOM     41  C   UNL     1       6.451   8.151   3.718  1.00  0.00     0.031 A 
ATOM     42  C   UNL     1       6.249   9.645   3.696  1.00  0.00     0.074 A 
ATOM     43  C   UNL     1       6.283   7.488   4.880  1.00  0.00     0.049 A 
ATOM     44  N   UNL     1       6.133  10.486   4.691  1.00  0.00    -0.248 NA
ATOM     45  C   UNL     1       6.162  10.274   2.368  1.00  0.00     0.031 C 
ATOM     46  C   UNL     1       6.345   6.036   5.042  1.00  0.00     0.029 A 
ATOM     47  N   UNL     1       6.039   7.955   6.151  1.00  0.00    -0.354 N 
ATOM     48  C   UNL     1       6.034  11.748   4.115  1.00  0.00     0.074 A 
ATOM     49  C   UNL     1       6.077  11.559   2.681  1.00  0.00     0.031 C 
ATOM     50  C   UNL     1       6.163   5.732   6.338  1.00  0.00     0.029 A 
ATOM     51  C   UNL     1       6.041   6.967   7.109  1.00  0.00     0.049 A 
ATOM     52  H   UNL     1       5.878   8.905   6.355  1.00  0.00     0.167 HD
ATOM     53  C   UNL     1       5.918  12.953   4.723  1.00  0.00     0.034 A 
ATOM     54  C   UNL     1       6.005   7.046   8.456  1.00  0.00     0.034 A 
ATOM     55  C   UNL     1       5.815  13.136   6.147  1.00  0.00     0.049 A 
ATOM     56  C   UNL     1       5.932   8.401   9.114  1.00  0.00     0.074 A 
ATOM     57  C   UNL     1       5.690  14.318   6.857  1.00  0.00     0.029 A 
ATOM     58  N   UNL     1       5.818  12.110   7.079  1.00  0.00    -0.354 N 
ATOM     59  N   UNL     1       5.833   9.585   8.561  1.00  0.00    -0.248 NA
ATOM     60  C   UNL     1       5.959   8.429  10.585  1.00  0.00     0.031 C 
ATOM     61  C   UNL     1       5.641  14.007   8.220  1.00  0.00     0.029 A 
ATOM     62  C   UNL     1       5.708  12.630   8.358  1.00  0.00     0.049 A 
ATOM     63  H   UNL     1       5.888  11.152   6.864  1.00  0.00     0.167 HD
ATOM     64  C   UNL     1       5.762  10.495   9.612  1.00  0.00     0.074 A 
ATOM     65  C   UNL     1       5.802   9.722  10.836  1.00  0.00     0.031 C 
ATOM     66  C   UNL     1       5.692  11.848   9.568  1.00  0.00     0.034 A 
BRANCH  53  67
ATOM     67  C   UNL     1       5.915  14.179   3.847  1.00  0.00     0.023 A 
ATOM     68  C   UNL     1       4.776  14.502   3.084  1.00  0.00     0.012 A 
ATOM     69  C   UNL     1       7.036  15.033   3.812  1.00  0.00     0.148 A 
ATOM     70  C   UNL     1       4.767  15.635   2.269  1.00  0.00     0.002 A 
ATOM     71  C   UNL     1       7.004  16.182   3.031  1.00  0.00     0.091 A 
ATOM     72  F   UNL     1       8.117  14.698   4.531  1.00  0.00    -0.205 F 
ATOM     73  C   UNL     1       5.876  16.478   2.249  1.00  0.00     0.022 A 
BRANCH  71  74
ATOM     74  S   UNL     1       8.356  17.364   2.993  1.00  0.00     0.127 S 
ATOM     75  O   UNL     1       8.903  17.144   1.655  1.00  0.00    -0.237 OA
ATOM     76  O   UNL     1       7.656  18.638   3.163  1.00  0.00    -0.237 OA
ATOM     77  O   UNL     1       9.236  17.005   4.095  1.00  0.00    -0.744 OA
ENDBRANCH  71  74
ENDBRANCH  53  67
BRANCH  54  78
ATOM     78  C   UNL     1       6.064   5.805   9.284  1.00  0.00     0.023 A 
ATOM     79  C   UNL     1       4.952   5.430  10.062  1.00  0.00     0.012 A 
ATOM     80  C   UNL     1       7.217   4.994   9.306  1.00  0.00     0.148 A 
ATOM     81  C   UNL     1       4.995   4.287  10.863  1.00  0.00     0.002 A 
ATOM     82  C   UNL     1       7.232   3.826  10.059  1.00  0.00     0.091 A 
ATOM     83  F   UNL     1       8.280   5.382   8.586  1.00  0.00    -0.205 F 
ATOM     84  C   UNL     1       6.128   3.478  10.851  1.00  0.00     0.022 A 
BRANCH  82  85
ATOM     85  S   UNL     1       8.604   2.667  10.008  1.00  0.00     0.127 S 
ATOM     86  O   UNL     1       9.207   2.859  11.324  1.00  0.00    -0.237 OA
ATOM     87  O   UNL     1       7.916   1.389   9.827  1.00  0.00    -0.237 OA
ATOM     88  O   UNL     1       9.421   3.074   8.872  1.00  0.00    -0.744 OA
ENDBRANCH  82  85
ENDBRANCH  54  78
BRANCH  66  89
ATOM     89  C   UNL     1       5.620  12.591  10.877  1.00  0.00     0.023 A 
ATOM     90  C   UNL     1       6.767  12.695  11.688  1.00  0.00     0.012 A 
ATOM     91  C   UNL     1       4.438  13.253  11.265  1.00  0.00     0.148 A 
ATOM     92  C   UNL     1       6.732  13.421  12.878  1.00  0.00     0.002 A 
ATOM     93  C   UNL     1       4.423  14.015  12.428  1.00  0.00     0.091 A 
ATOM     94  F   UNL     1       3.350  13.127  10.490  1.00  0.00    -0.205 F 
ATOM     95  C   UNL     1       5.565  14.091  13.241  1.00  0.00     0.022 A 
BRANCH  93  96
ATOM     96  S   UNL     1       2.997  14.989  12.924  1.00  0.00     0.127 S 
ATOM     97  O   UNL     1       2.495  14.224  14.064  1.00  0.00    -0.237 OA
ATOM     98  O   UNL     1       3.604  16.274  13.271  1.00  0.00    -0.237 OA
ATOM     99  O   UNL     1       2.117  15.032  11.764  1.00  0.00    -0.744 OA
ENDBRANCH  93  96
ENDBRANCH  66  89
ENDBRANCH  40  41
ENDBRANCH  33  35
ENDBRANCH  32  33
ENDBRANCH  31  32
ENDBRANCH  30  31
ENDBRANCH  29  30
ENDBRANCH  28  29
ENDBRANCH   1  28
TORSDOF 25
