REMARK SMILES COC(=O)C[C@H](NC(=O)N1CC[N@@H+]2CCC[C@@H]2C1)C(=O)OCCOCCOCCOC(=O)c1ccc(-c2c3nc(c(-c4cccc(S(=O)(=O)[O-])c4F)c4ccc([nH]4)c(-c4cccc(S(=O)(=O)[O-])c4F)c4nc(c(-c5cccc(S(=O)(=O)[O-])c5F)c5ccc2[nH]5)C=C4)C=C3)cc1
REMARK SMILES IDX 25 1 24 2 23 3 22 4 21 5 19 6 20 7 6 8 5 9 3 10 4 11 2 12
REMARK SMILES IDX 1 13 7 14 8 15 9 17 10 18 11 19 18 20 12 21 17 22 13 23
REMARK SMILES IDX 16 24 14 25 15 27 26 28 27 29 28 30 29 31 30 32 31 33 32 34
REMARK SMILES IDX 33 35 34 36 95 37 35 38 94 39 36 40 37 41 38 42 88 43 39 44
REMARK SMILES IDX 93 45 87 46 89 47 40 48 92 49 86 50 85 51 41 53 73 54 53 55
REMARK SMILES IDX 72 56 54 57 57 58 71 59 90 60 55 61 56 62 70 64 91 65 58 66
REMARK SMILES IDX 42 67 43 68 51 69 44 70 46 71 52 72 45 73 47 74 48 75 49 76
REMARK SMILES IDX 50 77 74 78 75 79 83 80 76 81 78 82 84 83 77 84 79 85 80 86
REMARK SMILES IDX 81 87 82 88 59 89 60 90 68 91 61 92 63 93 69 94 62 95 64 96
REMARK SMILES IDX 65 97 66 98 67 99
REMARK H PARENT 7 16 13 26 89 52 57 63
REMARK Flexibility Score: inf
ROOT
ATOM      1  C   UNL     1      -0.793   7.861   1.252  1.00  0.00     0.188 C 
ENDROOT
BRANCH   1   2
ATOM      2  O   UNL     1      -1.559   8.732   0.451  1.00  0.00    -0.376 OA
BRANCH   2   3
ATOM      3  C   UNL     1      -2.512   8.082  -0.360  1.00  0.00     0.202 C 
BRANCH   3   4
ATOM      4  C   UNL     1      -1.997   6.985  -1.329  1.00  0.00     0.261 C 
BRANCH   4   5
ATOM      5  O   UNL     1      -1.314   5.842  -0.711  1.00  0.00    -0.462 OA
BRANCH   5   6
ATOM      6  C   UNL     1       0.029   5.676  -0.885  1.00  0.00     0.329 C 
ATOM      7  O   UNL     1       0.655   6.300  -1.738  1.00  0.00    -0.250 OA
BRANCH   6   8
ATOM      8  C   UNL     1       0.696   4.469  -0.091  1.00  0.00     0.204 C 
BRANCH   8   9
ATOM      9  C   UNL     1       0.539   3.373  -1.183  1.00  0.00     0.159 C 
BRANCH   9  10
ATOM     10  C   UNL     1       0.446   1.939  -0.769  1.00  0.00     0.308 C 
ATOM     11  O   UNL     1      -0.622   1.359  -0.609  1.00  0.00    -0.252 OA
BRANCH  10  12
ATOM     12  O   UNL     1       1.674   1.373  -0.696  1.00  0.00    -0.469 OA
ATOM     13  C   UNL     1       1.644  -0.040  -0.490  1.00  0.00     0.282 C 
ENDBRANCH  10  12
ENDBRANCH   9  10
ENDBRANCH   8   9
BRANCH   8  14
ATOM     14  N   UNL     1       0.289   3.981   1.283  1.00  0.00    -0.324 N 
ATOM     15  C   UNL     1       0.889   3.828   2.518  1.00  0.00     0.318 C 
ATOM     16  H   UNL     1      -0.654   3.698   1.302  1.00  0.00     0.166 HD
ATOM     17  O   UNL     1       0.651   2.768   3.106  1.00  0.00    -0.249 OA
BRANCH  15  18
ATOM     18  N   UNL     1       1.608   4.834   3.162  1.00  0.00    -0.313 N 
ATOM     19  C   UNL     1       1.895   6.495   2.358  1.00  0.00     0.183 C 
ATOM     20  C   UNL     1       1.951   4.603   5.060  1.00  0.00     0.186 C 
ATOM     21  C   UNL     1       2.027   8.102   3.491  1.00  0.00     0.284 C 
ATOM     22  C   UNL     1       1.920   6.274   6.146  1.00  0.00     0.204 C 
ATOM     23  N   UNL     1       1.810   7.908   5.330  1.00  0.00    -0.330 N 
ATOM     24  C   UNL     1       2.905   6.658   7.252  1.00  0.00     0.073 C 
ATOM     25  C   UNL     1       2.117   8.942   6.284  1.00  0.00     0.262 C 
ATOM     26  H   UNL     1       0.850   8.082   5.032  1.00  0.00     0.348 HD
ATOM     27  C   UNL     1       2.705   8.195   7.505  1.00  0.00     0.068 C 
ENDBRANCH  15  18
ENDBRANCH   8  14
ENDBRANCH   6   8
ENDBRANCH   5   6
ENDBRANCH   4   5
ENDBRANCH   3   4
ENDBRANCH   2   3
ENDBRANCH   1   2
BRANCH   1  28
ATOM     28  C   UNL     1      -1.483   6.625   1.912  1.00  0.00     0.188 C 
BRANCH  28  29
ATOM     29  O   UNL     1      -2.647   6.861   2.666  1.00  0.00    -0.376 OA
BRANCH  29  30
ATOM     30  C   UNL     1      -2.488   7.671   3.808  1.00  0.00     0.202 C 
BRANCH  30  31
ATOM     31  C   UNL     1      -1.222   7.565   4.668  1.00  0.00     0.261 C 
BRANCH  31  32
ATOM     32  O   UNL     1       0.045   7.447   3.946  1.00  0.00    -0.460 OA
BRANCH  32  33
ATOM     33  C   UNL     1       0.932   6.351   4.300  1.00  0.00     0.338 C 
ATOM     34  O   UNL     1       0.108   5.509   4.732  1.00  0.00    -0.246 OA
BRANCH  33  35
ATOM     35  C   UNL     1       3.019   6.271   4.189  1.00  0.00     0.060 A 
ATOM     36  C   UNL     1       3.897   5.173   3.608  1.00  0.00     0.016 A 
ATOM     37  C   UNL     1       4.051   7.236   4.628  1.00  0.00     0.016 A 
ATOM     38  C   UNL     1       5.293   5.037   3.599  1.00  0.00     0.010 A 
ATOM     39  C   UNL     1       5.443   7.165   4.615  1.00  0.00     0.010 A 
ATOM     40  C   UNL     1       6.048   6.042   4.130  1.00  0.00    -0.014 A 
BRANCH  40  41
ATOM     41  C   UNL     1       7.490   6.016   4.127  1.00  0.00     0.031 A 
ATOM     42  C   UNL     1       8.180   5.712   5.405  1.00  0.00     0.074 A 
ATOM     43  C   UNL     1       8.060   6.460   2.999  1.00  0.00     0.049 A 
ATOM     44  N   UNL     1       9.454   5.680   5.645  1.00  0.00    -0.248 NA
ATOM     45  C   UNL     1       7.329   5.438   6.582  1.00  0.00     0.031 C 
ATOM     46  C   UNL     1       7.326   6.890   1.798  1.00  0.00     0.029 A 
ATOM     47  N   UNL     1       9.362   6.683   2.695  1.00  0.00    -0.354 N 
ATOM     48  C   UNL     1       9.566   5.392   6.997  1.00  0.00     0.074 A 
ATOM     49  C   UNL     1       8.232   5.294   7.539  1.00  0.00     0.031 C 
ATOM     50  C   UNL     1       8.200   7.343   0.890  1.00  0.00     0.029 A 
ATOM     51  C   UNL     1       9.535   7.240   1.453  1.00  0.00     0.049 A 
ATOM     52  H   UNL     1      10.106   6.467   3.302  1.00  0.00     0.167 HD
ATOM     53  C   UNL     1      10.710   5.221   7.691  1.00  0.00     0.034 A 
ATOM     54  C   UNL     1      10.677   7.618   0.861  1.00  0.00     0.034 A 
ATOM     55  C   UNL     1      11.993   5.390   7.067  1.00  0.00     0.049 A 
ATOM     56  C   UNL     1      11.932   7.357   1.637  1.00  0.00     0.074 A 
ATOM     57  C   UNL     1      13.250   5.183   7.592  1.00  0.00     0.029 A 
ATOM     58  N   UNL     1      12.166   5.845   5.761  1.00  0.00    -0.354 N 
ATOM     59  N   UNL     1      12.055   6.904   2.865  1.00  0.00    -0.248 NA
ATOM     60  C   UNL     1      13.196   7.598   0.945  1.00  0.00     0.031 C 
ATOM     61  C   UNL     1      14.182   5.560   6.619  1.00  0.00     0.029 A 
ATOM     62  C   UNL     1      13.508   5.946   5.465  1.00  0.00     0.049 A 
ATOM     63  H   UNL     1      11.435   6.064   5.140  1.00  0.00     0.167 HD
ATOM     64  C   UNL     1      13.412   6.766   3.088  1.00  0.00     0.074 A 
ATOM     65  C   UNL     1      14.065   7.171   1.851  1.00  0.00     0.031 C 
ATOM     66  C   UNL     1      14.073   6.352   4.199  1.00  0.00     0.034 A 
BRANCH  53  67
ATOM     67  C   UNL     1      10.604   4.849   9.144  1.00  0.00     0.023 A 
ATOM     68  C   UNL     1      10.055   3.603   9.518  1.00  0.00     0.012 A 
ATOM     69  C   UNL     1      11.056   5.727  10.147  1.00  0.00     0.148 A 
ATOM     70  C   UNL     1       9.929   3.252  10.863  1.00  0.00     0.002 A 
ATOM     71  C   UNL     1      10.973   5.350  11.482  1.00  0.00     0.091 A 
ATOM     72  F   UNL     1      11.539   6.922   9.778  1.00  0.00    -0.205 F 
ATOM     73  C   UNL     1      10.398   4.120  11.843  1.00  0.00     0.022 A 
BRANCH  71  74
ATOM     74  S   UNL     1      11.610   6.367  12.818  1.00  0.00     0.127 S 
ATOM     75  O   UNL     1      10.387   6.688  13.554  1.00  0.00    -0.237 OA
ATOM     76  O   UNL     1      12.508   5.438  13.503  1.00  0.00    -0.237 OA
ATOM     77  O   UNL     1      12.267   7.502  12.185  1.00  0.00    -0.744 OA
ENDBRANCH  71  74
ENDBRANCH  53  67
BRANCH  54  78
ATOM     78  C   UNL     1      10.649   8.143  -0.525  1.00  0.00     0.023 A 
ATOM     79  C   UNL     1      11.115   7.336  -1.580  1.00  0.00     0.012 A 
ATOM     80  C   UNL     1      10.066   9.392  -0.821  1.00  0.00     0.148 A 
ATOM     81  C   UNL     1      11.036   7.777  -2.901  1.00  0.00     0.002 A 
ATOM     82  C   UNL     1       9.947   9.805  -2.142  1.00  0.00     0.091 A 
ATOM     83  F   UNL     1       9.606  10.133   0.197  1.00  0.00    -0.205 F 
ATOM     84  C   UNL     1      10.446   9.007  -3.183  1.00  0.00     0.022 A 
BRANCH  82  85
ATOM     85  S   UNL     1       9.084  11.311  -2.605  1.00  0.00     0.127 S 
ATOM     86  O   UNL     1      10.186  12.159  -3.051  1.00  0.00    -0.237 OA
ATOM     87  O   UNL     1       8.200  10.837  -3.671  1.00  0.00    -0.237 OA
ATOM     88  O   UNL     1       8.391  11.753  -1.403  1.00  0.00    -0.744 OA
ENDBRANCH  82  85
ENDBRANCH  54  78
BRANCH  66  89
ATOM     89  C   UNL     1      15.566   6.301   4.091  1.00  0.00     0.023 A 
ATOM     90  C   UNL     1      16.309   7.496   4.050  1.00  0.00     0.012 A 
ATOM     91  C   UNL     1      16.225   5.059   4.094  1.00  0.00     0.148 A 
ATOM     92  C   UNL     1      17.697   7.452   3.968  1.00  0.00     0.002 A 
ATOM     93  C   UNL     1      17.608   5.025   4.081  1.00  0.00     0.091 A 
ATOM     94  F   UNL     1      15.484   3.941   4.115  1.00  0.00    -0.205 F 
ATOM     95  C   UNL     1      18.346   6.218   3.999  1.00  0.00     0.022 A 
BRANCH  93  96
ATOM     96  S   UNL     1      18.525   3.493   4.238  1.00  0.00     0.127 S 
ATOM     97  O   UNL     1      19.118   3.366   2.908  1.00  0.00    -0.237 OA
ATOM     98  O   UNL     1      19.474   3.814   5.304  1.00  0.00    -0.237 OA
ATOM     99  O   UNL     1      17.548   2.469   4.584  1.00  0.00    -0.744 OA
ENDBRANCH  93  96
ENDBRANCH  66  89
ENDBRANCH  40  41
ENDBRANCH  33  35
ENDBRANCH  32  33
ENDBRANCH  31  32
ENDBRANCH  30  31
ENDBRANCH  29  30
ENDBRANCH  28  29
ENDBRANCH   1  28
TORSDOF 25
