REMARK SMILES CC(C)(C[C@@H](O)C(F)(F)F)C(=O)OCCOCCOCCOC(=O)c1ccc(-c2c3nc(c(-c4cccc(S(=O)(=O)[O-])c4F)c4ccc([nH]4)c(-c4cccc(S(=O)(=O)[O-])c4F)c4nc(c(-c5cccc(S(=O)(=O)[O-])c5F)c5ccc2[nH]5)C=C4)C=C3)cc1
REMARK SMILES IDX 17 1 16 2 15 3 14 4 13 5 11 6 12 7 2 8 1 9 3 10 4 11 5 12
REMARK SMILES IDX 6 13 7 15 8 16 9 17 10 18 18 19 19 20 20 21 21 22 22 23
REMARK SMILES IDX 23 24 24 25 25 26 26 27 87 28 27 29 86 30 28 31 29 32 30 33
REMARK SMILES IDX 80 34 31 35 85 36 79 37 81 38 32 39 84 40 78 41 77 42 33 44
REMARK SMILES IDX 65 45 45 46 64 47 46 48 49 49 63 50 82 51 47 52 48 53 62 55
REMARK SMILES IDX 83 56 50 57 34 58 35 59 43 60 36 61 38 62 44 63 37 64 39 65
REMARK SMILES IDX 40 66 41 67 42 68 66 69 67 70 75 71 68 72 70 73 76 74 69 75
REMARK SMILES IDX 71 76 72 77 73 78 74 79 51 80 52 81 60 82 53 83 55 84 61 85
REMARK SMILES IDX 54 86 56 87 57 88 58 89 59 90
REMARK H PARENT 6 14 81 43 49 54
REMARK Flexibility Score: inf
ROOT
ATOM      1  C   UNL     1       1.451   2.324  -3.347  1.00  0.00     0.188 C 
ENDROOT
BRANCH   1   2
ATOM      2  O   UNL     1       2.350   1.730  -4.275  1.00  0.00    -0.376 OA
BRANCH   2   3
ATOM      3  C   UNL     1       1.918   0.697  -5.142  1.00  0.00     0.202 C 
BRANCH   3   4
ATOM      4  C   UNL     1       1.744  -0.707  -4.530  1.00  0.00     0.261 C 
BRANCH   4   5
ATOM      5  O   UNL     1       0.844  -0.874  -3.399  1.00  0.00    -0.463 OA
BRANCH   5   6
ATOM      6  C   UNL     1       1.475  -0.960  -2.196  1.00  0.00     0.311 C 
ATOM      7  O   UNL     1       2.684  -0.786  -2.064  1.00  0.00    -0.252 OA
BRANCH   6   8
ATOM      8  C   UNL     1       0.593  -1.341  -0.984  1.00  0.00     0.065 C 
ATOM      9  C   UNL     1       0.916  -0.319   0.128  1.00  0.00     0.023 C 
ATOM     10  C   UNL     1       1.144  -2.724  -0.550  1.00  0.00     0.023 C 
BRANCH   8  11
ATOM     11  C   UNL     1      -0.955  -1.543  -1.108  1.00  0.00     0.059 C 
BRANCH  11  12
ATOM     12  C   UNL     1      -1.850  -0.322  -1.374  1.00  0.00     0.220 C 
BRANCH  12  13
ATOM     13  O   UNL     1      -2.132  -0.294  -2.784  1.00  0.00    -0.384 OA
ATOM     14  H   UNL     1      -2.604  -1.103  -3.036  1.00  0.00     0.211 HD
ENDBRANCH  12  13
BRANCH  12  15
ATOM     15  C   UNL     1      -3.179  -0.347  -0.579  1.00  0.00     0.414 C 
ATOM     16  F   UNL     1      -2.959  -0.581   0.737  1.00  0.00    -0.168 F 
ATOM     17  F   UNL     1      -3.814   0.845  -0.664  1.00  0.00    -0.168 F 
ATOM     18  F   UNL     1      -4.024  -1.303  -1.024  1.00  0.00    -0.168 F 
ENDBRANCH  12  15
ENDBRANCH  11  12
ENDBRANCH   8  11
ENDBRANCH   6   8
ENDBRANCH   5   6
ENDBRANCH   4   5
ENDBRANCH   3   4
ENDBRANCH   2   3
ENDBRANCH   1   2
BRANCH   1  19
ATOM     19  C   UNL     1      -0.021   1.924  -3.330  1.00  0.00     0.188 C 
BRANCH  19  20
ATOM     20  O   UNL     1      -0.553   1.616  -4.604  1.00  0.00    -0.376 OA
BRANCH  20  21
ATOM     21  C   UNL     1      -1.862   2.070  -4.915  1.00  0.00     0.202 C 
BRANCH  21  22
ATOM     22  C   UNL     1      -1.921   3.577  -5.192  1.00  0.00     0.261 C 
BRANCH  22  23
ATOM     23  O   UNL     1      -1.534   4.388  -4.069  1.00  0.00    -0.460 OA
BRANCH  23  24
ATOM     24  C   UNL     1      -2.352   4.311  -2.987  1.00  0.00     0.338 C 
ATOM     25  O   UNL     1      -3.416   3.731  -2.923  1.00  0.00    -0.246 OA
BRANCH  24  26
ATOM     26  C   UNL     1      -1.613   4.827  -1.811  1.00  0.00     0.060 A 
ATOM     27  C   UNL     1      -1.554   4.024  -0.663  1.00  0.00     0.016 A 
ATOM     28  C   UNL     1      -0.982   6.071  -1.837  1.00  0.00     0.016 A 
ATOM     29  C   UNL     1      -0.924   4.493   0.488  1.00  0.00     0.010 A 
ATOM     30  C   UNL     1      -0.367   6.550  -0.676  1.00  0.00     0.010 A 
ATOM     31  C   UNL     1      -0.385   5.785   0.506  1.00  0.00    -0.014 A 
BRANCH  31  32
ATOM     32  C   UNL     1      -0.082   6.425   1.811  1.00  0.00     0.031 A 
ATOM     33  C   UNL     1      -1.100   7.377   2.384  1.00  0.00     0.074 A 
ATOM     34  C   UNL     1       1.043   6.152   2.495  1.00  0.00     0.049 A 
ATOM     35  N   UNL     1      -1.059   8.074   3.489  1.00  0.00    -0.248 NA
ATOM     36  C   UNL     1      -2.332   7.570   1.599  1.00  0.00     0.031 C 
ATOM     37  C   UNL     1       2.098   5.236   2.066  1.00  0.00     0.029 A 
ATOM     38  N   UNL     1       1.490   6.643   3.698  1.00  0.00    -0.354 N 
ATOM     39  C   UNL     1      -2.235   8.815   3.512  1.00  0.00     0.074 A 
ATOM     40  C   UNL     1      -2.963   8.495   2.305  1.00  0.00     0.031 C 
ATOM     41  C   UNL     1       3.084   5.249   2.981  1.00  0.00     0.029 A 
ATOM     42  C   UNL     1       2.742   6.193   4.044  1.00  0.00     0.049 A 
ATOM     43  H   UNL     1       0.964   7.258   4.258  1.00  0.00     0.167 HD
ATOM     44  C   UNL     1      -2.681   9.675   4.458  1.00  0.00     0.034 A 
ATOM     45  C   UNL     1       3.530   6.526   5.088  1.00  0.00     0.034 A 
ATOM     46  C   UNL     1      -1.970   9.980   5.669  1.00  0.00     0.049 A 
ATOM     47  C   UNL     1       3.022   7.508   6.115  1.00  0.00     0.074 A 
ATOM     48  C   UNL     1      -2.357  10.808   6.708  1.00  0.00     0.029 A 
ATOM     49  N   UNL     1      -0.719   9.483   5.998  1.00  0.00    -0.354 N 
ATOM     50  N   UNL     1       1.867   8.125   6.173  1.00  0.00    -0.248 NA
ATOM     51  C   UNL     1       3.918   7.811   7.241  1.00  0.00     0.031 C 
ATOM     52  C   UNL     1      -1.322  10.842   7.647  1.00  0.00     0.029 A 
ATOM     53  C   UNL     1      -0.312   9.996   7.218  1.00  0.00     0.049 A 
ATOM     54  H   UNL     1      -0.197   8.858   5.446  1.00  0.00     0.167 HD
ATOM     55  C   UNL     1       1.881   8.855   7.358  1.00  0.00     0.074 A 
ATOM     56  C   UNL     1       3.151   8.583   7.998  1.00  0.00     0.031 C 
ATOM     57  C   UNL     1       0.935   9.684   7.868  1.00  0.00     0.034 A 
BRANCH  44  58
ATOM     58  C   UNL     1      -4.009  10.346   4.217  1.00  0.00     0.023 A 
ATOM     59  C   UNL     1      -5.202   9.597   4.285  1.00  0.00     0.012 A 
ATOM     60  C   UNL     1      -4.075  11.730   3.961  1.00  0.00     0.148 A 
ATOM     61  C   UNL     1      -6.436  10.207   4.063  1.00  0.00     0.002 A 
ATOM     62  C   UNL     1      -5.312  12.340   3.792  1.00  0.00     0.091 A 
ATOM     63  F   UNL     1      -2.929  12.420   3.877  1.00  0.00    -0.205 F 
ATOM     64  C   UNL     1      -6.492  11.578   3.828  1.00  0.00     0.022 A 
BRANCH  62  65
ATOM     65  S   UNL     1      -5.495  14.112   3.568  1.00  0.00     0.127 S 
ATOM     66  O   UNL     1      -5.964  14.187   2.184  1.00  0.00    -0.237 OA
ATOM     67  O   UNL     1      -6.505  14.444   4.572  1.00  0.00    -0.237 OA
ATOM     68  O   UNL     1      -4.180  14.688   3.811  1.00  0.00    -0.744 OA
ENDBRANCH  62  65
ENDBRANCH  44  58
BRANCH  45  69
ATOM     69  C   UNL     1       4.881   5.913   5.234  1.00  0.00     0.023 A 
ATOM     70  C   UNL     1       5.139   5.033   6.304  1.00  0.00     0.012 A 
ATOM     71  C   UNL     1       5.915   6.208   4.324  1.00  0.00     0.148 A 
ATOM     72  C   UNL     1       6.412   4.490   6.487  1.00  0.00     0.002 A 
ATOM     73  C   UNL     1       7.164   5.619   4.479  1.00  0.00     0.091 A 
ATOM     74  F   UNL     1       5.655   7.061   3.323  1.00  0.00    -0.205 F 
ATOM     75  C   UNL     1       7.421   4.775   5.571  1.00  0.00     0.022 A 
BRANCH  73  76
ATOM     76  S   UNL     1       8.487   5.831   3.284  1.00  0.00     0.127 S 
ATOM     77  O   UNL     1       9.470   6.587   4.057  1.00  0.00    -0.237 OA
ATOM     78  O   UNL     1       8.859   4.444   3.002  1.00  0.00    -0.237 OA
ATOM     79  O   UNL     1       7.893   6.538   2.158  1.00  0.00    -0.744 OA
ENDBRANCH  73  76
ENDBRANCH  45  69
BRANCH  57  80
ATOM     80  C   UNL     1       1.209  10.320   9.209  1.00  0.00     0.023 A 
ATOM     81  C   UNL     1       2.208  11.306   9.337  1.00  0.00     0.012 A 
ATOM     82  C   UNL     1       0.439   9.970  10.337  1.00  0.00     0.148 A 
ATOM     83  C   UNL     1       2.472  11.893  10.575  1.00  0.00     0.002 A 
ATOM     84  C   UNL     1       0.669  10.600  11.554  1.00  0.00     0.091 A 
ATOM     85  F   UNL     1      -0.498   9.021  10.203  1.00  0.00    -0.205 F 
ATOM     86  C   UNL     1       1.697  11.548  11.680  1.00  0.00     0.022 A 
BRANCH  84  87
ATOM     87  S   UNL     1      -0.346  10.293  13.004  1.00  0.00     0.127 S 
ATOM     88  O   UNL     1       0.558   9.505  13.839  1.00  0.00    -0.237 OA
ATOM     89  O   UNL     1      -0.606  11.647  13.494  1.00  0.00    -0.237 OA
ATOM     90  O   UNL     1      -1.528   9.589  12.524  1.00  0.00    -0.744 OA
ENDBRANCH  84  87
ENDBRANCH  57  80
ENDBRANCH  31  32
ENDBRANCH  24  26
ENDBRANCH  23  24
ENDBRANCH  22  23
ENDBRANCH  21  22
ENDBRANCH  20  21
ENDBRANCH  19  20
ENDBRANCH   1  19
TORSDOF 24
