REMARK SMILES C=C1C(=O)O[C@H]2[C@@H]1[C@@H](OC(=O)[C@]1(C)O[C@@H]1C)[C@@H](OC(C)=O)/C(C(=O)OCCOCCOCCOC(=O)c1ccc(-c3c4nc(c(-c5cccc(S(=O)(=O)[O-])c5F)c5ccc([nH]5)c(-c5cccc(S(=O)(=O)[O-])c5F)c5nc(c(-c6cccc(S(=O)(=O)[O-])c6F)c6ccc3[nH]6)C=C5)C=C4)cc1)=C/[C@@H]1O[C@@H]1[C@]1(C)O[C@H]21
REMARK SMILES IDX 29 1 28 2 27 3 26 4 25 5 23 6 24 7 22 8 100 9 17 10 8 11
REMARK SMILES IDX 7 12 1 13 2 14 3 15 5 16 4 17 6 18 107 19 104 20 106 21
REMARK SMILES IDX 105 22 9 24 10 25 11 26 12 27 14 28 15 29 13 30 16 31 18 32
REMARK SMILES IDX 19 33 20 34 21 35 101 36 102 37 103 38 30 40 31 41 32 42
REMARK SMILES IDX 33 43 34 44 35 45 36 46 37 47 38 48 99 49 39 50 98 51 40 52
REMARK SMILES IDX 41 53 42 54 92 55 43 56 97 57 91 58 93 59 44 60 96 61 90 62
REMARK SMILES IDX 89 63 45 65 77 66 57 67 76 68 58 69 61 70 75 71 94 72 59 73
REMARK SMILES IDX 60 74 74 76 95 77 62 78 46 79 47 80 55 81 48 82 50 83 56 84
REMARK SMILES IDX 49 85 51 86 52 87 53 88 54 89 78 90 79 91 87 92 80 93 82 94
REMARK SMILES IDX 88 95 81 96 83 97 84 98 85 99 86 100 63 101 64 102 72 103
REMARK SMILES IDX 65 104 67 105 73 106 66 107 68 108 69 109 70 110 71 111
REMARK H PARENT 93 64 61 75
REMARK Flexibility Score: 90.00
ROOT
ATOM      1  C   UNL     1      -4.164  -7.324   0.886  1.00  0.00     0.188 C 
ENDROOT
BRANCH   1   2
ATOM      2  O   UNL     1      -4.289  -8.270  -0.189  1.00  0.00    -0.376 OA
BRANCH   2   3
ATOM      3  C   UNL     1      -3.212  -8.239  -1.124  1.00  0.00     0.202 C 
BRANCH   3   4
ATOM      4  C   UNL     1      -2.012  -9.157  -0.766  1.00  0.00     0.261 C 
BRANCH   4   5
ATOM      5  O   UNL     1      -0.653  -8.601  -0.664  1.00  0.00    -0.460 OA
BRANCH   5   6
ATOM      6  C   UNL     1      -0.522  -7.479   0.071  1.00  0.00     0.337 C 
ATOM      7  O   UNL     1      -1.476  -6.813   0.427  1.00  0.00    -0.246 OA
BRANCH   6   8
ATOM      8  C   UNL     1       0.838  -7.097   0.531  1.00  0.00     0.080 C 
ATOM      9  C   UNL     1       2.050  -7.385   0.032  1.00  0.00     0.022 C 
BRANCH   8  10
ATOM     10  C   UNL     1       0.823  -6.058   1.653  1.00  0.00     0.255 C 
BRANCH  10  11
ATOM     11  C   UNL     1       0.507  -4.602   1.131  1.00  0.00     0.234 C 
BRANCH  11  12
ATOM     12  C   UNL     1       1.782  -3.775   0.882  1.00  0.00     0.115 C 
ATOM     13  C   UNL     1       0.539  -1.510   0.717  1.00  0.00     0.021 C 
ATOM     14  C   UNL     1       1.595  -2.318   0.575  1.00  0.00     0.041 C 
ATOM     15  C   UNL     1       2.872  -1.850  -0.018  1.00  0.00     0.334 C 
ATOM     16  O   UNL     1       3.615  -2.966  -0.280  1.00  0.00    -0.455 OA
ATOM     17  O   UNL     1       3.219  -0.702  -0.202  1.00  0.00    -0.247 OA
ATOM     18  C   UNL     1       2.766  -4.146  -0.238  1.00  0.00     0.220 C 
BRANCH  18  19
ATOM     19  C   UNL     1       2.276  -4.362  -1.656  1.00  0.00     0.195 C 
ATOM     20  C   UNL     1       2.358  -5.566  -2.674  1.00  0.00     0.125 CG0
ATOM     21  O   UNL     1       3.433  -4.661  -2.467  1.00  0.00    -0.359 OA
ATOM     22  C   UNL     1       1.776  -5.295  -4.057  1.00  0.00     0.048 C 
ATOM     23  G   UNL     1       2.663  -7.070  -2.472  1.00  0.00     0.000 G0
ENDBRANCH  18  19
ENDBRANCH  11  12
BRANCH  11  24
ATOM     24  O   UNL     1      -0.231  -4.560  -0.112  1.00  0.00    -0.455 OA
BRANCH  24  25
ATOM     25  C   UNL     1      -1.542  -4.174  -0.035  1.00  0.00     0.341 C 
ATOM     26  O   UNL     1      -2.155  -3.977   0.997  1.00  0.00    -0.249 OA
BRANCH  25  27
ATOM     27  C   UNL     1      -2.097  -3.816  -1.372  1.00  0.00     0.188 C 
ATOM     28  O   UNL     1      -3.050  -4.756  -1.899  1.00  0.00    -0.354 OA
ATOM     29  C   UNL     1      -1.843  -4.610  -2.654  1.00  0.00     0.160 C 
ATOM     30  C   UNL     1      -2.522  -2.386  -1.560  1.00  0.00     0.058 C 
ATOM     31  C   UNL     1      -1.084  -5.873  -2.804  1.00  0.00     0.042 C 
ENDBRANCH  25  27
ENDBRANCH  24  25
ENDBRANCH  11  24
ENDBRANCH  10  11
BRANCH  10  32
ATOM     32  O   UNL     1      -0.118  -6.452   2.685  1.00  0.00    -0.453 OA
BRANCH  32  33
ATOM     33  C   UNL     1       0.252  -7.172   3.768  1.00  0.00     0.303 C 
ATOM     34  C   UNL     1       1.524  -6.780   4.461  1.00  0.00     0.139 C 
ATOM     35  O   UNL     1      -0.448  -8.085   4.192  1.00  0.00    -0.253 OA
ENDBRANCH  32  33
ENDBRANCH  10  32
ENDBRANCH   8  10
BRANCH   9  36
ATOM     36  C   UNL     1       2.521  -7.932  -1.226  1.00  0.00     0.174 C 
ATOM     37  O   UNL     1       3.798  -7.434  -1.688  1.00  0.00    -0.362 OA
ATOM     38  C   UNL     1       2.663  -7.070  -2.472  1.00  0.00     0.186 CG0
ATOM     39  G   UNL     1       2.358  -5.566  -2.674  1.00  0.00     0.000 G0
ENDBRANCH   9  36
ENDBRANCH   6   8
ENDBRANCH   5   6
ENDBRANCH   4   5
ENDBRANCH   3   4
ENDBRANCH   2   3
ENDBRANCH   1   2
BRANCH   1  40
ATOM     40  C   UNL     1      -3.548  -7.996   2.120  1.00  0.00     0.188 C 
BRANCH  40  41
ATOM     41  O   UNL     1      -4.228  -9.158   2.615  1.00  0.00    -0.376 OA
BRANCH  41  42
ATOM     42  C   UNL     1      -5.629  -9.229   2.394  1.00  0.00     0.202 C 
BRANCH  42  43
ATOM     43  C   UNL     1      -6.506  -8.325   3.269  1.00  0.00     0.261 C 
BRANCH  43  44
ATOM     44  O   UNL     1      -6.055  -6.962   3.370  1.00  0.00    -0.460 OA
BRANCH  44  45
ATOM     45  C   UNL     1      -5.398  -6.668   4.520  1.00  0.00     0.338 C 
ATOM     46  O   UNL     1      -5.193  -7.423   5.457  1.00  0.00    -0.246 OA
BRANCH  45  47
ATOM     47  C   UNL     1      -4.860  -5.291   4.492  1.00  0.00     0.060 A 
ATOM     48  C   UNL     1      -3.491  -5.114   4.733  1.00  0.00     0.016 A 
ATOM     49  C   UNL     1      -5.707  -4.184   4.408  1.00  0.00     0.016 A 
ATOM     50  C   UNL     1      -2.975  -3.836   4.959  1.00  0.00     0.010 A 
ATOM     51  C   UNL     1      -5.191  -2.903   4.653  1.00  0.00     0.010 A 
ATOM     52  C   UNL     1      -3.833  -2.729   4.982  1.00  0.00    -0.014 A 
BRANCH  52  53
ATOM     53  C   UNL     1      -3.360  -1.444   5.566  1.00  0.00     0.031 A 
ATOM     54  C   UNL     1      -3.660  -1.157   7.016  1.00  0.00     0.074 A 
ATOM     55  C   UNL     1      -2.673  -0.541   4.845  1.00  0.00     0.049 A 
ATOM     56  N   UNL     1      -3.381  -0.095   7.728  1.00  0.00    -0.248 NA
ATOM     57  C   UNL     1      -4.371  -2.210   7.760  1.00  0.00     0.031 C 
ATOM     58  C   UNL     1      -2.304  -0.685   3.440  1.00  0.00     0.029 A 
ATOM     59  N   UNL     1      -2.190   0.697   5.199  1.00  0.00    -0.354 N 
ATOM     60  C   UNL     1      -3.908  -0.336   8.991  1.00  0.00     0.074 A 
ATOM     61  C   UNL     1      -4.526  -1.644   8.948  1.00  0.00     0.031 C 
ATOM     62  C   UNL     1      -1.683   0.439   3.040  1.00  0.00     0.029 A 
ATOM     63  C   UNL     1      -1.625   1.388   4.153  1.00  0.00     0.049 A 
ATOM     64  H   UNL     1      -2.243   1.055   6.114  1.00  0.00     0.167 HD
ATOM     65  C   UNL     1      -3.873   0.448  10.095  1.00  0.00     0.034 A 
ATOM     66  C   UNL     1      -1.142   2.646   4.091  1.00  0.00     0.034 A 
ATOM     67  C   UNL     1      -3.250   1.743  10.159  1.00  0.00     0.049 A 
ATOM     68  C   UNL     1      -1.143   3.515   5.325  1.00  0.00     0.074 A 
ATOM     69  C   UNL     1      -3.134   2.587  11.251  1.00  0.00     0.029 A 
ATOM     70  N   UNL     1      -2.653   2.390   9.090  1.00  0.00    -0.354 N 
ATOM     71  N   UNL     1      -1.535   3.225   6.542  1.00  0.00    -0.248 NA
ATOM     72  C   UNL     1      -0.609   4.879   5.181  1.00  0.00     0.031 C 
ATOM     73  C   UNL     1      -2.489   3.756  10.835  1.00  0.00     0.029 A 
ATOM     74  C   UNL     1      -2.179   3.628   9.491  1.00  0.00     0.049 A 
ATOM     75  H   UNL     1      -2.578   2.024   8.179  1.00  0.00     0.167 HD
ATOM     76  C   UNL     1      -1.265   4.354   7.312  1.00  0.00     0.074 A 
ATOM     77  C   UNL     1      -0.653   5.324   6.430  1.00  0.00     0.031 C 
ATOM     78  C   UNL     1      -1.518   4.573   8.627  1.00  0.00     0.034 A 
BRANCH  65  79
ATOM     79  C   UNL     1      -4.516  -0.089  11.346  1.00  0.00     0.023 A 
ATOM     80  C   UNL     1      -3.878  -1.116  12.071  1.00  0.00     0.012 A 
ATOM     81  C   UNL     1      -5.720   0.456  11.830  1.00  0.00     0.148 A 
ATOM     82  C   UNL     1      -4.445  -1.614  13.243  1.00  0.00     0.002 A 
ATOM     83  C   UNL     1      -6.258  -0.016  13.022  1.00  0.00     0.091 A 
ATOM     84  F   UNL     1      -6.322   1.416  11.113  1.00  0.00    -0.205 F 
ATOM     85  C   UNL     1      -5.628  -1.057  13.723  1.00  0.00     0.022 A 
BRANCH  83  86
ATOM     86  S   UNL     1      -7.735   0.688  13.761  1.00  0.00     0.127 S 
ATOM     87  O   UNL     1      -8.714  -0.375  13.537  1.00  0.00    -0.237 OA
ATOM     88  O   UNL     1      -7.330   0.858  15.157  1.00  0.00    -0.237 OA
ATOM     89  O   UNL     1      -7.987   1.932  13.048  1.00  0.00    -0.744 OA
ENDBRANCH  83  86
ENDBRANCH  65  79
BRANCH  66  90
ATOM     90  C   UNL     1      -0.587   3.170   2.809  1.00  0.00     0.023 A 
ATOM     91  C   UNL     1       0.791   3.438   2.704  1.00  0.00     0.012 A 
ATOM     92  C   UNL     1      -1.419   3.409   1.697  1.00  0.00     0.148 A 
ATOM     93  C   UNL     1       1.327   3.964   1.527  1.00  0.00     0.002 A 
ATOM     94  C   UNL     1      -0.870   3.877   0.509  1.00  0.00     0.091 A 
ATOM     95  F   UNL     1      -2.731   3.169   1.823  1.00  0.00    -0.205 F 
ATOM     96  C   UNL     1       0.499   4.174   0.428  1.00  0.00     0.022 A 
BRANCH  94  97
ATOM     97  S   UNL     1      -1.837   4.046  -0.995  1.00  0.00     0.127 S 
ATOM     98  O   UNL     1      -1.891   5.496  -1.157  1.00  0.00    -0.237 OA
ATOM     99  O   UNL     1      -1.002   3.344  -1.971  1.00  0.00    -0.237 OA
ATOM    100  O   UNL     1      -3.108   3.390  -0.720  1.00  0.00    -0.744 OA
ENDBRANCH  94  97
ENDBRANCH  66  90
BRANCH  78 101
ATOM    101  C   UNL     1      -1.106   5.899   9.216  1.00  0.00     0.023 A 
ATOM    102  C   UNL     1      -1.817   7.069   8.880  1.00  0.00     0.012 A 
ATOM    103  C   UNL     1      -0.058   5.979  10.156  1.00  0.00     0.148 A 
ATOM    104  C   UNL     1      -1.471   8.299   9.441  1.00  0.00     0.002 A 
ATOM    105  C   UNL     1       0.252   7.201  10.747  1.00  0.00     0.091 A 
ATOM    106  F   UNL     1       0.623   4.863  10.453  1.00  0.00    -0.205 F 
ATOM    107  C   UNL     1      -0.446   8.363  10.381  1.00  0.00     0.022 A 
BRANCH 105 108
ATOM    108  S   UNL     1       1.495   7.358  12.035  1.00  0.00     0.127 S 
ATOM    109  O   UNL     1       2.603   7.973  11.307  1.00  0.00    -0.237 OA
ATOM    110  O   UNL     1       0.836   8.241  13.000  1.00  0.00    -0.237 OA
ATOM    111  O   UNL     1       1.736   6.007  12.524  1.00  0.00    -0.744 OA
ENDBRANCH 105 108
ENDBRANCH  78 101
ENDBRANCH  52  53
ENDBRANCH  45  47
ENDBRANCH  44  45
ENDBRANCH  43  44
ENDBRANCH  42  43
ENDBRANCH  41  42
ENDBRANCH  40  41
ENDBRANCH   1  40
TORSDOF 25
