REMARK SMILES C[C@@H](Nc1ccc(C(=O)OCCOCCOCCOC(=O)c2ccc(-c3c4nc(c(-c5cccc(S(=O)(=O)[O-])c5F)c5ccc([nH]5)c(-c5cccc(S(=O)(=O)[O-])c5F)c5nc(c(-c6cccc(S(=O)(=O)[O-])c6F)c6ccc3[nH]6)C=C5)C=C4)cc2)cc1)C1CC[NH+](C)CC1
REMARK SMILES IDX 14 1 13 2 12 3 11 4 10 5 8 6 9 7 7 8 4 9 5 10 86 11 6 12
REMARK SMILES IDX 85 13 3 14 2 16 1 17 87 18 88 19 93 20 89 21 92 22 90 23
REMARK SMILES IDX 91 24 15 26 16 27 17 28 18 29 19 30 20 31 21 32 22 33 23 34
REMARK SMILES IDX 84 35 24 36 83 37 25 38 26 39 27 40 77 41 28 42 82 43 76 44
REMARK SMILES IDX 78 45 29 46 81 47 75 48 74 49 30 51 62 52 42 53 61 54 43 55
REMARK SMILES IDX 46 56 60 57 79 58 44 59 45 60 59 62 80 63 47 64 31 65 32 66
REMARK SMILES IDX 40 67 33 68 35 69 41 70 34 71 36 72 37 73 38 74 39 75 63 76
REMARK SMILES IDX 64 77 72 78 65 79 67 80 73 81 66 82 68 83 69 84 70 85 71 86
REMARK SMILES IDX 48 87 49 88 57 89 50 90 52 91 58 92 51 93 53 94 54 95 55 96
REMARK SMILES IDX 56 97
REMARK H PARENT 3 15 90 25 78 50 46 61
REMARK Flexibility Score: inf
ROOT
ATOM      1  C   UNL     1      -2.078  -3.349   8.061  1.00  0.00     0.188 C 
ENDROOT
BRANCH   1   2
ATOM      2  O   UNL     1      -3.221  -3.302   8.900  1.00  0.00    -0.376 OA
BRANCH   2   3
ATOM      3  C   UNL     1      -4.499  -3.613   8.356  1.00  0.00     0.202 C 
BRANCH   3   4
ATOM      4  C   UNL     1      -4.942  -3.050   6.990  1.00  0.00     0.261 C 
BRANCH   4   5
ATOM      5  O   UNL     1      -3.982  -3.215   5.931  1.00  0.00    -0.460 OA
BRANCH   5   6
ATOM      6  C   UNL     1      -3.501  -2.066   5.413  1.00  0.00     0.338 C 
ATOM      7  O   UNL     1      -3.957  -0.945   5.575  1.00  0.00    -0.246 OA
BRANCH   6   8
ATOM      8  C   UNL     1      -2.208  -2.283   4.749  1.00  0.00     0.060 A 
ATOM      9  C   UNL     1       0.714  -2.239   2.591  1.00  0.00     0.034 A 
ATOM     10  C   UNL     1       0.388  -0.830   3.697  1.00  0.00     0.026 A 
ATOM     11  C   UNL     1      -0.297  -3.749   2.691  1.00  0.00     0.026 A 
ATOM     12  C   UNL     1      -1.086  -0.851   4.769  1.00  0.00     0.018 A 
ATOM     13  C   UNL     1      -1.780  -3.772   3.800  1.00  0.00     0.018 A 
BRANCH   9  14
ATOM     14  N   UNL     1       1.452  -1.955   1.442  1.00  0.00    -0.382 N 
ATOM     15  H   UNL     1       2.417  -2.150   1.413  1.00  0.00     0.160 HD
BRANCH  14  16
ATOM     16  C   UNL     1       0.779  -1.361   0.265  1.00  0.00     0.079 C 
ATOM     17  C   UNL     1       1.455  -0.021  -0.059  1.00  0.00     0.031 C 
BRANCH  16  18
ATOM     18  C   UNL     1      -0.774  -1.195   0.164  1.00  0.00     0.022 C 
ATOM     19  C   UNL     1      -1.497  -0.113   0.967  1.00  0.00     0.067 C 
ATOM     20  C   UNL     1      -1.577  -2.472   0.322  1.00  0.00     0.067 C 
ATOM     21  C   UNL     1      -1.644  -0.402   2.465  1.00  0.00     0.262 C 
ATOM     22  C   UNL     1      -2.170  -2.623   1.729  1.00  0.00     0.262 C 
ATOM     23  N   UNL     1      -1.322  -1.898   2.893  1.00  0.00    -0.337 N 
ATOM     24  C   UNL     1      -0.160  -2.678   4.439  1.00  0.00     0.332 C 
ATOM     25  H   UNL     1      -0.784  -2.267   3.677  1.00  0.00     0.347 HD
ENDBRANCH  16  18
ENDBRANCH  14  16
ENDBRANCH   9  14
ENDBRANCH   6   8
ENDBRANCH   5   6
ENDBRANCH   4   5
ENDBRANCH   3   4
ENDBRANCH   2   3
ENDBRANCH   1   2
BRANCH   1  26
ATOM     26  C   UNL     1      -1.839  -4.595   7.186  1.00  0.00     0.188 C 
BRANCH  26  27
ATOM     27  O   UNL     1      -2.931  -5.463   7.037  1.00  0.00    -0.376 OA
BRANCH  27  28
ATOM     28  C   UNL     1      -2.931  -6.700   7.718  1.00  0.00     0.202 C 
BRANCH  28  29
ATOM     29  C   UNL     1      -2.148  -6.982   9.020  1.00  0.00     0.261 C 
BRANCH  29  30
ATOM     30  O   UNL     1      -1.144  -6.050   9.448  1.00  0.00    -0.460 OA
BRANCH  30  31
ATOM     31  C   UNL     1       0.122  -6.286   9.014  1.00  0.00     0.338 C 
ATOM     32  O   UNL     1       0.481  -7.192   8.282  1.00  0.00    -0.246 OA
BRANCH  31  33
ATOM     33  C   UNL     1       0.976  -5.128   9.373  1.00  0.00     0.060 A 
ATOM     34  C   UNL     1       1.513  -4.326   8.352  1.00  0.00     0.016 A 
ATOM     35  C   UNL     1       1.280  -4.863  10.707  1.00  0.00     0.016 A 
ATOM     36  C   UNL     1       2.385  -3.279   8.663  1.00  0.00     0.010 A 
ATOM     37  C   UNL     1       2.173  -3.830  11.013  1.00  0.00     0.010 A 
ATOM     38  C   UNL     1       2.761  -3.058   9.993  1.00  0.00    -0.014 A 
BRANCH  38  39
ATOM     39  C   UNL     1       3.904  -2.161  10.312  1.00  0.00     0.031 A 
ATOM     40  C   UNL     1       5.233  -2.786  10.652  1.00  0.00     0.074 A 
ATOM     41  C   UNL     1       3.775  -0.822  10.324  1.00  0.00     0.049 A 
ATOM     42  N   UNL     1       6.341  -2.220  11.053  1.00  0.00    -0.248 NA
ATOM     43  C   UNL     1       5.318  -4.252  10.530  1.00  0.00     0.031 C 
ATOM     44  C   UNL     1       2.557  -0.085   9.997  1.00  0.00     0.029 A 
ATOM     45  N   UNL     1       4.681   0.156  10.662  1.00  0.00    -0.354 N 
ATOM     46  C   UNL     1       7.239  -3.257  11.274  1.00  0.00     0.074 A 
ATOM     47  C   UNL     1       6.544  -4.489  10.970  1.00  0.00     0.031 C 
ATOM     48  C   UNL     1       2.780   1.228  10.183  1.00  0.00     0.029 A 
ATOM     49  C   UNL     1       4.142   1.422  10.678  1.00  0.00     0.049 A 
ATOM     50  H   UNL     1       5.624  -0.032  10.872  1.00  0.00     0.167 HD
ATOM     51  C   UNL     1       8.527  -3.195  11.688  1.00  0.00     0.034 A 
ATOM     52  C   UNL     1       4.674   2.595  11.080  1.00  0.00     0.034 A 
ATOM     53  C   UNL     1       9.222  -1.971  11.984  1.00  0.00     0.049 A 
ATOM     54  C   UNL     1       6.098   2.635  11.578  1.00  0.00     0.074 A 
ATOM     55  C   UNL     1      10.542  -1.804  12.364  1.00  0.00     0.029 A 
ATOM     56  N   UNL     1       8.651  -0.708  11.958  1.00  0.00    -0.354 N 
ATOM     57  N   UNL     1       6.964   1.658  11.692  1.00  0.00    -0.248 NA
ATOM     58  C   UNL     1       6.628   3.950  11.975  1.00  0.00     0.031 C 
ATOM     59  C   UNL     1      10.754  -0.446  12.621  1.00  0.00     0.029 A 
ATOM     60  C   UNL     1       9.586   0.241  12.334  1.00  0.00     0.049 A 
ATOM     61  H   UNL     1       7.719  -0.515  11.708  1.00  0.00     0.167 HD
ATOM     62  C   UNL     1       8.150   2.244  12.125  1.00  0.00     0.074 A 
ATOM     63  C   UNL     1       7.895   3.664  12.241  1.00  0.00     0.031 C 
ATOM     64  C   UNL     1       9.342   1.659  12.402  1.00  0.00     0.034 A 
BRANCH  51  65
ATOM     65  C   UNL     1       9.274  -4.493  11.855  1.00  0.00     0.023 A 
ATOM     66  C   UNL     1       9.629  -5.257  10.724  1.00  0.00     0.012 A 
ATOM     67  C   UNL     1       9.672  -4.929  13.135  1.00  0.00     0.148 A 
ATOM     68  C   UNL     1      10.332  -6.453  10.868  1.00  0.00     0.002 A 
ATOM     69  C   UNL     1      10.418  -6.093  13.265  1.00  0.00     0.091 A 
ATOM     70  F   UNL     1       9.311  -4.198  14.199  1.00  0.00    -0.205 F 
ATOM     71  C   UNL     1      10.735  -6.864  12.136  1.00  0.00     0.022 A 
BRANCH  69  72
ATOM     72  S   UNL     1      11.057  -6.663  14.844  1.00  0.00     0.127 S 
ATOM     73  O   UNL     1      10.291  -7.893  15.045  1.00  0.00    -0.237 OA
ATOM     74  O   UNL     1      12.473  -6.870  14.543  1.00  0.00    -0.237 OA
ATOM     75  O   UNL     1      10.784  -5.599  15.800  1.00  0.00    -0.744 OA
ENDBRANCH  69  72
ENDBRANCH  51  65
BRANCH  52  76
ATOM     76  C   UNL     1       3.862   3.845  11.026  1.00  0.00     0.023 A 
ATOM     77  C   UNL     1       4.216   4.871  10.128  1.00  0.00     0.012 A 
ATOM     78  C   UNL     1       2.749   4.026  11.870  1.00  0.00     0.148 A 
ATOM     79  C   UNL     1       3.501   6.069  10.099  1.00  0.00     0.002 A 
ATOM     80  C   UNL     1       2.006   5.197  11.794  1.00  0.00     0.091 A 
ATOM     81  F   UNL     1       2.438   3.044  12.727  1.00  0.00    -0.205 F 
ATOM     82  C   UNL     1       2.391   6.229  10.924  1.00  0.00     0.022 A 
BRANCH  80  83
ATOM     83  S   UNL     1       0.496   5.446  12.734  1.00  0.00     0.127 S 
ATOM     84  O   UNL     1       0.872   6.548  13.617  1.00  0.00    -0.237 OA
ATOM     85  O   UNL     1      -0.455   5.798  11.680  1.00  0.00    -0.237 OA
ATOM     86  O   UNL     1       0.226   4.177  13.395  1.00  0.00    -0.744 OA
ENDBRANCH  80  83
ENDBRANCH  52  76
BRANCH  64  87
ATOM     87  C   UNL     1      10.497   2.550  12.789  1.00  0.00     0.023 A 
ATOM     88  C   UNL     1      10.509   3.211  14.033  1.00  0.00     0.012 A 
ATOM     89  C   UNL     1      11.612   2.671  11.934  1.00  0.00     0.148 A 
ATOM     90  C   UNL     1      11.592   4.011  14.400  1.00  0.00     0.002 A 
ATOM     91  C   UNL     1      12.711   3.422  12.331  1.00  0.00     0.091 A 
ATOM     92  F   UNL     1      11.578   2.046  10.748  1.00  0.00    -0.205 F 
ATOM     93  C   UNL     1      12.696   4.107  13.556  1.00  0.00     0.022 A 
BRANCH  91  94
ATOM     94  S   UNL     1      14.216   3.521  11.355  1.00  0.00     0.127 S 
ATOM     95  O   UNL     1      14.196   4.917  10.918  1.00  0.00    -0.237 OA
ATOM     96  O   UNL     1      15.246   3.206  12.345  1.00  0.00    -0.237 OA
ATOM     97  O   UNL     1      14.075   2.536  10.292  1.00  0.00    -0.744 OA
ENDBRANCH  91  94
ENDBRANCH  64  87
ENDBRANCH  38  39
ENDBRANCH  31  33
ENDBRANCH  30  31
ENDBRANCH  29  30
ENDBRANCH  28  29
ENDBRANCH  27  28
ENDBRANCH  26  27
ENDBRANCH   1  26
TORSDOF 23
