REMARK SMILES O=C(CCCNC(=O)N1CC[C@@H](C(=O)OCCOCCOCCOC(=O)c2ccc(-c3c4nc(c(-c5cccc(S(=O)(=O)[O-])c5F)c5ccc([nH]5)c(-c5cccc(S(=O)(=O)[O-])c5F)c5nc(c(-c6cccc(S(=O)(=O)[O-])c6F)c6ccc3[nH]6)C=C5)C=C4)cc2)C1)NC1CC1
REMARK SMILES IDX 18 1 17 2 16 3 15 4 13 5 14 6 12 7 9 8 10 9 90 10 11 11 7 12
REMARK SMILES IDX 6 13 8 15 5 16 4 17 3 18 2 19 1 20 91 21 92 23 93 24 94 25
REMARK SMILES IDX 19 26 20 27 21 28 22 29 23 30 24 31 25 32 26 33 27 34 28 35
REMARK SMILES IDX 89 36 29 37 88 38 30 39 31 40 32 41 82 42 33 43 87 44 81 45
REMARK SMILES IDX 83 46 34 47 86 48 80 49 79 50 35 52 67 53 47 54 66 55 48 56
REMARK SMILES IDX 51 57 65 58 84 59 49 60 50 61 64 63 85 64 52 65 36 66 37 67
REMARK SMILES IDX 45 68 38 69 40 70 46 71 39 72 41 73 42 74 43 75 44 76 68 77
REMARK SMILES IDX 69 78 77 79 70 80 72 81 78 82 71 83 73 84 74 85 75 86 76 87
REMARK SMILES IDX 53 88 54 89 62 90 55 91 57 92 63 93 56 94 58 95 59 96 60 97
REMARK SMILES IDX 61 98
REMARK H PARENT 6 14 91 22 83 51 51 62
REMARK Flexibility Score: inf
ROOT
ATOM      1  O   UNL     1      11.531   4.880   2.927  1.00  0.00    -0.376 OA
ENDROOT
BRANCH   1   2
ATOM      2  C   UNL     1      12.557   5.054   1.972  1.00  0.00     0.202 C 
BRANCH   2   3
ATOM      3  C   UNL     1      12.519   4.305   0.636  1.00  0.00     0.261 C 
BRANCH   3   4
ATOM      4  O   UNL     1      11.238   4.241  -0.008  1.00  0.00    -0.463 OA
BRANCH   4   5
ATOM      5  C   UNL     1      10.707   2.990  -0.139  1.00  0.00     0.310 C 
ATOM      6  O   UNL     1      11.224   1.972   0.293  1.00  0.00    -0.252 OA
BRANCH   5   7
ATOM      7  C   UNL     1       9.393   3.042  -0.904  1.00  0.00     0.120 C 
ATOM      8  N   UNL     1       7.878   1.266  -0.503  1.00  0.00    -0.324 N 
ATOM      9  C   UNL     1       7.814   2.161   0.632  1.00  0.00     0.122 C 
ATOM     10  C   UNL     1       8.985   1.636  -1.372  1.00  0.00     0.136 C 
ATOM     11  C   UNL     1       8.200   3.465  -0.034  1.00  0.00     0.039 C 
BRANCH   8  12
ATOM     12  C   UNL     1       7.113   0.176  -0.760  1.00  0.00     0.317 C 
ATOM     13  N   UNL     1       5.849   0.141  -0.272  1.00  0.00    -0.338 N 
ATOM     14  H   UNL     1       5.518  -0.738   0.023  1.00  0.00     0.165 HD
ATOM     15  O   UNL     1       7.493  -0.754  -1.468  1.00  0.00    -0.249 OA
BRANCH  13  16
ATOM     16  C   UNL     1       4.927   1.260  -0.137  1.00  0.00     0.118 C 
BRANCH  16  17
ATOM     17  C   UNL     1       3.842   1.247  -1.213  1.00  0.00     0.031 C 
BRANCH  17  18
ATOM     18  C   UNL     1       2.940   0.017  -1.189  1.00  0.00     0.102 C 
BRANCH  18  19
ATOM     19  C   UNL     1       2.047   0.041   0.032  1.00  0.00     0.220 C 
ATOM     20  O   UNL     1       0.963   0.613  -0.002  1.00  0.00    -0.275 OA
ATOM     21  N   UNL     1       2.615  -0.564   1.135  1.00  0.00    -0.353 N 
ATOM     22  H   UNL     1       3.474  -1.026   0.999  1.00  0.00     0.163 HD
BRANCH  21  23
ATOM     23  C   UNL     1       2.072  -0.581   2.459  1.00  0.00     0.082 C 
ATOM     24  C   UNL     1       0.626  -0.406   2.815  1.00  0.00     0.027 C 
ATOM     25  C   UNL     1       1.249  -1.768   2.882  1.00  0.00     0.027 C 
ENDBRANCH  21  23
ENDBRANCH  18  19
ENDBRANCH  17  18
ENDBRANCH  16  17
ENDBRANCH  13  16
ENDBRANCH   8  12
ENDBRANCH   5   7
ENDBRANCH   4   5
ENDBRANCH   3   4
ENDBRANCH   2   3
ENDBRANCH   1   2
BRANCH   1  26
ATOM     26  C   UNL     1      10.183   5.053   2.545  1.00  0.00     0.188 C 
BRANCH  26  27
ATOM     27  C   UNL     1       9.746   6.250   1.666  1.00  0.00     0.188 C 
BRANCH  27  28
ATOM     28  O   UNL     1      10.494   7.450   1.637  1.00  0.00    -0.376 OA
BRANCH  28  29
ATOM     29  C   UNL     1      10.928   8.030   2.854  1.00  0.00     0.202 C 
BRANCH  29  30
ATOM     30  C   UNL     1       9.889   8.366   3.928  1.00  0.00     0.261 C 
BRANCH  30  31
ATOM     31  O   UNL     1       9.174   7.226   4.433  1.00  0.00    -0.460 OA
BRANCH  31  32
ATOM     32  C   UNL     1       7.843   7.218   4.207  1.00  0.00     0.338 C 
ATOM     33  O   UNL     1       7.194   8.072   3.596  1.00  0.00    -0.246 OA
BRANCH  32  34
ATOM     34  C   UNL     1       7.244   5.948   4.651  1.00  0.00     0.060 A 
ATOM     35  C   UNL     1       6.505   5.197   3.725  1.00  0.00     0.016 A 
ATOM     36  C   UNL     1       7.332   5.536   5.982  1.00  0.00     0.016 A 
ATOM     37  C   UNL     1       5.814   4.057   4.138  1.00  0.00     0.010 A 
ATOM     38  C   UNL     1       6.629   4.399   6.396  1.00  0.00     0.010 A 
ATOM     39  C   UNL     1       5.838   3.674   5.486  1.00  0.00    -0.014 A 
BRANCH  39  40
ATOM     40  C   UNL     1       4.915   2.620   5.981  1.00  0.00     0.031 A 
ATOM     41  C   UNL     1       3.638   3.031   6.665  1.00  0.00     0.074 A 
ATOM     42  C   UNL     1       5.208   1.314   5.842  1.00  0.00     0.049 A 
ATOM     43  N   UNL     1       2.718   2.287   7.221  1.00  0.00    -0.248 NA
ATOM     44  C   UNL     1       3.366   4.476   6.730  1.00  0.00     0.031 C 
ATOM     45  C   UNL     1       6.402   0.779   5.194  1.00  0.00     0.029 A 
ATOM     46  N   UNL     1       4.528   0.200   6.272  1.00  0.00    -0.354 N 
ATOM     47  C   UNL     1       1.770   3.171   7.725  1.00  0.00     0.074 A 
ATOM     48  C   UNL     1       2.236   4.507   7.420  1.00  0.00     0.031 C 
ATOM     49  C   UNL     1       6.389  -0.562   5.297  1.00  0.00     0.029 A 
ATOM     50  C   UNL     1       5.201  -0.976   6.043  1.00  0.00     0.049 A 
ATOM     51  H   UNL     1       3.644   0.241   6.704  1.00  0.00     0.167 HD
ATOM     52  C   UNL     1       0.610   2.901   8.371  1.00  0.00     0.034 A 
ATOM     53  C   UNL     1       4.907  -2.239   6.415  1.00  0.00     0.034 A 
ATOM     54  C   UNL     1       0.143   1.576   8.678  1.00  0.00     0.049 A 
ATOM     55  C   UNL     1       3.640  -2.512   7.186  1.00  0.00     0.074 A 
ATOM     56  C   UNL     1      -1.036   1.201   9.300  1.00  0.00     0.029 A 
ATOM     57  N   UNL     1       0.838   0.408   8.404  1.00  0.00    -0.354 N 
ATOM     58  N   UNL     1       2.698  -1.677   7.551  1.00  0.00    -0.248 NA
ATOM     59  C   UNL     1       3.384  -3.909   7.570  1.00  0.00     0.031 C 
ATOM     60  C   UNL     1      -1.039  -0.193   9.428  1.00  0.00     0.029 A 
ATOM     61  C   UNL     1       0.122  -0.688   8.856  1.00  0.00     0.049 A 
ATOM     62  H   UNL     1       1.712   0.365   7.955  1.00  0.00     0.167 HD
ATOM     63  C   UNL     1       1.721  -2.451   8.172  1.00  0.00     0.074 A 
ATOM     64  C   UNL     1       2.179  -3.823   8.117  1.00  0.00     0.031 C 
ATOM     65  C   UNL     1       0.556  -2.058   8.746  1.00  0.00     0.034 A 
BRANCH  52  66
ATOM     66  C   UNL     1      -0.244   4.075   8.776  1.00  0.00     0.023 A 
ATOM     67  C   UNL     1      -0.930   4.811   7.787  1.00  0.00     0.012 A 
ATOM     68  C   UNL     1      -0.388   4.436  10.129  1.00  0.00     0.148 A 
ATOM     69  C   UNL     1      -1.709   5.913   8.135  1.00  0.00     0.002 A 
ATOM     70  C   UNL     1      -1.203   5.509  10.472  1.00  0.00     0.091 A 
ATOM     71  F   UNL     1       0.289   3.740  11.054  1.00  0.00    -0.205 F 
ATOM     72  C   UNL     1      -1.853   6.257   9.476  1.00  0.00     0.022 A 
BRANCH  70  73
ATOM     73  S   UNL     1      -1.508   5.981  12.178  1.00  0.00     0.127 S 
ATOM     74  O   UNL     1      -0.705   7.197  12.296  1.00  0.00    -0.237 OA
ATOM     75  O   UNL     1      -2.955   6.204  12.184  1.00  0.00    -0.237 OA
ATOM     76  O   UNL     1      -1.066   4.855  12.989  1.00  0.00    -0.744 OA
ENDBRANCH  70  73
ENDBRANCH  52  66
BRANCH  53  77
ATOM     77  C   UNL     1       5.814  -3.358   6.033  1.00  0.00     0.023 A 
ATOM     78  C   UNL     1       5.382  -4.299   5.078  1.00  0.00     0.012 A 
ATOM     79  C   UNL     1       7.096  -3.492   6.601  1.00  0.00     0.148 A 
ATOM     80  C   UNL     1       6.202  -5.367   4.713  1.00  0.00     0.002 A 
ATOM     81  C   UNL     1       7.926  -4.530   6.196  1.00  0.00     0.091 A 
ATOM     82  F   UNL     1       7.478  -2.594   7.520  1.00  0.00    -0.205 F 
ATOM     83  C   UNL     1       7.476  -5.477   5.263  1.00  0.00     0.022 A 
BRANCH  81  84
ATOM     84  S   UNL     1       9.621  -4.694   6.769  1.00  0.00     0.127 S 
ATOM     85  O   UNL     1       9.557  -5.935   7.537  1.00  0.00    -0.237 OA
ATOM     86  O   UNL     1      10.355  -4.788   5.507  1.00  0.00    -0.237 OA
ATOM     87  O   UNL     1       9.895  -3.491   7.541  1.00  0.00    -0.744 OA
ENDBRANCH  81  84
ENDBRANCH  53  77
BRANCH  65  88
ATOM     88  C   UNL     1      -0.344  -3.124   9.321  1.00  0.00     0.023 A 
ATOM     89  C   UNL     1       0.012  -3.781  10.515  1.00  0.00     0.012 A 
ATOM     90  C   UNL     1      -1.583  -3.418   8.715  1.00  0.00     0.148 A 
ATOM     91  C   UNL     1      -0.835  -4.736  11.080  1.00  0.00     0.002 A 
ATOM     92  C   UNL     1      -2.444  -4.334   9.311  1.00  0.00     0.091 A 
ATOM     93  F   UNL     1      -1.898  -2.797   7.569  1.00  0.00    -0.205 F 
ATOM     94  C   UNL     1      -2.066  -5.003  10.485  1.00  0.00     0.022 A 
BRANCH  92  95
ATOM     95  S   UNL     1      -4.089  -4.668   8.670  1.00  0.00     0.127 S 
ATOM     96  O   UNL     1      -3.924  -6.008   8.109  1.00  0.00    -0.237 OA
ATOM     97  O   UNL     1      -4.911  -4.610   9.880  1.00  0.00    -0.237 OA
ATOM     98  O   UNL     1      -4.364  -3.614   7.703  1.00  0.00    -0.744 OA
ENDBRANCH  92  95
ENDBRANCH  65  88
ENDBRANCH  39  40
ENDBRANCH  32  34
ENDBRANCH  31  32
ENDBRANCH  30  31
ENDBRANCH  29  30
ENDBRANCH  28  29
ENDBRANCH  27  28
ENDBRANCH  26  27
ENDBRANCH   1  26
TORSDOF 26
