REMARK SMILES Nc1cc(C(=O)OCCOCCOCCOC(=O)c2ccc(-c3c4nc(c(-c5cccc(S(=O)(=O)[O-])c5F)c5ccc([nH]5)c(-c5cccc(S(=O)(=O)[O-])c5F)c5nc(c(-c6cccc(S(=O)(=O)[O-])c6F)c6ccc3[nH]6)C=C5)C=C4)cc2)ccc1N1CC2(CCOCC2)C1
REMARK SMILES IDX 12 1 11 2 10 3 9 4 8 5 7 6 5 7 6 8 4 9 2 10 3 11 84 12 83 13
REMARK SMILES IDX 82 14 1 15 85 18 86 19 93 20 87 21 88 22 92 23 89 24 91 25
REMARK SMILES IDX 90 26 13 27 14 28 15 29 16 30 17 31 18 32 19 33 20 34 81 35
REMARK SMILES IDX 21 36 80 37 22 38 23 39 24 40 74 41 25 42 79 43 73 44 75 45
REMARK SMILES IDX 26 46 78 47 72 48 71 49 27 51 59 52 39 53 58 54 40 55 43 56
REMARK SMILES IDX 57 57 76 58 41 59 42 60 56 62 77 63 44 64 28 65 29 66 37 67
REMARK SMILES IDX 30 68 32 69 38 70 31 71 33 72 34 73 35 74 36 75 60 76 61 77
REMARK SMILES IDX 69 78 62 79 64 80 70 81 63 82 65 83 66 84 67 85 68 86 45 87
REMARK SMILES IDX 46 88 54 89 47 90 49 91 55 92 48 93 50 94 51 95 52 96 53 97
REMARK H PARENT 1 16 1 17 75 50 43 61
REMARK Flexibility Score: inf
ROOT
ATOM      1  C   UNL     1      -2.169  -2.570  -2.217  1.00  0.00     0.188 C 
ENDROOT
BRANCH   1   2
ATOM      2  C   UNL     1      -1.656  -3.807  -1.450  1.00  0.00     0.188 C 
BRANCH   2   3
ATOM      3  O   UNL     1      -2.543  -4.872  -1.187  1.00  0.00    -0.376 OA
BRANCH   3   4
ATOM      4  C   UNL     1      -3.616  -4.721  -0.276  1.00  0.00     0.202 C 
BRANCH   4   5
ATOM      5  C   UNL     1      -3.662  -3.689   0.862  1.00  0.00     0.261 C 
BRANCH   5   6
ATOM      6  O   UNL     1      -3.043  -2.426   0.604  1.00  0.00    -0.460 OA
BRANCH   6   7
ATOM      7  C   UNL     1      -1.988  -2.139   1.415  1.00  0.00     0.338 C 
ATOM      8  O   UNL     1      -1.572  -2.799   2.339  1.00  0.00    -0.246 OA
BRANCH   7   9
ATOM      9  C   UNL     1      -1.283  -0.943   0.909  1.00  0.00     0.062 A 
ATOM     10  C   UNL     1       0.854   0.052   0.263  1.00  0.00     0.056 A 
ATOM     11  C   UNL     1       0.093  -1.052   0.675  1.00  0.00     0.043 A 
ATOM     12  C   UNL     1       0.206   1.295   0.083  1.00  0.00     0.060 A 
ATOM     13  C   UNL     1      -1.192   1.368   0.286  1.00  0.00     0.029 A 
ATOM     14  C   UNL     1      -1.941   0.258   0.681  1.00  0.00     0.018 A 
BRANCH  10  15
ATOM     15  N   UNL     1       2.201  -0.165   0.007  1.00  0.00    -0.397 N 
ATOM     16  H   UNL     1       2.593  -1.056   0.153  1.00  0.00     0.156 HD
ATOM     17  H   UNL     1       2.764   0.573  -0.321  1.00  0.00     0.156 HD
ENDBRANCH  10  15
BRANCH  12  18
ATOM     18  N   UNL     1       0.858   2.518  -0.193  1.00  0.00    -0.369 N 
ATOM     19  C   UNL     1       1.999   2.892  -0.962  1.00  0.00     0.125 C 
ATOM     20  C   UNL     1       1.035   3.557   0.783  1.00  0.00     0.125 C 
ATOM     21  C   UNL     1       2.448   3.792   0.217  1.00  0.00     0.010 C 
ATOM     22  C   UNL     1       2.741   5.260  -0.104  1.00  0.00     0.039 C 
ATOM     23  C   UNL     1       3.566   3.218   1.101  1.00  0.00     0.039 C 
ATOM     24  C   UNL     1       4.133   5.371  -0.714  1.00  0.00     0.161 C 
ATOM     25  C   UNL     1       4.907   3.439   0.411  1.00  0.00     0.161 C 
ATOM     26  O   UNL     1       5.110   4.836   0.181  1.00  0.00    -0.381 OA
ENDBRANCH  12  18
ENDBRANCH   7   9
ENDBRANCH   6   7
ENDBRANCH   5   6
ENDBRANCH   4   5
ENDBRANCH   3   4
ENDBRANCH   2   3
ENDBRANCH   1   2
BRANCH   1  27
ATOM     27  O   UNL     1      -3.530  -2.458  -2.584  1.00  0.00    -0.376 OA
BRANCH  27  28
ATOM     28  C   UNL     1      -4.127  -3.442  -3.410  1.00  0.00     0.202 C 
BRANCH  28  29
ATOM     29  C   UNL     1      -3.401  -4.144  -4.569  1.00  0.00     0.261 C 
BRANCH  29  30
ATOM     30  O   UNL     1      -2.020  -4.454  -4.369  1.00  0.00    -0.460 OA
BRANCH  30  31
ATOM     31  C   UNL     1      -1.154  -3.727  -5.118  1.00  0.00     0.338 C 
ATOM     32  O   UNL     1      -1.425  -2.844  -5.914  1.00  0.00    -0.246 OA
BRANCH  31  33
ATOM     33  C   UNL     1       0.224  -4.048  -4.709  1.00  0.00     0.060 A 
ATOM     34  C   UNL     1       0.990  -3.051  -4.091  1.00  0.00     0.016 A 
ATOM     35  C   UNL     1       0.770  -5.303  -4.979  1.00  0.00     0.016 A 
ATOM     36  C   UNL     1       2.320  -3.301  -3.757  1.00  0.00     0.010 A 
ATOM     37  C   UNL     1       2.109  -5.544  -4.663  1.00  0.00     0.010 A 
ATOM     38  C   UNL     1       2.897  -4.535  -4.078  1.00  0.00    -0.014 A 
BRANCH  38  39
ATOM     39  C   UNL     1       4.362  -4.721  -3.953  1.00  0.00     0.031 A 
ATOM     40  C   UNL     1       5.214  -4.583  -5.186  1.00  0.00     0.074 A 
ATOM     41  C   UNL     1       4.925  -5.025  -2.770  1.00  0.00     0.049 A 
ATOM     42  N   UNL     1       6.501  -4.757  -5.326  1.00  0.00    -0.248 NA
ATOM     43  C   UNL     1       4.519  -4.201  -6.427  1.00  0.00     0.031 C 
ATOM     44  C   UNL     1       4.206  -5.180  -1.506  1.00  0.00     0.029 A 
ATOM     45  N   UNL     1       6.233  -5.290  -2.449  1.00  0.00    -0.354 N 
ATOM     46  C   UNL     1       6.767  -4.542  -6.673  1.00  0.00     0.074 A 
ATOM     47  C   UNL     1       5.507  -4.227  -7.309  1.00  0.00     0.031 C 
ATOM     48  C   UNL     1       5.079  -5.548  -0.552  1.00  0.00     0.029 A 
ATOM     49  C   UNL     1       6.410  -5.680  -1.143  1.00  0.00     0.049 A 
ATOM     50  H   UNL     1       6.973  -5.207  -3.093  1.00  0.00     0.167 HD
ATOM     51  C   UNL     1       7.955  -4.592  -7.320  1.00  0.00     0.034 A 
ATOM     52  C   UNL     1       7.515  -6.121  -0.508  1.00  0.00     0.034 A 
ATOM     53  C   UNL     1       9.209  -4.889  -6.683  1.00  0.00     0.049 A 
ATOM     54  C   UNL     1       8.820  -6.195  -1.262  1.00  0.00     0.074 A 
ATOM     55  C   UNL     1      10.473  -4.910  -7.244  1.00  0.00     0.029 A 
ATOM     56  N   UNL     1       9.357  -5.233  -5.349  1.00  0.00    -0.354 N 
ATOM     57  N   UNL     1       9.078  -5.865  -2.504  1.00  0.00    -0.248 NA
ATOM     58  C   UNL     1       9.993  -6.674  -0.515  1.00  0.00     0.031 C 
ATOM     59  C   UNL     1      11.382  -5.301  -6.257  1.00  0.00     0.029 A 
ATOM     60  C   UNL     1      10.689  -5.484  -5.071  1.00  0.00     0.049 A 
ATOM     61  H   UNL     1       8.623  -5.291  -4.696  1.00  0.00     0.167 HD
ATOM     62  C   UNL     1      10.446  -6.054  -2.674  1.00  0.00     0.074 A 
ATOM     63  C   UNL     1      10.966  -6.510  -1.402  1.00  0.00     0.031 C 
ATOM     64  C   UNL     1      11.204  -5.878  -3.785  1.00  0.00     0.034 A 
BRANCH  51  65
ATOM     65  C   UNL     1       7.963  -4.305  -8.797  1.00  0.00     0.023 A 
ATOM     66  C   UNL     1       7.779  -2.985  -9.255  1.00  0.00     0.012 A 
ATOM     67  C   UNL     1       8.224  -5.331  -9.727  1.00  0.00     0.148 A 
ATOM     68  C   UNL     1       7.831  -2.693 -10.618  1.00  0.00     0.002 A 
ATOM     69  C   UNL     1       8.319  -5.025 -11.079  1.00  0.00     0.091 A 
ATOM     70  F   UNL     1       8.374  -6.582  -9.271  1.00  0.00    -0.205 F 
ATOM     71  C   UNL     1       8.112  -3.710 -11.527  1.00  0.00     0.022 A 
BRANCH  69  72
ATOM     72  S   UNL     1       8.757  -6.247 -12.321  1.00  0.00     0.127 S 
ATOM     73  O   UNL     1       7.508  -6.364 -13.072  1.00  0.00    -0.237 OA
ATOM     74  O   UNL     1       9.840  -5.577 -13.040  1.00  0.00    -0.237 OA
ATOM     75  O   UNL     1       9.157  -7.440 -11.589  1.00  0.00    -0.744 OA
ENDBRANCH  69  72
ENDBRANCH  51  65
BRANCH  52  76
ATOM     76  C   UNL     1       7.453  -6.508   0.931  1.00  0.00     0.023 A 
ATOM     77  C   UNL     1       8.133  -5.731   1.889  1.00  0.00     0.012 A 
ATOM     78  C   UNL     1       6.740  -7.647   1.352  1.00  0.00     0.148 A 
ATOM     79  C   UNL     1       8.138  -6.104   3.234  1.00  0.00     0.002 A 
ATOM     80  C   UNL     1       6.702  -7.981   2.700  1.00  0.00     0.091 A 
ATOM     81  F   UNL     1       6.115  -8.384   0.423  1.00  0.00    -0.205 F 
ATOM     82  C   UNL     1       7.416  -7.222   3.641  1.00  0.00     0.022 A 
BRANCH  80  83
ATOM     83  S   UNL     1       5.704  -9.335   3.330  1.00  0.00     0.127 S 
ATOM     84  O   UNL     1       6.725 -10.306   3.712  1.00  0.00    -0.237 OA
ATOM     85  O   UNL     1       5.007  -8.700   4.449  1.00  0.00    -0.237 OA
ATOM     86  O   UNL     1       4.837  -9.728   2.228  1.00  0.00    -0.744 OA
ENDBRANCH  80  83
ENDBRANCH  52  76
BRANCH  64  87
ATOM     87  C   UNL     1      12.687  -6.121  -3.674  1.00  0.00     0.023 A 
ATOM     88  C   UNL     1      13.181  -7.434  -3.549  1.00  0.00     0.012 A 
ATOM     89  C   UNL     1      13.596  -5.048  -3.777  1.00  0.00     0.148 A 
ATOM     90  C   UNL     1      14.554  -7.673  -3.492  1.00  0.00     0.002 A 
ATOM     91  C   UNL     1      14.963  -5.299  -3.773  1.00  0.00     0.091 A 
ATOM     92  F   UNL     1      13.108  -3.804  -3.881  1.00  0.00    -0.205 F 
ATOM     93  C   UNL     1      15.444  -6.608  -3.617  1.00  0.00     0.022 A 
BRANCH  91  94
ATOM     94  S   UNL     1      16.181  -4.003  -4.029  1.00  0.00     0.127 S 
ATOM     95  O   UNL     1      16.768  -3.878  -2.696  1.00  0.00    -0.237 OA
ATOM     96  O   UNL     1      17.065  -4.601  -5.030  1.00  0.00    -0.237 OA
ATOM     97  O   UNL     1      15.439  -2.840  -4.496  1.00  0.00    -0.744 OA
ENDBRANCH  91  94
ENDBRANCH  64  87
ENDBRANCH  38  39
ENDBRANCH  31  33
ENDBRANCH  30  31
ENDBRANCH  29  30
ENDBRANCH  28  29
ENDBRANCH  27  28
ENDBRANCH   1  27
TORSDOF 22
