REMARK SMILES Cc1cccc(O[C@H](C)C(=O)NNC(=O)[C@H]2[C@@H]3CC[C@@H](C3)[C@@H]2C(=O)OCCOCCOCCOC(=O)c2ccc(-c3c4nc(c(-c5cccc(S(=O)(=O)[O-])c5F)c5ccc([nH]5)c(-c5cccc(S(=O)(=O)[O-])c5F)c5nc(c(-c6cccc(S(=O)(=O)[O-])c6F)c6ccc3[nH]6)C=C5)C=C4)cc2)c1
REMARK SMILES IDX 29 1 28 2 27 3 26 4 25 5 23 6 24 7 22 8 16 9 17 10 18 11
REMARK SMILES IDX 21 12 20 13 19 14 14 15 13 16 15 18 12 19 10 20 11 21 8 23
REMARK SMILES IDX 9 24 7 25 6 26 1 27 2 28 3 29 100 30 4 31 5 32 30 33 31 34
REMARK SMILES IDX 32 35 33 36 34 37 35 38 36 39 37 40 38 41 99 42 39 43 98 44
REMARK SMILES IDX 40 45 41 46 42 47 92 48 43 49 97 50 91 51 93 52 44 53 96 54
REMARK SMILES IDX 90 55 89 56 45 58 77 59 57 60 76 61 58 62 61 63 75 64 94 65
REMARK SMILES IDX 59 66 60 67 74 69 95 70 62 71 46 72 47 73 55 74 48 75 50 76
REMARK SMILES IDX 56 77 49 78 51 79 52 80 53 81 54 82 78 83 79 84 87 85 80 86
REMARK SMILES IDX 82 87 88 88 81 89 83 90 84 91 85 92 86 93 63 94 64 95 72 96
REMARK SMILES IDX 65 97 67 98 73 99 66 100 68 101 69 102 70 103 71 104
REMARK H PARENT 13 17 12 22 93 57 61 68
REMARK Flexibility Score: inf
ROOT
ATOM      1  C   UNL     1       7.001   4.947   0.276  1.00  0.00     0.188 C 
ENDROOT
BRANCH   1   2
ATOM      2  O   UNL     1       6.557   5.836  -0.774  1.00  0.00    -0.376 OA
BRANCH   2   3
ATOM      3  C   UNL     1       5.230   6.410  -0.881  1.00  0.00     0.202 C 
BRANCH   3   4
ATOM      4  C   UNL     1       4.005   6.120  -2.046  1.00  0.00     0.261 C 
BRANCH   4   5
ATOM      5  O   UNL     1       2.882   4.729  -2.402  1.00  0.00    -0.463 OA
BRANCH   5   6
ATOM      6  C   UNL     1       2.875   3.353  -2.949  1.00  0.00     0.310 C 
ATOM      7  O   UNL     1       3.841   2.612  -3.145  1.00  0.00    -0.252 OA
BRANCH   6   8
ATOM      8  C   UNL     1       1.629   2.676  -3.446  1.00  0.00     0.115 C 
ATOM      9  C   UNL     1       1.538   1.246  -2.780  1.00  0.00     0.098 C 
ATOM     10  C   UNL     1       1.374   0.276  -3.997  1.00  0.00     0.003 C 
ATOM     11  C   UNL     1       2.722   0.079  -4.705  1.00  0.00     0.005 C 
ATOM     12  C   UNL     1       0.609   1.146  -4.988  1.00  0.00     0.009 C 
ATOM     13  C   UNL     1       1.670   2.252  -4.978  1.00  0.00     0.004 C 
ATOM     14  C   UNL     1       2.891   1.407  -5.447  1.00  0.00     0.005 C 
BRANCH   9  15
ATOM     15  C   UNL     1       0.493   0.847  -1.755  1.00  0.00     0.242 C 
ATOM     16  N   UNL     1      -0.371   1.706  -1.167  1.00  0.00    -0.267 N 
ATOM     17  H   UNL     1      -0.907   1.340  -0.426  1.00  0.00     0.191 HD
ATOM     18  O   UNL     1       0.359  -0.333  -1.402  1.00  0.00    -0.273 OA
BRANCH  16  19
ATOM     19  N   UNL     1      -0.591   3.008  -1.473  1.00  0.00    -0.264 N 
ATOM     20  C   UNL     1      -0.949   3.981  -0.594  1.00  0.00     0.279 C 
ATOM     21  O   UNL     1      -0.849   5.158  -0.958  1.00  0.00    -0.269 OA
ATOM     22  H   UNL     1      -0.481   3.272  -2.415  1.00  0.00     0.191 HD
BRANCH  20  23
ATOM     23  C   UNL     1      -1.677   3.616   0.720  1.00  0.00     0.260 C 
ATOM     24  C   UNL     1      -2.974   2.855   0.425  1.00  0.00     0.064 C 
BRANCH  23  25
ATOM     25  O   UNL     1      -1.022   3.349   1.941  1.00  0.00    -0.481 OA
BRANCH  25  26
ATOM     26  C   UNL     1      -0.452   2.192   2.356  1.00  0.00     0.120 A 
ATOM     27  C   UNL     1       2.037   1.468   5.172  1.00  0.00     0.044 C 
ATOM     28  C   UNL     1       1.127   1.284   3.996  1.00  0.00    -0.047 A 
ATOM     29  C   UNL     1       0.907   0.002   3.493  1.00  0.00     0.003 A 
ATOM     30  C   UNL     1       0.461   2.368   3.405  1.00  0.00     0.049 A 
ATOM     31  C   UNL     1      -0.017  -0.190   2.474  1.00  0.00     0.004 A 
ATOM     32  C   UNL     1      -0.724   0.896   1.944  1.00  0.00     0.046 A 
ENDBRANCH  25  26
ENDBRANCH  23  25
ENDBRANCH  20  23
ENDBRANCH  16  19
ENDBRANCH   9  15
ENDBRANCH   6   8
ENDBRANCH   5   6
ENDBRANCH   4   5
ENDBRANCH   3   4
ENDBRANCH   2   3
ENDBRANCH   1   2
BRANCH   1  33
ATOM     33  C   UNL     1       6.701   5.158   1.758  1.00  0.00     0.188 C 
BRANCH  33  34
ATOM     34  O   UNL     1       5.518   5.897   1.913  1.00  0.00    -0.376 OA
BRANCH  34  35
ATOM     35  C   UNL     1       5.230   6.357   3.212  1.00  0.00     0.202 C 
BRANCH  35  36
ATOM     36  C   UNL     1       4.658   5.273   4.135  1.00  0.00     0.261 C 
BRANCH  36  37
ATOM     37  O   UNL     1       3.695   4.452   3.446  1.00  0.00    -0.460 OA
BRANCH  37  38
ATOM     38  C   UNL     1       4.109   3.181   3.119  1.00  0.00     0.338 C 
ATOM     39  O   UNL     1       4.787   2.473   3.854  1.00  0.00    -0.246 OA
BRANCH  38  40
ATOM     40  C   UNL     1       3.912   2.951   1.657  1.00  0.00     0.060 A 
ATOM     41  C   UNL     1       4.673   2.060   0.886  1.00  0.00     0.016 A 
ATOM     42  C   UNL     1       3.258   3.925   0.985  1.00  0.00     0.016 A 
ATOM     43  C   UNL     1       5.035   2.339  -0.488  1.00  0.00     0.010 A 
ATOM     44  C   UNL     1       3.742   4.226  -0.279  1.00  0.00     0.010 A 
ATOM     45  C   UNL     1       4.737   3.557  -1.110  1.00  0.00    -0.014 A 
BRANCH  45  46
ATOM     46  C   UNL     1       5.492   4.088  -2.646  1.00  0.00     0.031 A 
ATOM     47  C   UNL     1       4.801   4.659  -4.204  1.00  0.00     0.074 A 
ATOM     48  C   UNL     1       6.806   3.816  -2.819  1.00  0.00     0.049 A 
ATOM     49  N   UNL     1       5.271   4.358  -5.403  1.00  0.00    -0.248 NA
ATOM     50  C   UNL     1       3.508   5.454  -4.495  1.00  0.00     0.031 C 
ATOM     51  C   UNL     1       7.674   4.269  -3.900  1.00  0.00     0.029 A 
ATOM     52  N   UNL     1       7.617   2.939  -2.091  1.00  0.00    -0.354 N 
ATOM     53  C   UNL     1       4.478   5.036  -6.359  1.00  0.00     0.074 A 
ATOM     54  C   UNL     1       3.246   5.289  -5.766  1.00  0.00     0.031 C 
ATOM     55  C   UNL     1       8.737   3.453  -3.956  1.00  0.00     0.029 A 
ATOM     56  C   UNL     1       8.491   2.368  -3.025  1.00  0.00     0.049 A 
ATOM     57  H   UNL     1       7.581   2.761  -1.124  1.00  0.00     0.167 HD
ATOM     58  C   UNL     1       4.976   5.673  -7.455  1.00  0.00     0.034 A 
ATOM     59  C   UNL     1       8.450   1.031  -3.287  1.00  0.00     0.034 A 
ATOM     60  C   UNL     1       6.283   5.121  -7.725  1.00  0.00     0.049 A 
ATOM     61  C   UNL     1       8.266   0.727  -4.765  1.00  0.00     0.074 A 
ATOM     62  C   UNL     1       7.598   5.492  -7.535  1.00  0.00     0.029 A 
ATOM     63  N   UNL     1       6.295   3.763  -7.945  1.00  0.00    -0.354 N 
ATOM     64  N   UNL     1       8.350   1.610  -5.730  1.00  0.00    -0.248 NA
ATOM     65  C   UNL     1       7.902  -0.594  -5.269  1.00  0.00     0.031 C 
ATOM     66  C   UNL     1       8.393   4.297  -7.600  1.00  0.00     0.029 A 
ATOM     67  C   UNL     1       7.559   3.228  -7.874  1.00  0.00     0.049 A 
ATOM     68  H   UNL     1       5.487   3.232  -8.132  1.00  0.00     0.167 HD
ATOM     69  C   UNL     1       7.884   1.060  -6.900  1.00  0.00     0.074 A 
ATOM     70  C   UNL     1       7.663  -0.338  -6.565  1.00  0.00     0.031 C 
ATOM     71  C   UNL     1       7.620   1.784  -8.036  1.00  0.00     0.034 A 
BRANCH  58  72
ATOM     72  C   UNL     1       4.370   6.970  -8.066  1.00  0.00     0.023 A 
ATOM     73  C   UNL     1       5.253   7.772  -8.815  1.00  0.00     0.012 A 
ATOM     74  C   UNL     1       3.069   7.544  -7.890  1.00  0.00     0.148 A 
ATOM     75  C   UNL     1       4.926   9.070  -9.251  1.00  0.00     0.002 A 
ATOM     76  C   UNL     1       2.771   8.871  -8.241  1.00  0.00     0.091 A 
ATOM     77  F   UNL     1       2.030   6.801  -7.505  1.00  0.00    -0.205 F 
ATOM     78  C   UNL     1       3.705   9.641  -8.923  1.00  0.00     0.022 A 
BRANCH  76  79
ATOM     79  S   UNL     1       1.231   9.684  -7.734  1.00  0.00     0.127 S 
ATOM     80  O   UNL     1       1.694  11.014  -7.328  1.00  0.00    -0.237 OA
ATOM     81  O   UNL     1       0.439   9.669  -8.960  1.00  0.00    -0.237 OA
ATOM     82  O   UNL     1       0.711   8.885  -6.629  1.00  0.00    -0.744 OA
ENDBRANCH  76  79
ENDBRANCH  58  72
BRANCH  59  83
ATOM     83  C   UNL     1       8.050   0.196  -2.091  1.00  0.00     0.023 A 
ATOM     84  C   UNL     1       8.796   0.410  -0.895  1.00  0.00     0.012 A 
ATOM     85  C   UNL     1       6.867  -0.560  -1.988  1.00  0.00     0.148 A 
ATOM     86  C   UNL     1       8.327   0.004   0.358  1.00  0.00     0.002 A 
ATOM     87  C   UNL     1       6.430  -1.011  -0.734  1.00  0.00     0.091 A 
ATOM     88  F   UNL     1       6.120  -0.747  -3.083  1.00  0.00    -0.205 F 
ATOM     89  C   UNL     1       7.138  -0.700   0.439  1.00  0.00     0.022 A 
BRANCH  87  90
ATOM     90  S   UNL     1       4.918  -1.965  -0.507  1.00  0.00     0.127 S 
ATOM     91  O   UNL     1       5.359  -2.999   0.433  1.00  0.00    -0.237 OA
ATOM     92  O   UNL     1       4.014  -0.975   0.069  1.00  0.00    -0.237 OA
ATOM     93  O   UNL     1       4.580  -2.466  -1.831  1.00  0.00    -0.744 OA
ENDBRANCH  87  90
ENDBRANCH  59  83
BRANCH  71  94
ATOM     94  C   UNL     1       7.182   1.165  -9.363  1.00  0.00     0.023 A 
ATOM     95  C   UNL     1       7.597  -0.130  -9.716  1.00  0.00     0.012 A 
ATOM     96  C   UNL     1       6.431   1.866 -10.351  1.00  0.00     0.148 A 
ATOM     97  C   UNL     1       7.167  -0.751 -10.895  1.00  0.00     0.002 A 
ATOM     98  C   UNL     1       6.001   1.250 -11.521  1.00  0.00     0.091 A 
ATOM     99  F   UNL     1       6.176   3.171 -10.217  1.00  0.00    -0.205 F 
ATOM    100  C   UNL     1       6.345  -0.072 -11.784  1.00  0.00     0.022 A 
BRANCH  98 101
ATOM    101  S   UNL     1       4.998   2.129 -12.731  1.00  0.00     0.127 S 
ATOM    102  O   UNL     1       5.997   2.493 -13.735  1.00  0.00    -0.237 OA
ATOM    103  O   UNL     1       4.053   1.095 -13.157  1.00  0.00    -0.237 OA
ATOM    104  O   UNL     1       4.386   3.236 -12.011  1.00  0.00    -0.744 OA
ENDBRANCH  98 101
ENDBRANCH  71  94
ENDBRANCH  45  46
ENDBRANCH  38  40
ENDBRANCH  37  38
ENDBRANCH  36  37
ENDBRANCH  35  36
ENDBRANCH  34  35
ENDBRANCH  33  34
ENDBRANCH   1  33
TORSDOF 25
