REMARK SMILES CC(C)(C)N(CC(=O)OCCOCCOCCOC(=O)c1ccc(-c2c3nc(c(-c4cccc(S(=O)(=O)[O-])c4F)c4ccc([nH]4)c(-c4cccc(S(=O)(=O)[O-])c4F)c4nc(c(-c5cccc(S(=O)(=O)[O-])c5F)c5ccc2[nH]5)C=C4)C=C3)cc1)C(=O)c1ccc(N)c(Cl)c1
REMARK SMILES IDX 13 1 12 2 11 3 10 4 9 5 7 6 8 7 6 8 5 9 2 10 1 11 3 12 4 13
REMARK SMILES IDX 84 14 85 15 86 16 87 17 93 18 88 19 91 20 89 21 92 22 90 23
REMARK SMILES IDX 14 26 15 27 16 28 17 29 18 30 19 31 20 32 21 33 22 34 83 35
REMARK SMILES IDX 23 36 82 37 24 38 25 39 26 40 76 41 27 42 81 43 75 44 77 45
REMARK SMILES IDX 28 46 80 47 74 48 73 49 29 51 61 52 41 53 60 54 42 55 45 56
REMARK SMILES IDX 59 57 78 58 43 59 44 60 58 62 79 63 46 64 30 65 31 66 39 67
REMARK SMILES IDX 32 68 34 69 40 70 33 71 35 72 36 73 37 74 38 75 62 76 63 77
REMARK SMILES IDX 71 78 64 79 66 80 72 81 65 82 67 83 68 84 69 85 70 86 47 87
REMARK SMILES IDX 48 88 56 89 49 90 51 91 57 92 50 93 52 94 53 95 54 96 55 97
REMARK H PARENT 90 24 90 25 77 50 45 61
REMARK Flexibility Score: inf
ROOT
ATOM      1  C   UNL     1       4.953   3.626   2.992  1.00  0.00     0.188 C 
ENDROOT
BRANCH   1   2
ATOM      2  O   UNL     1       6.264   3.398   2.511  1.00  0.00    -0.376 OA
BRANCH   2   3
ATOM      3  C   UNL     1       6.333   2.567   1.358  1.00  0.00     0.202 C 
BRANCH   3   4
ATOM      4  C   UNL     1       5.628   1.185   1.433  1.00  0.00     0.261 C 
BRANCH   4   5
ATOM      5  O   UNL     1       4.163   1.244   1.361  1.00  0.00    -0.462 OA
BRANCH   5   6
ATOM      6  C   UNL     1       3.451   0.370   2.121  1.00  0.00     0.325 C 
ATOM      7  O   UNL     1       3.986  -0.537   2.756  1.00  0.00    -0.250 OA
BRANCH   6   8
ATOM      8  C   UNL     1       1.893   0.592   2.199  1.00  0.00     0.243 C 
BRANCH   8   9
ATOM      9  N   UNL     1       1.067   1.643   1.518  1.00  0.00    -0.323 N 
BRANCH   9  10
ATOM     10  C   UNL     1       0.577   1.344   0.112  1.00  0.00     0.035 C 
ATOM     11  C   UNL     1       1.112   0.013  -0.478  1.00  0.00     0.034 C 
ATOM     12  C   UNL     1       1.037   2.459  -0.849  1.00  0.00     0.034 C 
ATOM     13  C   UNL     1      -0.971   1.202   0.073  1.00  0.00     0.034 C 
ENDBRANCH   9  10
BRANCH   9  14
ATOM     14  C   UNL     1       0.484   2.800   2.140  1.00  0.00     0.254 C 
ATOM     15  O   UNL     1      -0.358   3.497   1.571  1.00  0.00    -0.269 OA
BRANCH  14  16
ATOM     16  C   UNL     1       0.776   3.295   3.510  1.00  0.00     0.041 A 
ATOM     17  C   UNL     1      -0.450   4.316   4.315  1.00  0.00     0.016 A 
ATOM     18  C   UNL     1       2.263   2.815   4.321  1.00  0.00     0.036 A 
ATOM     19  C   UNL     1      -0.150   4.839   6.032  1.00  0.00     0.028 A 
ATOM     20  C   UNL     1       2.697   3.233   5.938  1.00  0.00     0.064 A 
ATOM     21  C   UNL     1       1.573   4.226   6.919  1.00  0.00     0.050 A 
ATOM     22  Cl  UNL     1       4.134   2.580   6.621  1.00  0.00    -0.082 Cl
BRANCH  21  23
ATOM     23  N   UNL     1       2.310   4.559   8.129  1.00  0.00    -0.398 N 
ATOM     24  H   UNL     1       1.886   5.108   8.828  1.00  0.00     0.156 HD
ATOM     25  H   UNL     1       3.232   4.236   8.248  1.00  0.00     0.156 HD
ENDBRANCH  21  23
ENDBRANCH  14  16
ENDBRANCH   9  14
ENDBRANCH   8   9
ENDBRANCH   6   8
ENDBRANCH   5   6
ENDBRANCH   4   5
ENDBRANCH   3   4
ENDBRANCH   2   3
ENDBRANCH   1   2
BRANCH   1  26
ATOM     26  C   UNL     1       3.911   4.042   1.931  1.00  0.00     0.188 C 
BRANCH  26  27
ATOM     27  O   UNL     1       4.216   5.126   1.093  1.00  0.00    -0.376 OA
BRANCH  27  28
ATOM     28  C   UNL     1       4.443   6.385   1.679  1.00  0.00     0.202 C 
BRANCH  28  29
ATOM     29  C   UNL     1       3.776   6.865   2.987  1.00  0.00     0.261 C 
BRANCH  29  30
ATOM     30  O   UNL     1       3.297   5.896   3.937  1.00  0.00    -0.460 OA
BRANCH  30  31
ATOM     31  C   UNL     1       1.967   5.622   3.848  1.00  0.00     0.338 C 
ATOM     32  O   UNL     1       1.230   6.071   2.985  1.00  0.00    -0.246 OA
BRANCH  31  33
ATOM     33  C   UNL     1       1.495   4.879   5.115  1.00  0.00     0.060 A 
ATOM     34  C   UNL     1       0.593   3.153   5.692  1.00  0.00     0.016 A 
ATOM     35  C   UNL     1       1.368   6.280   6.263  1.00  0.00     0.016 A 
ATOM     36  C   UNL     1      -0.277   3.087   7.226  1.00  0.00     0.010 A 
ATOM     37  C   UNL     1       0.472   6.066   7.773  1.00  0.00     0.010 A 
ATOM     38  C   UNL     1      -0.287   4.513   8.234  1.00  0.00    -0.014 A 
BRANCH  38  39
ATOM     39  C   UNL     1      -0.891   4.249   9.552  1.00  0.00     0.031 A 
ATOM     40  C   UNL     1      -2.065   5.052   9.974  1.00  0.00     0.074 A 
ATOM     41  C   UNL     1      -0.476   3.144  10.214  1.00  0.00     0.049 A 
ATOM     42  N   UNL     1      -2.874   4.837  10.971  1.00  0.00    -0.248 NA
ATOM     43  C   UNL     1      -2.390   6.242   9.174  1.00  0.00     0.031 C 
ATOM     44  C   UNL     1       0.661   2.293   9.830  1.00  0.00     0.029 A 
ATOM     45  N   UNL     1      -1.000   2.480  11.292  1.00  0.00    -0.354 N 
ATOM     46  C   UNL     1      -3.776   5.887  10.946  1.00  0.00     0.074 A 
ATOM     47  C   UNL     1      -3.425   6.736   9.833  1.00  0.00     0.031 C 
ATOM     48  C   UNL     1       0.671   1.176  10.562  1.00  0.00     0.029 A 
ATOM     49  C   UNL     1      -0.383   1.272  11.551  1.00  0.00     0.049 A 
ATOM     50  H   UNL     1      -1.745   2.831  11.830  1.00  0.00     0.167 HD
ATOM     51  C   UNL     1      -4.800   6.116  11.794  1.00  0.00     0.034 A 
ATOM     52  C   UNL     1      -0.632   0.343  12.492  1.00  0.00     0.034 A 
ATOM     53  C   UNL     1      -5.098   5.250  12.898  1.00  0.00     0.049 A 
ATOM     54  C   UNL     1      -1.768   0.637  13.422  1.00  0.00     0.074 A 
ATOM     55  C   UNL     1      -6.054   5.402  13.881  1.00  0.00     0.029 A 
ATOM     56  N   UNL     1      -4.417   4.069  13.170  1.00  0.00    -0.354 N 
ATOM     57  N   UNL     1      -2.617   1.636  13.381  1.00  0.00    -0.248 NA
ATOM     58  C   UNL     1      -1.983  -0.304  14.524  1.00  0.00     0.031 C 
ATOM     59  C   UNL     1      -5.922   4.332  14.772  1.00  0.00     0.029 A 
ATOM     60  C   UNL     1      -4.922   3.484  14.314  1.00  0.00     0.049 A 
ATOM     61  H   UNL     1      -3.682   3.702  12.627  1.00  0.00     0.167 HD
ATOM     62  C   UNL     1      -3.474   1.448  14.451  1.00  0.00     0.074 A 
ATOM     63  C   UNL     1      -3.065   0.210  15.093  1.00  0.00     0.031 C 
ATOM     64  C   UNL     1      -4.489   2.233  14.886  1.00  0.00     0.034 A 
BRANCH  51  65
ATOM     65  C   UNL     1      -5.573   7.387  11.588  1.00  0.00     0.023 A 
ATOM     66  C   UNL     1      -6.431   7.534  10.478  1.00  0.00     0.012 A 
ATOM     67  C   UNL     1      -5.385   8.469  12.467  1.00  0.00     0.148 A 
ATOM     68  C   UNL     1      -7.052   8.757  10.222  1.00  0.00     0.002 A 
ATOM     69  C   UNL     1      -6.044   9.668  12.233  1.00  0.00     0.091 A 
ATOM     70  F   UNL     1      -4.534   8.318  13.491  1.00  0.00    -0.205 F 
ATOM     71  C   UNL     1      -6.863   9.821  11.102  1.00  0.00     0.022 A 
BRANCH  69  72
ATOM     72  S   UNL     1      -5.908  11.075  13.337  1.00  0.00     0.127 S 
ATOM     73  O   UNL     1      -5.251  12.062  12.480  1.00  0.00    -0.237 OA
ATOM     74  O   UNL     1      -7.311  11.362  13.634  1.00  0.00    -0.237 OA
ATOM     75  O   UNL     1      -5.121  10.623  14.476  1.00  0.00    -0.744 OA
ENDBRANCH  69  72
ENDBRANCH  51  65
BRANCH  52  76
ATOM     76  C   UNL     1       0.204  -0.892  12.608  1.00  0.00     0.023 A 
ATOM     77  C   UNL     1      -0.375  -2.166  12.451  1.00  0.00     0.012 A 
ATOM     78  C   UNL     1       1.589  -0.807  12.863  1.00  0.00     0.148 A 
ATOM     79  C   UNL     1       0.399  -3.325  12.577  1.00  0.00     0.002 A 
ATOM     80  C   UNL     1       2.366  -1.959  12.920  1.00  0.00     0.091 A 
ATOM     81  F   UNL     1       2.130   0.407  13.035  1.00  0.00    -0.205 F 
ATOM     82  C   UNL     1       1.770  -3.221  12.799  1.00  0.00     0.022 A 
BRANCH  80  83
ATOM     83  S   UNL     1       4.156  -1.899  13.062  1.00  0.00     0.127 S 
ATOM     84  O   UNL     1       4.361  -2.343  14.439  1.00  0.00    -0.237 OA
ATOM     85  O   UNL     1       4.575  -2.856  12.037  1.00  0.00    -0.237 OA
ATOM     86  O   UNL     1       4.524  -0.519  12.777  1.00  0.00    -0.744 OA
ENDBRANCH  80  83
ENDBRANCH  52  76
BRANCH  64  87
ATOM     87  C   UNL     1      -5.238   1.747  16.089  1.00  0.00     0.023 A 
ATOM     88  C   UNL     1      -4.643   1.805  17.363  1.00  0.00     0.012 A 
ATOM     89  C   UNL     1      -6.566   1.305  15.951  1.00  0.00     0.148 A 
ATOM     90  C   UNL     1      -5.355   1.396  18.487  1.00  0.00     0.002 A 
ATOM     91  C   UNL     1      -7.288   0.960  17.081  1.00  0.00     0.091 A 
ATOM     92  F   UNL     1      -7.094   1.237  14.720  1.00  0.00    -0.205 F 
ATOM     93  C   UNL     1      -6.681   0.989  18.348  1.00  0.00     0.022 A 
BRANCH  91  94
ATOM     94  S   UNL     1      -9.030   0.542  17.003  1.00  0.00     0.127 S 
ATOM     95  O   UNL     1      -9.001  -0.898  17.253  1.00  0.00    -0.237 OA
ATOM     96  O   UNL     1      -9.588   1.343  18.093  1.00  0.00    -0.237 OA
ATOM     97  O   UNL     1      -9.479   0.936  15.674  1.00  0.00    -0.744 OA
ENDBRANCH  91  94
ENDBRANCH  64  87
ENDBRANCH  38  39
ENDBRANCH  31  33
ENDBRANCH  30  31
ENDBRANCH  29  30
ENDBRANCH  28  29
ENDBRANCH  27  28
ENDBRANCH  26  27
ENDBRANCH   1  26
TORSDOF 25
