REMARK SMILES CC(C)C[C@@H](NC(=O)c1cccnc1)C(=O)OCCOCCOCCOC(=O)c1ccc(-c2c3nc(c(-c4cccc(S(=O)(=O)[O-])c4F)c4ccc([nH]4)c(-c4cccc(S(=O)(=O)[O-])c4F)c4nc(c(-c5cccc(S(=O)(=O)[O-])c5F)c5ccc2[nH]5)C=C4)C=C3)cc1
REMARK SMILES IDX 22 1 21 2 20 3 19 4 18 5 17 6 15 7 16 8 5 9 4 10 2 11 1 12
REMARK SMILES IDX 3 13 6 14 7 15 8 17 9 18 10 19 14 20 11 21 13 22 12 23 23 24
REMARK SMILES IDX 24 25 25 26 26 27 27 28 28 29 29 30 30 31 91 32 31 33 90 34
REMARK SMILES IDX 32 35 33 36 34 37 84 38 35 39 89 40 83 41 85 42 36 43 88 44
REMARK SMILES IDX 82 45 81 46 37 48 69 49 49 50 68 51 50 52 53 53 67 54 86 55
REMARK SMILES IDX 51 56 52 57 66 59 87 60 54 61 38 62 39 63 47 64 40 65 42 66
REMARK SMILES IDX 48 67 41 68 43 69 44 70 45 71 46 72 70 73 71 74 79 75 72 76
REMARK SMILES IDX 74 77 80 78 73 79 75 80 76 81 77 82 78 83 55 84 56 85 64 86
REMARK SMILES IDX 57 87 59 88 65 89 58 90 60 91 61 92 62 93 63 94
REMARK H PARENT 6 16 85 47 53 58
REMARK Flexibility Score: inf
ROOT
ATOM      1  C   UNL     1      -3.633  -1.344  -0.772  1.00  0.00     0.188 C 
ENDROOT
BRANCH   1   2
ATOM      2  C   UNL     1      -4.840  -0.976   0.090  1.00  0.00     0.188 C 
BRANCH   2   3
ATOM      3  O   UNL     1      -5.958  -0.558  -0.671  1.00  0.00    -0.376 OA
BRANCH   3   4
ATOM      4  C   UNL     1      -6.079   0.847  -0.800  1.00  0.00     0.202 C 
BRANCH   4   5
ATOM      5  C   UNL     1      -5.157   1.526  -1.821  1.00  0.00     0.261 C 
BRANCH   5   6
ATOM      6  O   UNL     1      -3.719   1.472  -1.725  1.00  0.00    -0.462 OA
BRANCH   6   7
ATOM      7  C   UNL     1      -3.091   1.810  -0.574  1.00  0.00     0.328 C 
ATOM      8  O   UNL     1      -3.650   1.952   0.506  1.00  0.00    -0.250 OA
BRANCH   7   9
ATOM      9  C   UNL     1      -1.589   2.106  -0.788  1.00  0.00     0.192 C 
BRANCH   9  10
ATOM     10  C   UNL     1      -0.916   1.083  -1.749  1.00  0.00     0.040 C 
BRANCH  10  11
ATOM     11  C   UNL     1       0.594   0.794  -1.554  1.00  0.00    -0.015 C 
ATOM     12  C   UNL     1       0.955   0.303  -0.149  1.00  0.00     0.007 C 
ATOM     13  C   UNL     1       1.038  -0.281  -2.562  1.00  0.00     0.007 C 
ENDBRANCH  10  11
ENDBRANCH   9  10
BRANCH   9  14
ATOM     14  N   UNL     1      -1.254   3.482  -1.214  1.00  0.00    -0.339 N 
ATOM     15  C   UNL     1      -1.943   4.667  -1.258  1.00  0.00     0.253 C 
ATOM     16  H   UNL     1      -0.329   3.566  -1.540  1.00  0.00     0.164 HD
ATOM     17  O   UNL     1      -1.361   5.683  -1.632  1.00  0.00    -0.269 OA
BRANCH  15  18
ATOM     18  C   UNL     1      -3.378   4.769  -0.975  1.00  0.00     0.058 A 
ATOM     19  C   UNL     1      -3.902   4.710   0.313  1.00  0.00     0.017 A 
ATOM     20  C   UNL     1      -4.250   5.004  -2.030  1.00  0.00     0.124 A 
ATOM     21  C   UNL     1      -5.287   4.778   0.485  1.00  0.00     0.021 A 
ATOM     22  N   UNL     1      -5.599   5.095  -1.890  1.00  0.00    -0.264 NA
ATOM     23  C   UNL     1      -6.085   4.965  -0.633  1.00  0.00     0.111 A 
ENDBRANCH  15  18
ENDBRANCH   9  14
ENDBRANCH   7   9
ENDBRANCH   6   7
ENDBRANCH   5   6
ENDBRANCH   4   5
ENDBRANCH   3   4
ENDBRANCH   2   3
ENDBRANCH   1   2
BRANCH   1  24
ATOM     24  O   UNL     1      -3.759  -1.567  -2.167  1.00  0.00    -0.376 OA
BRANCH  24  25
ATOM     25  C   UNL     1      -4.905  -2.248  -2.654  1.00  0.00     0.202 C 
BRANCH  25  26
ATOM     26  C   UNL     1      -5.363  -3.583  -2.029  1.00  0.00     0.261 C 
BRANCH  26  27
ATOM     27  O   UNL     1      -4.988  -3.826  -0.665  1.00  0.00    -0.460 OA
BRANCH  27  28
ATOM     28  C   UNL     1      -3.819  -4.489  -0.480  1.00  0.00     0.338 C 
ATOM     29  O   UNL     1      -3.109  -4.970  -1.349  1.00  0.00    -0.246 OA
BRANCH  28  30
ATOM     30  C   UNL     1      -3.389  -4.316   0.933  1.00  0.00     0.060 A 
ATOM     31  C   UNL     1      -2.108  -3.786   1.168  1.00  0.00     0.016 A 
ATOM     32  C   UNL     1      -4.231  -4.608   2.008  1.00  0.00     0.016 A 
ATOM     33  C   UNL     1      -1.659  -3.565   2.468  1.00  0.00     0.010 A 
ATOM     34  C   UNL     1      -3.759  -4.437   3.316  1.00  0.00     0.010 A 
ATOM     35  C   UNL     1      -2.458  -3.951   3.549  1.00  0.00    -0.014 A 
BRANCH  35  36
ATOM     36  C   UNL     1      -1.816  -4.123   4.875  1.00  0.00     0.031 A 
ATOM     37  C   UNL     1      -1.286  -5.492   5.212  1.00  0.00     0.074 A 
ATOM     38  C   UNL     1      -1.662  -3.105   5.741  1.00  0.00     0.049 A 
ATOM     39  N   UNL     1      -0.703  -5.914   6.302  1.00  0.00    -0.248 NA
ATOM     40  C   UNL     1      -1.434  -6.526   4.171  1.00  0.00     0.031 C 
ATOM     41  C   UNL     1      -2.101  -1.729   5.524  1.00  0.00     0.029 A 
ATOM     42  N   UNL     1      -1.103  -3.088   6.996  1.00  0.00    -0.354 N 
ATOM     43  C   UNL     1      -0.434  -7.261   6.087  1.00  0.00     0.074 A 
ATOM     44  C   UNL     1      -0.934  -7.593   4.772  1.00  0.00     0.031 C 
ATOM     45  C   UNL     1      -1.831  -1.008   6.629  1.00  0.00     0.029 A 
ATOM     46  C   UNL     1      -1.218  -1.876   7.634  1.00  0.00     0.049 A 
ATOM     47  H   UNL     1      -0.663  -3.870   7.400  1.00  0.00     0.167 HD
ATOM     48  C   UNL     1       0.191  -8.143   6.900  1.00  0.00     0.034 A 
ATOM     49  C   UNL     1      -0.890  -1.521   8.894  1.00  0.00     0.034 A 
ATOM     50  C   UNL     1       0.694  -7.817   8.204  1.00  0.00     0.049 A 
ATOM     51  C   UNL     1      -0.238  -2.537   9.801  1.00  0.00     0.074 A 
ATOM     52  C   UNL     1       1.350  -8.639   9.103  1.00  0.00     0.029 A 
ATOM     53  N   UNL     1       0.588  -6.572   8.802  1.00  0.00    -0.354 N 
ATOM     54  N   UNL     1       0.095  -3.781   9.550  1.00  0.00    -0.248 NA
ATOM     55  C   UNL     1       0.118  -2.088  11.156  1.00  0.00     0.031 C 
ATOM     56  C   UNL     1       1.621  -7.895  10.255  1.00  0.00     0.029 A 
ATOM     57  C   UNL     1       1.164  -6.601  10.060  1.00  0.00     0.049 A 
ATOM     58  H   UNL     1       0.165  -5.783   8.393  1.00  0.00     0.167 HD
ATOM     59  C   UNL     1       0.732  -4.247  10.697  1.00  0.00     0.074 A 
ATOM     60  C   UNL     1       0.760  -3.144  11.635  1.00  0.00     0.031 C 
ATOM     61  C   UNL     1       1.237  -5.479  10.958  1.00  0.00     0.034 A 
BRANCH  48  62
ATOM     62  C   UNL     1       0.384  -9.544   6.383  1.00  0.00     0.023 A 
ATOM     63  C   UNL     1       1.327  -9.785   5.362  1.00  0.00     0.012 A 
ATOM     64  C   UNL     1      -0.335 -10.623   6.931  1.00  0.00     0.148 A 
ATOM     65  C   UNL     1       1.529 -11.075   4.873  1.00  0.00     0.002 A 
ATOM     66  C   UNL     1      -0.095 -11.911   6.471  1.00  0.00     0.091 A 
ATOM     67  F   UNL     1      -1.246 -10.367   7.881  1.00  0.00    -0.205 F 
ATOM     68  C   UNL     1       0.827 -12.138   5.435  1.00  0.00     0.022 A 
BRANCH  66  69
ATOM     69  S   UNL     1      -0.890 -13.357   7.180  1.00  0.00     0.127 S 
ATOM     70  O   UNL     1      -1.754 -13.787   6.082  1.00  0.00    -0.237 OA
ATOM     71  O   UNL     1       0.251 -14.236   7.439  1.00  0.00    -0.237 OA
ATOM     72  O   UNL     1      -1.583 -12.891   8.373  1.00  0.00    -0.744 OA
ENDBRANCH  66  69
ENDBRANCH  48  62
BRANCH  49  73
ATOM     73  C   UNL     1      -1.157  -0.137   9.382  1.00  0.00     0.023 A 
ATOM     74  C   UNL     1      -0.081   0.718   9.691  1.00  0.00     0.012 A 
ATOM     75  C   UNL     1      -2.474   0.329   9.563  1.00  0.00     0.148 A 
ATOM     76  C   UNL     1      -0.310   1.994  10.211  1.00  0.00     0.002 A 
ATOM     77  C   UNL     1      -2.696   1.621  10.026  1.00  0.00     0.091 A 
ATOM     78  F   UNL     1      -3.486  -0.505   9.286  1.00  0.00    -0.205 F 
ATOM     79  C   UNL     1      -1.617   2.448  10.370  1.00  0.00     0.022 A 
BRANCH  77  80
ATOM     80  S   UNL     1      -4.342   2.330  10.139  1.00  0.00     0.127 S 
ATOM     81  O   UNL     1      -4.546   2.384  11.585  1.00  0.00    -0.237 OA
ATOM     82  O   UNL     1      -4.156   3.630   9.494  1.00  0.00    -0.237 OA
ATOM     83  O   UNL     1      -5.213   1.419   9.409  1.00  0.00    -0.744 OA
ENDBRANCH  77  80
ENDBRANCH  49  73
BRANCH  61  84
ATOM     84  C   UNL     1       1.912  -5.694  12.289  1.00  0.00     0.023 A 
ATOM     85  C   UNL     1       1.145  -5.746  13.470  1.00  0.00     0.012 A 
ATOM     86  C   UNL     1       3.303  -5.914  12.359  1.00  0.00     0.148 A 
ATOM     87  C   UNL     1       1.756  -5.971  14.703  1.00  0.00     0.002 A 
ATOM     88  C   UNL     1       3.897  -6.190  13.585  1.00  0.00     0.091 A 
ATOM     89  F   UNL     1       4.019  -5.847  11.227  1.00  0.00    -0.205 F 
ATOM     90  C   UNL     1       3.129  -6.204  14.759  1.00  0.00     0.022 A 
BRANCH  88  91
ATOM     91  S   UNL     1       5.640  -6.599  13.739  1.00  0.00     0.127 S 
ATOM     92  O   UNL     1       6.178  -5.385  14.350  1.00  0.00    -0.237 OA
ATOM     93  O   UNL     1       5.608  -7.765  14.624  1.00  0.00    -0.237 OA
ATOM     94  O   UNL     1       6.107  -6.880  12.388  1.00  0.00    -0.744 OA
ENDBRANCH  88  91
ENDBRANCH  61  84
ENDBRANCH  35  36
ENDBRANCH  28  30
ENDBRANCH  27  28
ENDBRANCH  26  27
ENDBRANCH  25  26
ENDBRANCH  24  25
ENDBRANCH   1  24
TORSDOF 24
