REMARK SMILES Cc1ccc(C(=O)OCCOCCOCCOC(=O)c2ccc(-c3c4nc(c(-c5cccc(S(=O)(=O)[O-])c5F)c5ccc([nH]5)c(-c5cccc(S(=O)(=O)[O-])c5F)c5nc(c(-c6cccc(S(=O)(=O)[O-])c6F)c6ccc3[nH]6)C=C5)C=C4)cc2)c(Oc2cccc(F)c2C(N)=O)c1
REMARK SMILES IDX 12 1 11 2 10 3 9 4 8 5 6 6 7 7 5 8 1 9 2 10 3 11 95 12 4 13
REMARK SMILES IDX 83 14 84 15 85 16 86 17 91 18 87 19 89 20 88 21 90 22 92 23
REMARK SMILES IDX 93 24 94 25 13 28 14 29 15 30 16 31 17 32 18 33 19 34 20 35
REMARK SMILES IDX 21 36 82 37 22 38 81 39 23 40 24 41 25 42 75 43 26 44 80 45
REMARK SMILES IDX 74 46 76 47 27 48 79 49 73 50 72 51 28 53 60 54 40 55 59 56
REMARK SMILES IDX 41 57 44 58 58 59 77 60 42 61 43 62 57 64 78 65 45 66 29 67
REMARK SMILES IDX 30 68 38 69 31 70 33 71 39 72 32 73 34 74 35 75 36 76 37 77
REMARK SMILES IDX 61 78 62 79 70 80 63 81 65 82 71 83 64 84 66 85 67 86 68 87
REMARK SMILES IDX 69 88 46 89 47 90 55 91 48 92 50 93 56 94 49 95 51 96 52 97
REMARK SMILES IDX 53 98 54 99
REMARK H PARENT 93 26 93 27 76 52 44 63
REMARK Flexibility Score: inf
ROOT
ATOM      1  C   UNL     1      -5.022   2.406  -3.129  1.00  0.00     0.188 C 
ENDROOT
BRANCH   1   2
ATOM      2  O   UNL     1      -5.357   3.396  -2.158  1.00  0.00    -0.376 OA
BRANCH   2   3
ATOM      3  C   UNL     1      -4.941   2.989  -0.810  1.00  0.00     0.202 C 
BRANCH   3   4
ATOM      4  C   UNL     1      -3.497   3.434  -0.379  1.00  0.00     0.261 C 
BRANCH   4   5
ATOM      5  O   UNL     1      -2.247   2.612  -0.108  1.00  0.00    -0.460 OA
BRANCH   5   6
ATOM      6  C   UNL     1      -1.705   1.425   0.244  1.00  0.00     0.342 C 
ATOM      7  O   UNL     1      -2.245   0.357   0.439  1.00  0.00    -0.246 OA
BRANCH   6   8
ATOM      8  C   UNL     1      -0.240   1.307   0.304  1.00  0.00     0.102 A 
ATOM      9  C   UNL     1       3.964   0.601  -0.237  1.00  0.00     0.044 C 
ATOM     10  C   UNL     1       2.519   0.881   0.040  1.00  0.00    -0.047 A 
ATOM     11  C   UNL     1       1.722  -0.094   0.646  1.00  0.00     0.004 A 
ATOM     12  C   UNL     1       1.924   2.058  -0.437  1.00  0.00     0.051 A 
ATOM     13  C   UNL     1       0.353   0.124   0.793  1.00  0.00     0.020 A 
ATOM     14  C   UNL     1       0.547   2.249  -0.321  1.00  0.00     0.142 A 
BRANCH  14  15
ATOM     15  O   UNL     1      -0.138   3.174  -1.053  1.00  0.00    -0.455 OA
BRANCH  15  16
ATOM     16  C   UNL     1       0.214   4.475  -0.915  1.00  0.00     0.143 A 
ATOM     17  C   UNL     1      -0.204   5.194   0.207  1.00  0.00     0.048 A 
ATOM     18  C   UNL     1       0.876   5.066  -1.988  1.00  0.00     0.117 A 
ATOM     19  C   UNL     1       0.126   6.537   0.299  1.00  0.00     0.007 A 
ATOM     20  C   UNL     1       1.240   6.397  -1.854  1.00  0.00     0.139 A 
ATOM     21  C   UNL     1       0.871   7.130  -0.720  1.00  0.00     0.040 A 
ATOM     22  F   UNL     1       1.928   7.022  -2.819  1.00  0.00    -0.206 F 
BRANCH  18  23
ATOM     23  C   UNL     1       1.194   4.284  -3.220  1.00  0.00     0.255 C 
ATOM     24  N   UNL     1       0.364   3.235  -3.546  1.00  0.00    -0.365 N 
ATOM     25  O   UNL     1       2.170   4.529  -3.918  1.00  0.00    -0.269 OA
ATOM     26  H   UNL     1      -0.421   3.037  -2.985  1.00  0.00     0.159 HD
ATOM     27  H   UNL     1       0.555   2.684  -4.339  1.00  0.00     0.159 HD
ENDBRANCH  18  23
ENDBRANCH  15  16
ENDBRANCH  14  15
ENDBRANCH   6   8
ENDBRANCH   5   6
ENDBRANCH   4   5
ENDBRANCH   3   4
ENDBRANCH   2   3
ENDBRANCH   1   2
BRANCH   1  28
ATOM     28  C   UNL     1      -5.416   2.668  -4.591  1.00  0.00     0.188 C 
BRANCH  28  29
ATOM     29  O   UNL     1      -6.668   2.168  -5.080  1.00  0.00    -0.376 OA
BRANCH  29  30
ATOM     30  C   UNL     1      -7.076   0.847  -4.725  1.00  0.00     0.202 C 
BRANCH  30  31
ATOM     31  C   UNL     1      -6.288  -0.355  -5.293  1.00  0.00     0.261 C 
BRANCH  31  32
ATOM     32  O   UNL     1      -4.892  -0.277  -4.988  1.00  0.00    -0.460 OA
BRANCH  32  33
ATOM     33  C   UNL     1      -4.266  -1.492  -4.835  1.00  0.00     0.338 C 
ATOM     34  O   UNL     1      -4.488  -2.491  -5.469  1.00  0.00    -0.246 OA
BRANCH  33  35
ATOM     35  C   UNL     1      -3.621  -1.412  -3.493  1.00  0.00     0.060 A 
ATOM     36  C   UNL     1      -3.909  -2.401  -2.575  1.00  0.00     0.016 A 
ATOM     37  C   UNL     1      -3.217  -0.188  -3.018  1.00  0.00     0.016 A 
ATOM     38  C   UNL     1      -4.117  -2.043  -1.231  1.00  0.00     0.010 A 
ATOM     39  C   UNL     1      -3.583   0.144  -1.708  1.00  0.00     0.010 A 
ATOM     40  C   UNL     1      -4.175  -0.724  -0.789  1.00  0.00    -0.014 A 
BRANCH  40  41
ATOM     41  C   UNL     1      -4.941  -0.282   0.485  1.00  0.00     0.031 A 
ATOM     42  C   UNL     1      -4.562   0.759   1.572  1.00  0.00     0.074 A 
ATOM     43  C   UNL     1      -6.121  -0.895   0.720  1.00  0.00     0.049 A 
ATOM     44  N   UNL     1      -5.129   1.920   1.817  1.00  0.00    -0.248 NA
ATOM     45  C   UNL     1      -3.472   0.475   2.524  1.00  0.00     0.031 C 
ATOM     46  C   UNL     1      -7.046  -0.650   1.815  1.00  0.00     0.029 A 
ATOM     47  N   UNL     1      -6.478  -2.172   0.259  1.00  0.00    -0.354 N 
ATOM     48  C   UNL     1      -4.392   2.591   2.825  1.00  0.00     0.074 A 
ATOM     49  C   UNL     1      -3.278   1.671   3.086  1.00  0.00     0.031 C 
ATOM     50  C   UNL     1      -7.529  -1.847   2.201  1.00  0.00     0.029 A 
ATOM     51  C   UNL     1      -6.817  -2.867   1.431  1.00  0.00     0.049 A 
ATOM     52  H   UNL     1      -6.488  -2.503  -0.668  1.00  0.00     0.167 HD
ATOM     53  C   UNL     1      -4.992   3.080   3.958  1.00  0.00     0.034 A 
ATOM     54  C   UNL     1      -5.949  -3.795   1.949  1.00  0.00     0.034 A 
ATOM     55  C   UNL     1      -5.648   2.047   4.733  1.00  0.00     0.049 A 
ATOM     56  C   UNL     1      -5.505  -3.470   3.365  1.00  0.00     0.074 A 
ATOM     57  C   UNL     1      -6.946   1.591   4.808  1.00  0.00     0.029 A 
ATOM     58  N   UNL     1      -4.873   1.140   5.439  1.00  0.00    -0.354 N 
ATOM     59  N   UNL     1      -5.594  -2.297   3.937  1.00  0.00    -0.248 NA
ATOM     60  C   UNL     1      -4.922  -4.477   4.243  1.00  0.00     0.031 C 
ATOM     61  C   UNL     1      -6.883   0.256   5.303  1.00  0.00     0.029 A 
ATOM     62  C   UNL     1      -5.559  -0.051   5.581  1.00  0.00     0.049 A 
ATOM     63  H   UNL     1      -3.969   1.319   5.787  1.00  0.00     0.167 HD
ATOM     64  C   UNL     1      -5.034  -2.359   5.191  1.00  0.00     0.074 A 
ATOM     65  C   UNL     1      -4.679  -3.759   5.349  1.00  0.00     0.031 C 
ATOM     66  C   UNL     1      -4.854  -1.262   5.992  1.00  0.00     0.034 A 
BRANCH  53  67
ATOM     67  C   UNL     1      -4.938   4.553   4.332  1.00  0.00     0.023 A 
ATOM     68  C   UNL     1      -5.670   4.986   5.463  1.00  0.00     0.012 A 
ATOM     69  C   UNL     1      -4.207   5.551   3.633  1.00  0.00     0.148 A 
ATOM     70  C   UNL     1      -5.709   6.330   5.864  1.00  0.00     0.002 A 
ATOM     71  C   UNL     1      -4.254   6.898   4.034  1.00  0.00     0.091 A 
ATOM     72  F   UNL     1      -3.463   5.189   2.578  1.00  0.00    -0.205 F 
ATOM     73  C   UNL     1      -5.008   7.288   5.147  1.00  0.00     0.022 A 
BRANCH  71  74
ATOM     74  S   UNL     1      -3.372   8.220   3.177  1.00  0.00     0.127 S 
ATOM     75  O   UNL     1      -4.460   8.938   2.516  1.00  0.00    -0.237 OA
ATOM     76  O   UNL     1      -2.742   8.956   4.275  1.00  0.00    -0.237 OA
ATOM     77  O   UNL     1      -2.431   7.558   2.283  1.00  0.00    -0.744 OA
ENDBRANCH  71  74
ENDBRANCH  53  67
BRANCH  54  78
ATOM     78  C   UNL     1      -5.150  -4.638   0.972  1.00  0.00     0.023 A 
ATOM     79  C   UNL     1      -5.830  -5.150  -0.166  1.00  0.00     0.012 A 
ATOM     80  C   UNL     1      -3.740  -4.769   0.993  1.00  0.00     0.148 A 
ATOM     81  C   UNL     1      -5.148  -5.677  -1.269  1.00  0.00     0.002 A 
ATOM     82  C   UNL     1      -3.060  -5.289  -0.122  1.00  0.00     0.091 A 
ATOM     83  F   UNL     1      -3.061  -4.322   2.057  1.00  0.00    -0.205 F 
ATOM     84  C   UNL     1      -3.761  -5.734  -1.253  1.00  0.00     0.022 A 
BRANCH  82  85
ATOM     85  S   UNL     1      -1.258  -5.236  -0.247  1.00  0.00     0.127 S 
ATOM     86  O   UNL     1      -1.037  -5.062  -1.685  1.00  0.00    -0.237 OA
ATOM     87  O   UNL     1      -0.857  -4.094   0.563  1.00  0.00    -0.237 OA
ATOM     88  O   UNL     1      -0.890  -6.552   0.268  1.00  0.00    -0.744 OA
ENDBRANCH  82  85
ENDBRANCH  54  78
BRANCH  66  89
ATOM     89  C   UNL     1      -3.958  -1.259   7.221  1.00  0.00     0.023 A 
ATOM     90  C   UNL     1      -2.893  -2.172   7.370  1.00  0.00     0.012 A 
ATOM     91  C   UNL     1      -4.052  -0.242   8.201  1.00  0.00     0.148 A 
ATOM     92  C   UNL     1      -2.040  -2.154   8.480  1.00  0.00     0.002 A 
ATOM     93  C   UNL     1      -3.122  -0.153   9.238  1.00  0.00     0.091 A 
ATOM     94  F   UNL     1      -5.043   0.659   8.137  1.00  0.00    -0.205 F 
ATOM     95  C   UNL     1      -2.144  -1.131   9.410  1.00  0.00     0.022 A 
BRANCH  93  96
ATOM     96  S   UNL     1      -3.060   1.332  10.250  1.00  0.00     0.127 S 
ATOM     97  O   UNL     1      -4.148   1.114  11.197  1.00  0.00    -0.237 OA
ATOM     98  O   UNL     1      -1.720   1.274  10.838  1.00  0.00    -0.237 OA
ATOM     99  O   UNL     1      -3.239   2.410   9.283  1.00  0.00    -0.744 OA
ENDBRANCH  93  96
ENDBRANCH  66  89
ENDBRANCH  40  41
ENDBRANCH  33  35
ENDBRANCH  32  33
ENDBRANCH  31  32
ENDBRANCH  30  31
ENDBRANCH  29  30
ENDBRANCH  28  29
ENDBRANCH   1  28
TORSDOF 23
