REMARK SMILES Cc1ccccc1-c1c(Cl)ccc2c1C=C(C(=O)OCCOCCOCCOC(=O)c1ccc(-c3c4nc(c(-c5cccc(S(=O)(=O)[O-])c5F)c5ccc([nH]5)c(-c5cccc(S(=O)(=O)[O-])c5F)c5nc(c(-c6cccc(S(=O)(=O)[O-])c6F)c6ccc3[nH]6)C=C5)C=C4)cc1)[C@@H](C(F)(F)F)O2
REMARK SMILES IDX 24 1 23 2 22 3 21 4 20 5 19 6 17 7 18 8 16 9 8 10 9 11 14 12
REMARK SMILES IDX 10 13 11 14 13 15 15 16 12 17 99 18 94 19 7 20 1 21 2 22
REMARK SMILES IDX 3 23 4 24 6 25 5 26 95 27 96 28 97 29 98 30 25 31 26 32
REMARK SMILES IDX 27 33 28 34 29 35 30 36 31 37 32 38 93 39 33 40 92 41 34 42
REMARK SMILES IDX 35 43 36 44 86 45 37 46 91 47 85 48 87 49 38 50 90 51 84 52
REMARK SMILES IDX 83 53 39 55 71 56 51 57 70 58 52 59 55 60 69 61 88 62 53 63
REMARK SMILES IDX 54 64 68 66 89 67 56 68 40 69 41 70 49 71 42 72 44 73 50 74
REMARK SMILES IDX 43 75 45 76 46 77 47 78 48 79 72 80 73 81 81 82 74 83 76 84
REMARK SMILES IDX 82 85 75 86 77 87 78 88 79 89 80 90 57 91 58 92 66 93 59 94
REMARK SMILES IDX 61 95 67 96 60 97 62 98 63 99 64 100 65 101
REMARK H PARENT 87 54 55 65
REMARK Flexibility Score: inf
ROOT
ATOM      1  C   UNL     1       9.965   1.530  -3.760  1.00  0.00     0.188 C 
ENDROOT
BRANCH   1   2
ATOM      2  C   UNL     1       9.450   1.799  -2.381  1.00  0.00     0.188 C 
BRANCH   2   3
ATOM      3  O   UNL     1       9.007   0.754  -1.482  1.00  0.00    -0.376 OA
BRANCH   3   4
ATOM      4  C   UNL     1       8.211  -0.464  -1.693  1.00  0.00     0.202 C 
BRANCH   4   5
ATOM      5  C   UNL     1       6.468  -1.003  -1.786  1.00  0.00     0.261 C 
BRANCH   5   6
ATOM      6  O   UNL     1       4.951  -0.260  -2.418  1.00  0.00    -0.460 OA
BRANCH   6   7
ATOM      7  C   UNL     1       4.083   0.936  -2.160  1.00  0.00     0.338 C 
ATOM      8  O   UNL     1       4.249   1.726  -1.227  1.00  0.00    -0.246 OA
BRANCH   7   9
ATOM      9  C   UNL     1       2.784   1.254  -2.881  1.00  0.00     0.087 C 
ATOM     10  C   UNL     1       0.367   2.262  -0.081  1.00  0.00     0.012 A 
ATOM     11  C   UNL     1       0.244   3.368   0.806  1.00  0.00     0.049 A 
ATOM     12  C   UNL     1       1.335   2.328  -1.130  1.00  0.00     0.027 A 
ATOM     13  Cl  UNL     1      -0.836   3.356   2.165  1.00  0.00    -0.084 Cl
ATOM     14  C   UNL     1       1.004   4.526   0.637  1.00  0.00     0.025 A 
ATOM     15  C   UNL     1       2.024   3.538  -1.314  1.00  0.00     0.128 A 
ATOM     16  C   UNL     1       1.717   1.154  -2.027  1.00  0.00     0.028 C 
ATOM     17  C   UNL     1       1.881   4.617  -0.435  1.00  0.00     0.049 A 
ATOM     18  O   UNL     1       2.903   3.732  -2.343  1.00  0.00    -0.475 OA
ATOM     19  C   UNL     1       2.891   2.739  -3.401  1.00  0.00     0.316 C 
BRANCH  10  20
ATOM     20  C   UNL     1      -0.502   1.076   0.071  1.00  0.00    -0.013 A 
ATOM     21  C   UNL     1       1.417  -0.387   0.867  1.00  0.00     0.045 C 
ATOM     22  C   UNL     1       0.002  -0.182   0.436  1.00  0.00    -0.043 A 
ATOM     23  C   UNL     1      -0.825  -1.315   0.400  1.00  0.00     0.004 A 
ATOM     24  C   UNL     1      -2.172  -1.196   0.083  1.00  0.00     0.000 A 
ATOM     25  C   UNL     1      -1.879   1.181  -0.199  1.00  0.00     0.009 A 
ATOM     26  C   UNL     1      -2.708   0.059  -0.182  1.00  0.00     0.001 A 
ENDBRANCH  10  20
BRANCH  19  27
ATOM     27  C   UNL     1       1.782   3.094  -4.412  1.00  0.00     0.430 C 
ATOM     28  F   UNL     1       1.882   4.341  -4.922  1.00  0.00    -0.167 F 
ATOM     29  F   UNL     1       1.812   2.240  -5.472  1.00  0.00    -0.167 F 
ATOM     30  F   UNL     1       0.530   2.995  -3.891  1.00  0.00    -0.167 F 
ENDBRANCH  19  27
ENDBRANCH   7   9
ENDBRANCH   6   7
ENDBRANCH   5   6
ENDBRANCH   4   5
ENDBRANCH   3   4
ENDBRANCH   2   3
ENDBRANCH   1   2
BRANCH   1  31
ATOM     31  O   UNL     1       9.439   0.284  -4.102  1.00  0.00    -0.376 OA
BRANCH  31  32
ATOM     32  C   UNL     1      10.216  -0.459  -4.990  1.00  0.00     0.202 C 
BRANCH  32  33
ATOM     33  C   UNL     1      10.091   0.117  -6.400  1.00  0.00     0.261 C 
BRANCH  33  34
ATOM     34  O   UNL     1       8.691   0.303  -6.752  1.00  0.00    -0.460 OA
BRANCH  34  35
ATOM     35  C   UNL     1       8.203   1.611  -6.749  1.00  0.00     0.338 C 
ATOM     36  O   UNL     1       8.677   2.488  -7.411  1.00  0.00    -0.246 OA
BRANCH  35  37
ATOM     37  C   UNL     1       7.158   1.772  -5.649  1.00  0.00     0.060 A 
ATOM     38  C   UNL     1       6.902   2.918  -4.865  1.00  0.00     0.016 A 
ATOM     39  C   UNL     1       6.735   0.623  -5.106  1.00  0.00     0.016 A 
ATOM     40  C   UNL     1       6.538   2.860  -3.419  1.00  0.00     0.010 A 
ATOM     41  C   UNL     1       6.650   0.632  -3.710  1.00  0.00     0.010 A 
ATOM     42  C   UNL     1       6.546   1.671  -2.680  1.00  0.00    -0.014 A 
BRANCH  42  43
ATOM     43  C   UNL     1       6.511   1.500  -0.872  1.00  0.00     0.031 A 
ATOM     44  C   UNL     1       5.671   0.341   0.204  1.00  0.00     0.074 A 
ATOM     45  C   UNL     1       7.288   2.297  -0.079  1.00  0.00     0.049 A 
ATOM     46  N   UNL     1       6.126  -0.072   1.380  1.00  0.00    -0.248 NA
ATOM     47  C   UNL     1       4.474  -0.589  -0.065  1.00  0.00     0.031 C 
ATOM     48  C   UNL     1       7.564   2.239   1.371  1.00  0.00     0.029 A 
ATOM     49  N   UNL     1       8.083   3.385  -0.450  1.00  0.00    -0.354 N 
ATOM     50  C   UNL     1       5.269  -1.071   1.851  1.00  0.00     0.074 A 
ATOM     51  C   UNL     1       4.715  -1.648   0.699  1.00  0.00     0.031 C 
ATOM     52  C   UNL     1       8.133   3.386   1.778  1.00  0.00     0.029 A 
ATOM     53  C   UNL     1       8.141   4.265   0.633  1.00  0.00     0.049 A 
ATOM     54  H   UNL     1       8.525   3.508  -1.321  1.00  0.00     0.167 HD
ATOM     55  C   UNL     1       4.480  -1.032   2.967  1.00  0.00     0.034 A 
ATOM     56  C   UNL     1       7.530   5.469   0.508  1.00  0.00     0.034 A 
ATOM     57  C   UNL     1       4.657   0.229   3.652  1.00  0.00     0.049 A 
ATOM     58  C   UNL     1       6.336   5.486   1.427  1.00  0.00     0.074 A 
ATOM     59  C   UNL     1       5.667   0.672   4.481  1.00  0.00     0.029 A 
ATOM     60  N   UNL     1       3.984   1.369   3.193  1.00  0.00    -0.354 N 
ATOM     61  N   UNL     1       5.707   4.419   1.852  1.00  0.00    -0.248 NA
ATOM     62  C   UNL     1       5.871   6.708   2.060  1.00  0.00     0.031 C 
ATOM     63  C   UNL     1       5.663   2.090   4.445  1.00  0.00     0.029 A 
ATOM     64  C   UNL     1       4.595   2.523   3.670  1.00  0.00     0.049 A 
ATOM     65  H   UNL     1       3.189   1.355   2.612  1.00  0.00     0.167 HD
ATOM     66  C   UNL     1       4.800   4.771   2.810  1.00  0.00     0.074 A 
ATOM     67  C   UNL     1       4.948   6.219   2.904  1.00  0.00     0.031 C 
ATOM     68  C   UNL     1       4.032   3.867   3.500  1.00  0.00     0.034 A 
BRANCH  55  69
ATOM     69  C   UNL     1       3.698  -2.286   3.430  1.00  0.00     0.023 A 
ATOM     70  C   UNL     1       3.821  -2.635   4.784  1.00  0.00     0.012 A 
ATOM     71  C   UNL     1       2.999  -3.241   2.621  1.00  0.00     0.148 A 
ATOM     72  C   UNL     1       3.411  -3.892   5.271  1.00  0.00     0.002 A 
ATOM     73  C   UNL     1       2.693  -4.530   3.075  1.00  0.00     0.091 A 
ATOM     74  F   UNL     1       2.546  -2.895   1.411  1.00  0.00    -0.205 F 
ATOM     75  C   UNL     1       2.901  -4.859   4.410  1.00  0.00     0.022 A 
BRANCH  73  76
ATOM     76  S   UNL     1       2.160  -5.867   1.972  1.00  0.00     0.127 S 
ATOM     77  O   UNL     1       3.229  -6.853   2.150  1.00  0.00    -0.237 OA
ATOM     78  O   UNL     1       0.873  -6.262   2.538  1.00  0.00    -0.237 OA
ATOM     79  O   UNL     1       2.100  -5.291   0.633  1.00  0.00    -0.744 OA
ENDBRANCH  73  76
ENDBRANCH  55  69
BRANCH  56  80
ATOM     80  C   UNL     1       7.684   6.047  -0.872  1.00  0.00     0.023 A 
ATOM     81  C   UNL     1       9.011   6.068  -1.405  1.00  0.00     0.012 A 
ATOM     82  C   UNL     1       6.623   6.272  -1.758  1.00  0.00     0.148 A 
ATOM     83  C   UNL     1       9.257   6.137  -2.777  1.00  0.00     0.002 A 
ATOM     84  C   UNL     1       6.882   6.384  -3.134  1.00  0.00     0.091 A 
ATOM     85  F   UNL     1       5.373   6.315  -1.279  1.00  0.00    -0.205 F 
ATOM     86  C   UNL     1       8.186   6.268  -3.646  1.00  0.00     0.022 A 
BRANCH  84  87
ATOM     87  S   UNL     1       5.529   6.552  -4.311  1.00  0.00     0.127 S 
ATOM     88  O   UNL     1       6.165   6.251  -5.596  1.00  0.00    -0.237 OA
ATOM     89  O   UNL     1       4.565   5.545  -3.892  1.00  0.00    -0.237 OA
ATOM     90  O   UNL     1       5.149   7.949  -4.135  1.00  0.00    -0.744 OA
ENDBRANCH  84  87
ENDBRANCH  56  80
BRANCH  68  91
ATOM     91  C   UNL     1       2.786   4.256   4.279  1.00  0.00     0.023 A 
ATOM     92  C   UNL     1       2.185   5.524   4.133  1.00  0.00     0.012 A 
ATOM     93  C   UNL     1       2.102   3.334   5.111  1.00  0.00     0.148 A 
ATOM     94  C   UNL     1       1.063   5.911   4.867  1.00  0.00     0.002 A 
ATOM     95  C   UNL     1       0.920   3.686   5.756  1.00  0.00     0.091 A 
ATOM     96  F   UNL     1       2.595   2.105   5.308  1.00  0.00    -0.205 F 
ATOM     97  C   UNL     1       0.423   4.987   5.673  1.00  0.00     0.022 A 
BRANCH  95  98
ATOM     98  S   UNL     1      -0.067   2.468   6.633  1.00  0.00     0.127 S 
ATOM     99  O   UNL     1       0.343   2.694   8.017  1.00  0.00    -0.237 OA
ATOM    100  O   UNL     1      -1.434   2.895   6.329  1.00  0.00    -0.237 OA
ATOM    101  O   UNL     1       0.299   1.179   6.061  1.00  0.00    -0.744 OA
ENDBRANCH  95  98
ENDBRANCH  68  91
ENDBRANCH  42  43
ENDBRANCH  35  37
ENDBRANCH  34  35
ENDBRANCH  33  34
ENDBRANCH  32  33
ENDBRANCH  31  32
ENDBRANCH   1  31
TORSDOF 22
