REMARK SMILES Cc1cc(NC(=O)COc2cc(C)c(Cl)c(C)c2)cc(C(=O)OCCOCCOCCOC(=O)c2ccc(-c3c4nc(c(-c5cccc(S(=O)(=O)[O-])c5F)c5ccc([nH]5)c(-c5cccc(S(=O)(=O)[O-])c5F)c5nc(c(-c6cccc(S(=O)(=O)[O-])c6F)c6ccc3[nH]6)C=C5)C=C4)cc2)c1O
REMARK SMILES IDX 27 1 26 2 25 3 24 4 23 5 21 6 22 7 20 8 1 9 2 10 3 11 98 12
REMARK SMILES IDX 4 13 19 14 99 15 5 17 6 18 7 20 8 21 9 22 10 23 11 24 18 25
REMARK SMILES IDX 12 26 16 27 13 28 14 29 17 30 15 31 28 32 29 33 30 34 31 35
REMARK SMILES IDX 32 36 33 37 34 38 35 39 36 40 97 41 37 42 96 43 38 44 39 45
REMARK SMILES IDX 40 46 90 47 41 48 95 49 89 50 91 51 42 52 94 53 88 54 87 55
REMARK SMILES IDX 43 57 75 58 55 59 74 60 56 61 59 62 73 63 92 64 57 65 58 66
REMARK SMILES IDX 72 68 93 69 60 70 44 71 45 72 53 73 46 74 48 75 54 76 47 77
REMARK SMILES IDX 49 78 50 79 51 80 52 81 76 82 77 83 85 84 78 85 80 86 86 87
REMARK SMILES IDX 79 88 81 89 82 90 83 91 84 92 61 93 62 94 70 95 63 96 65 97
REMARK SMILES IDX 71 98 64 99 66 100 67 101 68 102 69 103
REMARK H PARENT 99 16 5 19 91 56 59 67
REMARK Flexibility Score: inf
ROOT
ATOM      1  C   UNL     1      -0.391   4.168  -1.499  1.00  0.00     0.188 C 
ENDROOT
BRANCH   1   2
ATOM      2  O   UNL     1       0.065   5.471  -1.172  1.00  0.00    -0.376 OA
BRANCH   2   3
ATOM      3  C   UNL     1       0.252   5.766   0.202  1.00  0.00     0.202 C 
BRANCH   3   4
ATOM      4  C   UNL     1       1.349   4.983   0.930  1.00  0.00     0.261 C 
BRANCH   4   5
ATOM      5  O   UNL     1       1.302   3.565   0.730  1.00  0.00    -0.460 OA
BRANCH   5   6
ATOM      6  C   UNL     1       0.504   2.833   1.548  1.00  0.00     0.342 C 
ATOM      7  O   UNL     1      -0.142   3.238   2.483  1.00  0.00    -0.246 OA
BRANCH   6   8
ATOM      8  C   UNL     1       0.593   1.427   1.070  1.00  0.00     0.104 A 
ATOM      9  C   UNL     1      -1.640  -1.487  -0.008  1.00  0.00     0.048 C 
ATOM     10  C   UNL     1      -0.447  -0.644   0.348  1.00  0.00    -0.006 A 
ATOM     11  C   UNL     1       0.840  -1.207   0.241  1.00  0.00     0.033 A 
ATOM     12  C   UNL     1      -0.558   0.694   0.751  1.00  0.00     0.133 A 
ATOM     13  C   UNL     1       2.000  -0.463   0.503  1.00  0.00     0.042 A 
ATOM     14  C   UNL     1       1.868   0.852   0.932  1.00  0.00     0.045 A 
BRANCH  12  15
ATOM     15  O   UNL     1      -1.767   1.328   0.792  1.00  0.00    -0.507 OA
ATOM     16  H   UNL     1      -2.550   0.858   0.583  1.00  0.00     0.293 HD
ENDBRANCH  12  15
BRANCH  13  17
ATOM     17  N   UNL     1       3.223  -1.141   0.389  1.00  0.00    -0.323 N 
ATOM     18  C   UNL     1       4.515  -0.722   0.262  1.00  0.00     0.262 C 
ATOM     19  H   UNL     1       3.130  -2.121   0.404  1.00  0.00     0.170 HD
ATOM     20  O   UNL     1       5.406  -1.567   0.414  1.00  0.00    -0.271 OA
BRANCH  18  21
ATOM     21  C   UNL     1       4.885   0.709  -0.137  1.00  0.00     0.329 C 
BRANCH  21  22
ATOM     22  O   UNL     1       4.149   1.315  -1.187  1.00  0.00    -0.484 OA
BRANCH  22  23
ATOM     23  C   UNL     1       4.516   0.987  -2.464  1.00  0.00     0.120 A 
ATOM     24  C   UNL     1       4.887  -0.288  -2.883  1.00  0.00     0.051 A 
ATOM     25  C   UNL     1       4.421   2.011  -3.406  1.00  0.00     0.051 A 
ATOM     26  C   UNL     1       5.172  -0.551  -4.235  1.00  0.00    -0.029 A 
ATOM     27  C   UNL     1       4.704   1.786  -4.764  1.00  0.00    -0.029 A 
ATOM     28  C   UNL     1       5.536  -1.954  -4.637  1.00  0.00     0.046 C 
ATOM     29  C   UNL     1       5.086   0.496  -5.171  1.00  0.00     0.047 A 
ATOM     30  C   UNL     1       4.569   2.923  -5.739  1.00  0.00     0.046 C 
ATOM     31  Cl  UNL     1       5.451   0.188  -6.840  1.00  0.00    -0.084 Cl
ENDBRANCH  22  23
ENDBRANCH  21  22
ENDBRANCH  18  21
ENDBRANCH  13  17
ENDBRANCH   6   8
ENDBRANCH   5   6
ENDBRANCH   4   5
ENDBRANCH   3   4
ENDBRANCH   2   3
ENDBRANCH   1   2
BRANCH   1  32
ATOM     32  C   UNL     1       0.692   3.314  -2.189  1.00  0.00     0.188 C 
BRANCH  32  33
ATOM     33  O   UNL     1       1.849   3.951  -2.725  1.00  0.00    -0.376 OA
BRANCH  33  34
ATOM     34  C   UNL     1       1.719   5.177  -3.428  1.00  0.00     0.202 C 
BRANCH  34  35
ATOM     35  C   UNL     1       0.884   5.188  -4.710  1.00  0.00     0.261 C 
BRANCH  35  36
ATOM     36  O   UNL     1      -0.459   4.715  -4.540  1.00  0.00    -0.460 OA
BRANCH  36  37
ATOM     37  C   UNL     1      -0.739   3.540  -5.156  1.00  0.00     0.338 C 
ATOM     38  O   UNL     1       0.009   2.874  -5.852  1.00  0.00    -0.246 OA
BRANCH  37  39
ATOM     39  C   UNL     1      -2.070   3.062  -4.732  1.00  0.00     0.060 A 
ATOM     40  C   UNL     1      -2.166   1.775  -4.185  1.00  0.00     0.016 A 
ATOM     41  C   UNL     1      -3.215   3.839  -4.923  1.00  0.00     0.016 A 
ATOM     42  C   UNL     1      -3.414   1.248  -3.855  1.00  0.00     0.010 A 
ATOM     43  C   UNL     1      -4.466   3.301  -4.609  1.00  0.00     0.010 A 
ATOM     44  C   UNL     1      -4.573   1.993  -4.102  1.00  0.00    -0.014 A 
BRANCH  44  45
ATOM     45  C   UNL     1      -5.904   1.350  -3.986  1.00  0.00     0.031 A 
ATOM     46  C   UNL     1      -6.545   0.789  -5.226  1.00  0.00     0.074 A 
ATOM     47  C   UNL     1      -6.539   1.282  -2.803  1.00  0.00     0.049 A 
ATOM     48  N   UNL     1      -7.715   0.224  -5.369  1.00  0.00    -0.248 NA
ATOM     49  C   UNL     1      -5.763   0.880  -6.471  1.00  0.00     0.031 C 
ATOM     50  C   UNL     1      -6.024   1.795  -1.534  1.00  0.00     0.029 A 
ATOM     51  N   UNL     1      -7.777   0.779  -2.486  1.00  0.00    -0.354 N 
ATOM     52  C   UNL     1      -7.821  -0.087  -6.719  1.00  0.00     0.074 A 
ATOM     53  C   UNL     1      -6.601   0.359  -7.355  1.00  0.00     0.031 C 
ATOM     54  C   UNL     1      -6.958   1.617  -0.582  1.00  0.00     0.029 A 
ATOM     55  C   UNL     1      -8.140   0.995  -1.178  1.00  0.00     0.049 A 
ATOM     56  H   UNL     1      -8.350   0.309  -3.134  1.00  0.00     0.167 HD
ATOM     57  C   UNL     1      -8.835  -0.704  -7.370  1.00  0.00     0.034 A 
ATOM     58  C   UNL     1      -9.303   0.743  -0.544  1.00  0.00     0.034 A 
ATOM     59  C   UNL     1     -10.044  -1.155  -6.739  1.00  0.00     0.049 A 
ATOM     60  C   UNL     1     -10.428   0.080  -1.299  1.00  0.00     0.074 A 
ATOM     61  C   UNL     1     -11.114  -1.823  -7.308  1.00  0.00     0.029 A 
ATOM     62  N   UNL     1     -10.352  -0.972  -5.401  1.00  0.00    -0.354 N 
ATOM     63  N   UNL     1     -10.460  -0.329  -2.544  1.00  0.00    -0.248 NA
ATOM     64  C   UNL     1     -11.666  -0.188  -0.550  1.00  0.00     0.031 C 
ATOM     65  C   UNL     1     -12.077  -2.030  -6.315  1.00  0.00     0.029 A 
ATOM     66  C   UNL     1     -11.597  -1.509  -5.124  1.00  0.00     0.049 A 
ATOM     67  H   UNL     1      -9.771  -0.526  -4.743  1.00  0.00     0.167 HD
ATOM     68  C   UNL     1     -11.702  -0.931  -2.718  1.00  0.00     0.074 A 
ATOM     69  C   UNL     1     -12.385  -0.854  -1.443  1.00  0.00     0.031 C 
ATOM     70  C   UNL     1     -12.238  -1.483  -3.835  1.00  0.00     0.034 A 
BRANCH  57  71
ATOM     71  C   UNL     1      -8.664  -0.961  -8.843  1.00  0.00     0.023 A 
ATOM     72  C   UNL     1      -7.796  -1.988  -9.268  1.00  0.00     0.012 A 
ATOM     73  C   UNL     1      -9.399  -0.234  -9.799  1.00  0.00     0.148 A 
ATOM     74  C   UNL     1      -7.644  -2.272 -10.624  1.00  0.00     0.002 A 
ATOM     75  C   UNL     1      -9.272  -0.549 -11.147  1.00  0.00     0.091 A 
ATOM     76  F   UNL     1     -10.199   0.753  -9.374  1.00  0.00    -0.205 F 
ATOM     77  C   UNL     1      -8.389  -1.560 -11.561  1.00  0.00     0.022 A 
BRANCH  75  78
ATOM     78  S   UNL     1     -10.239   0.260 -12.426  1.00  0.00     0.127 S 
ATOM     79  O   UNL     1      -9.220   1.059 -13.105  1.00  0.00    -0.237 OA
ATOM     80  O   UNL     1     -10.738  -0.877 -13.200  1.00  0.00    -0.237 OA
ATOM     81  O   UNL     1     -11.268   1.020 -11.731  1.00  0.00    -0.744 OA
ENDBRANCH  75  78
ENDBRANCH  57  71
BRANCH  58  82
ATOM     82  C   UNL     1      -9.461   1.090   0.897  1.00  0.00     0.023 A 
ATOM     83  C   UNL     1      -9.559   0.060   1.853  1.00  0.00     0.012 A 
ATOM     84  C   UNL     1      -9.519   2.431   1.324  1.00  0.00     0.148 A 
ATOM     85  C   UNL     1      -9.745   0.359   3.203  1.00  0.00     0.002 A 
ATOM     86  C   UNL     1      -9.653   2.722   2.677  1.00  0.00     0.091 A 
ATOM     87  F   UNL     1      -9.447   3.397   0.397  1.00  0.00    -0.205 F 
ATOM     88  C   UNL     1      -9.782   1.688   3.616  1.00  0.00     0.022 A 
BRANCH  86  89
ATOM     89  S   UNL     1      -9.591   4.403   3.306  1.00  0.00     0.127 S 
ATOM     90  O   UNL     1     -10.993   4.652   3.630  1.00  0.00    -0.237 OA
ATOM     91  O   UNL     1      -8.707   4.263   4.463  1.00  0.00    -0.237 OA
ATOM     92  O   UNL     1      -9.036   5.202   2.222  1.00  0.00    -0.744 OA
ENDBRANCH  86  89
ENDBRANCH  58  82
BRANCH  70  93
ATOM     93  C   UNL     1     -13.613  -2.089  -3.731  1.00  0.00     0.023 A 
ATOM     94  C   UNL     1     -14.742  -1.252  -3.639  1.00  0.00     0.012 A 
ATOM     95  C   UNL     1     -13.792  -3.485  -3.814  1.00  0.00     0.148 A 
ATOM     96  C   UNL     1     -16.026  -1.795  -3.602  1.00  0.00     0.002 A 
ATOM     97  C   UNL     1     -15.077  -4.016  -3.824  1.00  0.00     0.091 A 
ATOM     98  F   UNL     1     -12.705  -4.266  -3.883  1.00  0.00    -0.205 F 
ATOM     99  C   UNL     1     -16.194  -3.174  -3.707  1.00  0.00     0.022 A 
BRANCH  97 100
ATOM    100  S   UNL     1     -15.388  -5.771  -4.050  1.00  0.00     0.127 S 
ATOM    101  O   UNL     1     -15.760  -6.185  -2.699  1.00  0.00    -0.237 OA
ATOM    102  O   UNL     1     -16.490  -5.771  -5.013  1.00  0.00    -0.237 OA
ATOM    103  O   UNL     1     -14.145  -6.334  -4.559  1.00  0.00    -0.744 OA
ENDBRANCH  97 100
ENDBRANCH  70  93
ENDBRANCH  44  45
ENDBRANCH  37  39
ENDBRANCH  36  37
ENDBRANCH  35  36
ENDBRANCH  34  35
ENDBRANCH  33  34
ENDBRANCH  32  33
ENDBRANCH   1  32
TORSDOF 25
