REMARK SMILES CC[C@@H]1C=CCN1S(=O)(=O)c1sc2c(c1C(=O)OCCOCCOCCOC(=O)c1ccc(-c3c4nc(c(-c5cccc(S(=O)(=O)[O-])c5F)c5ccc([nH]5)c(-c5cccc(S(=O)(=O)[O-])c5F)c5nc(c(-c6cccc(S(=O)(=O)[O-])c6F)c6ccc3[nH]6)C=C5)C=C4)cc1)CC[NH2+]C2
REMARK SMILES IDX 22 1 21 2 20 3 19 4 18 5 16 6 17 7 15 8 11 9 12 10 13 11
REMARK SMILES IDX 14 12 96 13 93 14 95 15 94 16 8 19 9 20 10 21 7 22 3 23 4 24
REMARK SMILES IDX 5 25 6 26 2 27 1 28 23 29 24 30 25 31 26 32 27 33 28 34
REMARK SMILES IDX 29 35 30 36 31 37 92 38 32 39 91 40 33 41 34 42 35 43 85 44
REMARK SMILES IDX 36 45 90 46 84 47 86 48 37 49 89 50 83 51 82 52 38 54 70 55
REMARK SMILES IDX 50 56 69 57 51 58 54 59 68 60 87 61 52 62 53 63 67 65 88 66
REMARK SMILES IDX 55 67 39 68 40 69 48 70 41 71 43 72 49 73 42 74 44 75 45 76
REMARK SMILES IDX 46 77 47 78 71 79 72 80 80 81 73 82 75 83 81 84 74 85 76 86
REMARK SMILES IDX 77 87 78 88 79 89 56 90 57 91 65 92 58 93 60 94 66 95 59 96
REMARK SMILES IDX 61 97 62 98 63 99 64 100
REMARK H PARENT 95 17 95 18 86 53 54 64
REMARK Flexibility Score: inf
ROOT
ATOM      1  C   UNL     1       6.115   4.900   3.867  1.00  0.00     0.188 C 
ENDROOT
BRANCH   1   2
ATOM      2  O   UNL     1       6.744   3.898   4.634  1.00  0.00    -0.376 OA
BRANCH   2   3
ATOM      3  C   UNL     1       6.039   2.712   4.963  1.00  0.00     0.202 C 
BRANCH   3   4
ATOM      4  C   UNL     1       4.508   2.673   5.135  1.00  0.00     0.261 C 
BRANCH   4   5
ATOM      5  O   UNL     1       3.757   3.399   4.149  1.00  0.00    -0.460 OA
BRANCH   5   6
ATOM      6  C   UNL     1       2.885   4.330   4.614  1.00  0.00     0.340 C 
ATOM      7  O   UNL     1       2.629   4.501   5.804  1.00  0.00    -0.246 OA
BRANCH   6   8
ATOM      8  C   UNL     1       2.410   5.272   3.599  1.00  0.00     0.095 A 
ATOM      9  C   UNL     1       1.741   4.939   2.417  1.00  0.00     0.150 A 
ATOM     10  S   UNL     1       1.175   6.358   1.627  1.00  0.00    -0.120 S 
ATOM     11  C   UNL     1       1.843   7.394   2.764  1.00  0.00     0.064 A 
ATOM     12  C   UNL     1       2.558   6.717   3.725  1.00  0.00    -0.007 A 
ATOM     13  C   UNL     1       1.635   8.877   2.721  1.00  0.00     0.308 C 
ATOM     14  C   UNL     1       3.361   7.502   4.731  1.00  0.00     0.099 C 
ATOM     15  N   UNL     1       2.701   9.583   3.446  1.00  0.00    -0.342 N 
ATOM     16  C   UNL     1       2.914   8.983   4.780  1.00  0.00     0.265 C 
ATOM     17  H   UNL     1       3.567   9.523   2.911  1.00  0.00     0.346 HD
ATOM     18  H   UNL     1       2.425  10.557   3.567  1.00  0.00     0.346 HD
BRANCH   9  19
ATOM     19  S   UNL     1       1.186   3.394   1.675  1.00  0.00     0.254 S 
ATOM     20  O   UNL     1      -0.182   3.265   2.140  1.00  0.00    -0.206 OA
ATOM     21  O   UNL     1       2.168   2.402   2.052  1.00  0.00    -0.206 OA
BRANCH  19  22
ATOM     22  N   UNL     1       1.138   3.435  -0.043  1.00  0.00    -0.186 NA
ATOM     23  C   UNL     1       0.828   2.096  -0.668  1.00  0.00     0.096 C 
ATOM     24  C   UNL     1      -0.265   2.410  -1.644  1.00  0.00    -0.010 C 
ATOM     25  C   UNL     1      -0.539   3.712  -1.676  1.00  0.00    -0.013 C 
ATOM     26  C   UNL     1       0.254   4.453  -0.667  1.00  0.00     0.130 C 
BRANCH  23  27
ATOM     27  C   UNL     1       2.091   1.488  -1.310  1.00  0.00     0.021 C 
ATOM     28  C   UNL     1       2.174   1.544  -2.836  1.00  0.00     0.006 C 
ENDBRANCH  23  27
ENDBRANCH  19  22
ENDBRANCH   9  19
ENDBRANCH   6   8
ENDBRANCH   5   6
ENDBRANCH   4   5
ENDBRANCH   3   4
ENDBRANCH   2   3
ENDBRANCH   1   2
BRANCH   1  29
ATOM     29  C   UNL     1       5.676   4.630   2.411  1.00  0.00     0.188 C 
BRANCH  29  30
ATOM     30  O   UNL     1       5.425   3.327   1.936  1.00  0.00    -0.376 OA
BRANCH  30  31
ATOM     31  C   UNL     1       6.413   2.349   1.660  1.00  0.00     0.202 C 
BRANCH  31  32
ATOM     32  C   UNL     1       7.909   2.602   1.498  1.00  0.00     0.261 C 
BRANCH  32  33
ATOM     33  O   UNL     1       8.372   3.803   2.062  1.00  0.00    -0.460 OA
BRANCH  33  34
ATOM     34  C   UNL     1       8.389   4.816   1.174  1.00  0.00     0.338 C 
ATOM     35  O   UNL     1       7.928   4.817   0.044  1.00  0.00    -0.246 OA
BRANCH  34  36
ATOM     36  C   UNL     1       9.068   5.958   1.780  1.00  0.00     0.060 A 
ATOM     37  C   UNL     1       8.991   7.153   1.065  1.00  0.00     0.016 A 
ATOM     38  C   UNL     1      10.016   5.728   2.787  1.00  0.00     0.016 A 
ATOM     39  C   UNL     1      10.067   7.997   1.134  1.00  0.00     0.010 A 
ATOM     40  C   UNL     1      11.096   6.566   2.846  1.00  0.00     0.010 A 
ATOM     41  C   UNL     1      11.151   7.609   1.925  1.00  0.00    -0.014 A 
BRANCH  41  42
ATOM     42  C   UNL     1      12.401   8.280   1.676  1.00  0.00     0.031 A 
ATOM     43  C   UNL     1      12.491   9.610   2.293  1.00  0.00     0.074 A 
ATOM     44  C   UNL     1      13.380   7.677   0.977  1.00  0.00     0.049 A 
ATOM     45  N   UNL     1      12.545  10.756   1.702  1.00  0.00    -0.248 NA
ATOM     46  C   UNL     1      12.335   9.674   3.753  1.00  0.00     0.031 C 
ATOM     47  C   UNL     1      13.473   6.259   0.605  1.00  0.00     0.029 A 
ATOM     48  N   UNL     1      14.581   8.181   0.592  1.00  0.00    -0.354 N 
ATOM     49  C   UNL     1      12.683  11.674   2.736  1.00  0.00     0.074 A 
ATOM     50  C   UNL     1      12.331  10.989   3.953  1.00  0.00     0.031 C 
ATOM     51  C   UNL     1      14.758   5.972   0.302  1.00  0.00     0.029 A 
ATOM     52  C   UNL     1      15.530   7.202   0.334  1.00  0.00     0.049 A 
ATOM     53  H   UNL     1      14.760   9.145   0.504  1.00  0.00     0.167 HD
ATOM     54  C   UNL     1      13.364  12.835   2.559  1.00  0.00     0.034 A 
ATOM     55  C   UNL     1      16.868   7.391   0.278  1.00  0.00     0.034 A 
ATOM     56  C   UNL     1      13.504  13.177   1.169  1.00  0.00     0.049 A 
ATOM     57  C   UNL     1      17.111   8.839   0.080  1.00  0.00     0.074 A 
ATOM     58  C   UNL     1      12.632  13.412   0.126  1.00  0.00     0.029 A 
ATOM     59  N   UNL     1      14.736  12.975   0.599  1.00  0.00    -0.354 N 
ATOM     60  N   UNL     1      16.797   9.490  -1.006  1.00  0.00    -0.248 NA
ATOM     61  C   UNL     1      17.345   9.664   1.255  1.00  0.00     0.031 C 
ATOM     62  C   UNL     1      13.293  12.914  -1.034  1.00  0.00     0.029 A 
ATOM     63  C   UNL     1      14.540  12.423  -0.639  1.00  0.00     0.049 A 
ATOM     64  H   UNL     1      15.606  13.189   1.007  1.00  0.00     0.167 HD
ATOM     65  C   UNL     1      16.374  10.737  -0.559  1.00  0.00     0.074 A 
ATOM     66  C   UNL     1      16.856  10.826   0.816  1.00  0.00     0.031 C 
ATOM     67  C   UNL     1      15.428  11.449  -1.241  1.00  0.00     0.034 A 
BRANCH  54  68
ATOM     68  C   UNL     1      14.229  13.451   3.627  1.00  0.00     0.023 A 
ATOM     69  C   UNL     1      14.699  14.761   3.407  1.00  0.00     0.012 A 
ATOM     70  C   UNL     1      14.812  12.728   4.695  1.00  0.00     0.148 A 
ATOM     71  C   UNL     1      15.719  15.310   4.191  1.00  0.00     0.002 A 
ATOM     72  C   UNL     1      15.752  13.314   5.532  1.00  0.00     0.091 A 
ATOM     73  F   UNL     1      14.579  11.419   4.834  1.00  0.00    -0.205 F 
ATOM     74  C   UNL     1      16.234  14.594   5.265  1.00  0.00     0.022 A 
BRANCH  72  75
ATOM     75  S   UNL     1      16.373  12.438   6.971  1.00  0.00     0.127 S 
ATOM     76  O   UNL     1      17.635  11.905   6.468  1.00  0.00    -0.237 OA
ATOM     77  O   UNL     1      16.501  13.516   7.952  1.00  0.00    -0.237 OA
ATOM     78  O   UNL     1      15.336  11.465   7.295  1.00  0.00    -0.744 OA
ENDBRANCH  72  75
ENDBRANCH  54  68
BRANCH  55  79
ATOM     79  C   UNL     1      17.939   6.456   0.690  1.00  0.00     0.023 A 
ATOM     80  C   UNL     1      19.235   6.609   0.165  1.00  0.00     0.012 A 
ATOM     81  C   UNL     1      17.757   5.572   1.778  1.00  0.00     0.148 A 
ATOM     82  C   UNL     1      20.320   5.918   0.718  1.00  0.00     0.002 A 
ATOM     83  C   UNL     1      18.834   4.874   2.313  1.00  0.00     0.091 A 
ATOM     84  F   UNL     1      16.546   5.484   2.346  1.00  0.00    -0.205 F 
ATOM     85  C   UNL     1      20.121   5.054   1.793  1.00  0.00     0.022 A 
BRANCH  83  86
ATOM     86  S   UNL     1      18.652   3.743   3.700  1.00  0.00     0.127 S 
ATOM     87  O   UNL     1      19.366   2.559   3.220  1.00  0.00    -0.237 OA
ATOM     88  O   UNL     1      19.323   4.469   4.774  1.00  0.00    -0.237 OA
ATOM     89  O   UNL     1      17.217   3.546   3.868  1.00  0.00    -0.744 OA
ENDBRANCH  83  86
ENDBRANCH  55  79
BRANCH  67  90
ATOM     90  C   UNL     1      15.067  10.997  -2.636  1.00  0.00     0.023 A 
ATOM     91  C   UNL     1      14.476   9.740  -2.882  1.00  0.00     0.012 A 
ATOM     92  C   UNL     1      15.157  11.921  -3.692  1.00  0.00     0.148 A 
ATOM     93  C   UNL     1      14.010   9.403  -4.155  1.00  0.00     0.002 A 
ATOM     94  C   UNL     1      14.650  11.600  -4.946  1.00  0.00     0.091 A 
ATOM     95  F   UNL     1      15.713  13.117  -3.443  1.00  0.00    -0.205 F 
ATOM     96  C   UNL     1      14.085  10.337  -5.184  1.00  0.00     0.022 A 
BRANCH  94  97
ATOM     97  S   UNL     1      14.595  12.806  -6.275  1.00  0.00     0.127 S 
ATOM     98  O   UNL     1      15.712  12.386  -7.117  1.00  0.00    -0.237 OA
ATOM     99  O   UNL     1      13.271  12.577  -6.857  1.00  0.00    -0.237 OA
ATOM    100  O   UNL     1      14.742  14.108  -5.636  1.00  0.00    -0.744 OA
ENDBRANCH  94  97
ENDBRANCH  67  90
ENDBRANCH  41  42
ENDBRANCH  34  36
ENDBRANCH  33  34
ENDBRANCH  32  33
ENDBRANCH  31  32
ENDBRANCH  30  31
ENDBRANCH  29  30
ENDBRANCH   1  29
TORSDOF 23
