REMARK SMILES Cc1ccc(OCCC(=O)N2C[C@H](O)C[C@@H]2C(=O)OCCOCCOCCOC(=O)c2ccc(-c3c4nc(c(-c5cccc(S(=O)(=O)[O-])c5F)c5ccc([nH]5)c(-c5cccc(S(=O)(=O)[O-])c5F)c5nc(c(-c6cccc(S(=O)(=O)[O-])c6F)c6ccc3[nH]6)C=C5)C=C4)cc2)cc1
REMARK SMILES IDX 23 1 22 2 21 3 20 4 19 5 17 6 18 7 16 8 11 9 12 10 13 11
REMARK SMILES IDX 15 12 9 13 10 14 8 15 7 16 6 17 5 18 1 19 2 20 3 21 95 22
REMARK SMILES IDX 4 23 94 24 14 25 24 27 25 28 26 29 27 30 28 31 29 32 30 33
REMARK SMILES IDX 31 34 32 35 93 36 33 37 92 38 34 39 35 40 36 41 86 42 37 43
REMARK SMILES IDX 91 44 85 45 87 46 38 47 90 48 84 49 83 50 39 52 71 53 51 54
REMARK SMILES IDX 70 55 52 56 55 57 69 58 88 59 53 60 54 61 68 63 89 64 56 65
REMARK SMILES IDX 40 66 41 67 49 68 42 69 44 70 50 71 43 72 45 73 46 74 47 75
REMARK SMILES IDX 48 76 72 77 73 78 81 79 74 80 76 81 82 82 75 83 77 84 78 85
REMARK SMILES IDX 79 86 80 87 57 88 58 89 66 90 59 91 61 92 67 93 60 94 62 95
REMARK SMILES IDX 63 96 64 97 65 98
REMARK H PARENT 14 26 87 51 55 62
REMARK Flexibility Score: inf
ROOT
ATOM      1  C   UNL     1       1.464  -3.510   6.436  1.00  0.00     0.188 C 
ENDROOT
BRANCH   1   2
ATOM      2  O   UNL     1       1.160  -2.487   7.368  1.00  0.00    -0.376 OA
BRANCH   2   3
ATOM      3  C   UNL     1       0.219  -1.536   6.883  1.00  0.00     0.202 C 
BRANCH   3   4
ATOM      4  C   UNL     1       0.091  -1.291   5.317  1.00  0.00     0.261 C 
BRANCH   4   5
ATOM      5  O   UNL     1       0.977  -0.464   4.334  1.00  0.00    -0.462 OA
BRANCH   5   6
ATOM      6  C   UNL     1       0.747   0.735   3.619  1.00  0.00     0.329 C 
ATOM      7  O   UNL     1       0.879   1.806   4.209  1.00  0.00    -0.250 OA
BRANCH   6   8
ATOM      8  C   UNL     1       0.488   0.854   2.029  1.00  0.00     0.197 C 
ATOM      9  N   UNL     1      -0.794   0.673   1.216  1.00  0.00    -0.326 N 
ATOM     10  C   UNL     1      -0.684  -0.516   0.416  1.00  0.00     0.152 C 
ATOM     11  C   UNL     1       0.736  -1.026   0.541  1.00  0.00     0.136 C 
ATOM     12  C   UNL     1       1.517   0.037   1.285  1.00  0.00     0.070 C 
BRANCH   9  13
ATOM     13  C   UNL     1      -1.564   1.681   0.588  1.00  0.00     0.226 C 
ATOM     14  O   UNL     1      -1.152   2.827   0.425  1.00  0.00    -0.275 OA
BRANCH  13  15
ATOM     15  C   UNL     1      -2.999   1.271   0.140  1.00  0.00     0.141 C 
BRANCH  15  16
ATOM     16  C   UNL     1      -3.400   1.495  -1.332  1.00  0.00     0.239 C 
BRANCH  16  17
ATOM     17  O   UNL     1      -2.995   0.454  -2.248  1.00  0.00    -0.493 OA
BRANCH  17  18
ATOM     18  C   UNL     1      -1.700   0.491  -2.694  1.00  0.00     0.119 A 
ATOM     19  C   UNL     1       2.562   0.127  -2.650  1.00  0.00     0.044 C 
ATOM     20  C   UNL     1       1.080   0.257  -2.856  1.00  0.00    -0.051 A 
ATOM     21  C   UNL     1       0.272  -0.871  -3.049  1.00  0.00     0.007 A 
ATOM     22  C   UNL     1       0.479   1.516  -2.769  1.00  0.00     0.007 A 
ATOM     23  C   UNL     1      -1.121  -0.753  -2.978  1.00  0.00     0.046 A 
ATOM     24  C   UNL     1      -0.908   1.635  -2.706  1.00  0.00     0.046 A 
ENDBRANCH  17  18
ENDBRANCH  16  17
ENDBRANCH  15  16
ENDBRANCH  13  15
ENDBRANCH   9  13
BRANCH  11  25
ATOM     25  O   UNL     1       0.749  -2.269   1.220  1.00  0.00    -0.391 OA
ATOM     26  H   UNL     1       0.352  -2.162   2.099  1.00  0.00     0.211 HD
ENDBRANCH  11  25
ENDBRANCH   6   8
ENDBRANCH   5   6
ENDBRANCH   4   5
ENDBRANCH   3   4
ENDBRANCH   2   3
ENDBRANCH   1   2
BRANCH   1  27
ATOM     27  C   UNL     1       0.341  -4.552   6.276  1.00  0.00     0.188 C 
BRANCH  27  28
ATOM     28  O   UNL     1      -0.906  -3.971   5.881  1.00  0.00    -0.376 OA
BRANCH  28  29
ATOM     29  C   UNL     1      -2.076  -4.651   6.338  1.00  0.00     0.202 C 
BRANCH  29  30
ATOM     30  C   UNL     1      -2.581  -5.678   5.319  1.00  0.00     0.261 C 
BRANCH  30  31
ATOM     31  O   UNL     1      -3.508  -5.017   4.431  1.00  0.00    -0.460 OA
BRANCH  31  32
ATOM     32  C   UNL     1      -2.935  -4.549   3.291  1.00  0.00     0.338 C 
ATOM     33  O   UNL     1      -2.208  -5.182   2.559  1.00  0.00    -0.246 OA
BRANCH  32  34
ATOM     34  C   UNL     1      -3.056  -3.063   3.318  1.00  0.00     0.060 A 
ATOM     35  C   UNL     1      -1.917  -2.399   2.974  1.00  0.00     0.016 A 
ATOM     36  C   UNL     1      -4.096  -2.302   3.856  1.00  0.00     0.016 A 
ATOM     37  C   UNL     1      -1.788  -1.044   3.315  1.00  0.00     0.010 A 
ATOM     38  C   UNL     1      -3.903  -0.931   4.226  1.00  0.00     0.010 A 
ATOM     39  C   UNL     1      -2.669  -0.288   4.091  1.00  0.00    -0.014 A 
BRANCH  39  40
ATOM     40  C   UNL     1      -2.380   1.029   4.870  1.00  0.00     0.031 A 
ATOM     41  C   UNL     1      -3.039   2.216   4.278  1.00  0.00     0.074 A 
ATOM     42  C   UNL     1      -1.538   1.480   5.876  1.00  0.00     0.049 A 
ATOM     43  N   UNL     1      -4.199   2.709   4.567  1.00  0.00    -0.248 NA
ATOM     44  C   UNL     1      -2.293   2.920   3.238  1.00  0.00     0.031 C 
ATOM     45  C   UNL     1      -1.815   2.640   6.736  1.00  0.00     0.029 A 
ATOM     46  N   UNL     1      -0.266   1.120   6.359  1.00  0.00    -0.354 N 
ATOM     47  C   UNL     1      -4.336   3.812   3.731  1.00  0.00     0.074 A 
ATOM     48  C   UNL     1      -3.219   3.762   2.801  1.00  0.00     0.031 C 
ATOM     49  C   UNL     1      -0.744   2.944   7.497  1.00  0.00     0.029 A 
ATOM     50  C   UNL     1       0.385   2.126   7.086  1.00  0.00     0.049 A 
ATOM     51  H   UNL     1       0.133   0.234   6.199  1.00  0.00     0.167 HD
ATOM     52  C   UNL     1      -4.573   5.052   4.227  1.00  0.00     0.034 A 
ATOM     53  C   UNL     1       1.704   2.493   6.884  1.00  0.00     0.034 A 
ATOM     54  C   UNL     1      -3.558   5.599   5.122  1.00  0.00     0.049 A 
ATOM     55  C   UNL     1       1.736   3.928   6.395  1.00  0.00     0.074 A 
ATOM     56  C   UNL     1      -3.464   5.767   6.493  1.00  0.00     0.029 A 
ATOM     57  N   UNL     1      -2.303   5.946   4.621  1.00  0.00    -0.354 N 
ATOM     58  N   UNL     1       0.648   4.611   6.176  1.00  0.00    -0.248 NA
ATOM     59  C   UNL     1       2.934   4.669   6.011  1.00  0.00     0.031 C 
ATOM     60  C   UNL     1      -2.131   6.172   6.807  1.00  0.00     0.029 A 
ATOM     61  C   UNL     1      -1.415   6.295   5.629  1.00  0.00     0.049 A 
ATOM     62  H   UNL     1      -2.074   5.943   3.664  1.00  0.00     0.167 HD
ATOM     63  C   UNL     1       0.946   5.798   5.594  1.00  0.00     0.074 A 
ATOM     64  C   UNL     1       2.393   5.761   5.444  1.00  0.00     0.031 C 
ATOM     65  C   UNL     1      -0.038   6.700   5.309  1.00  0.00     0.034 A 
BRANCH  52  66
ATOM     66  C   UNL     1      -5.941   5.559   3.877  1.00  0.00     0.023 A 
ATOM     67  C   UNL     1      -6.499   6.616   4.608  1.00  0.00     0.012 A 
ATOM     68  C   UNL     1      -6.719   5.009   2.810  1.00  0.00     0.148 A 
ATOM     69  C   UNL     1      -7.787   7.087   4.323  1.00  0.00     0.002 A 
ATOM     70  C   UNL     1      -8.003   5.470   2.540  1.00  0.00     0.091 A 
ATOM     71  F   UNL     1      -6.204   4.024   2.057  1.00  0.00    -0.205 F 
ATOM     72  C   UNL     1      -8.540   6.514   3.297  1.00  0.00     0.022 A 
BRANCH  70  73
ATOM     73  S   UNL     1      -9.027   4.763   1.236  1.00  0.00     0.127 S 
ATOM     74  O   UNL     1     -10.009   3.997   2.003  1.00  0.00    -0.237 OA
ATOM     75  O   UNL     1      -9.568   5.951   0.575  1.00  0.00    -0.237 OA
ATOM     76  O   UNL     1      -8.138   3.965   0.400  1.00  0.00    -0.744 OA
ENDBRANCH  70  73
ENDBRANCH  52  66
BRANCH  53  77
ATOM     77  C   UNL     1       2.775   1.465   6.505  1.00  0.00     0.023 A 
ATOM     78  C   UNL     1       2.938   0.346   7.351  1.00  0.00     0.012 A 
ATOM     79  C   UNL     1       3.534   1.451   5.304  1.00  0.00     0.148 A 
ATOM     80  C   UNL     1       3.693  -0.777   6.971  1.00  0.00     0.002 A 
ATOM     81  C   UNL     1       4.234   0.303   4.898  1.00  0.00     0.091 A 
ATOM     82  F   UNL     1       3.554   2.539   4.525  1.00  0.00    -0.205 F 
ATOM     83  C   UNL     1       4.297  -0.822   5.723  1.00  0.00     0.022 A 
BRANCH  81  84
ATOM     84  S   UNL     1       4.924   0.119   3.238  1.00  0.00     0.127 S 
ATOM     85  O   UNL     1       6.359   0.232   3.484  1.00  0.00    -0.237 OA
ATOM     86  O   UNL     1       4.479  -1.224   2.860  1.00  0.00    -0.237 OA
ATOM     87  O   UNL     1       4.328   1.188   2.447  1.00  0.00    -0.744 OA
ENDBRANCH  81  84
ENDBRANCH  53  77
BRANCH  65  88
ATOM     88  C   UNL     1       0.255   8.089   4.801  1.00  0.00     0.023 A 
ATOM     89  C   UNL     1       1.480   8.733   5.072  1.00  0.00     0.012 A 
ATOM     90  C   UNL     1      -0.735   8.852   4.144  1.00  0.00     0.148 A 
ATOM     91  C   UNL     1       1.759  10.023   4.618  1.00  0.00     0.002 A 
ATOM     92  C   UNL     1      -0.492  10.170   3.781  1.00  0.00     0.091 A 
ATOM     93  F   UNL     1      -1.920   8.301   3.864  1.00  0.00    -0.205 F 
ATOM     94  C   UNL     1       0.766  10.746   3.978  1.00  0.00     0.022 A 
BRANCH  92  95
ATOM     95  S   UNL     1      -1.784  11.241   3.145  1.00  0.00     0.127 S 
ATOM     96  O   UNL     1      -1.802  12.304   4.152  1.00  0.00    -0.237 OA
ATOM     97  O   UNL     1      -1.233  11.634   1.850  1.00  0.00    -0.237 OA
ATOM     98  O   UNL     1      -2.995  10.435   3.089  1.00  0.00    -0.744 OA
ENDBRANCH  92  95
ENDBRANCH  65  88
ENDBRANCH  39  40
ENDBRANCH  32  34
ENDBRANCH  31  32
ENDBRANCH  30  31
ENDBRANCH  29  30
ENDBRANCH  28  29
ENDBRANCH  27  28
ENDBRANCH   1  27
TORSDOF 26
