REMARK SMILES C[C@H](Cc1ccco1)[NH2+]Cc1cc(C(=O)OCCOCCOCCOC(=O)c2ccc(-c3c4nc(c(-c5cccc(S(=O)(=O)[O-])c5F)c5ccc([nH]5)c(-c5cccc(S(=O)(=O)[O-])c5F)c5nc(c(-c6cccc(S(=O)(=O)[O-])c6F)c6ccc3[nH]6)C=C5)C=C4)cc2)cs1
REMARK SMILES IDX 20 1 19 2 18 3 17 4 16 5 14 6 15 7 13 8 11 9 12 10 92 11
REMARK SMILES IDX 91 12 10 13 9 14 2 17 1 18 3 19 4 20 5 21 8 22 6 23 7 24
REMARK SMILES IDX 21 25 22 26 23 27 24 28 25 29 26 30 27 31 28 32 29 33 90 34
REMARK SMILES IDX 30 35 89 36 31 37 32 38 33 39 83 40 34 41 88 42 82 43 84 44
REMARK SMILES IDX 35 45 87 46 81 47 80 48 36 50 68 51 48 52 67 53 49 54 52 55
REMARK SMILES IDX 66 56 85 57 50 58 51 59 65 61 86 62 53 63 37 64 38 65 46 66
REMARK SMILES IDX 39 67 41 68 47 69 40 70 42 71 43 72 44 73 45 74 69 75 70 76
REMARK SMILES IDX 78 77 71 78 73 79 79 80 72 81 74 82 75 83 76 84 77 85 54 86
REMARK SMILES IDX 55 87 63 88 56 89 58 90 64 91 57 92 59 93 60 94 61 95 62 96
REMARK H PARENT 9 15 9 16 84 49 52 60
REMARK Flexibility Score: inf
ROOT
ATOM      1  C   UNL     1       0.709   7.622  -4.024  1.00  0.00     0.188 C 
ENDROOT
BRANCH   1   2
ATOM      2  O   UNL     1       0.238   8.961  -4.057  1.00  0.00    -0.376 OA
BRANCH   2   3
ATOM      3  C   UNL     1      -1.110   9.136  -4.465  1.00  0.00     0.202 C 
BRANCH   3   4
ATOM      4  C   UNL     1      -2.126   8.809  -3.365  1.00  0.00     0.261 C 
BRANCH   4   5
ATOM      5  O   UNL     1      -2.075   7.460  -2.870  1.00  0.00    -0.460 OA
BRANCH   5   6
ATOM      6  C   UNL     1      -2.490   6.480  -3.719  1.00  0.00     0.339 C 
ATOM      7  O   UNL     1      -2.894   6.681  -4.857  1.00  0.00    -0.246 OA
BRANCH   6   8
ATOM      8  C   UNL     1      -2.357   5.149  -3.131  1.00  0.00     0.071 A 
ATOM      9  C   UNL     1      -2.099   3.467  -1.494  1.00  0.00     0.060 A 
ATOM     10  C   UNL     1      -2.191   4.826  -1.738  1.00  0.00     0.037 A 
ATOM     11  S   UNL     1      -2.241   2.576  -2.954  1.00  0.00    -0.142 S 
ATOM     12  C   UNL     1      -2.360   3.997  -3.893  1.00  0.00     0.081 A 
BRANCH   9  13
ATOM     13  C   UNL     1      -1.927   2.773  -0.163  1.00  0.00     0.308 C 
BRANCH  13  14
ATOM     14  N   UNL     1      -1.027   1.618  -0.198  1.00  0.00    -0.339 N 
ATOM     15  H   UNL     1      -1.323   0.972   0.534  1.00  0.00     0.346 HD
ATOM     16  H   UNL     1      -1.100   1.245  -1.144  1.00  0.00     0.346 HD
BRANCH  14  17
ATOM     17  C   UNL     1       0.411   1.902   0.005  1.00  0.00     0.187 C 
ATOM     18  C   UNL     1       0.959   3.014  -0.902  1.00  0.00     0.075 C 
BRANCH  17  19
ATOM     19  C   UNL     1       1.179   0.556  -0.151  1.00  0.00     0.140 C 
BRANCH  19  20
ATOM     20  C   UNL     1       2.623   0.726  -0.459  1.00  0.00     0.109 A 
ATOM     21  C   UNL     1       3.340   0.631  -1.634  1.00  0.00     0.046 A 
ATOM     22  O   UNL     1       3.432   1.142   0.555  1.00  0.00    -0.469 OA
ATOM     23  C   UNL     1       4.652   1.062  -1.332  1.00  0.00     0.042 A 
ATOM     24  C   UNL     1       4.660   1.352   0.012  1.00  0.00     0.195 A 
ENDBRANCH  19  20
ENDBRANCH  17  19
ENDBRANCH  14  17
ENDBRANCH  13  14
ENDBRANCH   9  13
ENDBRANCH   6   8
ENDBRANCH   5   6
ENDBRANCH   4   5
ENDBRANCH   3   4
ENDBRANCH   2   3
ENDBRANCH   1   2
BRANCH   1  25
ATOM     25  C   UNL     1       1.050   7.121  -2.606  1.00  0.00     0.188 C 
BRANCH  25  26
ATOM     26  O   UNL     1       1.194   8.039  -1.526  1.00  0.00    -0.376 OA
BRANCH  26  27
ATOM     27  C   UNL     1       1.838   9.286  -1.750  1.00  0.00     0.202 C 
BRANCH  27  28
ATOM     28  C   UNL     1       3.303   9.285  -2.204  1.00  0.00     0.261 C 
BRANCH  28  29
ATOM     29  O   UNL     1       3.565   8.482  -3.364  1.00  0.00    -0.460 OA
BRANCH  29  30
ATOM     30  C   UNL     1       4.357   7.401  -3.158  1.00  0.00     0.338 C 
ATOM     31  O   UNL     1       4.877   7.049  -2.113  1.00  0.00    -0.246 OA
BRANCH  30  32
ATOM     32  C   UNL     1       4.391   6.585  -4.386  1.00  0.00     0.060 A 
ATOM     33  C   UNL     1       3.892   5.276  -4.331  1.00  0.00     0.016 A 
ATOM     34  C   UNL     1       4.945   7.085  -5.565  1.00  0.00     0.016 A 
ATOM     35  C   UNL     1       3.943   4.462  -5.462  1.00  0.00     0.010 A 
ATOM     36  C   UNL     1       5.019   6.259  -6.689  1.00  0.00     0.010 A 
ATOM     37  C   UNL     1       4.531   4.941  -6.640  1.00  0.00    -0.014 A 
BRANCH  37  38
ATOM     38  C   UNL     1       4.734   4.042  -7.800  1.00  0.00     0.031 A 
ATOM     39  C   UNL     1       6.054   3.346  -7.963  1.00  0.00     0.074 A 
ATOM     40  C   UNL     1       3.769   3.896  -8.725  1.00  0.00     0.049 A 
ATOM     41  N   UNL     1       6.476   2.596  -8.947  1.00  0.00    -0.248 NA
ATOM     42  C   UNL     1       7.029   3.520  -6.874  1.00  0.00     0.031 C 
ATOM     43  C   UNL     1       2.446   4.515  -8.670  1.00  0.00     0.029 A 
ATOM     44  N   UNL     1       3.773   3.211  -9.915  1.00  0.00    -0.354 N 
ATOM     45  C   UNL     1       7.772   2.227  -8.611  1.00  0.00     0.074 A 
ATOM     46  C   UNL     1       8.069   2.836  -7.332  1.00  0.00     0.031 C 
ATOM     47  C   UNL     1       1.780   4.218  -9.799  1.00  0.00     0.029 A 
ATOM     48  C   UNL     1       2.640   3.414 -10.666  1.00  0.00     0.049 A 
ATOM     49  H   UNL     1       4.514   2.630 -10.201  1.00  0.00     0.167 HD
ATOM     50  C   UNL     1       8.633   1.444  -9.301  1.00  0.00     0.034 A 
ATOM     51  C   UNL     1       2.347   3.028 -11.924  1.00  0.00     0.034 A 
ATOM     52  C   UNL     1       8.336   0.837 -10.569  1.00  0.00     0.049 A 
ATOM     53  C   UNL     1       3.349   2.210 -12.698  1.00  0.00     0.074 A 
ATOM     54  C   UNL     1       9.123  -0.019 -11.319  1.00  0.00     0.029 A 
ATOM     55  N   UNL     1       7.170   1.042 -11.289  1.00  0.00    -0.354 N 
ATOM     56  N   UNL     1       4.515   1.751 -12.311  1.00  0.00    -0.248 NA
ATOM     57  C   UNL     1       2.988   1.840 -14.075  1.00  0.00     0.031 C 
ATOM     58  C   UNL     1       8.442  -0.311 -12.505  1.00  0.00     0.029 A 
ATOM     59  C   UNL     1       7.225   0.350 -12.486  1.00  0.00     0.049 A 
ATOM     60  H   UNL     1       6.413   1.598 -10.993  1.00  0.00     0.167 HD
ATOM     61  C   UNL     1       5.015   1.021 -13.385  1.00  0.00     0.074 A 
ATOM     62  C   UNL     1       4.015   1.079 -14.431  1.00  0.00     0.031 C 
ATOM     63  C   UNL     1       6.202   0.376 -13.501  1.00  0.00     0.034 A 
BRANCH  50  64
ATOM     64  C   UNL     1       9.977   1.175  -8.681  1.00  0.00     0.023 A 
ATOM     65  C   UNL     1      10.075   0.267  -7.608  1.00  0.00     0.012 A 
ATOM     66  C   UNL     1      11.144   1.775  -9.191  1.00  0.00     0.148 A 
ATOM     67  C   UNL     1      11.312  -0.021  -7.034  1.00  0.00     0.002 A 
ATOM     68  C   UNL     1      12.378   1.456  -8.636  1.00  0.00     0.091 A 
ATOM     69  F   UNL     1      11.025   2.656 -10.194  1.00  0.00    -0.205 F 
ATOM     70  C   UNL     1      12.463   0.565  -7.554  1.00  0.00     0.022 A 
BRANCH  68  71
ATOM     71  S   UNL     1      13.923   2.111  -9.279  1.00  0.00     0.127 S 
ATOM     72  O   UNL     1      14.281   3.084  -8.248  1.00  0.00    -0.237 OA
ATOM     73  O   UNL     1      14.773   0.920  -9.315  1.00  0.00    -0.237 OA
ATOM     74  O   UNL     1      13.607   2.668 -10.586  1.00  0.00    -0.744 OA
ENDBRANCH  68  71
ENDBRANCH  50  64
BRANCH  51  75
ATOM     75  C   UNL     1       1.037   3.398 -12.531  1.00  0.00     0.023 A 
ATOM     76  C   UNL     1       0.077   2.396 -12.768  1.00  0.00     0.012 A 
ATOM     77  C   UNL     1       0.733   4.734 -12.859  1.00  0.00     0.148 A 
ATOM     78  C   UNL     1      -1.155   2.714 -13.341  1.00  0.00     0.002 A 
ATOM     79  C   UNL     1      -0.515   5.051 -13.382  1.00  0.00     0.091 A 
ATOM     80  F   UNL     1       1.669   5.670 -12.648  1.00  0.00    -0.205 F 
ATOM     81  C   UNL     1      -1.456   4.041 -13.638  1.00  0.00     0.022 A 
BRANCH  79  82
ATOM     82  S   UNL     1      -1.030   6.746 -13.682  1.00  0.00     0.127 S 
ATOM     83  O   UNL     1      -1.010   6.812 -15.141  1.00  0.00    -0.237 OA
ATOM     84  O   UNL     1      -2.365   6.769 -13.082  1.00  0.00    -0.237 OA
ATOM     85  O   UNL     1      -0.051   7.579 -12.995  1.00  0.00    -0.744 OA
ENDBRANCH  79  82
ENDBRANCH  51  75
BRANCH  63  86
ATOM     86  C   UNL     1       6.495  -0.335 -14.796  1.00  0.00     0.023 A 
ATOM     87  C   UNL     1       6.843   0.417 -15.935  1.00  0.00     0.012 A 
ATOM     88  C   UNL     1       6.523  -1.742 -14.861  1.00  0.00     0.148 A 
ATOM     89  C   UNL     1       7.198  -0.220 -17.124  1.00  0.00     0.002 A 
ATOM     90  C   UNL     1       6.920  -2.371 -16.035  1.00  0.00     0.091 A 
ATOM     91  F   UNL     1       6.173  -2.439 -13.769  1.00  0.00    -0.205 F 
ATOM     92  C   UNL     1       7.249  -1.611 -17.170  1.00  0.00     0.022 A 
BRANCH  90  93
ATOM     93  S   UNL     1       7.104  -4.153 -16.165  1.00  0.00     0.127 S 
ATOM     94  O   UNL     1       5.993  -4.504 -17.048  1.00  0.00    -0.237 OA
ATOM     95  O   UNL     1       8.430  -4.285 -16.770  1.00  0.00    -0.237 OA
ATOM     96  O   UNL     1       7.005  -4.668 -14.806  1.00  0.00    -0.744 OA
ENDBRANCH  90  93
ENDBRANCH  63  86
ENDBRANCH  37  38
ENDBRANCH  30  32
ENDBRANCH  29  30
ENDBRANCH  28  29
ENDBRANCH  27  28
ENDBRANCH  26  27
ENDBRANCH  25  26
ENDBRANCH   1  25
TORSDOF 25
