REMARK SMILES CC[C@@H]1SC[C@H](C(=O)OCCOCCOCCOC(=O)c2ccc(-c3c4nc(c(-c5cccc(S(=O)(=O)[O-])c5F)c5ccc([nH]5)c(-c5cccc(S(=O)(=O)[O-])c5F)c5nc(c(-c6cccc(S(=O)(=O)[O-])c6F)c6ccc3[nH]6)C=C5)C=C4)cc2)N1C(=O)c1ccc(C)cc1F
REMARK SMILES IDX 14 1 13 2 12 3 11 4 10 5 9 6 7 7 8 8 6 9 3 10 4 11 84 12
REMARK SMILES IDX 5 13 2 14 1 15 85 16 86 17 87 18 88 19 93 20 89 21 92 22
REMARK SMILES IDX 94 23 90 24 91 25 15 26 16 27 17 28 18 29 19 30 20 31 21 32
REMARK SMILES IDX 22 33 83 34 23 35 82 36 24 37 25 38 26 39 76 40 27 41 81 42
REMARK SMILES IDX 75 43 77 44 28 45 80 46 74 47 73 48 29 50 61 51 41 52 60 53
REMARK SMILES IDX 42 54 45 55 59 56 78 57 43 58 44 59 58 61 79 62 46 63 30 64
REMARK SMILES IDX 31 65 39 66 32 67 34 68 40 69 33 70 35 71 36 72 37 73 38 74
REMARK SMILES IDX 62 75 63 76 71 77 64 78 66 79 72 80 65 81 67 82 68 83 69 84
REMARK SMILES IDX 70 85 47 86 48 87 56 88 49 89 51 90 57 91 50 92 52 93 53 94
REMARK SMILES IDX 54 95 55 96
REMARK H PARENT 77 49 45 60
REMARK Flexibility Score: inf
ROOT
ATOM      1  C   UNL     1       2.154   4.021   3.754  1.00  0.00     0.188 C 
ENDROOT
BRANCH   1   2
ATOM      2  C   UNL     1       0.939   4.947   3.560  1.00  0.00     0.188 C 
BRANCH   2   3
ATOM      3  O   UNL     1       0.113   5.317   4.659  1.00  0.00    -0.376 OA
BRANCH   3   4
ATOM      4  C   UNL     1       0.162   4.594   5.871  1.00  0.00     0.202 C 
BRANCH   4   5
ATOM      5  C   UNL     1      -0.461   3.196   5.891  1.00  0.00     0.261 C 
BRANCH   5   6
ATOM      6  O   UNL     1      -0.105   2.303   4.827  1.00  0.00    -0.462 OA
BRANCH   6   7
ATOM      7  C   UNL     1      -0.932   2.338   3.744  1.00  0.00     0.329 C 
ATOM      8  O   UNL     1      -1.728   3.238   3.500  1.00  0.00    -0.250 OA
BRANCH   7   9
ATOM      9  C   UNL     1      -0.706   1.168   2.777  1.00  0.00     0.206 C 
ATOM     10  C   UNL     1       0.742  -0.807   2.546  1.00  0.00     0.144 C 
ATOM     11  S   UNL     1       1.602   0.487   1.597  1.00  0.00    -0.134 SA
ATOM     12  N   UNL     1      -0.218  -0.087   3.386  1.00  0.00    -0.312 N 
ATOM     13  C   UNL     1       0.180   1.596   1.608  1.00  0.00     0.109 C 
BRANCH  10  14
ATOM     14  C   UNL     1       1.759  -1.789   3.144  1.00  0.00     0.033 C 
ATOM     15  C   UNL     1       2.803  -1.218   4.095  1.00  0.00     0.007 C 
ENDBRANCH  10  14
BRANCH  12  16
ATOM     16  C   UNL     1      -1.107  -0.606   4.330  1.00  0.00     0.258 C 
ATOM     17  O   UNL     1      -2.107   0.003   4.712  1.00  0.00    -0.269 OA
BRANCH  16  18
ATOM     18  C   UNL     1      -0.958  -1.942   4.882  1.00  0.00     0.075 A 
ATOM     19  C   UNL     1      -1.901  -2.910   4.529  1.00  0.00     0.017 A 
ATOM     20  C   UNL     1      -0.008  -2.208   5.859  1.00  0.00     0.136 A 
ATOM     21  C   UNL     1      -1.814  -4.184   5.083  1.00  0.00     0.004 A 
ATOM     22  C   UNL     1       0.104  -3.488   6.389  1.00  0.00     0.043 A 
ATOM     23  F   UNL     1       0.826  -1.254   6.291  1.00  0.00    -0.206 F 
ATOM     24  C   UNL     1      -0.781  -4.495   5.981  1.00  0.00    -0.048 A 
ATOM     25  C   UNL     1      -0.671  -5.879   6.545  1.00  0.00     0.044 C 
ENDBRANCH  16  18
ENDBRANCH  12  16
ENDBRANCH   7   9
ENDBRANCH   6   7
ENDBRANCH   5   6
ENDBRANCH   4   5
ENDBRANCH   3   4
ENDBRANCH   2   3
ENDBRANCH   1   2
BRANCH   1  26
ATOM     26  O   UNL     1       2.817   4.231   4.992  1.00  0.00    -0.376 OA
BRANCH  26  27
ATOM     27  C   UNL     1       4.149   4.702   4.917  1.00  0.00     0.202 C 
BRANCH  27  28
ATOM     28  C   UNL     1       4.284   6.187   4.559  1.00  0.00     0.261 C 
BRANCH  28  29
ATOM     29  O   UNL     1       3.576   6.615   3.384  1.00  0.00    -0.460 OA
BRANCH  29  30
ATOM     30  C   UNL     1       4.061   6.222   2.186  1.00  0.00     0.338 C 
ATOM     31  O   UNL     1       5.051   5.534   1.995  1.00  0.00    -0.246 OA
BRANCH  30  32
ATOM     32  C   UNL     1       3.086   6.606   1.136  1.00  0.00     0.060 A 
ATOM     33  C   UNL     1       2.578   5.613   0.288  1.00  0.00     0.016 A 
ATOM     34  C   UNL     1       2.672   7.933   0.986  1.00  0.00     0.016 A 
ATOM     35  C   UNL     1       1.694   5.953  -0.742  1.00  0.00     0.010 A 
ATOM     36  C   UNL     1       1.796   8.273  -0.052  1.00  0.00     0.010 A 
ATOM     37  C   UNL     1       1.332   7.292  -0.948  1.00  0.00    -0.014 A 
BRANCH  37  38
ATOM     38  C   UNL     1       0.633   7.692  -2.199  1.00  0.00     0.031 A 
ATOM     39  C   UNL     1       1.443   8.291  -3.319  1.00  0.00     0.074 A 
ATOM     40  C   UNL     1      -0.698   7.555  -2.349  1.00  0.00     0.049 A 
ATOM     41  N   UNL     1       1.052   8.731  -4.487  1.00  0.00    -0.248 NA
ATOM     42  C   UNL     1       2.890   8.419  -3.082  1.00  0.00     0.031 C 
ATOM     43  C   UNL     1      -1.611   7.016  -1.346  1.00  0.00     0.029 A 
ATOM     44  N   UNL     1      -1.514   7.898  -3.402  1.00  0.00    -0.354 N 
ATOM     45  C   UNL     1       2.194   9.223  -5.108  1.00  0.00     0.074 A 
ATOM     46  C   UNL     1       3.290   9.036  -4.182  1.00  0.00     0.031 C 
ATOM     47  C   UNL     1      -2.869   7.100  -1.815  1.00  0.00     0.029 A 
ATOM     48  C   UNL     1      -2.852   7.717  -3.142  1.00  0.00     0.049 A 
ATOM     49  H   UNL     1      -1.172   8.240  -4.260  1.00  0.00     0.167 HD
ATOM     50  C   UNL     1       2.328   9.771  -6.340  1.00  0.00     0.034 A 
ATOM     51  C   UNL     1      -3.939   8.036  -3.874  1.00  0.00     0.034 A 
ATOM     52  C   UNL     1       1.248   9.947  -7.272  1.00  0.00     0.049 A 
ATOM     53  C   UNL     1      -3.773   8.645  -5.244  1.00  0.00     0.074 A 
ATOM     54  C   UNL     1       1.304  10.415  -8.574  1.00  0.00     0.029 A 
ATOM     55  N   UNL     1      -0.087   9.694  -6.997  1.00  0.00    -0.354 N 
ATOM     56  N   UNL     1      -2.671   8.959  -5.881  1.00  0.00    -0.248 NA
ATOM     57  C   UNL     1      -5.001   8.910  -6.012  1.00  0.00     0.031 C 
ATOM     58  C   UNL     1      -0.002  10.487  -9.070  1.00  0.00     0.029 A 
ATOM     59  C   UNL     1      -0.868  10.020  -8.094  1.00  0.00     0.049 A 
ATOM     60  H   UNL     1      -0.429   9.336  -6.146  1.00  0.00     0.167 HD
ATOM     61  C   UNL     1      -3.068   9.428  -7.131  1.00  0.00     0.074 A 
ATOM     62  C   UNL     1      -4.513   9.340  -7.168  1.00  0.00     0.031 C 
ATOM     63  C   UNL     1      -2.303   9.895  -8.149  1.00  0.00     0.034 A 
BRANCH  50  64
ATOM     64  C   UNL     1       3.707  10.220  -6.750  1.00  0.00     0.023 A 
ATOM     65  C   UNL     1       4.711   9.265  -7.013  1.00  0.00     0.012 A 
ATOM     66  C   UNL     1       4.001  11.590  -6.896  1.00  0.00     0.148 A 
ATOM     67  C   UNL     1       5.998   9.668  -7.366  1.00  0.00     0.002 A 
ATOM     68  C   UNL     1       5.272  11.981  -7.297  1.00  0.00     0.091 A 
ATOM     69  F   UNL     1       3.042  12.485  -6.619  1.00  0.00    -0.205 F 
ATOM     70  C   UNL     1       6.276  11.024  -7.517  1.00  0.00     0.022 A 
BRANCH  68  71
ATOM     71  S   UNL     1       5.699  13.699  -7.600  1.00  0.00     0.127 S 
ATOM     72  O   UNL     1       6.516  14.011  -6.429  1.00  0.00    -0.237 OA
ATOM     73  O   UNL     1       6.444  13.615  -8.858  1.00  0.00    -0.237 OA
ATOM     74  O   UNL     1       4.434  14.414  -7.695  1.00  0.00    -0.744 OA
ENDBRANCH  68  71
ENDBRANCH  50  64
BRANCH  51  75
ATOM     75  C   UNL     1      -5.298   7.763  -3.323  1.00  0.00     0.023 A 
ATOM     76  C   UNL     1      -6.084   6.733  -3.872  1.00  0.00     0.012 A 
ATOM     77  C   UNL     1      -5.793   8.502  -2.231  1.00  0.00     0.148 A 
ATOM     78  C   UNL     1      -7.349   6.453  -3.352  1.00  0.00     0.002 A 
ATOM     79  C   UNL     1      -7.029   8.182  -1.684  1.00  0.00     0.091 A 
ATOM     80  F   UNL     1      -5.034   9.490  -1.738  1.00  0.00    -0.205 F 
ATOM     81  C   UNL     1      -7.816   7.168  -2.252  1.00  0.00     0.022 A 
BRANCH  79  82
ATOM     82  S   UNL     1      -7.662   8.964  -0.196  1.00  0.00     0.127 S 
ATOM     83  O   UNL     1      -8.846   9.654  -0.701  1.00  0.00    -0.237 OA
ATOM     84  O   UNL     1      -7.939   7.806   0.653  1.00  0.00    -0.237 OA
ATOM     85  O   UNL     1      -6.592   9.827   0.285  1.00  0.00    -0.744 OA
ENDBRANCH  79  82
ENDBRANCH  51  75
BRANCH  63  86
ATOM     86  C   UNL     1      -2.993  10.319  -9.422  1.00  0.00     0.023 A 
ATOM     87  C   UNL     1      -3.756  11.503  -9.453  1.00  0.00     0.012 A 
ATOM     88  C   UNL     1      -2.812   9.587 -10.614  1.00  0.00     0.148 A 
ATOM     89  C   UNL     1      -4.354  11.934 -10.639  1.00  0.00     0.002 A 
ATOM     90  C   UNL     1      -3.368  10.049 -11.803  1.00  0.00     0.091 A 
ATOM     91  F   UNL     1      -2.097   8.454 -10.566  1.00  0.00    -0.205 F 
ATOM     92  C   UNL     1      -4.149  11.215 -11.814  1.00  0.00     0.022 A 
BRANCH  90  93
ATOM     93  S   UNL     1      -3.076   9.243 -13.382  1.00  0.00     0.127 S 
ATOM     94  O   UNL     1      -4.383   8.650 -13.660  1.00  0.00    -0.237 OA
ATOM     95  O   UNL     1      -2.722  10.370 -14.246  1.00  0.00    -0.237 OA
ATOM     96  O   UNL     1      -1.996   8.293 -13.156  1.00  0.00    -0.744 OA
ENDBRANCH  90  93
ENDBRANCH  63  86
ENDBRANCH  37  38
ENDBRANCH  30  32
ENDBRANCH  29  30
ENDBRANCH  28  29
ENDBRANCH  27  28
ENDBRANCH  26  27
ENDBRANCH   1  26
TORSDOF 23
