REMARK SMILES Cc1cc(=O)cc(C)n1C[C@H]1CCCC[C@@H]1C(=O)OCCOCCOCCOC(=O)c1ccc(-c2c3nc(c(-c4cccc(S(=O)(=O)[O-])c4F)c4ccc([nH]4)c(-c4cccc(S(=O)(=O)[O-])c4F)c4nc(c(-c5cccc(S(=O)(=O)[O-])c5F)c5ccc2[nH]5)C=C4)C=C3)cc1
REMARK SMILES IDX 24 1 23 2 22 3 21 4 20 5 19 6 17 7 18 8 16 9 11 10 12 11
REMARK SMILES IDX 13 12 15 13 14 14 10 15 9 16 1 17 2 18 3 19 4 20 7 21 5 22
REMARK SMILES IDX 6 23 8 24 25 25 26 26 27 27 28 28 29 29 30 30 31 31 32 32
REMARK SMILES IDX 93 33 33 34 92 35 34 36 35 37 36 38 86 39 37 40 91 41 85 42
REMARK SMILES IDX 87 43 38 44 90 45 84 46 83 47 39 49 71 50 51 51 70 52 52 53
REMARK SMILES IDX 55 54 69 55 88 56 53 57 54 58 68 60 89 61 56 62 40 63 41 64
REMARK SMILES IDX 49 65 42 66 44 67 50 68 43 69 45 70 46 71 47 72 48 73 72 74
REMARK SMILES IDX 73 75 81 76 74 77 76 78 82 79 75 80 77 81 78 82 79 83 80 84
REMARK SMILES IDX 57 85 58 86 66 87 59 88 61 89 67 90 60 91 62 92 63 93 64 94
REMARK SMILES IDX 65 95
REMARK H PARENT 87 48 55 59
REMARK Flexibility Score: inf
ROOT
ATOM      1  C   UNL     1      -0.589  -2.593   0.377  1.00  0.00     0.188 C 
ENDROOT
BRANCH   1   2
ATOM      2  C   UNL     1      -0.569  -3.717  -0.683  1.00  0.00     0.188 C 
BRANCH   2   3
ATOM      3  O   UNL     1       0.655  -4.030  -1.323  1.00  0.00    -0.376 OA
BRANCH   3   4
ATOM      4  C   UNL     1       1.420  -2.948  -1.829  1.00  0.00     0.202 C 
BRANCH   4   5
ATOM      5  C   UNL     1       0.724  -1.952  -2.764  1.00  0.00     0.261 C 
BRANCH   5   6
ATOM      6  O   UNL     1      -0.438  -1.278  -2.209  1.00  0.00    -0.463 OA
BRANCH   6   7
ATOM      7  C   UNL     1      -1.301  -0.827  -3.154  1.00  0.00     0.309 C 
ATOM      8  O   UNL     1      -1.046  -0.918  -4.355  1.00  0.00    -0.252 OA
BRANCH   7   9
ATOM      9  C   UNL     1      -2.576  -0.090  -2.657  1.00  0.00     0.104 C 
ATOM     10  C   UNL     1      -3.247  -0.388  -1.264  1.00  0.00     0.023 C 
ATOM     11  C   UNL     1      -3.815  -1.813  -1.274  1.00  0.00     0.006 C 
ATOM     12  C   UNL     1      -4.754  -2.118  -2.442  1.00  0.00     0.000 C 
ATOM     13  C   UNL     1      -3.631  -0.294  -3.772  1.00  0.00     0.016 C 
ATOM     14  C   UNL     1      -4.148  -1.735  -3.784  1.00  0.00     0.001 C 
BRANCH  10  15
ATOM     15  C   UNL     1      -4.378   0.662  -0.940  1.00  0.00     0.126 C 
BRANCH  15  16
ATOM     16  N   UNL     1      -4.804   0.794   0.503  1.00  0.00    -0.349 N 
ATOM     17  C   UNL     1      -3.196   2.760   0.786  1.00  0.00     0.064 C 
ATOM     18  C   UNL     1      -4.273   1.844   1.314  1.00  0.00     0.018 A 
ATOM     19  C   UNL     1      -4.722   2.114   2.556  1.00  0.00     0.073 A 
ATOM     20  C   UNL     1      -5.809   1.321   3.141  1.00  0.00     0.182 A 
ATOM     21  C   UNL     1      -5.901   0.056   1.055  1.00  0.00     0.018 A 
ATOM     22  O   UNL     1      -6.247   1.562   4.260  1.00  0.00    -0.290 OA
ATOM     23  C   UNL     1      -6.373   0.262   2.300  1.00  0.00     0.073 A 
ATOM     24  C   UNL     1      -6.685  -0.964   0.270  1.00  0.00     0.064 C 
ENDBRANCH  15  16
ENDBRANCH  10  15
ENDBRANCH   7   9
ENDBRANCH   6   7
ENDBRANCH   5   6
ENDBRANCH   4   5
ENDBRANCH   3   4
ENDBRANCH   2   3
ENDBRANCH   1   2
BRANCH   1  25
ATOM     25  O   UNL     1       0.593  -2.225   1.067  1.00  0.00    -0.376 OA
BRANCH  25  26
ATOM     26  C   UNL     1       1.385  -3.255   1.634  1.00  0.00     0.202 C 
BRANCH  26  27
ATOM     27  C   UNL     1       0.735  -4.181   2.666  1.00  0.00     0.261 C 
BRANCH  27  28
ATOM     28  O   UNL     1      -0.469  -4.820   2.208  1.00  0.00    -0.460 OA
BRANCH  28  29
ATOM     29  C   UNL     1      -1.583  -4.545   2.926  1.00  0.00     0.338 C 
ATOM     30  O   UNL     1      -1.662  -3.842   3.931  1.00  0.00    -0.246 OA
BRANCH  29  31
ATOM     31  C   UNL     1      -2.770  -5.087   2.247  1.00  0.00     0.060 A 
ATOM     32  C   UNL     1      -3.652  -4.195   1.628  1.00  0.00     0.016 A 
ATOM     33  C   UNL     1      -3.074  -6.448   2.310  1.00  0.00     0.016 A 
ATOM     34  C   UNL     1      -4.837  -4.662   1.065  1.00  0.00     0.010 A 
ATOM     35  C   UNL     1      -4.287  -6.906   1.779  1.00  0.00     0.010 A 
ATOM     36  C   UNL     1      -5.185  -6.010   1.174  1.00  0.00    -0.014 A 
BRANCH  36  37
ATOM     37  C   UNL     1      -6.568  -6.422   0.827  1.00  0.00     0.031 A 
ATOM     38  C   UNL     1      -7.583  -6.537   1.931  1.00  0.00     0.074 A 
ATOM     39  C   UNL     1      -6.945  -6.617  -0.450  1.00  0.00     0.049 A 
ATOM     40  N   UNL     1      -8.820  -6.952   1.876  1.00  0.00    -0.248 NA
ATOM     41  C   UNL     1      -7.148  -6.109   3.271  1.00  0.00     0.031 C 
ATOM     42  C   UNL     1      -6.091  -6.433  -1.622  1.00  0.00     0.029 A 
ATOM     43  N   UNL     1      -8.150  -7.021  -0.971  1.00  0.00    -0.354 N 
ATOM     44  C   UNL     1      -9.303  -6.871   3.176  1.00  0.00     0.074 A 
ATOM     45  C   UNL     1      -8.229  -6.358   3.998  1.00  0.00     0.031 C 
ATOM     46  C   UNL     1      -6.795  -6.744  -2.725  1.00  0.00     0.029 A 
ATOM     47  C   UNL     1      -8.130  -7.195  -2.335  1.00  0.00     0.049 A 
ATOM     48  H   UNL     1      -8.952  -7.172  -0.419  1.00  0.00     0.167 HD
ATOM     49  C   UNL     1     -10.532  -7.187   3.644  1.00  0.00     0.034 A 
ATOM     50  C   UNL     1      -9.068  -7.695  -3.166  1.00  0.00     0.034 A 
ATOM     51  C   UNL     1     -11.608  -7.679   2.828  1.00  0.00     0.049 A 
ATOM     52  C   UNL     1     -10.397  -8.139  -2.604  1.00  0.00     0.074 A 
ATOM     53  C   UNL     1     -12.882  -8.046   3.222  1.00  0.00     0.029 A 
ATOM     54  N   UNL     1     -11.540  -7.874   1.459  1.00  0.00    -0.354 N 
ATOM     55  N   UNL     1     -10.852  -8.036  -1.378  1.00  0.00    -0.248 NA
ATOM     56  C   UNL     1     -11.347  -8.758  -3.542  1.00  0.00     0.031 C 
ATOM     57  C   UNL     1     -13.578  -8.486   2.092  1.00  0.00     0.029 A 
ATOM     58  C   UNL     1     -12.746  -8.366   0.991  1.00  0.00     0.049 A 
ATOM     59  H   UNL     1     -10.750  -7.690   0.900  1.00  0.00     0.167 HD
ATOM     60  C   UNL     1     -12.146  -8.550  -1.404  1.00  0.00     0.074 A 
ATOM     61  C   UNL     1     -12.412  -8.943  -2.771  1.00  0.00     0.031 C 
ATOM     62  C   UNL     1     -13.025  -8.701  -0.382  1.00  0.00     0.034 A 
BRANCH  49  63
ATOM     63  C   UNL     1     -10.790  -7.005   5.115  1.00  0.00     0.023 A 
ATOM     64  C   UNL     1     -10.986  -5.710   5.634  1.00  0.00     0.012 A 
ATOM     65  C   UNL     1     -10.915  -8.121   5.965  1.00  0.00     0.148 A 
ATOM     66  C   UNL     1     -11.284  -5.527   6.983  1.00  0.00     0.002 A 
ATOM     67  C   UNL     1     -11.255  -7.933   7.299  1.00  0.00     0.091 A 
ATOM     68  F   UNL     1     -10.700  -9.341   5.453  1.00  0.00    -0.205 F 
ATOM     69  C   UNL     1     -11.431  -6.637   7.811  1.00  0.00     0.022 A 
BRANCH  67  70
ATOM     70  S   UNL     1     -11.545  -9.301   8.426  1.00  0.00     0.127 S 
ATOM     71  O   UNL     1     -10.411  -9.175   9.341  1.00  0.00    -0.237 OA
ATOM     72  O   UNL     1     -12.840  -8.949   9.008  1.00  0.00    -0.237 OA
ATOM     73  O   UNL     1     -11.552 -10.505   7.607  1.00  0.00    -0.744 OA
ENDBRANCH  67  70
ENDBRANCH  49  63
BRANCH  50  74
ATOM     74  C   UNL     1      -8.792  -7.799  -4.629  1.00  0.00     0.023 A 
ATOM     75  C   UNL     1      -9.528  -7.007  -5.531  1.00  0.00     0.012 A 
ATOM     76  C   UNL     1      -7.799  -8.664  -5.130  1.00  0.00     0.148 A 
ATOM     77  C   UNL     1      -9.295  -7.088  -6.905  1.00  0.00     0.002 A 
ATOM     78  C   UNL     1      -7.529  -8.695  -6.493  1.00  0.00     0.091 A 
ATOM     79  F   UNL     1      -7.128  -9.431  -4.260  1.00  0.00    -0.205 F 
ATOM     80  C   UNL     1      -8.287  -7.921  -7.385  1.00  0.00     0.022 A 
BRANCH  78  81
ATOM     81  S   UNL     1      -6.165  -9.636  -7.187  1.00  0.00     0.127 S 
ATOM     82  O   UNL     1      -6.868 -10.659  -7.957  1.00  0.00    -0.237 OA
ATOM     83  O   UNL     1      -5.480  -8.621  -7.989  1.00  0.00    -0.237 OA
ATOM     84  O   UNL     1      -5.400 -10.120  -6.046  1.00  0.00    -0.744 OA
ENDBRANCH  78  81
ENDBRANCH  50  74
BRANCH  62  85
ATOM     85  C   UNL     1     -14.377  -9.299  -0.681  1.00  0.00     0.023 A 
ATOM     86  C   UNL     1     -14.485 -10.679  -0.941  1.00  0.00     0.012 A 
ATOM     87  C   UNL     1     -15.550  -8.522  -0.576  1.00  0.00     0.148 A 
ATOM     88  C   UNL     1     -15.736 -11.274  -1.108  1.00  0.00     0.002 A 
ATOM     89  C   UNL     1     -16.794  -9.131  -0.694  1.00  0.00     0.091 A 
ATOM     90  F   UNL     1     -15.426  -7.207  -0.342  1.00  0.00    -0.205 F 
ATOM     91  C   UNL     1     -16.888 -10.505  -0.970  1.00  0.00     0.022 A 
BRANCH  89  92
ATOM     92  S   UNL     1     -18.335  -8.245  -0.427  1.00  0.00     0.127 S 
ATOM     93  O   UNL     1     -18.886  -8.191  -1.780  1.00  0.00    -0.237 OA
ATOM     94  O   UNL     1     -19.050  -9.135   0.488  1.00  0.00    -0.237 OA
ATOM     95  O   UNL     1     -17.965  -6.958   0.147  1.00  0.00    -0.744 OA
ENDBRANCH  89  92
ENDBRANCH  62  85
ENDBRANCH  36  37
ENDBRANCH  29  31
ENDBRANCH  28  29
ENDBRANCH  27  28
ENDBRANCH  26  27
ENDBRANCH  25  26
ENDBRANCH   1  25
TORSDOF 22
