REMARK SMILES O=C(OCCOCCOCCOC(=O)c1cc(-c2ccc(F)c(C(F)(F)F)c2)cnc1O)c1ccc(-c2c3nc(c(-c4cccc(S(=O)(=O)[O-])c4F)c4ccc([nH]4)c(-c4cccc(S(=O)(=O)[O-])c4F)c4nc(c(-c5cccc(S(=O)(=O)[O-])c5F)c5ccc2[nH]5)C=C4)C=C3)cc1
REMARK SMILES IDX 7 1 6 2 5 3 4 4 3 5 2 6 1 7 33 8 34 9 95 10 35 11 94 12
REMARK SMILES IDX 36 13 37 14 38 15 88 16 39 17 93 18 87 19 89 20 40 21 92 22
REMARK SMILES IDX 86 23 85 24 41 26 73 27 53 28 72 29 54 30 57 31 71 32 90 33
REMARK SMILES IDX 55 34 56 35 70 37 91 38 58 39 42 40 43 41 51 42 44 43 46 44
REMARK SMILES IDX 52 45 45 46 47 47 48 48 49 49 50 50 74 51 75 52 83 53 76 54
REMARK SMILES IDX 78 55 84 56 77 57 79 58 80 59 81 60 82 61 59 62 60 63 68 64
REMARK SMILES IDX 61 65 63 66 69 67 62 68 64 69 65 70 66 71 67 72 8 73 9 74
REMARK SMILES IDX 10 75 11 76 12 77 13 78 14 79 15 80 16 81 31 82 17 83 30 84
REMARK SMILES IDX 29 85 32 86 18 88 19 89 28 90 20 91 23 92 21 93 22 94 24 95
REMARK SMILES IDX 25 96 26 97 27 98
REMARK H PARENT 89 25 57 36 32 87
REMARK Flexibility Score: inf
ROOT
ATOM      1  C   UNL     1       3.184   0.896   1.351  1.00  0.00     0.188 C 
ENDROOT
BRANCH   1   2
ATOM      2  O   UNL     1       4.577   0.857   1.121  1.00  0.00    -0.376 OA
BRANCH   2   3
ATOM      3  C   UNL     1       5.135   1.257  -0.116  1.00  0.00     0.202 C 
BRANCH   3   4
ATOM      4  C   UNL     1       4.617   0.682  -1.438  1.00  0.00     0.261 C 
BRANCH   4   5
ATOM      5  O   UNL     1       3.380  -0.026  -1.374  1.00  0.00    -0.460 OA
BRANCH   5   6
ATOM      6  C   UNL     1       3.383  -1.385  -1.408  1.00  0.00     0.338 C 
ATOM      7  O   UNL     1       2.653  -2.011  -2.166  1.00  0.00    -0.246 OA
BRANCH   6   8
ATOM      8  C   UNL     1       3.959  -2.020  -0.195  1.00  0.00     0.060 A 
ATOM      9  C   UNL     1       3.076  -2.728   0.623  1.00  0.00     0.016 A 
ATOM     10  C   UNL     1       5.305  -1.926   0.168  1.00  0.00     0.016 A 
ATOM     11  C   UNL     1       3.529  -3.291   1.817  1.00  0.00     0.010 A 
ATOM     12  C   UNL     1       5.746  -2.448   1.389  1.00  0.00     0.010 A 
ATOM     13  C   UNL     1       4.859  -3.139   2.221  1.00  0.00    -0.014 A 
BRANCH  13  14
ATOM     14  C   UNL     1       5.369  -3.990   3.318  1.00  0.00     0.031 A 
ATOM     15  C   UNL     1       5.563  -3.510   4.722  1.00  0.00     0.074 A 
ATOM     16  C   UNL     1       5.660  -5.259   2.977  1.00  0.00     0.049 A 
ATOM     17  N   UNL     1       5.933  -4.202   5.769  1.00  0.00    -0.248 NA
ATOM     18  C   UNL     1       5.302  -2.091   5.000  1.00  0.00     0.031 C 
ATOM     19  C   UNL     1       5.521  -5.808   1.624  1.00  0.00     0.029 A 
ATOM     20  N   UNL     1       6.154  -6.299   3.713  1.00  0.00    -0.354 N 
ATOM     21  C   UNL     1       5.928  -3.315   6.839  1.00  0.00     0.074 A 
ATOM     22  C   UNL     1       5.543  -2.026   6.308  1.00  0.00     0.031 C 
ATOM     23  C   UNL     1       5.961  -7.070   1.617  1.00  0.00     0.029 A 
ATOM     24  C   UNL     1       6.421  -7.413   2.957  1.00  0.00     0.049 A 
ATOM     25  H   UNL     1       6.302  -6.254   4.686  1.00  0.00     0.167 HD
ATOM     26  C   UNL     1       6.201  -3.572   8.140  1.00  0.00     0.034 A 
ATOM     27  C   UNL     1       6.992  -8.582   3.294  1.00  0.00     0.034 A 
ATOM     28  C   UNL     1       6.618  -4.860   8.634  1.00  0.00     0.049 A 
ATOM     29  C   UNL     1       7.351  -8.822   4.723  1.00  0.00     0.074 A 
ATOM     30  C   UNL     1       6.882  -5.233   9.941  1.00  0.00     0.029 A 
ATOM     31  N   UNL     1       6.861  -5.973   7.844  1.00  0.00    -0.354 N 
ATOM     32  N   UNL     1       7.198  -8.016   5.745  1.00  0.00    -0.248 NA
ATOM     33  C   UNL     1       7.920 -10.131   5.061  1.00  0.00     0.031 C 
ATOM     34  C   UNL     1       7.314  -6.561   9.937  1.00  0.00     0.029 A 
ATOM     35  C   UNL     1       7.299  -7.023   8.630  1.00  0.00     0.049 A 
ATOM     36  H   UNL     1       6.740  -6.010   6.868  1.00  0.00     0.167 HD
ATOM     37  C   UNL     1       7.631  -8.726   6.854  1.00  0.00     0.074 A 
ATOM     38  C   UNL     1       8.048 -10.031   6.380  1.00  0.00     0.031 C 
ATOM     39  C   UNL     1       7.681  -8.324   8.146  1.00  0.00     0.034 A 
BRANCH  26  40
ATOM     40  C   UNL     1       6.007  -2.484   9.166  1.00  0.00     0.023 A 
ATOM     41  C   UNL     1       4.710  -2.255   9.668  1.00  0.00     0.012 A 
ATOM     42  C   UNL     1       7.105  -1.841   9.772  1.00  0.00     0.148 A 
ATOM     43  C   UNL     1       4.511  -1.421  10.768  1.00  0.00     0.002 A 
ATOM     44  C   UNL     1       6.900  -1.022  10.879  1.00  0.00     0.091 A 
ATOM     45  F   UNL     1       8.330  -2.074   9.278  1.00  0.00    -0.205 F 
ATOM     46  C   UNL     1       5.604  -0.816  11.381  1.00  0.00     0.022 A 
BRANCH  44  47
ATOM     47  S   UNL     1       8.242  -0.223  11.769  1.00  0.00     0.127 S 
ATOM     48  O   UNL     1       7.912   1.192  11.597  1.00  0.00    -0.237 OA
ATOM     49  O   UNL     1       8.057  -0.730  13.128  1.00  0.00    -0.237 OA
ATOM     50  O   UNL     1       9.472  -0.646  11.115  1.00  0.00    -0.744 OA
ENDBRANCH  44  47
ENDBRANCH  26  40
BRANCH  27  51
ATOM     51  C   UNL     1       7.190  -9.592   2.225  1.00  0.00     0.023 A 
ATOM     52  C   UNL     1       6.279 -10.655   2.105  1.00  0.00     0.012 A 
ATOM     53  C   UNL     1       8.161  -9.387   1.224  1.00  0.00     0.148 A 
ATOM     54  C   UNL     1       6.328 -11.499   0.996  1.00  0.00     0.002 A 
ATOM     55  C   UNL     1       8.174 -10.202   0.101  1.00  0.00     0.091 A 
ATOM     56  F   UNL     1       9.010  -8.359   1.366  1.00  0.00    -0.205 F 
ATOM     57  C   UNL     1       7.263 -11.264  -0.012  1.00  0.00     0.022 A 
BRANCH  55  58
ATOM     58  S   UNL     1       9.243  -9.880  -1.307  1.00  0.00     0.127 S 
ATOM     59  O   UNL     1      10.194 -10.985  -1.217  1.00  0.00    -0.237 OA
ATOM     60  O   UNL     1       8.304  -9.964  -2.426  1.00  0.00    -0.237 OA
ATOM     61  O   UNL     1       9.796  -8.550  -1.088  1.00  0.00    -0.744 OA
ENDBRANCH  55  58
ENDBRANCH  27  51
BRANCH  39  62
ATOM     62  C   UNL     1       8.209  -9.294   9.162  1.00  0.00     0.023 A 
ATOM     63  C   UNL     1       9.600  -9.435   9.317  1.00  0.00     0.012 A 
ATOM     64  C   UNL     1       7.334  -9.941  10.056  1.00  0.00     0.148 A 
ATOM     65  C   UNL     1      10.117 -10.207  10.354  1.00  0.00     0.002 A 
ATOM     66  C   UNL     1       7.857 -10.682  11.107  1.00  0.00     0.091 A 
ATOM     67  F   UNL     1       6.014  -9.787   9.879  1.00  0.00    -0.205 F 
ATOM     68  C   UNL     1       9.248 -10.819  11.256  1.00  0.00     0.022 A 
BRANCH  66  69
ATOM     69  S   UNL     1       6.825 -11.448  12.361  1.00  0.00     0.127 S 
ATOM     70  O   UNL     1       7.160 -12.863  12.199  1.00  0.00    -0.237 OA
ATOM     71  O   UNL     1       7.333 -10.837  13.589  1.00  0.00    -0.237 OA
ATOM     72  O   UNL     1       5.451 -11.102  12.025  1.00  0.00    -0.744 OA
ENDBRANCH  66  69
ENDBRANCH  39  62
ENDBRANCH  13  14
ENDBRANCH   6   8
ENDBRANCH   5   6
ENDBRANCH   4   5
ENDBRANCH   3   4
ENDBRANCH   2   3
ENDBRANCH   1   2
BRANCH   1  73
ATOM     73  C   UNL     1       2.386   2.196   1.210  1.00  0.00     0.188 C 
BRANCH  73  74
ATOM     74  O   UNL     1       2.998   3.469   1.278  1.00  0.00    -0.376 OA
BRANCH  74  75
ATOM     75  C   UNL     1       4.128   3.691   2.100  1.00  0.00     0.202 C 
BRANCH  75  76
ATOM     76  C   UNL     1       4.025   3.516   3.617  1.00  0.00     0.261 C 
BRANCH  76  77
ATOM     77  O   UNL     1       3.609   2.219   4.074  1.00  0.00    -0.459 OA
BRANCH  77  78
ATOM     78  C   UNL     1       2.342   2.128   4.529  1.00  0.00     0.343 C 
ATOM     79  O   UNL     1       1.472   3.005   4.490  1.00  0.00    -0.246 OA
BRANCH  78  80
ATOM     80  C   UNL     1       2.100   0.781   5.034  1.00  0.00     0.122 A 
ATOM     81  C   UNL     1       1.149  -0.054   4.422  1.00  0.00     0.031 A 
ATOM     82  C   UNL     1       2.748   0.336   6.175  1.00  0.00     0.225 A 
ATOM     83  C   UNL     1       0.890  -1.321   4.960  1.00  0.00     0.001 A 
ATOM     84  N   UNL     1       2.502  -0.861   6.730  1.00  0.00    -0.221 NA
ATOM     85  C   UNL     1       1.605  -1.663   6.111  1.00  0.00     0.124 A 
BRANCH  82  86
ATOM     86  O   UNL     1       3.675   1.072   6.846  1.00  0.00    -0.493 OA
ATOM     87  H   UNL     1       3.913   1.923   6.534  1.00  0.00     0.295 HD
ENDBRANCH  82  86
BRANCH  83  88
ATOM     88  C   UNL     1      -0.095  -2.261   4.404  1.00  0.00    -0.016 A 
ATOM     89  C   UNL     1      -1.295  -2.509   5.086  1.00  0.00     0.012 A 
ATOM     90  C   UNL     1       0.179  -3.027   3.258  1.00  0.00     0.025 A 
ATOM     91  C   UNL     1      -2.169  -3.511   4.658  1.00  0.00     0.040 A 
ATOM     92  C   UNL     1      -0.667  -4.076   2.847  1.00  0.00     0.092 A 
ATOM     93  C   UNL     1      -1.841  -4.292   3.556  1.00  0.00     0.135 A 
ATOM     94  F   UNL     1      -2.675  -5.273   3.188  1.00  0.00    -0.206 F 
BRANCH  92  95
ATOM     95  C   UNL     1      -0.342  -5.004   1.711  1.00  0.00     0.419 C 
ATOM     96  F   UNL     1      -0.306  -6.312   2.085  1.00  0.00    -0.166 F 
ATOM     97  F   UNL     1      -1.242  -4.924   0.692  1.00  0.00    -0.166 F 
ATOM     98  F   UNL     1       0.869  -4.754   1.145  1.00  0.00    -0.166 F 
ENDBRANCH  92  95
ENDBRANCH  83  88
ENDBRANCH  78  80
ENDBRANCH  77  78
ENDBRANCH  76  77
ENDBRANCH  75  76
ENDBRANCH  74  75
ENDBRANCH  73  74
ENDBRANCH   1  73
TORSDOF 23
