REMARK SMILES Cc1ccccc1C(=O)Nc1ccc(OCC(=O)OCCOCCOCCOC(=O)c2ccc(-c3c4nc(c(-c5cccc(S(=O)(=O)[O-])c5F)c5ccc([nH]5)c(-c5cccc(S(=O)(=O)[O-])c5F)c5nc(c(-c6cccc(S(=O)(=O)[O-])c6F)c6ccc3[nH]6)C=C5)C=C4)cc2)c(-c2nc3ccccc3s2)c1
REMARK SMILES IDX 23 1 22 2 21 3 20 4 19 5 17 6 18 7 16 8 15 9 14 10 11 11
REMARK SMILES IDX 12 12 104 13 13 14 94 15 10 16 8 17 9 18 7 20 1 21 2 22 3 23
REMARK SMILES IDX 4 24 6 25 5 26 95 27 96 28 103 29 97 30 102 31 98 32 101 33
REMARK SMILES IDX 99 34 100 35 24 36 25 37 26 38 27 39 28 40 29 41 30 42 31 43
REMARK SMILES IDX 32 44 93 45 33 46 92 47 34 48 35 49 36 50 86 51 37 52 91 53
REMARK SMILES IDX 85 54 87 55 38 56 90 57 84 58 83 59 39 61 71 62 51 63 70 64
REMARK SMILES IDX 52 65 55 66 69 67 88 68 53 69 54 70 68 72 89 73 56 74 40 75
REMARK SMILES IDX 41 76 49 77 42 78 44 79 50 80 43 81 45 82 46 83 47 84 48 85
REMARK SMILES IDX 72 86 73 87 81 88 74 89 76 90 82 91 75 92 77 93 78 94 79 95
REMARK SMILES IDX 80 96 57 97 58 98 66 99 59 100 61 101 67 102 60 103 62 104
REMARK SMILES IDX 63 105 64 106 65 107
REMARK H PARENT 10 19 87 60 55 71
REMARK Flexibility Score: inf
ROOT
ATOM      1  C   UNL     1      -0.268  -3.199   0.432  1.00  0.00     0.188 C 
ENDROOT
BRANCH   1   2
ATOM      2  O   UNL     1      -0.089  -4.616   0.605  1.00  0.00    -0.376 OA
BRANCH   2   3
ATOM      3  C   UNL     1       0.779  -5.119   1.702  1.00  0.00     0.202 C 
BRANCH   3   4
ATOM      4  C   UNL     1       2.567  -5.211   1.974  1.00  0.00     0.261 C 
BRANCH   4   5
ATOM      5  O   UNL     1       4.181  -4.399   1.722  1.00  0.00    -0.461 OA
BRANCH   5   6
ATOM      6  C   UNL     1       5.543  -4.314   0.953  1.00  0.00     0.344 C 
ATOM      7  O   UNL     1       6.023  -5.014   0.041  1.00  0.00    -0.248 OA
BRANCH   6   8
ATOM      8  C   UNL     1       6.385  -3.103   1.061  1.00  0.00     0.352 C 
BRANCH   8   9
ATOM      9  O   UNL     1       5.633  -1.951   1.243  1.00  0.00    -0.481 OA
BRANCH   9  10
ATOM     10  C   UNL     1       5.132  -1.299   0.068  1.00  0.00     0.130 A 
ATOM     11  C   UNL     1       3.524   1.805  -1.097  1.00  0.00     0.042 A 
ATOM     12  C   UNL     1       5.040   1.783  -0.200  1.00  0.00     0.030 A 
ATOM     13  C   UNL     1       2.832   0.367  -1.664  1.00  0.00     0.041 A 
ATOM     14  C   UNL     1       5.866   0.334   0.378  1.00  0.00     0.049 A 
ATOM     15  C   UNL     1       3.389  -1.297  -1.119  1.00  0.00     0.055 A 
BRANCH  11  16
ATOM     16  N   UNL     1       2.664   2.997  -0.894  1.00  0.00    -0.322 N 
ATOM     17  C   UNL     1       1.275   3.393  -0.885  1.00  0.00     0.255 C 
ATOM     18  O   UNL     1       1.059   4.615  -0.934  1.00  0.00    -0.269 OA
ATOM     19  H   UNL     1       3.229   3.779  -0.700  1.00  0.00     0.170 HD
BRANCH  17  20
ATOM     20  C   UNL     1       0.009   2.590  -0.587  1.00  0.00     0.043 A 
ATOM     21  C   UNL     1       0.641   2.464   1.800  1.00  0.00     0.045 C 
ATOM     22  C   UNL     1      -0.139   1.952   0.620  1.00  0.00    -0.038 A 
ATOM     23  C   UNL     1      -1.090   0.895   0.662  1.00  0.00     0.004 A 
ATOM     24  C   UNL     1      -2.199   0.846  -0.139  1.00  0.00     0.000 A 
ATOM     25  C   UNL     1      -1.262   2.804  -1.166  1.00  0.00     0.014 A 
ATOM     26  C   UNL     1      -2.382   1.956  -0.910  1.00  0.00     0.001 A 
ENDBRANCH  17  20
ENDBRANCH  11  16
BRANCH  15  27
ATOM     27  C   UNL     1       3.180  -1.808  -2.884  1.00  0.00     0.128 A 
ATOM     28  N   UNL     1       2.367  -0.998  -4.133  1.00  0.00    -0.236 NA
ATOM     29  S   UNL     1       4.047  -3.736  -3.788  1.00  0.00    -0.114 S 
ATOM     30  C   UNL     1       2.021  -1.952  -5.777  1.00  0.00     0.082 A 
ATOM     31  C   UNL     1       2.902  -3.448  -5.782  1.00  0.00     0.055 A 
ATOM     32  C   UNL     1       1.018  -1.826  -6.745  1.00  0.00     0.030 A 
ATOM     33  C   UNL     1       2.603  -4.452  -6.726  1.00  0.00     0.021 A 
ATOM     34  C   UNL     1       0.685  -3.006  -7.458  1.00  0.00     0.002 A 
ATOM     35  C   UNL     1       1.410  -4.235  -7.435  1.00  0.00     0.002 A 
ENDBRANCH  15  27
ENDBRANCH   9  10
ENDBRANCH   8   9
ENDBRANCH   6   8
ENDBRANCH   5   6
ENDBRANCH   4   5
ENDBRANCH   3   4
ENDBRANCH   2   3
ENDBRANCH   1   2
BRANCH   1  36
ATOM     36  C   UNL     1       0.860  -2.633   1.142  1.00  0.00     0.188 C 
BRANCH  36  37
ATOM     37  O   UNL     1       1.018  -2.881   2.515  1.00  0.00    -0.376 OA
BRANCH  37  38
ATOM     38  C   UNL     1       1.028  -1.842   3.449  1.00  0.00     0.202 C 
BRANCH  38  39
ATOM     39  C   UNL     1       0.822  -0.434   2.919  1.00  0.00     0.261 C 
BRANCH  39  40
ATOM     40  O   UNL     1       1.912   0.220   2.125  1.00  0.00    -0.460 OA
BRANCH  40  41
ATOM     41  C   UNL     1       2.114   0.225   0.693  1.00  0.00     0.338 C 
ATOM     42  O   UNL     1       1.192  -0.022  -0.078  1.00  0.00    -0.246 OA
BRANCH  41  43
ATOM     43  C   UNL     1       3.777   0.055   0.249  1.00  0.00     0.060 A 
ATOM     44  C   UNL     1       4.890  -0.306  -1.441  1.00  0.00     0.016 A 
ATOM     45  C   UNL     1       3.418  -1.169   1.263  1.00  0.00     0.016 A 
ATOM     46  C   UNL     1       5.136  -2.195  -1.697  1.00  0.00     0.010 A 
ATOM     47  C   UNL     1       3.425  -2.620   0.709  1.00  0.00     0.010 A 
ATOM     48  C   UNL     1       4.115  -3.360  -0.703  1.00  0.00    -0.014 A 
BRANCH  48  49
ATOM     49  C   UNL     1       3.590  -5.133  -0.650  1.00  0.00     0.031 A 
ATOM     50  C   UNL     1       4.408  -6.470   0.281  1.00  0.00     0.074 A 
ATOM     51  C   UNL     1       2.310  -5.572  -0.972  1.00  0.00     0.049 A 
ATOM     52  N   UNL     1       5.096  -7.472  -0.244  1.00  0.00    -0.248 NA
ATOM     53  C   UNL     1       4.837  -6.518   1.887  1.00  0.00     0.031 C 
ATOM     54  C   UNL     1       1.617  -6.816  -0.522  1.00  0.00     0.029 A 
ATOM     55  N   UNL     1       1.234  -4.976  -1.645  1.00  0.00    -0.354 N 
ATOM     56  C   UNL     1       5.738  -8.074   0.890  1.00  0.00     0.074 A 
ATOM     57  C   UNL     1       6.056  -7.001   1.730  1.00  0.00     0.031 C 
ATOM     58  C   UNL     1       0.399  -6.974  -1.087  1.00  0.00     0.029 A 
ATOM     59  C   UNL     1       0.311  -5.975  -2.107  1.00  0.00     0.049 A 
ATOM     60  H   UNL     1       1.127  -4.008  -1.782  1.00  0.00     0.167 HD
ATOM     61  C   UNL     1       5.207  -9.157   1.582  1.00  0.00     0.034 A 
ATOM     62  C   UNL     1       0.128  -6.209  -3.437  1.00  0.00     0.034 A 
ATOM     63  C   UNL     1       3.992  -9.606   0.880  1.00  0.00     0.049 A 
ATOM     64  C   UNL     1       0.925  -7.482  -3.792  1.00  0.00     0.074 A 
ATOM     65  C   UNL     1       2.636  -9.733   1.113  1.00  0.00     0.029 A 
ATOM     66  N   UNL     1       4.103  -9.641  -0.492  1.00  0.00    -0.354 N 
ATOM     67  N   UNL     1       1.400  -8.315  -2.899  1.00  0.00    -0.248 NA
ATOM     68  C   UNL     1       1.309  -7.890  -5.136  1.00  0.00     0.031 C 
ATOM     69  C   UNL     1       1.989  -9.923  -0.177  1.00  0.00     0.029 A 
ATOM     70  C   UNL     1       2.949  -9.886  -1.179  1.00  0.00     0.049 A 
ATOM     71  H   UNL     1       4.963  -9.499  -0.950  1.00  0.00     0.167 HD
ATOM     72  C   UNL     1       2.322  -9.164  -3.438  1.00  0.00     0.074 A 
ATOM     73  C   UNL     1       2.192  -8.873  -4.868  1.00  0.00     0.031 C 
ATOM     74  C   UNL     1       3.105  -9.984  -2.644  1.00  0.00     0.034 A 
BRANCH  61  75
ATOM     75  C   UNL     1       5.604  -9.550   3.075  1.00  0.00     0.023 A 
ATOM     76  C   UNL     1       5.008 -10.736   3.536  1.00  0.00     0.012 A 
ATOM     77  C   UNL     1       6.498  -8.935   4.039  1.00  0.00     0.148 A 
ATOM     78  C   UNL     1       5.280 -11.288   4.802  1.00  0.00     0.002 A 
ATOM     79  C   UNL     1       6.756  -9.479   5.311  1.00  0.00     0.091 A 
ATOM     80  F   UNL     1       7.150  -7.803   3.788  1.00  0.00    -0.205 F 
ATOM     81  C   UNL     1       6.153 -10.670   5.687  1.00  0.00     0.022 A 
BRANCH  79  82
ATOM     82  S   UNL     1       7.863  -8.711   6.539  1.00  0.00     0.127 S 
ATOM     83  O   UNL     1       7.015  -8.665   7.734  1.00  0.00    -0.237 OA
ATOM     84  O   UNL     1       8.960  -9.674   6.619  1.00  0.00    -0.237 OA
ATOM     85  O   UNL     1       8.225  -7.397   6.022  1.00  0.00    -0.744 OA
ENDBRANCH  79  82
ENDBRANCH  61  75
BRANCH  62  86
ATOM     86  C   UNL     1       0.210  -4.845  -4.069  1.00  0.00     0.023 A 
ATOM     87  C   UNL     1      -0.879  -3.962  -3.929  1.00  0.00     0.012 A 
ATOM     88  C   UNL     1       1.533  -4.339  -4.174  1.00  0.00     0.148 A 
ATOM     89  C   UNL     1      -0.662  -2.619  -3.659  1.00  0.00     0.002 A 
ATOM     90  C   UNL     1       1.972  -2.858  -4.063  1.00  0.00     0.091 A 
ATOM     91  F   UNL     1       2.402  -5.372  -4.308  1.00  0.00    -0.205 F 
ATOM     92  C   UNL     1       0.640  -2.102  -3.649  1.00  0.00     0.022 A 
BRANCH  90  93
ATOM     93  S   UNL     1       4.046  -1.640  -5.056  1.00  0.00     0.127 S 
ATOM     94  O   UNL     1       3.647  -0.439  -5.867  1.00  0.00    -0.237 OA
ATOM     95  O   UNL     1       4.997  -1.161  -4.031  1.00  0.00    -0.237 OA
ATOM     96  O   UNL     1       4.837  -2.507  -5.986  1.00  0.00    -0.744 OA
ENDBRANCH  90  93
ENDBRANCH  62  86
BRANCH  74  97
ATOM     97  C   UNL     1       4.198 -10.954  -3.162  1.00  0.00     0.023 A 
ATOM     98  C   UNL     1       4.225 -11.346  -4.503  1.00  0.00     0.012 A 
ATOM     99  C   UNL     1       5.176 -11.601  -2.335  1.00  0.00     0.148 A 
ATOM    100  C   UNL     1       5.176 -12.239  -5.011  1.00  0.00     0.002 A 
ATOM    101  C   UNL     1       6.127 -12.479  -2.833  1.00  0.00     0.091 A 
ATOM    102  F   UNL     1       5.178 -11.469  -1.010  1.00  0.00    -0.205 F 
ATOM    103  C   UNL     1       6.132 -12.800  -4.180  1.00  0.00     0.022 A 
BRANCH 101 104
ATOM    104  S   UNL     1       7.327 -13.291  -1.760  1.00  0.00     0.127 S 
ATOM    105  O   UNL     1       6.817 -14.662  -1.748  1.00  0.00    -0.237 OA
ATOM    106  O   UNL     1       8.570 -13.106  -2.507  1.00  0.00    -0.237 OA
ATOM    107  O   UNL     1       7.284 -12.601  -0.478  1.00  0.00    -0.744 OA
ENDBRANCH 101 104
ENDBRANCH  74  97
ENDBRANCH  48  49
ENDBRANCH  41  43
ENDBRANCH  40  41
ENDBRANCH  39  40
ENDBRANCH  38  39
ENDBRANCH  37  38
ENDBRANCH  36  37
ENDBRANCH   1  36
TORSDOF 25
