REMARK SMILES O=C(N[C@@H](C(=O)OCCOCCOCCOC(=O)c1ccc(-c2c3nc(c(-c4cccc(S(=O)(=O)[O-])c4F)c4ccc([nH]4)c(-c4cccc(S(=O)(=O)[O-])c4F)c4nc(c(-c5cccc(S(=O)(=O)[O-])c5F)c5ccc2[nH]5)C=C4)C=C3)cc1)c1ccccc1)c1ccc(Br)nc1
REMARK SMILES IDX 12 1 11 2 10 3 9 4 8 5 7 6 5 7 6 8 4 9 3 10 1 11 2 12 88 14
REMARK SMILES IDX 89 15 94 16 90 17 93 18 91 19 92 20 82 21 83 22 87 23 84 24
REMARK SMILES IDX 86 25 85 26 13 27 14 28 15 29 16 30 17 31 18 32 19 33 20 34
REMARK SMILES IDX 81 35 21 36 80 37 22 38 23 39 24 40 74 41 25 42 79 43 73 44
REMARK SMILES IDX 75 45 26 46 78 47 72 48 71 49 27 51 59 52 39 53 58 54 40 55
REMARK SMILES IDX 43 56 57 57 76 58 41 59 42 60 56 62 77 63 44 64 28 65 29 66
REMARK SMILES IDX 37 67 30 68 32 69 38 70 31 71 33 72 34 73 35 74 36 75 60 76
REMARK SMILES IDX 61 77 69 78 62 79 64 80 70 81 63 82 65 83 66 84 67 85 68 86
REMARK SMILES IDX 45 87 46 88 54 89 47 90 49 91 55 92 48 93 50 94 51 95 52 96
REMARK SMILES IDX 53 97
REMARK H PARENT 3 13 75 50 43 61
REMARK Flexibility Score: inf
ROOT
ATOM      1  C   UNL     1       3.584  -0.909  -4.125  1.00  0.00     0.188 C 
ENDROOT
BRANCH   1   2
ATOM      2  C   UNL     1       5.005  -0.972  -4.700  1.00  0.00     0.188 C 
BRANCH   2   3
ATOM      3  O   UNL     1       5.546  -2.254  -4.997  1.00  0.00    -0.376 OA
BRANCH   3   4
ATOM      4  C   UNL     1       5.469  -3.274  -4.003  1.00  0.00     0.202 C 
BRANCH   4   5
ATOM      5  C   UNL     1       5.938  -2.922  -2.584  1.00  0.00     0.261 C 
BRANCH   5   6
ATOM      6  O   UNL     1       5.109  -1.938  -1.923  1.00  0.00    -0.461 OA
BRANCH   6   7
ATOM      7  C   UNL     1       5.772  -1.070  -1.107  1.00  0.00     0.333 C 
ATOM      8  O   UNL     1       6.971  -1.165  -0.855  1.00  0.00    -0.249 OA
BRANCH   7   9
ATOM      9  C   UNL     1       4.908   0.122  -0.605  1.00  0.00     0.223 C 
BRANCH   9  10
ATOM     10  N   UNL     1       3.452  -0.124  -0.566  1.00  0.00    -0.335 N 
ATOM     11  O   UNL     1       1.416  -0.548   0.305  1.00  0.00    -0.269 OA
ATOM     12  C   UNL     1       2.619  -0.385   0.483  1.00  0.00     0.253 C 
ATOM     13  H   UNL     1       3.007  -0.094  -1.444  1.00  0.00     0.165 HD
BRANCH  12  14
ATOM     14  C   UNL     1       3.161  -0.541   1.834  1.00  0.00     0.058 A 
ATOM     15  C   UNL     1       2.947  -1.744   2.500  1.00  0.00     0.018 A 
ATOM     16  C   UNL     1       3.878   0.458   2.474  1.00  0.00     0.126 A 
ATOM     17  C   UNL     1       3.542  -1.940   3.742  1.00  0.00     0.037 A 
ATOM     18  N   UNL     1       4.475   0.289   3.676  1.00  0.00    -0.249 NA
ATOM     19  C   UNL     1       4.311  -0.913   4.274  1.00  0.00     0.106 A 
ATOM     20  Br  UNL     1       5.213  -1.209   5.915  1.00  0.00    -0.029 Br
ENDBRANCH  12  14
ENDBRANCH   9  10
BRANCH   9  21
ATOM     21  C   UNL     1       5.185   1.459  -1.313  1.00  0.00    -0.014 A 
ATOM     22  C   UNL     1       6.386   1.716  -1.994  1.00  0.00     0.006 A 
ATOM     23  C   UNL     1       4.266   2.526  -1.201  1.00  0.00     0.006 A 
ATOM     24  C   UNL     1       6.647   2.972  -2.556  1.00  0.00     0.000 A 
ATOM     25  C   UNL     1       4.528   3.780  -1.761  1.00  0.00     0.000 A 
ATOM     26  C   UNL     1       5.721   4.003  -2.439  1.00  0.00     0.000 A 
ENDBRANCH   9  21
ENDBRANCH   7   9
ENDBRANCH   6   7
ENDBRANCH   5   6
ENDBRANCH   4   5
ENDBRANCH   3   4
ENDBRANCH   2   3
ENDBRANCH   1   2
BRANCH   1  27
ATOM     27  O   UNL     1       2.936  -2.160  -4.010  1.00  0.00    -0.376 OA
BRANCH  27  28
ATOM     28  C   UNL     1       1.752  -2.355  -4.772  1.00  0.00     0.202 C 
BRANCH  28  29
ATOM     29  C   UNL     1       1.895  -2.232  -6.297  1.00  0.00     0.261 C 
BRANCH  29  30
ATOM     30  O   UNL     1       2.341  -0.950  -6.768  1.00  0.00    -0.460 OA
BRANCH  30  31
ATOM     31  C   UNL     1       1.549   0.118  -6.505  1.00  0.00     0.338 C 
ATOM     32  O   UNL     1       0.452   0.105  -5.974  1.00  0.00    -0.246 OA
BRANCH  31  33
ATOM     33  C   UNL     1       2.367   1.328  -6.732  1.00  0.00     0.060 A 
ATOM     34  C   UNL     1       2.510   2.260  -5.692  1.00  0.00     0.016 A 
ATOM     35  C   UNL     1       3.030   1.513  -7.946  1.00  0.00     0.016 A 
ATOM     36  C   UNL     1       3.295   3.398  -5.877  1.00  0.00     0.010 A 
ATOM     37  C   UNL     1       3.793   2.664  -8.139  1.00  0.00     0.010 A 
ATOM     38  C   UNL     1       3.899   3.627  -7.119  1.00  0.00    -0.014 A 
BRANCH  38  39
ATOM     39  C   UNL     1       4.424   4.968  -7.465  1.00  0.00     0.031 A 
ATOM     40  C   UNL     1       3.490   5.911  -8.173  1.00  0.00     0.074 A 
ATOM     41  C   UNL     1       5.700   5.318  -7.227  1.00  0.00     0.049 A 
ATOM     42  N   UNL     1       3.736   7.072  -8.717  1.00  0.00    -0.248 NA
ATOM     43  C   UNL     1       2.087   5.474  -8.292  1.00  0.00     0.031 C 
ATOM     44  C   UNL     1       6.692   4.498  -6.537  1.00  0.00     0.029 A 
ATOM     45  N   UNL     1       6.387   6.451  -7.587  1.00  0.00    -0.354 N 
ATOM     46  C   UNL     1       2.534   7.486  -9.275  1.00  0.00     0.074 A 
ATOM     47  C   UNL     1       1.556   6.456  -9.004  1.00  0.00     0.031 C 
ATOM     48  C   UNL     1       7.876   5.136  -6.562  1.00  0.00     0.029 A 
ATOM     49  C   UNL     1       7.730   6.393  -7.297  1.00  0.00     0.049 A 
ATOM     50  H   UNL     1       5.960   7.230  -8.011  1.00  0.00     0.167 HD
ATOM     51  C   UNL     1       2.262   8.626  -9.949  1.00  0.00     0.034 A 
ATOM     52  C   UNL     1       8.727   7.243  -7.621  1.00  0.00     0.034 A 
ATOM     53  C   UNL     1       3.229   9.653 -10.207  1.00  0.00     0.049 A 
ATOM     54  C   UNL     1       8.405   8.496  -8.399  1.00  0.00     0.074 A 
ATOM     55  C   UNL     1       3.048  10.860 -10.859  1.00  0.00     0.029 A 
ATOM     56  N   UNL     1       4.562   9.590  -9.835  1.00  0.00    -0.354 N 
ATOM     57  N   UNL     1       7.243   8.926  -8.831  1.00  0.00    -0.248 NA
ATOM     58  C   UNL     1       9.526   9.397  -8.711  1.00  0.00     0.031 C 
ATOM     59  C   UNL     1       4.279  11.521 -10.893  1.00  0.00     0.029 A 
ATOM     60  C   UNL     1       5.218  10.737 -10.241  1.00  0.00     0.049 A 
ATOM     61  H   UNL     1       4.979   8.841  -9.352  1.00  0.00     0.167 HD
ATOM     62  C   UNL     1       7.486  10.164  -9.419  1.00  0.00     0.074 A 
ATOM     63  C   UNL     1       8.904  10.419  -9.285  1.00  0.00     0.031 C 
ATOM     64  C   UNL     1       6.615  11.009 -10.024  1.00  0.00     0.034 A 
BRANCH  51  65
ATOM     65  C   UNL     1       0.854   8.826 -10.435  1.00  0.00     0.023 A 
ATOM     66  C   UNL     1      -0.161   9.150  -9.511  1.00  0.00     0.012 A 
ATOM     67  C   UNL     1       0.542   8.733 -11.804  1.00  0.00     0.148 A 
ATOM     68  C   UNL     1      -1.471   9.351  -9.941  1.00  0.00     0.002 A 
ATOM     69  C   UNL     1      -0.758   8.976 -12.230  1.00  0.00     0.091 A 
ATOM     70  F   UNL     1       1.516   8.392 -12.661  1.00  0.00    -0.205 F 
ATOM     71  C   UNL     1      -1.767   9.275 -11.299  1.00  0.00     0.022 A 
BRANCH  69  72
ATOM     72  S   UNL     1      -1.220   8.971 -13.965  1.00  0.00     0.127 S 
ATOM     73  O   UNL     1      -1.981   7.726 -14.065  1.00  0.00    -0.237 OA
ATOM     74  O   UNL     1      -2.026  10.188 -14.073  1.00  0.00    -0.237 OA
ATOM     75  O   UNL     1       0.029   9.004 -14.712  1.00  0.00    -0.744 OA
ENDBRANCH  69  72
ENDBRANCH  51  65
BRANCH  52  76
ATOM     76  C   UNL     1      10.125   6.960  -7.188  1.00  0.00     0.023 A 
ATOM     77  C   UNL     1      10.725   7.777  -6.211  1.00  0.00     0.012 A 
ATOM     78  C   UNL     1      10.862   5.891  -7.734  1.00  0.00     0.148 A 
ATOM     79  C   UNL     1      12.042   7.555  -5.806  1.00  0.00     0.002 A 
ATOM     80  C   UNL     1      12.156   5.643  -7.289  1.00  0.00     0.091 A 
ATOM     81  F   UNL     1      10.282   5.136  -8.678  1.00  0.00    -0.205 F 
ATOM     82  C   UNL     1      12.754   6.483  -6.338  1.00  0.00     0.022 A 
BRANCH  80  83
ATOM     83  S   UNL     1      13.104   4.216  -7.830  1.00  0.00     0.127 S 
ATOM     84  O   UNL     1      14.118   4.835  -8.680  1.00  0.00    -0.237 OA
ATOM     85  O   UNL     1      13.603   3.686  -6.561  1.00  0.00    -0.237 OA
ATOM     86  O   UNL     1      12.151   3.348  -8.508  1.00  0.00    -0.744 OA
ENDBRANCH  80  83
ENDBRANCH  52  76
BRANCH  64  87
ATOM     87  C   UNL     1       7.135  12.328 -10.531  1.00  0.00     0.023 A 
ATOM     88  C   UNL     1       7.886  12.378 -11.721  1.00  0.00     0.012 A 
ATOM     89  C   UNL     1       6.765  13.529  -9.893  1.00  0.00     0.148 A 
ATOM     90  C   UNL     1       8.273  13.604 -12.260  1.00  0.00     0.002 A 
ATOM     91  C   UNL     1       7.115  14.747 -10.460  1.00  0.00     0.091 A 
ATOM     92  F   UNL     1       6.063  13.455  -8.752  1.00  0.00    -0.205 F 
ATOM     93  C   UNL     1       7.876  14.787 -11.639  1.00  0.00     0.022 A 
BRANCH  91  94
ATOM     94  S   UNL     1       6.560  16.318  -9.786  1.00  0.00     0.127 S 
ATOM     95  O   UNL     1       7.799  16.856  -9.227  1.00  0.00    -0.237 OA
ATOM     96  O   UNL     1       6.076  17.014 -10.978  1.00  0.00    -0.237 OA
ATOM     97  O   UNL     1       5.525  15.995  -8.813  1.00  0.00    -0.744 OA
ENDBRANCH  91  94
ENDBRANCH  64  87
ENDBRANCH  38  39
ENDBRANCH  31  33
ENDBRANCH  30  31
ENDBRANCH  29  30
ENDBRANCH  28  29
ENDBRANCH  27  28
ENDBRANCH   1  27
TORSDOF 23
