REMARK SMILES O=C(OCCOCCOCCOC(=O)c1cn(-c2ccnc3ccc(Cl)cc23)cn1)c1ccc(-c2c3nc(c(-c4cccc(S(=O)(=O)[O-])c4F)c4ccc([nH]4)c(-c4cccc(S(=O)(=O)[O-])c4F)c4nc(c(-c5cccc(S(=O)(=O)[O-])c5F)c5ccc2[nH]5)C=C4)C=C3)cc1
REMARK SMILES IDX 7 1 6 2 5 3 4 4 3 5 2 6 1 7 31 8 32 9 93 10 33 11 92 12
REMARK SMILES IDX 34 13 35 14 36 15 86 16 37 17 91 18 85 19 87 20 38 21 90 22
REMARK SMILES IDX 84 23 83 24 39 26 71 27 51 28 70 29 52 30 55 31 69 32 88 33
REMARK SMILES IDX 53 34 54 35 68 37 89 38 56 39 40 40 41 41 49 42 42 43 44 44
REMARK SMILES IDX 50 45 43 46 45 47 46 48 47 49 48 50 72 51 73 52 81 53 74 54
REMARK SMILES IDX 76 55 82 56 75 57 77 58 78 59 79 60 80 61 57 62 58 63 66 64
REMARK SMILES IDX 59 65 61 66 67 67 60 68 62 69 63 70 64 71 65 72 8 73 9 74
REMARK SMILES IDX 10 75 11 76 12 77 13 78 14 79 15 80 16 81 30 82 17 83 29 84
REMARK SMILES IDX 18 85 19 86 28 87 20 88 22 89 27 90 21 91 23 92 25 93 24 94
REMARK SMILES IDX 26 95
REMARK H PARENT 87 25 55 36
REMARK Flexibility Score: inf
ROOT
ATOM      1  C   UNL     1       3.350  -1.111  -1.342  1.00  0.00     0.188 C 
ENDROOT
BRANCH   1   2
ATOM      2  O   UNL     1       4.664  -1.410  -0.896  1.00  0.00    -0.376 OA
BRANCH   2   3
ATOM      3  C   UNL     1       5.282  -0.463  -0.050  1.00  0.00     0.202 C 
BRANCH   3   4
ATOM      4  C   UNL     1       4.710  -0.369   1.371  1.00  0.00     0.261 C 
BRANCH   4   5
ATOM      5  O   UNL     1       3.301  -0.622   1.500  1.00  0.00    -0.460 OA
BRANCH   5   6
ATOM      6  C   UNL     1       2.215   0.169   1.415  1.00  0.00     0.338 C 
ATOM      7  O   UNL     1       1.135  -0.289   1.785  1.00  0.00    -0.246 OA
BRANCH   6   8
ATOM      8  C   UNL     1       2.220   1.534   0.816  1.00  0.00     0.060 A 
ATOM      9  C   UNL     1       3.346   2.327   0.586  1.00  0.00     0.016 A 
ATOM     10  C   UNL     1       0.949   2.060   0.505  1.00  0.00     0.016 A 
ATOM     11  C   UNL     1       3.201   3.656   0.218  1.00  0.00     0.010 A 
ATOM     12  C   UNL     1       0.797   3.384   0.128  1.00  0.00     0.010 A 
ATOM     13  C   UNL     1       1.924   4.192   0.071  1.00  0.00    -0.014 A 
BRANCH  13  14
ATOM     14  C   UNL     1       1.817   5.631  -0.090  1.00  0.00     0.031 A 
ATOM     15  C   UNL     1       2.297   6.168  -1.384  1.00  0.00     0.074 A 
ATOM     16  C   UNL     1       1.279   6.400   0.876  1.00  0.00     0.049 A 
ATOM     17  N   UNL     1       3.324   6.925  -1.597  1.00  0.00    -0.248 NA
ATOM     18  C   UNL     1       1.628   5.703  -2.606  1.00  0.00     0.031 C 
ATOM     19  C   UNL     1       0.541   5.954   2.063  1.00  0.00     0.029 A 
ATOM     20  N   UNL     1       1.154   7.755   0.925  1.00  0.00    -0.354 N 
ATOM     21  C   UNL     1       3.289   7.226  -2.957  1.00  0.00     0.074 A 
ATOM     22  C   UNL     1       2.353   6.307  -3.550  1.00  0.00     0.031 C 
ATOM     23  C   UNL     1      -0.171   6.992   2.554  1.00  0.00     0.029 A 
ATOM     24  C   UNL     1       0.168   8.188   1.805  1.00  0.00     0.049 A 
ATOM     25  H   UNL     1       1.708   8.368   0.390  1.00  0.00     0.167 HD
ATOM     26  C   UNL     1       3.845   8.367  -3.450  1.00  0.00     0.034 A 
ATOM     27  C   UNL     1      -0.396   9.419   1.839  1.00  0.00     0.034 A 
ATOM     28  C   UNL     1       4.742   8.976  -2.504  1.00  0.00     0.049 A 
ATOM     29  C   UNL     1       0.525  10.351   1.150  1.00  0.00     0.074 A 
ATOM     30  C   UNL     1       5.897   8.590  -1.855  1.00  0.00     0.029 A 
ATOM     31  N   UNL     1       4.282  10.085  -1.837  1.00  0.00    -0.354 N 
ATOM     32  N   UNL     1       1.694  10.687   1.617  1.00  0.00    -0.248 NA
ATOM     33  C   UNL     1       0.325  10.592  -0.270  1.00  0.00     0.031 C 
ATOM     34  C   UNL     1       5.812   9.193  -0.567  1.00  0.00     0.029 A 
ATOM     35  C   UNL     1       4.639   9.950  -0.524  1.00  0.00     0.049 A 
ATOM     36  H   UNL     1       3.787  10.838  -2.232  1.00  0.00     0.167 HD
ATOM     37  C   UNL     1       2.511  10.741   0.495  1.00  0.00     0.074 A 
ATOM     38  C   UNL     1       1.593  10.795  -0.640  1.00  0.00     0.031 C 
ATOM     39  C   UNL     1       3.840  10.436   0.578  1.00  0.00     0.034 A 
BRANCH  26  40
ATOM     40  C   UNL     1       3.317   9.150  -4.631  1.00  0.00     0.023 A 
ATOM     41  C   UNL     1       4.106  10.225  -5.103  1.00  0.00     0.012 A 
ATOM     42  C   UNL     1       1.987   9.079  -5.102  1.00  0.00     0.148 A 
ATOM     43  C   UNL     1       3.580  11.208  -5.948  1.00  0.00     0.002 A 
ATOM     44  C   UNL     1       1.494  10.012  -6.007  1.00  0.00     0.091 A 
ATOM     45  F   UNL     1       1.137   8.191  -4.580  1.00  0.00    -0.205 F 
ATOM     46  C   UNL     1       2.274  11.099  -6.406  1.00  0.00     0.022 A 
BRANCH  44  47
ATOM     47  S   UNL     1      -0.169   9.880  -6.676  1.00  0.00     0.127 S 
ATOM     48  O   UNL     1      -0.859  10.943  -5.953  1.00  0.00    -0.237 OA
ATOM     49  O   UNL     1       0.061  10.139  -8.097  1.00  0.00    -0.237 OA
ATOM     50  O   UNL     1      -0.596   8.517  -6.382  1.00  0.00    -0.744 OA
ENDBRANCH  44  47
ENDBRANCH  26  40
BRANCH  27  51
ATOM     51  C   UNL     1      -1.787   9.794   2.181  1.00  0.00     0.023 A 
ATOM     52  C   UNL     1      -2.083  11.125   2.535  1.00  0.00     0.012 A 
ATOM     53  C   UNL     1      -2.864   8.924   1.899  1.00  0.00     0.148 A 
ATOM     54  C   UNL     1      -3.406  11.580   2.580  1.00  0.00     0.002 A 
ATOM     55  C   UNL     1      -4.178   9.377   1.956  1.00  0.00     0.091 A 
ATOM     56  F   UNL     1      -2.599   7.679   1.481  1.00  0.00    -0.205 F 
ATOM     57  C   UNL     1      -4.453  10.710   2.285  1.00  0.00     0.022 A 
BRANCH  55  58
ATOM     58  S   UNL     1      -5.573   8.313   1.565  1.00  0.00     0.127 S 
ATOM     59  O   UNL     1      -6.485   8.587   2.676  1.00  0.00    -0.237 OA
ATOM     60  O   UNL     1      -6.003   8.844   0.274  1.00  0.00    -0.237 OA
ATOM     61  O   UNL     1      -5.044   6.955   1.546  1.00  0.00    -0.744 OA
ENDBRANCH  55  58
ENDBRANCH  27  51
BRANCH  39  62
ATOM     62  C   UNL     1       4.461  10.321   1.946  1.00  0.00     0.023 A 
ATOM     63  C   UNL     1       4.056   9.342   2.877  1.00  0.00     0.012 A 
ATOM     64  C   UNL     1       5.601  11.093   2.224  1.00  0.00     0.148 A 
ATOM     65  C   UNL     1       4.759   9.155   4.070  1.00  0.00     0.002 A 
ATOM     66  C   UNL     1       6.327  10.870   3.387  1.00  0.00     0.091 A 
ATOM     67  F   UNL     1       5.977  12.017   1.326  1.00  0.00    -0.205 F 
ATOM     68  C   UNL     1       5.904   9.909   4.318  1.00  0.00     0.022 A 
BRANCH  66  69
ATOM     69  S   UNL     1       7.884  11.709   3.691  1.00  0.00     0.127 S 
ATOM     70  O   UNL     1       7.500  12.719   4.674  1.00  0.00    -0.237 OA
ATOM     71  O   UNL     1       8.725  10.631   4.217  1.00  0.00    -0.237 OA
ATOM     72  O   UNL     1       8.320  12.220   2.397  1.00  0.00    -0.744 OA
ENDBRANCH  66  69
ENDBRANCH  39  62
ENDBRANCH  13  14
ENDBRANCH   6   8
ENDBRANCH   5   6
ENDBRANCH   4   5
ENDBRANCH   3   4
ENDBRANCH   2   3
ENDBRANCH   1   2
BRANCH   1  73
ATOM     73  C   UNL     1       2.332  -2.258  -1.118  1.00  0.00     0.188 C 
BRANCH  73  74
ATOM     74  O   UNL     1       2.725  -3.487  -0.502  1.00  0.00    -0.376 OA
BRANCH  74  75
ATOM     75  C   UNL     1       4.024  -4.012  -0.735  1.00  0.00     0.202 C 
BRANCH  75  76
ATOM     76  C   UNL     1       4.431  -4.292  -2.187  1.00  0.00     0.261 C 
BRANCH  76  77
ATOM     77  O   UNL     1       4.123  -3.215  -3.078  1.00  0.00    -0.458 OA
BRANCH  77  78
ATOM     78  C   UNL     1       3.269  -3.470  -4.095  1.00  0.00     0.358 C 
ATOM     79  O   UNL     1       2.894  -4.603  -4.442  1.00  0.00    -0.244 OA
BRANCH  78  80
ATOM     80  C   UNL     1       2.867  -2.265  -4.800  1.00  0.00     0.166 A 
ATOM     81  C   UNL     1       3.209  -1.947  -6.093  1.00  0.00     0.129 A 
ATOM     82  N   UNL     1       2.061  -1.262  -4.277  1.00  0.00    -0.229 NA
ATOM     83  N   UNL     1       2.529  -0.792  -6.393  1.00  0.00    -0.305 N 
ATOM     84  C   UNL     1       1.914  -0.377  -5.241  1.00  0.00     0.205 A 
BRANCH  83  85
ATOM     85  C   UNL     1       2.426  -0.221  -7.673  1.00  0.00     0.057 A 
ATOM     86  C   UNL     1       2.733   1.127  -7.834  1.00  0.00     0.047 A 
ATOM     87  C   UNL     1       2.074  -1.040  -8.776  1.00  0.00     0.026 A 
ATOM     88  C   UNL     1       2.781   1.599  -9.129  1.00  0.00     0.114 A 
ATOM     89  C   UNL     1       2.168  -0.445 -10.046  1.00  0.00     0.072 A 
ATOM     90  C   UNL     1       1.580  -2.372  -8.676  1.00  0.00     0.033 A 
ATOM     91  N   UNL     1       2.537   0.836 -10.220  1.00  0.00    -0.256 NA
ATOM     92  C   UNL     1       1.850  -1.211 -11.162  1.00  0.00     0.030 A 
ATOM     93  C   UNL     1       1.255  -3.106  -9.808  1.00  0.00     0.041 A 
ATOM     94  C   UNL     1       1.402  -2.533 -11.059  1.00  0.00     0.023 A 
ATOM     95  Cl  UNL     1       0.662  -4.711  -9.648  1.00  0.00    -0.084 Cl
ENDBRANCH  83  85
ENDBRANCH  78  80
ENDBRANCH  77  78
ENDBRANCH  76  77
ENDBRANCH  75  76
ENDBRANCH  74  75
ENDBRANCH  73  74
ENDBRANCH   1  73
TORSDOF 21
