REMARK SMILES C=CCSc1ccccc1C(=O)OCCOCCOCCOC(=O)c1ccc(-c2c3nc(c(-c4cccc(S(=O)(=O)[O-])c4F)c4ccc([nH]4)c(-c4cccc(S(=O)(=O)[O-])c4F)c4nc(c(-c5cccc(S(=O)(=O)[O-])c5F)c5ccc2[nH]5)C=C4)C=C3)cc1
REMARK SMILES IDX 17 1 16 2 15 3 14 4 13 5 11 6 12 7 10 8 5 9 6 10 7 11 9 12
REMARK SMILES IDX 8 13 4 14 3 15 2 16 1 17 18 18 19 19 20 20 21 21 22 22 23 23
REMARK SMILES IDX 24 24 25 25 26 26 87 27 27 28 86 29 28 30 29 31 30 32 80 33
REMARK SMILES IDX 31 34 85 35 79 36 81 37 32 38 84 39 78 40 77 41 33 43 65 44
REMARK SMILES IDX 45 45 64 46 46 47 49 48 63 49 82 50 47 51 48 52 62 54 83 55
REMARK SMILES IDX 50 56 34 57 35 58 43 59 36 60 38 61 44 62 37 63 39 64 40 65
REMARK SMILES IDX 41 66 42 67 66 68 67 69 75 70 68 71 70 72 76 73 69 74 71 75
REMARK SMILES IDX 72 76 73 77 74 78 51 79 52 80 60 81 53 82 55 83 61 84 54 85
REMARK SMILES IDX 56 86 57 87 58 88 59 89
REMARK H PARENT 81 42 49 53
REMARK Flexibility Score: inf
ROOT
ATOM      1  C   UNL     1      -2.704   6.494   1.851  1.00  0.00     0.188 C 
ENDROOT
BRANCH   1   2
ATOM      2  O   UNL     1      -2.666   7.518   0.874  1.00  0.00    -0.376 OA
BRANCH   2   3
ATOM      3  C   UNL     1      -2.064   7.265  -0.389  1.00  0.00     0.202 C 
BRANCH   3   4
ATOM      4  C   UNL     1      -0.837   6.359  -0.526  1.00  0.00     0.261 C 
BRANCH   4   5
ATOM      5  O   UNL     1      -0.995   5.102   0.140  1.00  0.00    -0.460 OA
BRANCH   5   6
ATOM      6  C   UNL     1       0.082   4.653   0.822  1.00  0.00     0.339 C 
ATOM      7  O   UNL     1       1.196   5.167   0.838  1.00  0.00    -0.246 OA
BRANCH   6   8
ATOM      8  C   UNL     1      -0.296   3.553   1.736  1.00  0.00     0.073 A 
ATOM      9  C   UNL     1      -0.979   2.388   1.340  1.00  0.00     0.022 A 
ATOM     10  C   UNL     1      -1.260   1.420   2.321  1.00  0.00     0.016 A 
ATOM     11  C   UNL     1      -0.880   1.604   3.655  1.00  0.00     0.001 A 
ATOM     12  C   UNL     1       0.070   3.739   3.084  1.00  0.00     0.017 A 
ATOM     13  C   UNL     1      -0.228   2.771   4.040  1.00  0.00     0.001 A 
BRANCH   9  14
ATOM     14  S   UNL     1      -1.600   2.146  -0.329  1.00  0.00    -0.121 SA
BRANCH  14  15
ATOM     15  C   UNL     1      -0.951   0.508  -0.758  1.00  0.00     0.101 C 
BRANCH  15  16
ATOM     16  C   UNL     1       0.544   0.528  -0.777  1.00  0.00    -0.024 C 
ATOM     17  C   UNL     1       1.314  -0.292  -0.050  1.00  0.00     0.005 C 
ENDBRANCH  15  16
ENDBRANCH  14  15
ENDBRANCH   9  14
ENDBRANCH   6   8
ENDBRANCH   5   6
ENDBRANCH   4   5
ENDBRANCH   3   4
ENDBRANCH   2   3
ENDBRANCH   1   2
BRANCH   1  18
ATOM     18  C   UNL     1      -3.547   5.227   1.600  1.00  0.00     0.188 C 
BRANCH  18  19
ATOM     19  O   UNL     1      -4.144   4.989   0.344  1.00  0.00    -0.376 OA
BRANCH  19  20
ATOM     20  C   UNL     1      -5.163   5.839  -0.148  1.00  0.00     0.202 C 
BRANCH  20  21
ATOM     21  C   UNL     1      -6.152   6.621   0.730  1.00  0.00     0.261 C 
BRANCH  21  22
ATOM     22  O   UNL     1      -5.692   7.042   2.015  1.00  0.00    -0.460 OA
BRANCH  22  23
ATOM     23  C   UNL     1      -6.234   6.375   3.059  1.00  0.00     0.338 C 
ATOM     24  O   UNL     1      -7.054   5.462   3.011  1.00  0.00    -0.246 OA
BRANCH  23  25
ATOM     25  C   UNL     1      -5.556   6.771   4.302  1.00  0.00     0.060 A 
ATOM     26  C   UNL     1      -4.856   5.790   5.018  1.00  0.00     0.016 A 
ATOM     27  C   UNL     1      -5.656   8.075   4.789  1.00  0.00     0.016 A 
ATOM     28  C   UNL     1      -4.288   6.100   6.250  1.00  0.00     0.010 A 
ATOM     29  C   UNL     1      -5.102   8.379   6.035  1.00  0.00     0.010 A 
ATOM     30  C   UNL     1      -4.452   7.383   6.787  1.00  0.00    -0.014 A 
BRANCH  30  31
ATOM     31  C   UNL     1      -4.113   7.618   8.210  1.00  0.00     0.031 A 
ATOM     32  C   UNL     1      -5.219   7.570   9.230  1.00  0.00     0.074 A 
ATOM     33  C   UNL     1      -2.846   7.850   8.595  1.00  0.00     0.049 A 
ATOM     34  N   UNL     1      -5.160   7.736  10.525  1.00  0.00    -0.248 NA
ATOM     35  C   UNL     1      -6.574   7.298   8.719  1.00  0.00     0.031 C 
ATOM     36  C   UNL     1      -1.690   7.919   7.704  1.00  0.00     0.029 A 
ATOM     37  N   UNL     1      -2.328   8.093   9.842  1.00  0.00    -0.354 N 
ATOM     38  C   UNL     1      -6.467   7.617  10.981  1.00  0.00     0.074 A 
ATOM     39  C   UNL     1      -7.301   7.379   9.824  1.00  0.00     0.031 C 
ATOM     40  C   UNL     1      -0.598   8.214   8.431  1.00  0.00     0.029 A 
ATOM     41  C   UNL     1      -0.982   8.373   9.833  1.00  0.00     0.049 A 
ATOM     42  H   UNL     1      -2.868   8.070  10.665  1.00  0.00     0.167 HD
ATOM     43  C   UNL     1      -6.932   7.684  12.251  1.00  0.00     0.034 A 
ATOM     44  C   UNL     1      -0.161   8.732  10.840  1.00  0.00     0.034 A 
ATOM     45  C   UNL     1      -6.102   7.906  13.403  1.00  0.00     0.049 A 
ATOM     46  C   UNL     1      -0.707   8.819  12.242  1.00  0.00     0.074 A 
ATOM     47  C   UNL     1      -6.472   7.945  14.735  1.00  0.00     0.029 A 
ATOM     48  N   UNL     1      -4.737   8.144  13.360  1.00  0.00    -0.354 N 
ATOM     49  N   UNL     1      -1.922   8.579  12.674  1.00  0.00    -0.248 NA
ATOM     50  C   UNL     1       0.242   9.190  13.303  1.00  0.00     0.031 C 
ATOM     51  C   UNL     1      -5.335   8.235  15.496  1.00  0.00     0.029 A 
ATOM     52  C   UNL     1      -4.250   8.341  14.640  1.00  0.00     0.049 A 
ATOM     53  H   UNL     1      -4.194   8.168  12.539  1.00  0.00     0.167 HD
ATOM     54  C   UNL     1      -1.874   8.731  14.057  1.00  0.00     0.074 A 
ATOM     55  C   UNL     1      -0.505   9.063  14.392  1.00  0.00     0.031 C 
ATOM     56  C   UNL     1      -2.874   8.617  14.966  1.00  0.00     0.034 A 
BRANCH  43  57
ATOM     57  C   UNL     1      -8.411   7.492  12.462  1.00  0.00     0.023 A 
ATOM     58  C   UNL     1      -8.979   6.211  12.306  1.00  0.00     0.012 A 
ATOM     59  C   UNL     1      -9.228   8.567  12.860  1.00  0.00     0.148 A 
ATOM     60  C   UNL     1     -10.343   6.009  12.511  1.00  0.00     0.002 A 
ATOM     61  C   UNL     1     -10.579   8.349  13.107  1.00  0.00     0.091 A 
ATOM     62  F   UNL     1      -8.674   9.782  12.979  1.00  0.00    -0.205 F 
ATOM     63  C   UNL     1     -11.140   7.075  12.921  1.00  0.00     0.022 A 
BRANCH  61  64
ATOM     64  S   UNL     1     -11.671   9.638  13.716  1.00  0.00     0.127 S 
ATOM     65  O   UNL     1     -12.517   9.883  12.548  1.00  0.00    -0.237 OA
ATOM     66  O   UNL     1     -12.346   8.968  14.828  1.00  0.00    -0.237 OA
ATOM     67  O   UNL     1     -10.810  10.745  14.106  1.00  0.00    -0.744 OA
ENDBRANCH  61  64
ENDBRANCH  43  57
BRANCH  44  68
ATOM     68  C   UNL     1       1.279   9.003  10.568  1.00  0.00     0.023 A 
ATOM     69  C   UNL     1       2.259   8.121  11.063  1.00  0.00     0.012 A 
ATOM     70  C   UNL     1       1.681  10.128   9.821  1.00  0.00     0.148 A 
ATOM     71  C   UNL     1       3.615   8.372  10.848  1.00  0.00     0.002 A 
ATOM     72  C   UNL     1       3.030  10.342   9.564  1.00  0.00     0.091 A 
ATOM     73  F   UNL     1       0.734  10.964   9.374  1.00  0.00    -0.205 F 
ATOM     74  C   UNL     1       4.000   9.476  10.092  1.00  0.00     0.022 A 
BRANCH  72  75
ATOM     75  S   UNL     1       3.610  11.668   8.501  1.00  0.00     0.127 S 
ATOM     76  O   UNL     1       4.273  12.550   9.458  1.00  0.00    -0.237 OA
ATOM     77  O   UNL     1       4.510  10.953   7.595  1.00  0.00    -0.237 OA
ATOM     78  O   UNL     1       2.419  12.209   7.861  1.00  0.00    -0.744 OA
ENDBRANCH  72  75
ENDBRANCH  44  68
BRANCH  56  79
ATOM     79  C   UNL     1      -2.526   8.806  16.421  1.00  0.00     0.023 A 
ATOM     80  C   UNL     1      -2.213  10.090  16.911  1.00  0.00     0.012 A 
ATOM     81  C   UNL     1      -2.577   7.720  17.318  1.00  0.00     0.148 A 
ATOM     82  C   UNL     1      -1.918  10.283  18.261  1.00  0.00     0.002 A 
ATOM     83  C   UNL     1      -2.333   7.928  18.670  1.00  0.00     0.091 A 
ATOM     84  F   UNL     1      -2.860   6.502  16.833  1.00  0.00    -0.205 F 
ATOM     85  C   UNL     1      -1.989   9.206  19.141  1.00  0.00     0.022 A 
BRANCH  83  86
ATOM     86  S   UNL     1      -2.499   6.619  19.890  1.00  0.00     0.127 S 
ATOM     87  O   UNL     1      -1.102   6.327  20.206  1.00  0.00    -0.237 OA
ATOM     88  O   UNL     1      -3.240   7.285  20.962  1.00  0.00    -0.237 OA
ATOM     89  O   UNL     1      -3.230   5.547  19.229  1.00  0.00    -0.744 OA
ENDBRANCH  83  86
ENDBRANCH  56  79
ENDBRANCH  30  31
ENDBRANCH  23  25
ENDBRANCH  22  23
ENDBRANCH  21  22
ENDBRANCH  20  21
ENDBRANCH  19  20
ENDBRANCH  18  19
ENDBRANCH   1  18
TORSDOF 23
