REMARK SMILES O=C(OCCOCCOCCOC(=O)[C@@H]1O[C@H](OC(=O)c2cccnc2)[C@@H](O)[C@H](O)[C@H]1O)c1ccc(-c2c3nc(c(-c4cccc(S(=O)(=O)[O-])c4F)c4ccc([nH]4)c(-c4cccc(S(=O)(=O)[O-])c4F)c4nc(c(-c5cccc(S(=O)(=O)[O-])c5F)c5ccc2[nH]5)C=C4)C=C3)cc1
REMARK SMILES IDX 7 1 6 2 5 3 4 4 3 5 2 6 1 7 33 8 34 9 95 10 35 11 94 12
REMARK SMILES IDX 36 13 37 14 38 15 88 16 39 17 93 18 87 19 89 20 40 21 92 22
REMARK SMILES IDX 86 23 85 24 41 26 73 27 53 28 72 29 54 30 57 31 71 32 90 33
REMARK SMILES IDX 55 34 56 35 70 37 91 38 58 39 42 40 43 41 51 42 44 43 46 44
REMARK SMILES IDX 52 45 45 46 47 47 48 48 49 49 50 50 74 51 75 52 83 53 76 54
REMARK SMILES IDX 78 55 84 56 77 57 79 58 80 59 81 60 82 61 59 62 60 63 68 64
REMARK SMILES IDX 61 65 63 66 69 67 62 68 64 69 65 70 66 71 67 72 8 73 9 74
REMARK SMILES IDX 10 75 11 76 12 77 13 78 14 79 15 80 16 81 31 82 17 83 29 84
REMARK SMILES IDX 27 85 32 86 18 88 19 89 20 90 21 91 22 92 26 93 23 94 25 95
REMARK SMILES IDX 24 96 30 97 28 99
REMARK H PARENT 89 25 57 36 32 87 30 98 28 100
REMARK Flexibility Score: inf
ROOT
ATOM      1  C   UNL     1       6.498  -0.903   4.867  1.00  0.00     0.188 C 
ENDROOT
BRANCH   1   2
ATOM      2  O   UNL     1       6.096  -2.044   4.109  1.00  0.00    -0.376 OA
BRANCH   2   3
ATOM      3  C   UNL     1       7.190  -2.839   3.639  1.00  0.00     0.202 C 
BRANCH   3   4
ATOM      4  C   UNL     1       8.081  -2.212   2.543  1.00  0.00     0.261 C 
BRANCH   4   5
ATOM      5  O   UNL     1       8.142  -0.773   2.561  1.00  0.00    -0.460 OA
BRANCH   5   6
ATOM      6  C   UNL     1       7.326   0.139   1.970  1.00  0.00     0.338 C 
ATOM      7  O   UNL     1       7.602   1.331   2.103  1.00  0.00    -0.246 OA
BRANCH   6   8
ATOM      8  C   UNL     1       6.099  -0.215   1.187  1.00  0.00     0.060 A 
ATOM      9  C   UNL     1       5.542  -1.487   1.130  1.00  0.00     0.016 A 
ATOM     10  C   UNL     1       5.440   0.811   0.481  1.00  0.00     0.016 A 
ATOM     11  C   UNL     1       4.444  -1.773   0.343  1.00  0.00     0.010 A 
ATOM     12  C   UNL     1       4.284   0.545  -0.270  1.00  0.00     0.010 A 
ATOM     13  C   UNL     1       3.799  -0.766  -0.357  1.00  0.00    -0.014 A 
BRANCH  13  14
ATOM     14  C   UNL     1       2.717  -1.193  -1.264  1.00  0.00     0.031 A 
ATOM     15  C   UNL     1       3.012  -1.265  -2.721  1.00  0.00     0.074 A 
ATOM     16  C   UNL     1       1.588  -1.745  -0.778  1.00  0.00     0.049 A 
ATOM     17  N   UNL     1       2.243  -1.694  -3.678  1.00  0.00    -0.248 NA
ATOM     18  C   UNL     1       4.376  -0.903  -3.147  1.00  0.00     0.031 C 
ATOM     19  C   UNL     1       1.336  -1.993   0.631  1.00  0.00     0.029 A 
ATOM     20  N   UNL     1       0.447  -2.201  -1.380  1.00  0.00    -0.354 N 
ATOM     21  C   UNL     1       3.033  -1.692  -4.812  1.00  0.00     0.074 A 
ATOM     22  C   UNL     1       4.332  -1.180  -4.441  1.00  0.00     0.031 C 
ATOM     23  C   UNL     1       0.080  -2.413   0.817  1.00  0.00     0.029 A 
ATOM     24  C   UNL     1      -0.559  -2.470  -0.476  1.00  0.00     0.049 A 
ATOM     25  H   UNL     1       0.355  -2.324  -2.353  1.00  0.00     0.167 HD
ATOM     26  C   UNL     1       2.694  -2.122  -6.045  1.00  0.00     0.034 A 
ATOM     27  C   UNL     1      -1.869  -2.688  -0.668  1.00  0.00     0.034 A 
ATOM     28  C   UNL     1       1.380  -2.596  -6.377  1.00  0.00     0.049 A 
ATOM     29  C   UNL     1      -2.302  -2.886  -2.077  1.00  0.00     0.074 A 
ATOM     30  C   UNL     1       0.891  -2.983  -7.609  1.00  0.00     0.029 A 
ATOM     31  N   UNL     1       0.335  -2.722  -5.469  1.00  0.00    -0.354 N 
ATOM     32  N   UNL     1      -1.562  -2.851  -3.157  1.00  0.00    -0.248 NA
ATOM     33  C   UNL     1      -3.705  -3.236  -2.300  1.00  0.00     0.031 C 
ATOM     34  C   UNL     1      -0.464  -3.294  -7.455  1.00  0.00     0.029 A 
ATOM     35  C   UNL     1      -0.808  -3.152  -6.118  1.00  0.00     0.049 A 
ATOM     36  H   UNL     1       0.399  -2.533  -4.505  1.00  0.00     0.167 HD
ATOM     37  C   UNL     1      -2.387  -3.246  -4.188  1.00  0.00     0.074 A 
ATOM     38  C   UNL     1      -3.690  -3.505  -3.598  1.00  0.00     0.031 C 
ATOM     39  C   UNL     1      -2.086  -3.400  -5.499  1.00  0.00     0.034 A 
BRANCH  26  40
ATOM     40  C   UNL     1       3.752  -2.037  -7.103  1.00  0.00     0.023 A 
ATOM     41  C   UNL     1       4.832  -2.944  -7.107  1.00  0.00     0.012 A 
ATOM     42  C   UNL     1       3.681  -1.035  -8.086  1.00  0.00     0.148 A 
ATOM     43  C   UNL     1       5.840  -2.837  -8.064  1.00  0.00     0.002 A 
ATOM     44  C   UNL     1       4.664  -0.961  -9.061  1.00  0.00     0.091 A 
ATOM     45  F   UNL     1       2.664  -0.163  -8.033  1.00  0.00    -0.205 F 
ATOM     46  C   UNL     1       5.751  -1.852  -9.046  1.00  0.00     0.022 A 
BRANCH  44  47
ATOM     47  S   UNL     1       4.610   0.237 -10.395  1.00  0.00     0.127 S 
ATOM     48  O   UNL     1       5.837   0.998 -10.159  1.00  0.00    -0.237 OA
ATOM     49  O   UNL     1       4.643  -0.626 -11.575  1.00  0.00    -0.237 OA
ATOM     50  O   UNL     1       3.377   0.989 -10.215  1.00  0.00    -0.744 OA
ENDBRANCH  44  47
ENDBRANCH  26  40
BRANCH  27  51
ATOM     51  C   UNL     1      -2.820  -2.682   0.474  1.00  0.00     0.023 A 
ATOM     52  C   UNL     1      -3.482  -3.849   0.889  1.00  0.00     0.012 A 
ATOM     53  C   UNL     1      -3.073  -1.474   1.154  1.00  0.00     0.148 A 
ATOM     54  C   UNL     1      -4.415  -3.800   1.931  1.00  0.00     0.002 A 
ATOM     55  C   UNL     1      -3.962  -1.440   2.219  1.00  0.00     0.091 A 
ATOM     56  F   UNL     1      -2.442  -0.363   0.745  1.00  0.00    -0.205 F 
ATOM     57  C   UNL     1      -4.654  -2.598   2.600  1.00  0.00     0.022 A 
BRANCH  55  58
ATOM     58  S   UNL     1      -4.175   0.064   3.178  1.00  0.00     0.127 S 
ATOM     59  O   UNL     1      -5.386   0.628   2.595  1.00  0.00    -0.237 OA
ATOM     60  O   UNL     1      -4.324  -0.447   4.539  1.00  0.00    -0.237 OA
ATOM     61  O   UNL     1      -2.939   0.823   2.966  1.00  0.00    -0.744 OA
ENDBRANCH  55  58
ENDBRANCH  27  51
BRANCH  39  62
ATOM     62  C   UNL     1      -3.195  -3.913  -6.364  1.00  0.00     0.023 A 
ATOM     63  C   UNL     1      -4.301  -3.092  -6.654  1.00  0.00     0.012 A 
ATOM     64  C   UNL     1      -3.124  -5.213  -6.892  1.00  0.00     0.148 A 
ATOM     65  C   UNL     1      -5.352  -3.584  -7.422  1.00  0.00     0.002 A 
ATOM     66  C   UNL     1      -4.142  -5.670  -7.711  1.00  0.00     0.091 A 
ATOM     67  F   UNL     1      -2.071  -5.981  -6.570  1.00  0.00    -0.205 F 
ATOM     68  C   UNL     1      -5.266  -4.866  -7.961  1.00  0.00     0.022 A 
BRANCH  66  69
ATOM     69  S   UNL     1      -4.060  -7.260  -8.535  1.00  0.00     0.127 S 
ATOM     70  O   UNL     1      -5.078  -8.021  -7.814  1.00  0.00    -0.237 OA
ATOM     71  O   UNL     1      -4.416  -6.909  -9.910  1.00  0.00    -0.237 OA
ATOM     72  O   UNL     1      -2.692  -7.732  -8.367  1.00  0.00    -0.744 OA
ENDBRANCH  66  69
ENDBRANCH  39  62
ENDBRANCH  13  14
ENDBRANCH   6   8
ENDBRANCH   5   6
ENDBRANCH   4   5
ENDBRANCH   3   4
ENDBRANCH   2   3
ENDBRANCH   1   2
BRANCH   1  73
ATOM     73  C   UNL     1       5.870  -0.761   6.255  1.00  0.00     0.188 C 
BRANCH  73  74
ATOM     74  O   UNL     1       6.005  -1.842   7.170  1.00  0.00    -0.376 OA
BRANCH  74  75
ATOM     75  C   UNL     1       5.492  -3.109   6.771  1.00  0.00     0.202 C 
BRANCH  75  76
ATOM     76  C   UNL     1       3.987  -3.262   6.487  1.00  0.00     0.261 C 
BRANCH  76  77
ATOM     77  O   UNL     1       3.428  -2.212   5.689  1.00  0.00    -0.461 OA
BRANCH  77  78
ATOM     78  C   UNL     1       2.547  -1.371   6.314  1.00  0.00     0.338 C 
ATOM     79  O   UNL     1       2.186  -1.520   7.478  1.00  0.00    -0.249 OA
BRANCH  78  80
ATOM     80  C   UNL     1       2.210  -0.141   5.435  1.00  0.00     0.263 C 
ATOM     81  O   UNL     1       1.428   0.731   6.231  1.00  0.00    -0.322 OA
ATOM     82  C   UNL     1       1.589  -0.576   4.113  1.00  0.00     0.186 C 
ATOM     83  C   UNL     1       0.655   1.727   5.585  1.00  0.00     0.343 C 
ATOM     84  C   UNL     1       0.879   0.586   3.396  1.00  0.00     0.181 C 
ATOM     85  C   UNL     1      -0.084   1.303   4.313  1.00  0.00     0.214 C 
BRANCH  82  86
ATOM     86  O   UNL     1       2.684  -1.053   3.309  1.00  0.00    -0.387 OA
ATOM     87  H   UNL     1       3.331  -0.340   3.189  1.00  0.00     0.211 HD
ENDBRANCH  82  86
BRANCH  83  88
ATOM     88  O   UNL     1      -0.302   2.235   6.524  1.00  0.00    -0.429 OA
BRANCH  88  89
ATOM     89  C   UNL     1      -1.082   1.278   7.084  1.00  0.00     0.342 C 
ATOM     90  O   UNL     1      -1.034   0.067   6.919  1.00  0.00    -0.246 OA
BRANCH  89  91
ATOM     91  C   UNL     1      -1.961   1.914   8.055  1.00  0.00     0.078 A 
ATOM     92  C   UNL     1      -2.556   3.152   7.824  1.00  0.00     0.019 A 
ATOM     93  C   UNL     1      -2.199   1.259   9.253  1.00  0.00     0.126 A 
ATOM     94  C   UNL     1      -3.365   3.694   8.813  1.00  0.00     0.021 A 
ATOM     95  N   UNL     1      -2.965   1.777  10.243  1.00  0.00    -0.264 NA
ATOM     96  C   UNL     1      -3.535   2.978   9.990  1.00  0.00     0.111 A 
ENDBRANCH  89  91
ENDBRANCH  88  89
ENDBRANCH  83  88
BRANCH  84  97
ATOM     97  O   UNL     1       0.195   0.116   2.238  1.00  0.00    -0.387 OA
ATOM     98  H   UNL     1      -0.489  -0.519   2.501  1.00  0.00     0.211 HD
ENDBRANCH  84  97
BRANCH  85  99
ATOM     99  O   UNL     1      -0.610   2.457   3.631  1.00  0.00    -0.384 OA
ATOM    100  H   UNL     1       0.119   3.048   3.385  1.00  0.00     0.211 HD
ENDBRANCH  85  99
ENDBRANCH  78  80
ENDBRANCH  77  78
ENDBRANCH  76  77
ENDBRANCH  75  76
ENDBRANCH  74  75
ENDBRANCH  73  74
ENDBRANCH   1  73
TORSDOF 26
