REMARK SMILES CC(C)CCN(C(=O)N[C@H](C(=O)OCCOCCOCCOC(=O)c1ccc(-c2c3nc(c(-c4cccc(S(=O)(=O)[O-])c4F)c4ccc([nH]4)c(-c4cccc(S(=O)(=O)[O-])c4F)c4nc(c(-c5cccc(S(=O)(=O)[O-])c5F)c5ccc2[nH]5)C=C4)C=C3)cc1)[C@H](C)O)C1CCCC1
REMARK SMILES IDX 17 1 16 2 15 3 14 4 13 5 11 6 12 7 10 8 9 9 7 10 8 11 6 13
REMARK SMILES IDX 5 14 4 15 2 16 1 17 3 18 91 19 92 20 95 21 93 22 94 23 88 24
REMARK SMILES IDX 89 25 90 26 18 28 19 29 20 30 21 31 22 32 23 33 24 34 25 35
REMARK SMILES IDX 26 36 87 37 27 38 86 39 28 40 29 41 30 42 80 43 31 44 85 45
REMARK SMILES IDX 79 46 81 47 32 48 84 49 78 50 77 51 33 53 65 54 45 55 64 56
REMARK SMILES IDX 46 57 49 58 63 59 82 60 47 61 48 62 62 64 83 65 50 66 34 67
REMARK SMILES IDX 35 68 43 69 36 70 38 71 44 72 37 73 39 74 40 75 41 76 42 77
REMARK SMILES IDX 66 78 67 79 75 80 68 81 70 82 76 83 69 84 71 85 72 86 73 87
REMARK SMILES IDX 74 88 51 89 52 90 60 91 53 92 55 93 61 94 54 95 56 96 57 97
REMARK SMILES IDX 58 98 59 99
REMARK H PARENT 9 12 90 27 81 52 49 63
REMARK Flexibility Score: inf
ROOT
ATOM      1  C   UNL     1      -6.632   4.181  -3.756  1.00  0.00     0.188 C 
ENDROOT
BRANCH   1   2
ATOM      2  O   UNL     1      -6.849   4.075  -5.154  1.00  0.00    -0.376 OA
BRANCH   2   3
ATOM      3  C   UNL     1      -5.680   3.926  -5.946  1.00  0.00     0.202 C 
BRANCH   3   4
ATOM      4  C   UNL     1      -5.058   2.534  -5.836  1.00  0.00     0.261 C 
BRANCH   4   5
ATOM      5  O   UNL     1      -4.604   2.225  -4.499  1.00  0.00    -0.462 OA
BRANCH   5   6
ATOM      6  C   UNL     1      -3.271   2.284  -4.266  1.00  0.00     0.331 C 
ATOM      7  O   UNL     1      -2.455   2.643  -5.111  1.00  0.00    -0.250 OA
BRANCH   6   8
ATOM      8  C   UNL     1      -2.874   1.750  -2.868  1.00  0.00     0.222 C 
BRANCH   8   9
ATOM      9  N   UNL     1      -1.591   2.317  -2.451  1.00  0.00    -0.322 N 
ATOM     10  C   UNL     1      -1.024   3.471  -2.093  1.00  0.00     0.318 C 
ATOM     11  O   UNL     1       0.155   3.281  -1.771  1.00  0.00    -0.249 OA
ATOM     12  H   UNL     1      -0.914   1.602  -2.428  1.00  0.00     0.166 HD
BRANCH  10  13
ATOM     13  N   UNL     1      -1.624   4.719  -2.108  1.00  0.00    -0.322 N 
BRANCH  13  14
ATOM     14  C   UNL     1      -2.987   4.964  -2.624  1.00  0.00     0.122 C 
BRANCH  14  15
ATOM     15  C   UNL     1      -3.963   5.965  -1.955  1.00  0.00     0.024 C 
BRANCH  15  16
ATOM     16  C   UNL     1      -4.290   7.306  -2.683  1.00  0.00    -0.016 C 
ATOM     17  C   UNL     1      -4.229   7.286  -4.204  1.00  0.00     0.007 C 
ATOM     18  C   UNL     1      -5.668   7.840  -2.296  1.00  0.00     0.007 C 
ENDBRANCH  15  16
ENDBRANCH  14  15
ENDBRANCH  13  14
BRANCH  13  19
ATOM     19  C   UNL     1      -0.645   5.853  -2.123  1.00  0.00     0.087 C 
ATOM     20  C   UNL     1      -1.200   7.253  -1.884  1.00  0.00     0.025 C 
ATOM     21  C   UNL     1       0.474   5.814  -1.064  1.00  0.00     0.025 C 
ATOM     22  C   UNL     1      -0.034   8.149  -1.504  1.00  0.00     0.002 C 
ATOM     23  C   UNL     1       1.058   7.219  -1.019  1.00  0.00     0.002 C 
ENDBRANCH  13  19
ENDBRANCH  10  13
ENDBRANCH   8   9
BRANCH   8  24
ATOM     24  C   UNL     1      -3.932   1.679  -1.739  1.00  0.00     0.145 C 
ATOM     25  C   UNL     1      -3.394   1.828  -0.313  1.00  0.00     0.041 C 
BRANCH  24  26
ATOM     26  O   UNL     1      -4.620   0.418  -1.812  1.00  0.00    -0.391 OA
ATOM     27  H   UNL     1      -3.992  -0.302  -1.646  1.00  0.00     0.211 HD
ENDBRANCH  24  26
ENDBRANCH   8  24
ENDBRANCH   6   8
ENDBRANCH   5   6
ENDBRANCH   4   5
ENDBRANCH   3   4
ENDBRANCH   2   3
ENDBRANCH   1   2
BRANCH   1  28
ATOM     28  C   UNL     1      -7.205   3.009  -2.939  1.00  0.00     0.188 C 
BRANCH  28  29
ATOM     29  O   UNL     1      -8.306   2.255  -3.421  1.00  0.00    -0.376 OA
BRANCH  29  30
ATOM     30  C   UNL     1      -9.297   2.911  -4.184  1.00  0.00     0.202 C 
BRANCH  30  31
ATOM     31  C   UNL     1     -10.147   3.965  -3.470  1.00  0.00     0.261 C 
BRANCH  31  32
ATOM     32  O   UNL     1      -9.416   4.951  -2.713  1.00  0.00    -0.460 OA
BRANCH  32  33
ATOM     33  C   UNL     1      -9.474   4.808  -1.362  1.00  0.00     0.338 C 
ATOM     34  O   UNL     1     -10.039   3.920  -0.748  1.00  0.00    -0.246 OA
BRANCH  33  35
ATOM     35  C   UNL     1      -8.653   5.839  -0.680  1.00  0.00     0.060 A 
ATOM     36  C   UNL     1      -7.680   5.427   0.245  1.00  0.00     0.016 A 
ATOM     37  C   UNL     1      -8.919   7.197  -0.847  1.00  0.00     0.016 A 
ATOM     38  C   UNL     1      -6.982   6.368   1.021  1.00  0.00     0.010 A 
ATOM     39  C   UNL     1      -8.233   8.135  -0.060  1.00  0.00     0.010 A 
ATOM     40  C   UNL     1      -7.269   7.733   0.894  1.00  0.00    -0.014 A 
BRANCH  40  41
ATOM     41  C   UNL     1      -6.724   8.760   1.831  1.00  0.00     0.031 A 
ATOM     42  C   UNL     1      -7.632   9.252   2.923  1.00  0.00     0.074 A 
ATOM     43  C   UNL     1      -5.514   9.338   1.682  1.00  0.00     0.049 A 
ATOM     44  N   UNL     1      -7.456  10.237   3.764  1.00  0.00    -0.248 NA
ATOM     45  C   UNL     1      -8.898   8.522   3.098  1.00  0.00     0.031 C 
ATOM     46  C   UNL     1      -4.475   8.929   0.747  1.00  0.00     0.029 A 
ATOM     47  N   UNL     1      -4.981  10.460   2.280  1.00  0.00    -0.354 N 
ATOM     48  C   UNL     1      -8.581  10.239   4.576  1.00  0.00     0.074 A 
ATOM     49  C   UNL     1      -9.457   9.192   4.094  1.00  0.00     0.031 C 
ATOM     50  C   UNL     1      -3.508   9.861   0.711  1.00  0.00     0.029 A 
ATOM     51  C   UNL     1      -3.834  10.915   1.664  1.00  0.00     0.049 A 
ATOM     52  H   UNL     1      -5.379  10.892   3.069  1.00  0.00     0.167 HD
ATOM     53  C   UNL     1      -8.847  11.012   5.653  1.00  0.00     0.034 A 
ATOM     54  C   UNL     1      -3.127  12.051   1.837  1.00  0.00     0.034 A 
ATOM     55  C   UNL     1      -7.993  12.065   6.127  1.00  0.00     0.049 A 
ATOM     56  C   UNL     1      -3.503  12.982   2.961  1.00  0.00     0.074 A 
ATOM     57  C   UNL     1      -8.165  12.878   7.232  1.00  0.00     0.029 A 
ATOM     58  N   UNL     1      -6.821  12.470   5.509  1.00  0.00    -0.354 N 
ATOM     59  N   UNL     1      -4.490  12.880   3.816  1.00  0.00    -0.248 NA
ATOM     60  C   UNL     1      -2.625  14.139   3.196  1.00  0.00     0.031 C 
ATOM     61  C   UNL     1      -7.112  13.800   7.263  1.00  0.00     0.029 A 
ATOM     62  C   UNL     1      -6.268  13.536   6.197  1.00  0.00     0.049 A 
ATOM     63  H   UNL     1      -6.438  12.060   4.700  1.00  0.00     0.167 HD
ATOM     64  C   UNL     1      -4.309  13.909   4.734  1.00  0.00     0.074 A 
ATOM     65  C   UNL     1      -3.123  14.631   4.323  1.00  0.00     0.031 C 
ATOM     66  C   UNL     1      -5.054  14.216   5.823  1.00  0.00     0.034 A 
BRANCH  53  67
ATOM     67  C   UNL     1     -10.108  10.708   6.410  1.00  0.00     0.023 A 
ATOM     68  C   UNL     1     -10.180   9.532   7.186  1.00  0.00     0.012 A 
ATOM     69  C   UNL     1     -11.209  11.581   6.367  1.00  0.00     0.148 A 
ATOM     70  C   UNL     1     -11.345   9.210   7.878  1.00  0.00     0.002 A 
ATOM     71  C   UNL     1     -12.352  11.275   7.095  1.00  0.00     0.091 A 
ATOM     72  F   UNL     1     -11.126  12.679   5.603  1.00  0.00    -0.205 F 
ATOM     73  C   UNL     1     -12.427  10.085   7.840  1.00  0.00     0.022 A 
BRANCH  71  74
ATOM     74  S   UNL     1     -13.775  12.366   7.164  1.00  0.00     0.127 S 
ATOM     75  O   UNL     1     -14.773  11.596   6.423  1.00  0.00    -0.237 OA
ATOM     76  O   UNL     1     -14.021  12.457   8.604  1.00  0.00    -0.237 OA
ATOM     77  O   UNL     1     -13.358  13.612   6.537  1.00  0.00    -0.744 OA
ENDBRANCH  71  74
ENDBRANCH  53  67
BRANCH  54  78
ATOM     78  C   UNL     1      -1.942  12.345   0.979  1.00  0.00     0.023 A 
ATOM     79  C   UNL     1      -0.648  12.256   1.528  1.00  0.00     0.012 A 
ATOM     80  C   UNL     1      -2.089  12.729  -0.370  1.00  0.00     0.148 A 
ATOM     81  C   UNL     1       0.475  12.586   0.766  1.00  0.00     0.002 A 
ATOM     82  C   UNL     1      -0.963  13.017  -1.136  1.00  0.00     0.091 A 
ATOM     83  F   UNL     1      -3.328  12.818  -0.873  1.00  0.00    -0.205 F 
ATOM     84  C   UNL     1       0.318  12.961  -0.565  1.00  0.00     0.022 A 
BRANCH  82  85
ATOM     85  S   UNL     1      -1.052  13.421  -2.885  1.00  0.00     0.127 S 
ATOM     86  O   UNL     1      -0.661  14.829  -2.888  1.00  0.00    -0.237 OA
ATOM     87  O   UNL     1      -0.062  12.506  -3.455  1.00  0.00    -0.237 OA
ATOM     88  O   UNL     1      -2.425  13.146  -3.284  1.00  0.00    -0.744 OA
ENDBRANCH  82  85
ENDBRANCH  54  78
BRANCH  66  89
ATOM     89  C   UNL     1      -4.591  15.348   6.704  1.00  0.00     0.023 A 
ATOM     90  C   UNL     1      -4.707  16.680   6.265  1.00  0.00     0.012 A 
ATOM     91  C   UNL     1      -4.124  15.088   8.009  1.00  0.00     0.148 A 
ATOM     92  C   UNL     1      -4.341  17.736   7.100  1.00  0.00     0.002 A 
ATOM     93  C   UNL     1      -3.810  16.146   8.854  1.00  0.00     0.091 A 
ATOM     94  F   UNL     1      -4.003  13.812   8.402  1.00  0.00    -0.205 F 
ATOM     95  C   UNL     1      -3.906  17.470   8.397  1.00  0.00     0.022 A 
BRANCH  93  96
ATOM     96  S   UNL     1      -3.340  15.904  10.571  1.00  0.00     0.127 S 
ATOM     97  O   UNL     1      -1.927  16.279  10.548  1.00  0.00    -0.237 OA
ATOM     98  O   UNL     1      -4.212  16.852  11.265  1.00  0.00    -0.237 OA
ATOM     99  O   UNL     1      -3.609  14.504  10.870  1.00  0.00    -0.744 OA
ENDBRANCH  93  96
ENDBRANCH  66  89
ENDBRANCH  40  41
ENDBRANCH  33  35
ENDBRANCH  32  33
ENDBRANCH  31  32
ENDBRANCH  30  31
ENDBRANCH  29  30
ENDBRANCH  28  29
ENDBRANCH   1  28
TORSDOF 28
