REMARK SMILES COc1cccc([C@H]2CC(c3ccc(S(C)(=O)=O)cc3)=NN2c2ccc(C(=O)OCCOCCOCCOC(=O)c3ccc(-c4c5nc(c(-c6cccc(S(=O)(=O)[O-])c6F)c6ccc([nH]6)c(-c6cccc(S(=O)(=O)[O-])c6F)c6nc(c(-c7cccc(S(=O)(=O)[O-])c7F)c7ccc4[nH]7)C=C6)C=C5)cc3)cc2)c1
REMARK SMILES IDX 33 1 32 2 31 3 30 4 29 5 27 6 28 7 26 8 23 9 24 10 105 11
REMARK SMILES IDX 25 12 104 13 22 14 8 15 9 16 10 17 21 18 7 19 3 20 4 21
REMARK SMILES IDX 106 22 5 23 6 24 2 25 1 26 11 27 12 28 20 29 13 30 19 31
REMARK SMILES IDX 14 32 15 33 16 34 17 35 18 36 34 37 35 38 36 39 37 40 38 41
REMARK SMILES IDX 39 42 40 43 41 44 42 45 103 46 43 47 102 48 44 49 45 50
REMARK SMILES IDX 46 51 96 52 47 53 101 54 95 55 97 56 48 57 100 58 94 59
REMARK SMILES IDX 93 60 49 62 81 63 61 64 80 65 62 66 65 67 79 68 98 69 63 70
REMARK SMILES IDX 64 71 78 73 99 74 66 75 50 76 51 77 59 78 52 79 54 80 60 81
REMARK SMILES IDX 53 82 55 83 56 84 57 85 58 86 82 87 83 88 91 89 84 90 86 91
REMARK SMILES IDX 92 92 85 93 87 94 88 95 89 96 90 97 67 98 68 99 76 100
REMARK SMILES IDX 69 101 71 102 77 103 70 104 72 105 73 106 74 107 75 108
REMARK H PARENT 97 61 65 72
REMARK Flexibility Score: inf
ROOT
ATOM      1  C   UNL     1       5.368  -8.740  -2.410  1.00  0.00     0.188 C 
ENDROOT
BRANCH   1   2
ATOM      2  O   UNL     1       5.031 -10.074  -2.707  1.00  0.00    -0.376 OA
BRANCH   2   3
ATOM      3  C   UNL     1       3.966 -10.372  -3.591  1.00  0.00     0.202 C 
BRANCH   3   4
ATOM      4  C   UNL     1       3.159  -9.357  -4.427  1.00  0.00     0.261 C 
BRANCH   4   5
ATOM      5  O   UNL     1       3.617  -8.004  -4.478  1.00  0.00    -0.460 OA
BRANCH   5   6
ATOM      6  C   UNL     1       2.875  -7.111  -3.775  1.00  0.00     0.338 C 
ATOM      7  O   UNL     1       1.868  -7.345  -3.130  1.00  0.00    -0.246 OA
BRANCH   6   8
ATOM      8  C   UNL     1       3.550  -5.795  -3.773  1.00  0.00     0.060 A 
ATOM      9  C   UNL     1       4.661  -3.215  -3.706  1.00  0.00     0.060 A 
ATOM     10  C   UNL     1       4.324  -3.875  -2.517  1.00  0.00     0.029 A 
ATOM     11  C   UNL     1       4.520  -3.909  -4.919  1.00  0.00     0.029 A 
ATOM     12  C   UNL     1       3.739  -5.144  -2.549  1.00  0.00     0.018 A 
ATOM     13  C   UNL     1       3.985  -5.200  -4.958  1.00  0.00     0.018 A 
BRANCH   9  14
ATOM     14  N   UNL     1       5.008  -1.864  -3.703  1.00  0.00    -0.257 N 
ATOM     15  C   UNL     1       4.122  -0.860  -4.306  1.00  0.00     0.144 C 
ATOM     16  C   UNL     1       4.736   0.459  -3.834  1.00  0.00     0.091 C 
ATOM     17  C   UNL     1       5.800  -0.058  -2.906  1.00  0.00     0.071 C 
ATOM     18  N   UNL     1       5.918  -1.348  -2.831  1.00  0.00    -0.176 NA
BRANCH  15  19
ATOM     19  C   UNL     1       2.663  -1.025  -3.892  1.00  0.00    -0.019 A 
ATOM     20  C   UNL     1       0.903  -1.063  -2.202  1.00  0.00     0.119 A 
ATOM     21  C   UNL     1      -0.015  -1.462  -3.173  1.00  0.00     0.046 A 
ATOM     22  C   UNL     1       2.240  -0.865  -2.557  1.00  0.00     0.052 A 
ATOM     23  C   UNL     1       0.385  -1.632  -4.496  1.00  0.00     0.004 A 
ATOM     24  C   UNL     1       1.714  -1.412  -4.854  1.00  0.00     0.006 A 
BRANCH  20  25
ATOM     25  O   UNL     1       0.397  -0.957  -0.936  1.00  0.00    -0.497 OA
ATOM     26  C   UNL     1       1.031  -0.003  -0.092  1.00  0.00     0.278 C 
ENDBRANCH  20  25
ENDBRANCH  15  19
BRANCH  17  27
ATOM     27  C   UNL     1       6.681   0.887  -2.204  1.00  0.00    -0.002 A 
ATOM     28  C   UNL     1       8.062   0.803  -2.416  1.00  0.00     0.011 A 
ATOM     29  C   UNL     1       6.143   1.889  -1.391  1.00  0.00     0.011 A 
ATOM     30  C   UNL     1       8.912   1.738  -1.822  1.00  0.00     0.021 A 
ATOM     31  C   UNL     1       6.995   2.810  -0.776  1.00  0.00     0.021 A 
ATOM     32  C   UNL     1       8.374   2.730  -0.995  1.00  0.00     0.067 A 
BRANCH  32  33
ATOM     33  S   UNL     1       9.463   3.932  -0.261  1.00  0.00     0.175 S 
ATOM     34  C   UNL     1      10.488   2.986   0.837  1.00  0.00     0.163 C 
ATOM     35  O   UNL     1      10.290   4.450  -1.335  1.00  0.00    -0.224 OA
ATOM     36  O   UNL     1       8.650   4.826   0.542  1.00  0.00    -0.224 OA
ENDBRANCH  32  33
ENDBRANCH  17  27
ENDBRANCH   9  14
ENDBRANCH   6   8
ENDBRANCH   5   6
ENDBRANCH   4   5
ENDBRANCH   3   4
ENDBRANCH   2   3
ENDBRANCH   1   2
BRANCH   1  37
ATOM     37  C   UNL     1       6.335  -8.061  -3.402  1.00  0.00     0.188 C 
BRANCH  37  38
ATOM     38  O   UNL     1       6.693  -8.713  -4.609  1.00  0.00    -0.376 OA
BRANCH  38  39
ATOM     39  C   UNL     1       7.256 -10.014  -4.569  1.00  0.00     0.202 C 
BRANCH  39  40
ATOM     40  C   UNL     1       8.253 -10.479  -3.489  1.00  0.00     0.261 C 
BRANCH  40  41
ATOM     41  O   UNL     1       8.054  -9.989  -2.159  1.00  0.00    -0.460 OA
BRANCH  41  42
ATOM     42  C   UNL     1       8.955  -9.071  -1.735  1.00  0.00     0.338 C 
ATOM     43  O   UNL     1       9.902  -8.618  -2.363  1.00  0.00    -0.246 OA
BRANCH  42  44
ATOM     44  C   UNL     1       8.534  -8.548  -0.424  1.00  0.00     0.060 A 
ATOM     45  C   UNL     1       8.126  -7.210  -0.330  1.00  0.00     0.016 A 
ATOM     46  C   UNL     1       8.588  -9.356   0.711  1.00  0.00     0.016 A 
ATOM     47  C   UNL     1       7.788  -6.668   0.908  1.00  0.00     0.010 A 
ATOM     48  C   UNL     1       8.272  -8.804   1.956  1.00  0.00     0.010 A 
ATOM     49  C   UNL     1       7.900  -7.451   2.063  1.00  0.00    -0.014 A 
BRANCH  49  50
ATOM     50  C   UNL     1       7.793  -6.815   3.398  1.00  0.00     0.031 A 
ATOM     51  C   UNL     1       9.058  -6.486   4.142  1.00  0.00     0.074 A 
ATOM     52  C   UNL     1       6.595  -6.547   3.946  1.00  0.00     0.049 A 
ATOM     53  N   UNL     1       9.209  -5.986   5.340  1.00  0.00    -0.248 NA
ATOM     54  C   UNL     1      10.323  -6.763   3.442  1.00  0.00     0.031 C 
ATOM     55  C   UNL     1       5.300  -6.808   3.319  1.00  0.00     0.029 A 
ATOM     56  N   UNL     1       6.277  -6.021   5.174  1.00  0.00    -0.354 N 
ATOM     57  C   UNL     1      10.580  -5.922   5.553  1.00  0.00     0.074 A 
ATOM     58  C   UNL     1      11.219  -6.441   4.363  1.00  0.00     0.031 C 
ATOM     59  C   UNL     1       4.325  -6.474   4.182  1.00  0.00     0.029 A 
ATOM     60  C   UNL     1       4.926  -6.004   5.429  1.00  0.00     0.049 A 
ATOM     61  H   UNL     1       6.951  -5.688   5.809  1.00  0.00     0.167 HD
ATOM     62  C   UNL     1      11.249  -5.463   6.637  1.00  0.00     0.034 A 
ATOM     63  C   UNL     1       4.256  -5.676   6.552  1.00  0.00     0.034 A 
ATOM     64  C   UNL     1      10.612  -4.939   7.814  1.00  0.00     0.049 A 
ATOM     65  C   UNL     1       5.025  -5.201   7.759  1.00  0.00     0.074 A 
ATOM     66  C   UNL     1      11.203  -4.406   8.946  1.00  0.00     0.029 A 
ATOM     67  N   UNL     1       9.242  -4.901   8.023  1.00  0.00    -0.354 N 
ATOM     68  N   UNL     1       6.318  -5.035   7.904  1.00  0.00    -0.248 NA
ATOM     69  C   UNL     1       4.239  -4.835   8.947  1.00  0.00     0.031 C 
ATOM     70  C   UNL     1      10.191  -4.081   9.855  1.00  0.00     0.029 A 
ATOM     71  C   UNL     1       8.968  -4.368   9.271  1.00  0.00     0.049 A 
ATOM     72  H   UNL     1       8.564  -5.208   7.378  1.00  0.00     0.167 HD
ATOM     73  C   UNL     1       6.496  -4.510   9.180  1.00  0.00     0.074 A 
ATOM     74  C   UNL     1       5.177  -4.368   9.760  1.00  0.00     0.031 C 
ATOM     75  C   UNL     1       7.648  -4.182   9.818  1.00  0.00     0.034 A 
BRANCH  62  76
ATOM     76  C   UNL     1      12.754  -5.500   6.597  1.00  0.00     0.023 A 
ATOM     77  C   UNL     1      13.456  -4.611   5.756  1.00  0.00     0.012 A 
ATOM     78  C   UNL     1      13.475  -6.377   7.431  1.00  0.00     0.148 A 
ATOM     79  C   UNL     1      14.850  -4.620   5.721  1.00  0.00     0.002 A 
ATOM     80  C   UNL     1      14.864  -6.346   7.425  1.00  0.00     0.091 A 
ATOM     81  F   UNL     1      12.790  -7.229   8.207  1.00  0.00    -0.205 F 
ATOM     82  C   UNL     1      15.553  -5.478   6.562  1.00  0.00     0.022 A 
BRANCH  80  83
ATOM     83  S   UNL     1      15.860  -7.352   8.530  1.00  0.00     0.127 S 
ATOM     84  O   UNL     1      16.484  -8.287   7.594  1.00  0.00    -0.237 OA
ATOM     85  O   UNL     1      16.774  -6.363   9.103  1.00  0.00    -0.237 OA
ATOM     86  O   UNL     1      14.932  -7.947   9.481  1.00  0.00    -0.744 OA
ENDBRANCH  80  83
ENDBRANCH  62  76
BRANCH  63  87
ATOM     87  C   UNL     1       2.768  -5.764   6.588  1.00  0.00     0.023 A 
ATOM     88  C   UNL     1       2.002  -4.586   6.676  1.00  0.00     0.012 A 
ATOM     89  C   UNL     1       2.110  -7.009   6.536  1.00  0.00     0.148 A 
ATOM     90  C   UNL     1       0.610  -4.646   6.747  1.00  0.00     0.002 A 
ATOM     91  C   UNL     1       0.722  -7.059   6.551  1.00  0.00     0.091 A 
ATOM     92  F   UNL     1       2.858  -8.119   6.468  1.00  0.00    -0.205 F 
ATOM     93  C   UNL     1      -0.030  -5.880   6.675  1.00  0.00     0.022 A 
BRANCH  91  94
ATOM     94  S   UNL     1      -0.192  -8.592   6.350  1.00  0.00     0.127 S 
ATOM     95  O   UNL     1      -0.803  -8.750   7.667  1.00  0.00    -0.237 OA
ATOM     96  O   UNL     1      -1.123  -8.246   5.276  1.00  0.00    -0.237 OA
ATOM     97  O   UNL     1       0.798  -9.598   5.990  1.00  0.00    -0.744 OA
ENDBRANCH  91  94
ENDBRANCH  63  87
BRANCH  75  98
ATOM     98  C   UNL     1       7.544  -3.583  11.198  1.00  0.00     0.023 A 
ATOM     99  C   UNL     1       7.159  -4.382  12.292  1.00  0.00     0.012 A 
ATOM    100  C   UNL     1       7.907  -2.238  11.419  1.00  0.00     0.148 A 
ATOM    101  C   UNL     1       7.101  -3.844  13.578  1.00  0.00     0.002 A 
ATOM    102  C   UNL     1       7.899  -1.724  12.710  1.00  0.00     0.091 A 
ATOM    103  F   UNL     1       8.256  -1.488  10.364  1.00  0.00    -0.205 F 
ATOM    104  C   UNL     1       7.483  -2.521  13.789  1.00  0.00     0.022 A 
BRANCH 102 105
ATOM    105  S   UNL     1       8.470  -0.064  13.091  1.00  0.00     0.127 S 
ATOM    106  O   UNL     1       7.220   0.608  13.442  1.00  0.00    -0.237 OA
ATOM    107  O   UNL     1       9.375  -0.298  14.216  1.00  0.00    -0.237 OA
ATOM    108  O   UNL     1       9.121   0.425  11.883  1.00  0.00    -0.744 OA
ENDBRANCH 102 105
ENDBRANCH  75  98
ENDBRANCH  49  50
ENDBRANCH  42  44
ENDBRANCH  41  42
ENDBRANCH  40  41
ENDBRANCH  39  40
ENDBRANCH  38  39
ENDBRANCH  37  38
ENDBRANCH   1  37
TORSDOF 25
