REMARK SMILES CCCCCCNC(=O)Oc1cccc(-c2ccc([C@@H](C)C(=O)OCCOCCOCCOC(=O)c3ccc(-c4c5nc(c(-c6cccc(S(=O)(=O)[O-])c6F)c6ccc([nH]6)c(-c6cccc(S(=O)(=O)[O-])c6F)c6nc(c(-c7cccc(S(=O)(=O)[O-])c7F)c7ccc4[nH]7)C=C6)C=C5)cc3)cc2)c1
REMARK SMILES IDX 25 1 24 2 22 3 23 4 20 5 21 6 19 7 16 8 17 9 100 10 18 11
REMARK SMILES IDX 99 12 15 13 11 14 12 15 101 16 13 17 14 18 10 19 8 20 7 21
REMARK SMILES IDX 9 23 6 24 5 25 4 26 3 27 2 28 1 29 26 30 27 31 28 32 29 33
REMARK SMILES IDX 30 34 31 35 32 36 33 37 34 38 35 39 36 40 37 41 98 42 38 43
REMARK SMILES IDX 97 44 39 45 40 46 41 47 91 48 42 49 96 50 90 51 92 52 43 53
REMARK SMILES IDX 95 54 89 55 88 56 44 58 76 59 56 60 75 61 57 62 60 63 74 64
REMARK SMILES IDX 93 65 58 66 59 67 73 69 94 70 61 71 45 72 46 73 54 74 47 75
REMARK SMILES IDX 49 76 55 77 48 78 50 79 51 80 52 81 53 82 77 83 78 84 86 85
REMARK SMILES IDX 79 86 81 87 87 88 80 89 82 90 83 91 84 92 85 93 62 94 63 95
REMARK SMILES IDX 71 96 64 97 66 98 72 99 65 100 67 101 68 102 69 103 70 104
REMARK H PARENT 7 22 92 57 60 68
REMARK Flexibility Score: inf
ROOT
ATOM      1  C   UNL     1      -2.287   6.837 -14.458  1.00  0.00     0.261 C 
ENDROOT
BRANCH   1   2
ATOM      2  O   UNL     1      -3.332   6.275 -13.631  1.00  0.00    -0.463 OA
BRANCH   2   3
ATOM      3  C   UNL     1      -4.222   5.463 -14.255  1.00  0.00     0.313 C 
ATOM      4  O   UNL     1      -4.219   5.276 -15.471  1.00  0.00    -0.252 OA
BRANCH   3   5
ATOM      5  C   UNL     1      -5.248   4.756 -13.362  1.00  0.00     0.126 C 
ATOM      6  C   UNL     1      -6.644   5.058 -13.910  1.00  0.00     0.025 C 
BRANCH   5   7
ATOM      7  C   UNL     1      -5.239   4.921 -11.842  1.00  0.00    -0.034 A 
ATOM      8  C   UNL     1      -5.216   5.103  -8.981  1.00  0.00    -0.018 A 
ATOM      9  C   UNL     1      -5.223   6.250  -9.794  1.00  0.00     0.009 A 
ATOM     10  C   UNL     1      -5.235   3.860  -9.625  1.00  0.00     0.009 A 
ATOM     11  C   UNL     1      -5.245   6.165 -11.200  1.00  0.00     0.005 A 
ATOM     12  C   UNL     1      -5.255   3.770 -11.026  1.00  0.00     0.005 A 
BRANCH   8  13
ATOM     13  C   UNL     1      -5.242   5.204  -7.506  1.00  0.00    -0.015 A 
ATOM     14  C   UNL     1      -4.328   4.731  -5.300  1.00  0.00     0.133 A 
ATOM     15  C   UNL     1      -5.390   5.391  -4.685  1.00  0.00     0.047 A 
ATOM     16  C   UNL     1      -4.249   4.621  -6.695  1.00  0.00     0.056 A 
ATOM     17  C   UNL     1      -6.377   5.972  -5.473  1.00  0.00     0.004 A 
ATOM     18  C   UNL     1      -6.302   5.878  -6.867  1.00  0.00     0.009 A 
BRANCH  14  19
ATOM     19  O   UNL     1      -3.418   4.076  -4.451  1.00  0.00    -0.410 OA
BRANCH  19  20
ATOM     20  C   UNL     1      -2.099   4.498  -4.480  1.00  0.00     0.412 C 
ATOM     21  N   UNL     1      -1.301   3.861  -3.568  1.00  0.00    -0.321 N 
ATOM     22  H   UNL     1      -0.335   4.039  -3.632  1.00  0.00     0.167 HD
ATOM     23  O   UNL     1      -1.642   5.383  -5.203  1.00  0.00    -0.224 OA
BRANCH  21  24
ATOM     24  C   UNL     1      -1.721   2.953  -2.517  1.00  0.00     0.119 C 
BRANCH  24  25
ATOM     25  C   UNL     1      -1.083   1.569  -2.630  1.00  0.00     0.021 C 
BRANCH  25  26
ATOM     26  C   UNL     1       0.445   1.539  -2.494  1.00  0.00     0.002 C 
BRANCH  26  27
ATOM     27  C   UNL     1       1.010   2.060  -1.167  1.00  0.00    -0.000 C 
BRANCH  27  28
ATOM     28  C   UNL     1       0.541   1.322   0.090  1.00  0.00    -0.003 C 
ATOM     29  C   UNL     1       0.952  -0.142   0.124  1.00  0.00     0.004 C 
ENDBRANCH  27  28
ENDBRANCH  26  27
ENDBRANCH  25  26
ENDBRANCH  24  25
ENDBRANCH  21  24
ENDBRANCH  19  20
ENDBRANCH  14  19
ENDBRANCH   8  13
ENDBRANCH   5   7
ENDBRANCH   3   5
ENDBRANCH   2   3
ENDBRANCH   1   2
BRANCH   1  30
ATOM     30  C   UNL     1      -0.856   6.603 -13.951  1.00  0.00     0.202 C 
BRANCH  30  31
ATOM     31  O   UNL     1      -0.431   5.262 -13.746  1.00  0.00    -0.376 OA
BRANCH  31  32
ATOM     32  C   UNL     1      -1.182   4.416 -12.883  1.00  0.00     0.188 C 
BRANCH  32  33
ATOM     33  C   UNL     1      -1.787   5.010 -11.603  1.00  0.00     0.188 C 
BRANCH  33  34
ATOM     34  O   UNL     1      -1.301   6.295 -11.269  1.00  0.00    -0.376 OA
BRANCH  34  35
ATOM     35  C   UNL     1      -0.756   6.437  -9.971  1.00  0.00     0.202 C 
BRANCH  35  36
ATOM     36  C   UNL     1       0.574   5.701  -9.762  1.00  0.00     0.261 C 
BRANCH  36  37
ATOM     37  O   UNL     1       0.573   4.301 -10.098  1.00  0.00    -0.460 OA
BRANCH  37  38
ATOM     38  C   UNL     1      -0.115   3.468  -9.288  1.00  0.00     0.338 C 
ATOM     39  O   UNL     1      -0.730   3.768  -8.270  1.00  0.00    -0.246 OA
BRANCH  38  40
ATOM     40  C   UNL     1      -0.195   2.148  -9.945  1.00  0.00     0.060 A 
ATOM     41  C   UNL     1      -1.455   1.605 -10.241  1.00  0.00     0.016 A 
ATOM     42  C   UNL     1       0.968   1.451 -10.277  1.00  0.00     0.016 A 
ATOM     43  C   UNL     1      -1.554   0.349 -10.845  1.00  0.00     0.010 A 
ATOM     44  C   UNL     1       0.866   0.187 -10.864  1.00  0.00     0.010 A 
ATOM     45  C   UNL     1      -0.393  -0.384 -11.124  1.00  0.00    -0.014 A 
BRANCH  45  46
ATOM     46  C   UNL     1      -0.477  -1.808 -11.531  1.00  0.00     0.031 A 
ATOM     47  C   UNL     1      -0.248  -2.868 -10.489  1.00  0.00     0.074 A 
ATOM     48  C   UNL     1      -0.706  -2.161 -12.809  1.00  0.00     0.049 A 
ATOM     49  N   UNL     1      -0.172  -4.166 -10.624  1.00  0.00    -0.248 NA
ATOM     50  C   UNL     1      -0.073  -2.395  -9.105  1.00  0.00     0.031 C 
ATOM     51  C   UNL     1      -0.954  -1.235 -13.911  1.00  0.00     0.029 A 
ATOM     52  N   UNL     1      -0.727  -3.402 -13.397  1.00  0.00    -0.354 N 
ATOM     53  C   UNL     1       0.101  -4.663  -9.356  1.00  0.00     0.074 A 
ATOM     54  C   UNL     1       0.180  -3.526  -8.464  1.00  0.00     0.031 C 
ATOM     55  C   UNL     1      -1.071  -1.938 -15.051  1.00  0.00     0.029 A 
ATOM     56  C   UNL     1      -0.869  -3.358 -14.764  1.00  0.00     0.049 A 
ATOM     57  H   UNL     1      -0.649  -4.242 -12.889  1.00  0.00     0.167 HD
ATOM     58  C   UNL     1       0.264  -5.949  -8.964  1.00  0.00     0.034 A 
ATOM     59  C   UNL     1      -0.810  -4.346 -15.681  1.00  0.00     0.034 A 
ATOM     60  C   UNL     1       0.178  -7.079  -9.849  1.00  0.00     0.049 A 
ATOM     61  C   UNL     1      -0.584  -5.766 -15.227  1.00  0.00     0.074 A 
ATOM     62  C   UNL     1       0.273  -8.424  -9.537  1.00  0.00     0.029 A 
ATOM     63  N   UNL     1       0.001  -6.999 -11.221  1.00  0.00    -0.354 N 
ATOM     64  N   UNL     1      -0.445  -6.236 -14.011  1.00  0.00    -0.248 NA
ATOM     65  C   UNL     1      -0.531  -6.798 -16.275  1.00  0.00     0.031 C 
ATOM     66  C   UNL     1       0.195  -9.155 -10.728  1.00  0.00     0.029 A 
ATOM     67  C   UNL     1       0.008  -8.268 -11.776  1.00  0.00     0.049 A 
ATOM     68  H   UNL     1      -0.113  -6.162 -11.728  1.00  0.00     0.167 HD
ATOM     69  C   UNL     1      -0.323  -7.616 -14.143  1.00  0.00     0.074 A 
ATOM     70  C   UNL     1      -0.424  -7.909 -15.558  1.00  0.00     0.031 C 
ATOM     71  C   UNL     1      -0.134  -8.555 -13.182  1.00  0.00     0.034 A 
BRANCH  58  72
ATOM     72  C   UNL     1       0.554  -6.198  -7.506  1.00  0.00     0.023 A 
ATOM     73  C   UNL     1      -0.456  -5.994  -6.544  1.00  0.00     0.012 A 
ATOM     74  C   UNL     1       1.818  -6.663  -7.093  1.00  0.00     0.148 A 
ATOM     75  C   UNL     1      -0.200  -6.206  -5.189  1.00  0.00     0.002 A 
ATOM     76  C   UNL     1       2.051  -6.918  -5.747  1.00  0.00     0.091 A 
ATOM     77  F   UNL     1       2.773  -6.829  -8.019  1.00  0.00    -0.205 F 
ATOM     78  C   UNL     1       1.049  -6.676  -4.793  1.00  0.00     0.022 A 
BRANCH  76  79
ATOM     79  S   UNL     1       3.600  -7.600  -5.147  1.00  0.00     0.127 S 
ATOM     80  O   UNL     1       4.184  -6.447  -4.464  1.00  0.00    -0.237 OA
ATOM     81  O   UNL     1       3.141  -8.667  -4.257  1.00  0.00    -0.237 OA
ATOM     82  O   UNL     1       4.319  -8.062  -6.326  1.00  0.00    -0.744 OA
ENDBRANCH  76  79
ENDBRANCH  58  72
BRANCH  59  83
ATOM     83  C   UNL     1      -0.994  -4.031 -17.126  1.00  0.00     0.023 A 
ATOM     84  C   UNL     1      -2.158  -4.468 -17.787  1.00  0.00     0.012 A 
ATOM     85  C   UNL     1      -0.033  -3.290 -17.843  1.00  0.00     0.148 A 
ATOM     86  C   UNL     1      -2.353  -4.193 -19.141  1.00  0.00     0.002 A 
ATOM     87  C   UNL     1      -0.258  -2.974 -19.177  1.00  0.00     0.091 A 
ATOM     88  F   UNL     1       1.075  -2.899 -17.199  1.00  0.00    -0.205 F 
ATOM     89  C   UNL     1      -1.410  -3.438 -19.833  1.00  0.00     0.022 A 
BRANCH  87  90
ATOM     90  S   UNL     1       0.841  -1.913 -20.121  1.00  0.00     0.127 S 
ATOM     91  O   UNL     1       1.345  -2.833 -21.138  1.00  0.00    -0.237 OA
ATOM     92  O   UNL     1      -0.084  -0.893 -20.617  1.00  0.00    -0.237 OA
ATOM     93  O   UNL     1       1.831  -1.423 -19.172  1.00  0.00    -0.744 OA
ENDBRANCH  87  90
ENDBRANCH  59  83
BRANCH  71  94
ATOM     94  C   UNL     1      -0.058  -9.999 -13.612  1.00  0.00     0.023 A 
ATOM     95  C   UNL     1       1.074 -10.468 -14.309  1.00  0.00     0.012 A 
ATOM     96  C   UNL     1      -1.075 -10.909 -13.259  1.00  0.00     0.148 A 
ATOM     97  C   UNL     1       1.174 -11.810 -14.679  1.00  0.00     0.002 A 
ATOM     98  C   UNL     1      -0.944 -12.254 -13.585  1.00  0.00     0.091 A 
ATOM     99  F   UNL     1      -2.152 -10.444 -12.609  1.00  0.00    -0.205 F 
ATOM    100  C   UNL     1       0.173 -12.704 -14.307  1.00  0.00     0.022 A 
BRANCH  98 101
ATOM    101  S   UNL     1      -2.134 -13.496 -13.064  1.00  0.00     0.127 S 
ATOM    102  O   UNL     1      -2.769 -13.851 -14.332  1.00  0.00    -0.237 OA
ATOM    103  O   UNL     1      -1.271 -14.535 -12.501  1.00  0.00    -0.237 OA
ATOM    104  O   UNL     1      -3.002 -12.840 -12.095  1.00  0.00    -0.744 OA
ENDBRANCH  98 101
ENDBRANCH  71  94
ENDBRANCH  45  46
ENDBRANCH  38  40
ENDBRANCH  37  38
ENDBRANCH  36  37
ENDBRANCH  35  36
ENDBRANCH  34  35
ENDBRANCH  33  34
ENDBRANCH  32  33
ENDBRANCH  31  32
ENDBRANCH  30  31
ENDBRANCH   1  30
TORSDOF 29
