REMARK SMILES CO[C@H]1C[C@@H](C(=O)OCCOCCOCCOC(=O)c2ccc(-c3c4nc(c(-c5cccc(S(=O)(=O)[O-])c5F)c5ccc([nH]5)c(-c5cccc(S(=O)(=O)[O-])c5F)c5nc(c(-c6cccc(S(=O)(=O)[O-])c6F)c6ccc3[nH]6)C=C5)C=C4)cc2)N(C(=O)Nc2cc(C)cc(F)c2)C1
REMARK SMILES IDX 13 1 12 2 11 3 10 4 9 5 8 6 6 7 7 8 5 9 3 10 4 11 95 12
REMARK SMILES IDX 83 13 2 14 1 15 84 16 85 17 86 18 87 20 88 21 94 22 89 23
REMARK SMILES IDX 92 24 90 25 91 26 93 27 14 28 15 29 16 30 17 31 18 32 19 33
REMARK SMILES IDX 20 34 21 35 82 36 22 37 81 38 23 39 24 40 25 41 75 42 26 43
REMARK SMILES IDX 80 44 74 45 76 46 27 47 79 48 73 49 72 50 28 52 60 53 40 54
REMARK SMILES IDX 59 55 41 56 44 57 58 58 77 59 42 60 43 61 57 63 78 64 45 65
REMARK SMILES IDX 29 66 30 67 38 68 31 69 33 70 39 71 32 72 34 73 35 74 36 75
REMARK SMILES IDX 37 76 61 77 62 78 70 79 63 80 65 81 71 82 64 83 66 84 67 85
REMARK SMILES IDX 68 86 69 87 46 88 47 89 55 90 48 91 50 92 56 93 49 94 51 95
REMARK SMILES IDX 52 96 53 97 54 98
REMARK H PARENT 86 19 76 51 44 62
REMARK Flexibility Score: inf
ROOT
ATOM      1  C   UNL     1       4.665   1.024   5.379  1.00  0.00     0.188 C 
ENDROOT
BRANCH   1   2
ATOM      2  C   UNL     1       6.069   0.432   5.151  1.00  0.00     0.188 C 
BRANCH   2   3
ATOM      3  O   UNL     1       6.958   1.417   4.614  1.00  0.00    -0.376 OA
BRANCH   3   4
ATOM      4  C   UNL     1       7.111   1.375   3.195  1.00  0.00     0.202 C 
BRANCH   4   5
ATOM      5  C   UNL     1       5.948   1.989   2.412  1.00  0.00     0.261 C 
BRANCH   5   6
ATOM      6  O   UNL     1       5.275   1.136   1.453  1.00  0.00    -0.462 OA
BRANCH   6   7
ATOM      7  C   UNL     1       4.459   0.146   1.909  1.00  0.00     0.329 C 
ATOM      8  O   UNL     1       4.487  -0.339   3.031  1.00  0.00    -0.250 OA
BRANCH   7   9
ATOM      9  C   UNL     1       3.337  -0.151   0.931  1.00  0.00     0.199 C 
ATOM     10  C   UNL     1       0.964   0.061   1.549  1.00  0.00     0.140 C 
ATOM     11  C   UNL     1       2.234   0.869   1.285  1.00  0.00     0.071 C 
ATOM     12  C   UNL     1       1.463  -1.351   1.834  1.00  0.00     0.154 C 
ATOM     13  N   UNL     1       2.738  -1.475   1.152  1.00  0.00    -0.308 N 
BRANCH  10  14
ATOM     14  O   UNL     1       0.253   0.541   2.689  1.00  0.00    -0.380 OA
ATOM     15  C   UNL     1      -0.543   1.687   2.437  1.00  0.00     0.195 C 
ENDBRANCH  10  14
BRANCH  13  16
ATOM     16  C   UNL     1       3.117  -2.705   0.682  1.00  0.00     0.322 C 
ATOM     17  O   UNL     1       2.351  -3.670   0.716  1.00  0.00    -0.248 OA
ATOM     18  N   UNL     1       4.270  -2.840  -0.020  1.00  0.00    -0.308 N 
ATOM     19  H   UNL     1       4.165  -3.269  -0.900  1.00  0.00     0.171 HD
BRANCH  18  20
ATOM     20  C   UNL     1       5.586  -2.474   0.295  1.00  0.00     0.046 A 
ATOM     21  C   UNL     1       6.479  -2.315  -0.771  1.00  0.00     0.029 A 
ATOM     22  C   UNL     1       6.055  -2.380   1.601  1.00  0.00     0.065 A 
ATOM     23  C   UNL     1       7.810  -1.938  -0.548  1.00  0.00    -0.046 A 
ATOM     24  C   UNL     1       7.384  -2.030   1.822  1.00  0.00     0.125 A 
ATOM     25  C   UNL     1       8.762  -1.752  -1.690  1.00  0.00     0.044 C 
ATOM     26  C   UNL     1       8.251  -1.769   0.766  1.00  0.00     0.042 A 
ATOM     27  F   UNL     1       7.837  -1.911   3.078  1.00  0.00    -0.207 F 
ENDBRANCH  18  20
ENDBRANCH  13  16
ENDBRANCH   7   9
ENDBRANCH   6   7
ENDBRANCH   5   6
ENDBRANCH   4   5
ENDBRANCH   3   4
ENDBRANCH   2   3
ENDBRANCH   1   2
BRANCH   1  28
ATOM     28  O   UNL     1       4.566   2.152   6.253  1.00  0.00    -0.376 OA
BRANCH  28  29
ATOM     29  C   UNL     1       5.484   2.203   7.333  1.00  0.00     0.202 C 
BRANCH  29  30
ATOM     30  C   UNL     1       5.199   1.253   8.502  1.00  0.00     0.261 C 
BRANCH  30  31
ATOM     31  O   UNL     1       4.942  -0.109   8.119  1.00  0.00    -0.460 OA
BRANCH  31  32
ATOM     32  C   UNL     1       3.625  -0.437   8.046  1.00  0.00     0.338 C 
ATOM     33  O   UNL     1       2.678   0.300   8.267  1.00  0.00    -0.246 OA
BRANCH  32  34
ATOM     34  C   UNL     1       3.453  -1.823   7.554  1.00  0.00     0.060 A 
ATOM     35  C   UNL     1       2.491  -2.061   6.561  1.00  0.00     0.016 A 
ATOM     36  C   UNL     1       4.125  -2.890   8.152  1.00  0.00     0.016 A 
ATOM     37  C   UNL     1       2.137  -3.370   6.224  1.00  0.00     0.010 A 
ATOM     38  C   UNL     1       3.761  -4.201   7.821  1.00  0.00     0.010 A 
ATOM     39  C   UNL     1       2.725  -4.446   6.900  1.00  0.00    -0.014 A 
BRANCH  39  40
ATOM     40  C   UNL     1       2.103  -5.794   6.839  1.00  0.00     0.031 A 
ATOM     41  C   UNL     1       1.172  -6.199   7.955  1.00  0.00     0.074 A 
ATOM     42  C   UNL     1       2.360  -6.656   5.840  1.00  0.00     0.049 A 
ATOM     43  N   UNL     1       0.571  -7.342   8.165  1.00  0.00    -0.248 NA
ATOM     44  C   UNL     1       0.886  -5.175   8.974  1.00  0.00     0.031 C 
ATOM     45  C   UNL     1       3.210  -6.387   4.684  1.00  0.00     0.029 A 
ATOM     46  N   UNL     1       1.940  -7.952   5.659  1.00  0.00    -0.354 N 
ATOM     47  C   UNL     1      -0.129  -7.188   9.356  1.00  0.00     0.074 A 
ATOM     48  C   UNL     1       0.125  -5.844   9.827  1.00  0.00     0.031 C 
ATOM     49  C   UNL     1       3.273  -7.496   3.924  1.00  0.00     0.029 A 
ATOM     50  C   UNL     1       2.489  -8.559   4.554  1.00  0.00     0.049 A 
ATOM     51  H   UNL     1       1.307  -8.404   6.263  1.00  0.00     0.167 HD
ATOM     52  C   UNL     1      -0.924  -8.076   9.998  1.00  0.00     0.034 A 
ATOM     53  C   UNL     1       2.384  -9.829   4.113  1.00  0.00     0.034 A 
ATOM     54  C   UNL     1      -1.216  -9.399   9.517  1.00  0.00     0.049 A 
ATOM     55  C   UNL     1       1.521 -10.813   4.867  1.00  0.00     0.074 A 
ATOM     56  C   UNL     1      -2.062 -10.345  10.066  1.00  0.00     0.029 A 
ATOM     57  N   UNL     1      -0.663  -9.966   8.381  1.00  0.00    -0.354 N 
ATOM     58  N   UNL     1       0.769 -10.617   5.924  1.00  0.00    -0.248 NA
ATOM     59  C   UNL     1       1.473 -12.190   4.349  1.00  0.00     0.031 C 
ATOM     60  C   UNL     1      -2.003 -11.497   9.273  1.00  0.00     0.029 A 
ATOM     61  C   UNL     1      -1.134 -11.258   8.220  1.00  0.00     0.049 A 
ATOM     62  H   UNL     1      -0.029  -9.517   7.776  1.00  0.00     0.167 HD
ATOM     63  C   UNL     1       0.128 -11.828   6.169  1.00  0.00     0.074 A 
ATOM     64  C   UNL     1       0.570 -12.750   5.144  1.00  0.00     0.031 C 
ATOM     65  C   UNL     1      -0.740 -12.151   7.161  1.00  0.00     0.034 A 
BRANCH  52  66
ATOM     66  C   UNL     1      -1.559  -7.633  11.288  1.00  0.00     0.023 A 
ATOM     67  C   UNL     1      -2.634  -6.722  11.261  1.00  0.00     0.012 A 
ATOM     68  C   UNL     1      -1.118  -8.147  12.523  1.00  0.00     0.148 A 
ATOM     69  C   UNL     1      -3.239  -6.304  12.445  1.00  0.00     0.002 A 
ATOM     70  C   UNL     1      -1.753  -7.758  13.696  1.00  0.00     0.091 A 
ATOM     71  F   UNL     1      -0.076  -8.991  12.531  1.00  0.00    -0.205 F 
ATOM     72  C   UNL     1      -2.806  -6.829  13.660  1.00  0.00     0.022 A 
BRANCH  70  73
ATOM     73  S   UNL     1      -1.311  -8.440  15.298  1.00  0.00     0.127 S 
ATOM     74  O   UNL     1      -0.541  -7.345  15.884  1.00  0.00    -0.237 OA
ATOM     75  O   UNL     1      -2.620  -8.661  15.915  1.00  0.00    -0.237 OA
ATOM     76  O   UNL     1      -0.564  -9.658  15.018  1.00  0.00    -0.744 OA
ENDBRANCH  70  73
ENDBRANCH  52  66
BRANCH  53  77
ATOM     77  C   UNL     1       3.078 -10.246   2.861  1.00  0.00     0.023 A 
ATOM     78  C   UNL     1       2.310 -10.547   1.719  1.00  0.00     0.012 A 
ATOM     79  C   UNL     1       4.482 -10.345   2.790  1.00  0.00     0.148 A 
ATOM     80  C   UNL     1       2.924 -10.966   0.538  1.00  0.00     0.002 A 
ATOM     81  C   UNL     1       5.090 -10.714   1.595  1.00  0.00     0.091 A 
ATOM     82  F   UNL     1       5.194 -10.077   3.893  1.00  0.00    -0.205 F 
ATOM     83  C   UNL     1       4.312 -11.041   0.473  1.00  0.00     0.022 A 
BRANCH  81  84
ATOM     84  S   UNL     1       6.873 -10.731   1.380  1.00  0.00     0.127 S 
ATOM     85  O   UNL     1       7.147 -12.160   1.250  1.00  0.00    -0.237 OA
ATOM     86  O   UNL     1       7.036  -9.959   0.147  1.00  0.00    -0.237 OA
ATOM     87  O   UNL     1       7.421 -10.089   2.567  1.00  0.00    -0.744 OA
ENDBRANCH  81  84
ENDBRANCH  53  77
BRANCH  65  88
ATOM     88  C   UNL     1      -1.308 -13.548   7.181  1.00  0.00     0.023 A 
ATOM     89  C   UNL     1      -0.494 -14.627   7.580  1.00  0.00     0.012 A 
ATOM     90  C   UNL     1      -2.668 -13.780   6.894  1.00  0.00     0.148 A 
ATOM     91  C   UNL     1      -1.018 -15.917   7.666  1.00  0.00     0.002 A 
ATOM     92  C   UNL     1      -3.194 -15.061   7.025  1.00  0.00     0.091 A 
ATOM     93  F   UNL     1      -3.425 -12.745   6.499  1.00  0.00    -0.205 F 
ATOM     94  C   UNL     1      -2.368 -16.132   7.401  1.00  0.00     0.022 A 
BRANCH  92  95
ATOM     95  S   UNL     1      -4.943 -15.411   6.798  1.00  0.00     0.127 S 
ATOM     96  O   UNL     1      -4.949 -16.064   5.490  1.00  0.00    -0.237 OA
ATOM     97  O   UNL     1      -5.234 -16.299   7.924  1.00  0.00    -0.237 OA
ATOM     98  O   UNL     1      -5.619 -14.122   6.859  1.00  0.00    -0.744 OA
ENDBRANCH  92  95
ENDBRANCH  65  88
ENDBRANCH  39  40
ENDBRANCH  32  34
ENDBRANCH  31  32
ENDBRANCH  30  31
ENDBRANCH  29  30
ENDBRANCH  28  29
ENDBRANCH   1  28
TORSDOF 23
