REMARK SMILES CCC(=O)N1c2ccc(S(=O)(=O)N3CCC(C)CC3)cc2C[C@H]1C(=O)OCCOCCOCCOC(=O)c1ccc(-c2c3nc(c(-c4cccc(S(=O)(=O)[O-])c4F)c4ccc([nH]4)c(-c4cccc(S(=O)(=O)[O-])c4F)c4nc(c(-c5cccc(S(=O)(=O)[O-])c5F)c5ccc2[nH]5)C=C4)C=C3)cc1
REMARK SMILES IDX 31 1 30 2 29 3 28 4 27 5 26 6 24 7 25 8 23 9 5 10 6 11 7 12
REMARK SMILES IDX 21 13 22 14 8 15 20 16 9 17 3 18 4 19 2 20 1 21 10 22 11 23
REMARK SMILES IDX 12 24 13 25 14 26 19 27 15 28 18 29 16 30 17 31 32 32 33 33
REMARK SMILES IDX 34 34 35 35 36 36 37 37 38 38 39 39 100 40 40 41 99 42 41 43
REMARK SMILES IDX 42 44 43 45 93 46 44 47 98 48 92 49 94 50 45 51 97 52 91 53
REMARK SMILES IDX 90 54 46 56 78 57 58 58 77 59 59 60 62 61 76 62 95 63 60 64
REMARK SMILES IDX 61 65 75 67 96 68 63 69 47 70 48 71 56 72 49 73 51 74 57 75
REMARK SMILES IDX 50 76 52 77 53 78 54 79 55 80 79 81 80 82 88 83 81 84 83 85
REMARK SMILES IDX 89 86 82 87 84 88 85 89 86 90 87 91 64 92 65 93 73 94 66 95
REMARK SMILES IDX 68 96 74 97 67 98 69 99 70 100 71 101 72 102
REMARK H PARENT 94 55 62 66
REMARK Flexibility Score: inf
ROOT
ATOM      1  C   UNL     1      -0.135   3.069  -4.648  1.00  0.00     0.188 C 
ENDROOT
BRANCH   1   2
ATOM      2  C   UNL     1       0.261   4.356  -5.366  1.00  0.00     0.188 C 
BRANCH   2   3
ATOM      3  O   UNL     1       0.880   4.309  -6.648  1.00  0.00    -0.376 OA
BRANCH   3   4
ATOM      4  C   UNL     1       1.068   3.066  -7.303  1.00  0.00     0.202 C 
BRANCH   4   5
ATOM      5  C   UNL     1       2.436   2.438  -7.022  1.00  0.00     0.261 C 
BRANCH   5   6
ATOM      6  O   UNL     1       2.635   2.074  -5.640  1.00  0.00    -0.462 OA
BRANCH   6   7
ATOM      7  C   UNL     1       3.441   2.890  -4.913  1.00  0.00     0.329 C 
ATOM      8  O   UNL     1       3.999   3.889  -5.355  1.00  0.00    -0.250 OA
BRANCH   7   9
ATOM      9  C   UNL     1       3.625   2.453  -3.453  1.00  0.00     0.204 C 
ATOM     10  N   UNL     1       2.953   1.207  -2.994  1.00  0.00    -0.298 N 
ATOM     11  C   UNL     1       3.909   0.420  -2.347  1.00  0.00     0.048 A 
ATOM     12  C   UNL     1       3.634  -0.694  -1.598  1.00  0.00     0.028 A 
ATOM     13  C   UNL     1       5.186   0.968  -2.419  1.00  0.00    -0.020 A 
ATOM     14  C   UNL     1       5.152   2.220  -3.240  1.00  0.00     0.075 C 
ATOM     15  C   UNL     1       4.677  -1.250  -0.896  1.00  0.00     0.024 A 
ATOM     16  C   UNL     1       6.256   0.361  -1.763  1.00  0.00     0.027 A 
ATOM     17  C   UNL     1       5.982  -0.775  -0.988  1.00  0.00     0.083 A 
BRANCH  10  18
ATOM     18  C   UNL     1       1.630   0.998  -2.674  1.00  0.00     0.227 C 
ATOM     19  O   UNL     1       0.978   0.065  -3.147  1.00  0.00    -0.275 OA
BRANCH  18  20
ATOM     20  C   UNL     1       1.075   1.808  -1.516  1.00  0.00     0.097 C 
ATOM     21  C   UNL     1       0.979   0.988  -0.234  1.00  0.00     0.014 C 
ENDBRANCH  18  20
ENDBRANCH  10  18
BRANCH  17  22
ATOM     22  S   UNL     1       7.269  -1.663  -0.129  1.00  0.00     0.243 S 
ATOM     23  O   UNL     1       7.891  -2.515  -1.118  1.00  0.00    -0.207 OA
ATOM     24  O   UNL     1       8.031  -0.672   0.605  1.00  0.00    -0.207 OA
BRANCH  22  25
ATOM     25  N   UNL     1       6.486  -2.664   0.998  1.00  0.00    -0.198 NA
ATOM     26  C   UNL     1       5.883  -3.958   0.635  1.00  0.00     0.103 C 
ATOM     27  C   UNL     1       6.225  -2.225   2.370  1.00  0.00     0.103 C 
ATOM     28  C   UNL     1       4.384  -4.050   0.981  1.00  0.00     0.020 C 
ATOM     29  C   UNL     1       4.739  -1.990   2.551  1.00  0.00     0.020 C 
ATOM     30  C   UNL     1       3.880  -3.211   2.179  1.00  0.00    -0.012 C 
ATOM     31  C   UNL     1       2.433  -2.743   1.951  1.00  0.00     0.008 C 
ENDBRANCH  22  25
ENDBRANCH  17  22
ENDBRANCH   7   9
ENDBRANCH   6   7
ENDBRANCH   5   6
ENDBRANCH   4   5
ENDBRANCH   3   4
ENDBRANCH   2   3
ENDBRANCH   1   2
BRANCH   1  32
ATOM     32  O   UNL     1      -1.063   2.298  -5.400  1.00  0.00    -0.376 OA
BRANCH  32  33
ATOM     33  C   UNL     1      -1.952   1.522  -4.598  1.00  0.00     0.202 C 
BRANCH  33  34
ATOM     34  C   UNL     1      -3.276   2.286  -4.506  1.00  0.00     0.261 C 
BRANCH  34  35
ATOM     35  O   UNL     1      -3.126   3.546  -3.823  1.00  0.00    -0.460 OA
BRANCH  35  36
ATOM     36  C   UNL     1      -2.873   3.451  -2.498  1.00  0.00     0.338 C 
ATOM     37  O   UNL     1      -2.880   2.430  -1.830  1.00  0.00    -0.246 OA
BRANCH  36  38
ATOM     38  C   UNL     1      -2.356   4.746  -2.006  1.00  0.00     0.060 A 
ATOM     39  C   UNL     1      -1.273   4.716  -1.119  1.00  0.00     0.016 A 
ATOM     40  C   UNL     1      -2.918   5.966  -2.389  1.00  0.00     0.016 A 
ATOM     41  C   UNL     1      -0.763   5.896  -0.588  1.00  0.00     0.010 A 
ATOM     42  C   UNL     1      -2.429   7.151  -1.830  1.00  0.00     0.010 A 
ATOM     43  C   UNL     1      -1.373   7.114  -0.903  1.00  0.00    -0.014 A 
BRANCH  43  44
ATOM     44  C   UNL     1      -1.041   8.302  -0.088  1.00  0.00     0.031 A 
ATOM     45  C   UNL     1      -1.915   8.621   1.093  1.00  0.00     0.074 A 
ATOM     46  C   UNL     1       0.036   9.057  -0.365  1.00  0.00     0.049 A 
ATOM     47  N   UNL     1      -1.819   9.597   1.954  1.00  0.00    -0.248 NA
ATOM     48  C   UNL     1      -3.047   7.710   1.337  1.00  0.00     0.031 C 
ATOM     49  C   UNL     1       0.967   8.833  -1.469  1.00  0.00     0.029 A 
ATOM     50  N   UNL     1       0.515  10.179   0.262  1.00  0.00    -0.354 N 
ATOM     51  C   UNL     1      -2.890   9.438   2.824  1.00  0.00     0.074 A 
ATOM     52  C   UNL     1      -3.628   8.275   2.384  1.00  0.00     0.031 C 
ATOM     53  C   UNL     1       1.893   9.809  -1.460  1.00  0.00     0.029 A 
ATOM     54  C   UNL     1       1.607  10.732  -0.362  1.00  0.00     0.049 A 
ATOM     55  H   UNL     1       0.114  10.553   1.079  1.00  0.00     0.167 HD
ATOM     56  C   UNL     1      -3.224  10.184   3.902  1.00  0.00     0.034 A 
ATOM     57  C   UNL     1       2.284  11.864  -0.086  1.00  0.00     0.034 A 
ATOM     58  C   UNL     1      -2.482  11.329   4.350  1.00  0.00     0.049 A 
ATOM     59  C   UNL     1       1.877  12.691   1.107  1.00  0.00     0.074 A 
ATOM     60  C   UNL     1      -2.720  12.133   5.450  1.00  0.00     0.029 A 
ATOM     61  N   UNL     1      -1.361  11.841   3.714  1.00  0.00    -0.354 N 
ATOM     62  N   UNL     1       0.931  12.465   1.987  1.00  0.00    -0.248 NA
ATOM     63  C   UNL     1       2.655  13.912   1.364  1.00  0.00     0.031 C 
ATOM     64  C   UNL     1      -1.750  13.142   5.470  1.00  0.00     0.029 A 
ATOM     65  C   UNL     1      -0.899  12.955   4.392  1.00  0.00     0.049 A 
ATOM     66  H   UNL     1      -0.954  11.466   2.899  1.00  0.00     0.167 HD
ATOM     67  C   UNL     1       1.018  13.498   2.915  1.00  0.00     0.074 A 
ATOM     68  C   UNL     1       2.128  14.334   2.505  1.00  0.00     0.031 C 
ATOM     69  C   UNL     1       0.240  13.745   3.999  1.00  0.00     0.034 A 
BRANCH  56  70
ATOM     70  C   UNL     1      -4.439   9.764   4.681  1.00  0.00     0.023 A 
ATOM     71  C   UNL     1      -4.372   8.630   5.516  1.00  0.00     0.012 A 
ATOM     72  C   UNL     1      -5.636  10.501   4.607  1.00  0.00     0.148 A 
ATOM     73  C   UNL     1      -5.488   8.219   6.244  1.00  0.00     0.002 A 
ATOM     74  C   UNL     1      -6.732  10.108   5.366  1.00  0.00     0.091 A 
ATOM     75  F   UNL     1      -5.688  11.556   3.781  1.00  0.00    -0.205 F 
ATOM     76  C   UNL     1      -6.663   8.963   6.176  1.00  0.00     0.022 A 
BRANCH  74  77
ATOM     77  S   UNL     1      -8.266  11.041   5.395  1.00  0.00     0.127 S 
ATOM     78  O   UNL     1      -9.144  10.190   4.594  1.00  0.00    -0.237 OA
ATOM     79  O   UNL     1      -8.583  11.071   6.823  1.00  0.00    -0.237 OA
ATOM     80  O   UNL     1      -7.952  12.341   4.818  1.00  0.00    -0.744 OA
ENDBRANCH  74  77
ENDBRANCH  56  70
BRANCH  57  81
ATOM     81  C   UNL     1       3.440  12.267  -0.935  1.00  0.00     0.023 A 
ATOM     82  C   UNL     1       4.743  12.217  -0.404  1.00  0.00     0.012 A 
ATOM     83  C   UNL     1       3.255  12.689  -2.265  1.00  0.00     0.148 A 
ATOM     84  C   UNL     1       5.839  12.607  -1.175  1.00  0.00     0.002 A 
ATOM     85  C   UNL     1       4.356  13.026  -3.044  1.00  0.00     0.091 A 
ATOM     86  F   UNL     1       2.004  12.751  -2.744  1.00  0.00    -0.205 F 
ATOM     87  C   UNL     1       5.647  13.000  -2.497  1.00  0.00     0.022 A 
BRANCH  85  88
ATOM     88  S   UNL     1       4.211  13.428  -4.789  1.00  0.00     0.127 S 
ATOM     89  O   UNL     1       4.462  14.867  -4.785  1.00  0.00    -0.237 OA
ATOM     90  O   UNL     1       5.279  12.618  -5.375  1.00  0.00    -0.237 OA
ATOM     91  O   UNL     1       2.867  13.019  -5.173  1.00  0.00    -0.744 OA
ENDBRANCH  85  88
ENDBRANCH  57  81
BRANCH  69  92
ATOM     92  C   UNL     1       0.572  14.954   4.834  1.00  0.00     0.023 A 
ATOM     93  C   UNL     1       0.286  16.242   4.341  1.00  0.00     0.012 A 
ATOM     94  C   UNL     1       1.105  14.813   6.131  1.00  0.00     0.148 A 
ATOM     95  C   UNL     1       0.558  17.373   5.110  1.00  0.00     0.002 A 
ATOM     96  C   UNL     1       1.330  15.943   6.910  1.00  0.00     0.091 A 
ATOM     97  F   UNL     1       1.391  13.582   6.578  1.00  0.00    -0.205 F 
ATOM     98  C   UNL     1       1.069  17.223   6.398  1.00  0.00     0.022 A 
BRANCH  96  99
ATOM     99  S   UNL     1       1.895  15.825   8.612  1.00  0.00     0.127 S 
ATOM    100  O   UNL     1       3.324  16.099   8.472  1.00  0.00    -0.237 OA
ATOM    101  O   UNL     1       1.133  16.886   9.273  1.00  0.00    -0.237 OA
ATOM    102  O   UNL     1       1.548  14.479   9.048  1.00  0.00    -0.744 OA
ENDBRANCH  96  99
ENDBRANCH  69  92
ENDBRANCH  43  44
ENDBRANCH  36  38
ENDBRANCH  35  36
ENDBRANCH  34  35
ENDBRANCH  33  34
ENDBRANCH  32  33
ENDBRANCH   1  32
TORSDOF 24
