REMARK SMILES CN(C(=O)N(CC(=O)OCCOCCOCCOC(=O)c1ccc(-c2c3nc(c(-c4cccc(S(=O)(=O)[O-])c4F)c4ccc([nH]4)c(-c4cccc(S(=O)(=O)[O-])c4F)c4nc(c(-c5cccc(S(=O)(=O)[O-])c5F)c5ccc2[nH]5)C=C4)C=C3)cc1)C(C)(C)C)C1CCCCCC1
REMARK SMILES IDX 11 1 10 2 9 3 7 4 8 5 6 6 5 7 3 8 4 9 2 10 1 11 88 12 89 13
REMARK SMILES IDX 90 14 91 15 92 16 94 18 93 19 84 21 85 22 86 23 87 24 12 25
REMARK SMILES IDX 13 26 14 27 15 28 16 29 17 30 18 31 19 32 20 33 21 34 22 35
REMARK SMILES IDX 83 36 23 37 82 38 24 39 25 40 26 41 76 42 27 43 81 44 75 45
REMARK SMILES IDX 77 46 28 47 80 48 74 49 73 50 29 52 61 53 41 54 60 55 42 56
REMARK SMILES IDX 45 57 59 58 78 59 43 60 44 61 58 63 79 64 46 65 30 66 31 67
REMARK SMILES IDX 39 68 32 69 34 70 40 71 33 72 35 73 36 74 37 75 38 76 62 77
REMARK SMILES IDX 63 78 71 79 64 80 66 81 72 82 65 83 67 84 68 85 69 86 70 87
REMARK SMILES IDX 47 88 48 89 56 90 49 91 51 92 57 93 50 94 52 95 53 96 54 97
REMARK SMILES IDX 55 98
REMARK H PARENT 77 51 45 62
REMARK Flexibility Score: 80.00
ROOT
ATOM      1  C   UNL     1      -3.597   1.535  -2.490  1.00  0.00     0.202 C 
ENDROOT
BRANCH   1   2
ATOM      2  C   UNL     1      -2.132   1.097  -2.421  1.00  0.00     0.261 C 
BRANCH   2   3
ATOM      3  O   UNL     1      -1.507   1.412  -1.157  1.00  0.00    -0.462 OA
BRANCH   3   4
ATOM      4  C   UNL     1      -0.309   2.052  -1.213  1.00  0.00     0.325 C 
ATOM      5  O   UNL     1       0.220   2.438  -2.251  1.00  0.00    -0.250 OA
BRANCH   4   6
ATOM      6  C   UNL     1       0.390   2.209   0.151  1.00  0.00     0.244 C 
BRANCH   6   7
ATOM      7  N   UNL     1      -0.263   1.682   1.370  1.00  0.00    -0.309 N 
BRANCH   7   8
ATOM      8  C   UNL     1      -0.290   0.343   1.779  1.00  0.00     0.320 C 
ATOM      9  O   UNL     1      -1.060   0.041   2.693  1.00  0.00    -0.248 OA
BRANCH   8  10
ATOM     10  N   UNL     1       0.565  -0.632   1.268  1.00  0.00    -0.325 N 
ATOM     11  C   UNL     1       1.274  -0.563  -0.004  1.00  0.00     0.149 C 
BRANCH  10  12
ATOM     12  C   UNL     1       0.980  -1.814   2.134  1.00  0.00     0.086 C 
BRANCH  12  13
ATOM     13  C   UNL     1       0.309  -2.019   3.513  1.00  0.00     0.025 C 
BRANCH  13  14
ATOM     14  C   UNL     1      -1.084  -2.658   3.444  1.00  0.00     0.002 C 
BRANCH  14  15
ATOM     15  C   UNL     1      -1.055  -4.175   3.594  1.00  0.00     0.000 C 
BRANCH  15  16
ATOM     16  C   UNL     1      -0.394  -4.922   2.442  1.00  0.00     0.000 CG0
ATOM     17  G   UNL     1       1.016  -4.455   2.090  1.00  0.00     0.000 G0
ENDBRANCH  15  16
ENDBRANCH  14  15
ENDBRANCH  13  14
ENDBRANCH  12  13
BRANCH  12  18
ATOM     18  C   UNL     1       1.030  -3.136   1.318  1.00  0.00     0.025 C 
BRANCH  18  19
ATOM     19  C   UNL     1       1.016  -4.455   2.090  1.00  0.00     0.002 CG0
ATOM     20  G   UNL     1      -0.394  -4.922   2.442  1.00  0.00     0.000 G0
ENDBRANCH  18  19
ENDBRANCH  12  18
ENDBRANCH  10  12
ENDBRANCH   8  10
ENDBRANCH   7   8
BRANCH   7  21
ATOM     21  C   UNL     1      -0.798   2.704   2.384  1.00  0.00     0.037 C 
ATOM     22  C   UNL     1      -2.237   2.388   2.882  1.00  0.00     0.034 C 
ATOM     23  C   UNL     1       0.147   2.743   3.609  1.00  0.00     0.034 C 
ATOM     24  C   UNL     1      -0.837   4.151   1.846  1.00  0.00     0.034 C 
ENDBRANCH   7  21
ENDBRANCH   6   7
ENDBRANCH   4   6
ENDBRANCH   3   4
ENDBRANCH   2   3
ENDBRANCH   1   2
BRANCH   1  25
ATOM     25  O   UNL     1      -3.818   2.935  -2.612  1.00  0.00    -0.376 OA
BRANCH  25  26
ATOM     26  C   UNL     1      -3.548   3.754  -1.478  1.00  0.00     0.188 C 
BRANCH  26  27
ATOM     27  C   UNL     1      -3.883   3.169  -0.098  1.00  0.00     0.188 C 
BRANCH  27  28
ATOM     28  O   UNL     1      -5.163   2.566   0.060  1.00  0.00    -0.376 OA
BRANCH  28  29
ATOM     29  C   UNL     1      -6.292   3.393  -0.204  1.00  0.00     0.202 C 
BRANCH  29  30
ATOM     30  C   UNL     1      -6.400   4.607   0.717  1.00  0.00     0.261 C 
BRANCH  30  31
ATOM     31  O   UNL     1      -5.447   5.615   0.329  1.00  0.00    -0.460 OA
BRANCH  31  32
ATOM     32  C   UNL     1      -5.101   6.462   1.317  1.00  0.00     0.338 C 
ATOM     33  O   UNL     1      -5.549   6.478   2.466  1.00  0.00    -0.246 OA
BRANCH  32  34
ATOM     34  C   UNL     1      -4.048   7.382   0.870  1.00  0.00     0.060 A 
ATOM     35  C   UNL     1      -2.750   6.905   0.689  1.00  0.00     0.016 A 
ATOM     36  C   UNL     1      -4.304   8.748   0.812  1.00  0.00     0.016 A 
ATOM     37  C   UNL     1      -1.682   7.793   0.557  1.00  0.00     0.010 A 
ATOM     38  C   UNL     1      -3.244   9.635   0.606  1.00  0.00     0.010 A 
ATOM     39  C   UNL     1      -1.915   9.173   0.536  1.00  0.00    -0.014 A 
BRANCH  39  40
ATOM     40  C   UNL     1      -0.792  10.153   0.562  1.00  0.00     0.031 A 
ATOM     41  C   UNL     1      -0.695  11.125   1.712  1.00  0.00     0.074 A 
ATOM     42  C   UNL     1       0.128  10.203  -0.420  1.00  0.00     0.049 A 
ATOM     43  N   UNL     1       0.009  12.222   1.815  1.00  0.00    -0.248 NA
ATOM     44  C   UNL     1      -1.517  10.825   2.897  1.00  0.00     0.031 C 
ATOM     45  C   UNL     1       0.207   9.287  -1.558  1.00  0.00     0.029 A 
ATOM     46  N   UNL     1       1.166  11.080  -0.626  1.00  0.00    -0.354 N 
ATOM     47  C   UNL     1      -0.359  12.794   3.028  1.00  0.00     0.074 A 
ATOM     48  C   UNL     1      -1.326  11.907   3.639  1.00  0.00     0.031 C 
ATOM     49  C   UNL     1       1.240   9.643  -2.337  1.00  0.00     0.029 A 
ATOM     50  C   UNL     1       1.843  10.862  -1.804  1.00  0.00     0.049 A 
ATOM     51  H   UNL     1       1.403  11.794   0.009  1.00  0.00     0.167 HD
ATOM     52  C   UNL     1       0.068  13.953   3.584  1.00  0.00     0.034 A 
ATOM     53  C   UNL     1       2.801  11.587  -2.414  1.00  0.00     0.034 A 
ATOM     54  C   UNL     1       1.094  14.786   3.017  1.00  0.00     0.049 A 
ATOM     55  C   UNL     1       3.262  12.874  -1.784  1.00  0.00     0.074 A 
ATOM     56  C   UNL     1       1.613  15.970   3.509  1.00  0.00     0.029 A 
ATOM     57  N   UNL     1       1.774  14.508   1.841  1.00  0.00    -0.354 N 
ATOM     58  N   UNL     1       2.900  13.411  -0.644  1.00  0.00    -0.248 NA
ATOM     59  C   UNL     1       4.262  13.656  -2.526  1.00  0.00     0.031 C 
ATOM     60  C   UNL     1       2.610  16.408   2.629  1.00  0.00     0.029 A 
ATOM     61  C   UNL     1       2.713  15.493   1.593  1.00  0.00     0.049 A 
ATOM     62  H   UNL     1       1.612  13.725   1.267  1.00  0.00     0.167 HD
ATOM     63  C   UNL     1       3.634  14.586  -0.525  1.00  0.00     0.074 A 
ATOM     64  C   UNL     1       4.485  14.667  -1.695  1.00  0.00     0.031 C 
ATOM     65  C   UNL     1       3.590  15.527   0.450  1.00  0.00     0.034 A 
BRANCH  52  66
ATOM     66  C   UNL     1      -0.572  14.381   4.878  1.00  0.00     0.023 A 
ATOM     67  C   UNL     1      -0.218  13.742   6.082  1.00  0.00     0.012 A 
ATOM     68  C   UNL     1      -1.510  15.431   4.902  1.00  0.00     0.148 A 
ATOM     69  C   UNL     1      -0.813  14.120   7.286  1.00  0.00     0.002 A 
ATOM     70  C   UNL     1      -2.072  15.827   6.111  1.00  0.00     0.091 A 
ATOM     71  F   UNL     1      -1.859  16.008   3.743  1.00  0.00    -0.205 F 
ATOM     72  C   UNL     1      -1.732  15.166   7.302  1.00  0.00     0.022 A 
BRANCH  70  73
ATOM     73  S   UNL     1      -3.213  17.210   6.223  1.00  0.00     0.127 S 
ATOM     74  O   UNL     1      -4.506  16.528   6.246  1.00  0.00    -0.237 OA
ATOM     75  O   UNL     1      -2.831  17.833   7.491  1.00  0.00    -0.237 OA
ATOM     76  O   UNL     1      -2.948  18.031   5.049  1.00  0.00    -0.744 OA
ENDBRANCH  70  73
ENDBRANCH  52  66
BRANCH  53  77
ATOM     77  C   UNL     1       3.392  11.105  -3.696  1.00  0.00     0.023 A 
ATOM     78  C   UNL     1       4.727  10.657  -3.712  1.00  0.00     0.012 A 
ATOM     79  C   UNL     1       2.631  11.034  -4.879  1.00  0.00     0.148 A 
ATOM     80  C   UNL     1       5.295  10.155  -4.883  1.00  0.00     0.002 A 
ATOM     81  C   UNL     1       3.183  10.476  -6.026  1.00  0.00     0.091 A 
ATOM     82  F   UNL     1       1.372  11.493  -4.853  1.00  0.00    -0.205 F 
ATOM     83  C   UNL     1       4.519  10.049  -6.035  1.00  0.00     0.022 A 
BRANCH  81  84
ATOM     84  S   UNL     1       2.209  10.167  -7.504  1.00  0.00     0.127 S 
ATOM     85  O   UNL     1       2.696  11.207  -8.407  1.00  0.00    -0.237 OA
ATOM     86  O   UNL     1       2.614   8.805  -7.856  1.00  0.00    -0.237 OA
ATOM     87  O   UNL     1       0.819  10.287  -7.085  1.00  0.00    -0.744 OA
ENDBRANCH  81  84
ENDBRANCH  53  77
BRANCH  65  88
ATOM     88  C   UNL     1       4.497  16.719   0.307  1.00  0.00     0.023 A 
ATOM     89  C   UNL     1       4.159  17.741  -0.601  1.00  0.00     0.012 A 
ATOM     90  C   UNL     1       5.636  16.864   1.121  1.00  0.00     0.148 A 
ATOM     91  C   UNL     1       4.954  18.881  -0.713  1.00  0.00     0.002 A 
ATOM     92  C   UNL     1       6.403  18.020   1.032  1.00  0.00     0.091 A 
ATOM     93  F   UNL     1       5.954  15.869   1.963  1.00  0.00    -0.205 F 
ATOM     94  C   UNL     1       6.068  19.026   0.111  1.00  0.00     0.022 A 
BRANCH  92  95
ATOM     95  S   UNL     1       7.804  18.322   2.117  1.00  0.00     0.127 S 
ATOM     96  O   UNL     1       8.932  18.007   1.242  1.00  0.00    -0.237 OA
ATOM     97  O   UNL     1       7.657  19.743   2.435  1.00  0.00    -0.237 OA
ATOM     98  O   UNL     1       7.620  17.431   3.255  1.00  0.00    -0.744 OA
ENDBRANCH  92  95
ENDBRANCH  65  88
ENDBRANCH  39  40
ENDBRANCH  32  34
ENDBRANCH  31  32
ENDBRANCH  30  31
ENDBRANCH  29  30
ENDBRANCH  28  29
ENDBRANCH  27  28
ENDBRANCH  26  27
ENDBRANCH  25  26
ENDBRANCH   1  25
TORSDOF 25
