REMARK SMILES CNC(=O)CCCn1cc(C(=O)OCCOCCOCCOC(=O)c2ccc(-c3c4nc(c(-c5cccc(S(=O)(=O)[O-])c5F)c5ccc([nH]5)c(-c5cccc(S(=O)(=O)[O-])c5F)c5nc(c(-c6cccc(S(=O)(=O)[O-])c6F)c6ccc3[nH]6)C=C5)C=C4)cc2)cc1Br
REMARK SMILES IDX 17 1 16 2 15 3 14 4 13 5 11 6 12 7 10 8 8 9 9 10 89 11 88 12
REMARK SMILES IDX 90 13 7 14 6 15 5 16 3 17 1 18 2 19 4 21 18 22 19 23 20 24
REMARK SMILES IDX 21 25 22 26 23 27 24 28 25 29 26 30 87 31 27 32 86 33 28 34
REMARK SMILES IDX 29 35 30 36 80 37 31 38 85 39 79 40 81 41 32 42 84 43 78 44
REMARK SMILES IDX 77 45 33 47 65 48 45 49 64 50 46 51 49 52 63 53 82 54 47 55
REMARK SMILES IDX 48 56 62 58 83 59 50 60 34 61 35 62 43 63 36 64 38 65 44 66
REMARK SMILES IDX 37 67 39 68 40 69 41 70 42 71 66 72 67 73 75 74 68 75 70 76
REMARK SMILES IDX 76 77 69 78 71 79 72 80 73 81 74 82 51 83 52 84 60 85 53 86
REMARK SMILES IDX 55 87 61 88 54 89 56 90 57 91 58 92 59 93
REMARK H PARENT 2 20 81 46 49 57
REMARK Flexibility Score: inf
ROOT
ATOM      1  C   UNL     1      -0.122  -4.017   5.034  1.00  0.00     0.188 C 
ENDROOT
BRANCH   1   2
ATOM      2  O   UNL     1      -0.290  -5.153   5.846  1.00  0.00    -0.376 OA
BRANCH   2   3
ATOM      3  C   UNL     1      -1.155  -6.206   5.461  1.00  0.00     0.202 C 
BRANCH   3   4
ATOM      4  C   UNL     1      -1.590  -6.529   4.013  1.00  0.00     0.261 C 
BRANCH   4   5
ATOM      5  O   UNL     1      -1.136  -5.663   2.973  1.00  0.00    -0.460 OA
BRANCH   5   6
ATOM      6  C   UNL     1      -2.058  -4.795   2.472  1.00  0.00     0.339 C 
ATOM      7  O   UNL     1      -3.252  -4.799   2.753  1.00  0.00    -0.246 OA
BRANCH   6   8
ATOM      8  C   UNL     1      -1.434  -3.708   1.739  1.00  0.00     0.078 A 
ATOM      9  N   UNL     1      -0.033  -2.475   0.490  1.00  0.00    -0.341 N 
ATOM     10  C   UNL     1      -0.392  -3.766   0.827  1.00  0.00     0.102 A 
ATOM     11  C   UNL     1      -0.762  -1.610   1.270  1.00  0.00     0.085 A 
ATOM     12  C   UNL     1      -1.704  -2.332   1.957  1.00  0.00     0.051 A 
ATOM     13  Br  UNL     1      -0.594   0.235   1.516  1.00  0.00    -0.031 Br
BRANCH   9  14
ATOM     14  C   UNL     1       1.033  -2.167  -0.450  1.00  0.00     0.123 C 
BRANCH  14  15
ATOM     15  C   UNL     1       0.581  -1.827  -1.881  1.00  0.00     0.032 C 
BRANCH  15  16
ATOM     16  C   UNL     1      -0.476  -0.738  -2.054  1.00  0.00     0.102 C 
BRANCH  16  17
ATOM     17  C   UNL     1      -0.071   0.627  -2.587  1.00  0.00     0.219 C 
ATOM     18  C   UNL     1       1.777   1.251  -0.924  1.00  0.00     0.142 C 
ATOM     19  N   UNL     1       0.872   1.420  -2.030  1.00  0.00    -0.359 N 
ATOM     20  H   UNL     1       0.958   2.295  -2.473  1.00  0.00     0.163 HD
ATOM     21  O   UNL     1      -0.675   1.100  -3.558  1.00  0.00    -0.275 OA
ENDBRANCH  16  17
ENDBRANCH  15  16
ENDBRANCH  14  15
ENDBRANCH   9  14
ENDBRANCH   6   8
ENDBRANCH   5   6
ENDBRANCH   4   5
ENDBRANCH   3   4
ENDBRANCH   2   3
ENDBRANCH   1   2
BRANCH   1  22
ATOM     22  C   UNL     1       1.138  -4.039   4.146  1.00  0.00     0.188 C 
BRANCH  22  23
ATOM     23  O   UNL     1       1.707  -5.248   3.662  1.00  0.00    -0.376 OA
BRANCH  23  24
ATOM     24  C   UNL     1       2.044  -6.337   4.511  1.00  0.00     0.202 C 
BRANCH  24  25
ATOM     25  C   UNL     1       2.711  -6.184   5.878  1.00  0.00     0.261 C 
BRANCH  25  26
ATOM     26  O   UNL     1       2.333  -5.035   6.599  1.00  0.00    -0.460 OA
BRANCH  26  27
ATOM     27  C   UNL     1       3.167  -3.994   6.426  1.00  0.00     0.338 C 
ATOM     28  O   UNL     1       4.064  -3.892   5.605  1.00  0.00    -0.246 OA
BRANCH  27  29
ATOM     29  C   UNL     1       2.885  -3.002   7.463  1.00  0.00     0.060 A 
ATOM     30  C   UNL     1       3.605  -1.810   7.374  1.00  0.00     0.016 A 
ATOM     31  C   UNL     1       2.229  -3.409   8.634  1.00  0.00     0.016 A 
ATOM     32  C   UNL     1       3.904  -1.160   8.543  1.00  0.00     0.010 A 
ATOM     33  C   UNL     1       2.547  -2.771   9.803  1.00  0.00     0.010 A 
ATOM     34  C   UNL     1       3.461  -1.722   9.743  1.00  0.00    -0.014 A 
BRANCH  34  35
ATOM     35  C   UNL     1       3.959  -1.149  10.970  1.00  0.00     0.031 A 
ATOM     36  C   UNL     1       3.282   0.112  11.306  1.00  0.00     0.074 A 
ATOM     37  C   UNL     1       4.878  -1.785  11.719  1.00  0.00     0.049 A 
ATOM     38  N   UNL     1       3.778   1.303  11.274  1.00  0.00    -0.248 NA
ATOM     39  C   UNL     1       1.823   0.065  11.490  1.00  0.00     0.031 C 
ATOM     40  C   UNL     1       5.347  -3.166  11.543  1.00  0.00     0.029 A 
ATOM     41  N   UNL     1       5.476  -1.396  12.879  1.00  0.00    -0.354 N 
ATOM     42  C   UNL     1       2.745   2.114  11.732  1.00  0.00     0.074 A 
ATOM     43  C   UNL     1       1.533   1.363  11.570  1.00  0.00     0.031 C 
ATOM     44  C   UNL     1       5.944  -3.576  12.683  1.00  0.00     0.029 A 
ATOM     45  C   UNL     1       6.015  -2.453  13.602  1.00  0.00     0.049 A 
ATOM     46  H   UNL     1       5.522  -0.458  13.176  1.00  0.00     0.167 HD
ATOM     47  C   UNL     1       3.021   3.154  12.561  1.00  0.00     0.034 A 
ATOM     48  C   UNL     1       6.417  -2.425  14.893  1.00  0.00     0.034 A 
ATOM     49  C   UNL     1       4.423   3.483  12.532  1.00  0.00     0.049 A 
ATOM     50  C   UNL     1       6.656  -1.015  15.268  1.00  0.00     0.074 A 
ATOM     51  C   UNL     1       5.295   4.104  11.667  1.00  0.00     0.029 A 
ATOM     52  N   UNL     1       5.171   2.790  13.449  1.00  0.00    -0.354 N 
ATOM     53  N   UNL     1       7.628  -0.299  14.777  1.00  0.00    -0.248 NA
ATOM     54  C   UNL     1       5.615  -0.264  15.962  1.00  0.00     0.031 C 
ATOM     55  C   UNL     1       6.599   3.652  12.023  1.00  0.00     0.029 A 
ATOM     56  C   UNL     1       6.493   2.774  13.101  1.00  0.00     0.049 A 
ATOM     57  H   UNL     1       4.803   2.359  14.254  1.00  0.00     0.167 HD
ATOM     58  C   UNL     1       7.097   0.975  14.702  1.00  0.00     0.074 A 
ATOM     59  C   UNL     1       5.962   0.978  15.612  1.00  0.00     0.031 C 
ATOM     60  C   UNL     1       7.404   1.796  13.659  1.00  0.00     0.034 A 
BRANCH  47  61
ATOM     61  C   UNL     1       2.180   3.544  13.765  1.00  0.00     0.023 A 
ATOM     62  C   UNL     1       2.606   4.687  14.479  1.00  0.00     0.012 A 
ATOM     63  C   UNL     1       1.228   2.715  14.406  1.00  0.00     0.148 A 
ATOM     64  C   UNL     1       2.164   4.951  15.779  1.00  0.00     0.002 A 
ATOM     65  C   UNL     1       0.741   3.017  15.672  1.00  0.00     0.091 A 
ATOM     66  F   UNL     1       0.870   1.549  13.869  1.00  0.00    -0.205 F 
ATOM     67  C   UNL     1       1.230   4.116  16.377  1.00  0.00     0.022 A 
BRANCH  65  68
ATOM     68  S   UNL     1      -0.484   1.975  16.478  1.00  0.00     0.127 S 
ATOM     69  O   UNL     1       0.327   1.299  17.485  1.00  0.00    -0.237 OA
ATOM     70  O   UNL     1      -1.423   2.969  17.000  1.00  0.00    -0.237 OA
ATOM     71  O   UNL     1      -1.036   1.129  15.427  1.00  0.00    -0.744 OA
ENDBRANCH  65  68
ENDBRANCH  47  61
BRANCH  48  72
ATOM     72  C   UNL     1       6.460  -3.511  15.894  1.00  0.00     0.023 A 
ATOM     73  C   UNL     1       7.348  -3.416  16.983  1.00  0.00     0.012 A 
ATOM     74  C   UNL     1       5.454  -4.502  15.931  1.00  0.00     0.148 A 
ATOM     75  C   UNL     1       7.215  -4.256  18.093  1.00  0.00     0.002 A 
ATOM     76  C   UNL     1       5.329  -5.338  17.035  1.00  0.00     0.091 A 
ATOM     77  F   UNL     1       4.573  -4.563  14.923  1.00  0.00    -0.205 F 
ATOM     78  C   UNL     1       6.200  -5.208  18.125  1.00  0.00     0.022 A 
BRANCH  76  79
ATOM     79  S   UNL     1       4.029  -6.574  17.165  1.00  0.00     0.127 S 
ATOM     80  O   UNL     1       4.791  -7.776  17.506  1.00  0.00    -0.237 OA
ATOM     81  O   UNL     1       3.213  -6.038  18.252  1.00  0.00    -0.237 OA
ATOM     82  O   UNL     1       3.388  -6.620  15.858  1.00  0.00    -0.744 OA
ENDBRANCH  76  79
ENDBRANCH  48  72
BRANCH  60  83
ATOM     83  C   UNL     1       8.679   1.527  12.917  1.00  0.00     0.023 A 
ATOM     84  C   UNL     1       8.872   0.375  12.130  1.00  0.00     0.012 A 
ATOM     85  C   UNL     1       9.674   2.517  12.941  1.00  0.00     0.148 A 
ATOM     86  C   UNL     1      10.049   0.206  11.397  1.00  0.00     0.002 A 
ATOM     87  C   UNL     1      10.820   2.368  12.173  1.00  0.00     0.091 A 
ATOM     88  F   UNL     1       9.475   3.600  13.707  1.00  0.00    -0.205 F 
ATOM     89  C   UNL     1      11.018   1.209  11.407  1.00  0.00     0.022 A 
BRANCH  87  90
ATOM     90  S   UNL     1      12.035   3.682  12.053  1.00  0.00     0.127 S 
ATOM     91  O   UNL     1      13.095   3.202  12.936  1.00  0.00    -0.237 OA
ATOM     92  O   UNL     1      12.373   3.671  10.629  1.00  0.00    -0.237 OA
ATOM     93  O   UNL     1      11.352   4.894  12.489  1.00  0.00    -0.744 OA
ENDBRANCH  87  90
ENDBRANCH  60  83
ENDBRANCH  34  35
ENDBRANCH  27  29
ENDBRANCH  26  27
ENDBRANCH  25  26
ENDBRANCH  24  25
ENDBRANCH  23  24
ENDBRANCH  22  23
ENDBRANCH   1  22
TORSDOF 24
