REMARK SMILES COc1ccc(-c2ccc(CCC(=O)OCCOCCOCCOC(=O)c3ccc(-c4c5nc(c(-c6cccc(S(=O)(=O)[O-])c6F)c6ccc([nH]6)c(-c6cccc(S(=O)(=O)[O-])c6F)c6nc(c(-c7cccc(S(=O)(=O)[O-])c7F)c7ccc4[nH]7)C=C6)C=C5)cc3)n2-c2ccc(C(C)=O)cc2)cc1
REMARK SMILES IDX 19 1 18 2 17 3 16 4 15 5 13 6 14 7 12 8 11 9 10 10 7 11 8 12
REMARK SMILES IDX 90 13 9 14 6 15 3 16 4 17 101 18 5 19 100 20 2 21 1 22 91 23
REMARK SMILES IDX 92 24 99 25 93 26 98 27 94 28 95 29 96 30 97 31 20 32 21 33
REMARK SMILES IDX 22 34 23 35 24 36 25 37 26 38 27 39 28 40 89 41 29 42 88 43
REMARK SMILES IDX 30 44 31 45 32 46 82 47 33 48 87 49 81 50 83 51 34 52 86 53
REMARK SMILES IDX 80 54 79 55 35 57 67 58 47 59 66 60 48 61 51 62 65 63 84 64
REMARK SMILES IDX 49 65 50 66 64 68 85 69 52 70 36 71 37 72 45 73 38 74 40 75
REMARK SMILES IDX 46 76 39 77 41 78 42 79 43 80 44 81 68 82 69 83 77 84 70 85
REMARK SMILES IDX 72 86 78 87 71 88 73 89 74 90 75 91 76 92 53 93 54 94 62 95
REMARK SMILES IDX 55 96 57 97 63 98 56 99 58 100 59 101 60 102 61 103
REMARK H PARENT 83 56 51 67
REMARK Flexibility Score: inf
ROOT
ATOM      1  C   UNL     1       4.100   0.246  12.366  1.00  0.00     0.188 C 
ENDROOT
BRANCH   1   2
ATOM      2  O   UNL     1       5.518   0.412  12.418  1.00  0.00    -0.376 OA
BRANCH   2   3
ATOM      3  C   UNL     1       6.136   0.943  11.247  1.00  0.00     0.202 C 
BRANCH   3   4
ATOM      4  C   UNL     1       6.258  -0.051  10.088  1.00  0.00     0.261 C 
BRANCH   4   5
ATOM      5  O   UNL     1       4.979  -0.551   9.654  1.00  0.00    -0.463 OA
BRANCH   5   6
ATOM      6  C   UNL     1       4.741  -1.876   9.737  1.00  0.00     0.306 C 
ATOM      7  O   UNL     1       5.572  -2.710  10.084  1.00  0.00    -0.252 OA
BRANCH   6   8
ATOM      8  C   UNL     1       3.329  -2.279   9.342  1.00  0.00     0.129 C 
BRANCH   8   9
ATOM      9  C   UNL     1       2.223  -1.222   9.239  1.00  0.00     0.066 C 
BRANCH   9  10
ATOM     10  C   UNL     1       2.289  -0.362   8.006  1.00  0.00     0.024 A 
ATOM     11  C   UNL     1       1.956   0.388   5.901  1.00  0.00     0.053 A 
ATOM     12  C   UNL     1       2.936   1.171   6.472  1.00  0.00     0.029 A 
ATOM     13  N   UNL     1       1.486  -0.492   6.875  1.00  0.00    -0.314 N 
ATOM     14  C   UNL     1       3.157   0.684   7.759  1.00  0.00     0.024 A 
BRANCH  11  15
ATOM     15  C   UNL     1       1.493   0.500   4.527  1.00  0.00    -0.001 A 
ATOM     16  C   UNL     1       0.744   0.778   1.853  1.00  0.00     0.118 A 
ATOM     17  C   UNL     1      -0.180   1.029   2.870  1.00  0.00     0.047 A 
ATOM     18  C   UNL     1       2.056   0.436   2.172  1.00  0.00     0.047 A 
ATOM     19  C   UNL     1       0.190   0.886   4.209  1.00  0.00     0.014 A 
ATOM     20  C   UNL     1       2.427   0.295   3.505  1.00  0.00     0.014 A 
BRANCH  16  21
ATOM     21  O   UNL     1       0.287   0.934   0.572  1.00  0.00    -0.497 OA
ATOM     22  C   UNL     1       0.859   0.018  -0.357  1.00  0.00     0.278 C 
ENDBRANCH  16  21
ENDBRANCH  11  15
BRANCH  13  23
ATOM     23  C   UNL     1       0.420  -1.409   6.713  1.00  0.00     0.046 A 
ATOM     24  C   UNL     1      -0.700  -1.328   7.546  1.00  0.00     0.027 A 
ATOM     25  C   UNL     1       0.485  -2.365   5.700  1.00  0.00     0.027 A 
ATOM     26  C   UNL     1      -1.768  -2.216   7.362  1.00  0.00     0.014 A 
ATOM     27  C   UNL     1      -0.571  -3.263   5.539  1.00  0.00     0.014 A 
ATOM     28  C   UNL     1      -1.708  -3.198   6.362  1.00  0.00     0.017 A 
BRANCH  28  29
ATOM     29  C   UNL     1      -2.791  -4.202   6.113  1.00  0.00     0.159 C 
ATOM     30  C   UNL     1      -4.108  -4.134   6.841  1.00  0.00     0.093 C 
ATOM     31  O   UNL     1      -2.603  -5.093   5.282  1.00  0.00    -0.295 OA
ENDBRANCH  28  29
ENDBRANCH  13  23
ENDBRANCH   9  10
ENDBRANCH   8   9
ENDBRANCH   6   8
ENDBRANCH   5   6
ENDBRANCH   4   5
ENDBRANCH   3   4
ENDBRANCH   2   3
ENDBRANCH   1   2
BRANCH   1  32
ATOM     32  C   UNL     1       3.326   1.504  11.961  1.00  0.00     0.188 C 
BRANCH  32  33
ATOM     33  O   UNL     1       3.550   1.828  10.596  1.00  0.00    -0.376 OA
BRANCH  33  34
ATOM     34  C   UNL     1       3.247   3.100  10.018  1.00  0.00     0.202 C 
BRANCH  34  35
ATOM     35  C   UNL     1       3.041   4.364  10.839  1.00  0.00     0.261 C 
BRANCH  35  36
ATOM     36  O   UNL     1       2.340   4.139  12.032  1.00  0.00    -0.460 OA
BRANCH  36  37
ATOM     37  C   UNL     1       1.199   3.436  11.966  1.00  0.00     0.338 C 
ATOM     38  O   UNL     1       0.570   3.096  10.975  1.00  0.00    -0.246 OA
BRANCH  37  39
ATOM     39  C   UNL     1       0.851   3.119  13.353  1.00  0.00     0.060 A 
ATOM     40  C   UNL     1      -0.356   2.448  13.535  1.00  0.00     0.016 A 
ATOM     41  C   UNL     1       1.432   3.938  14.321  1.00  0.00     0.016 A 
ATOM     42  C   UNL     1      -1.172   2.920  14.525  1.00  0.00     0.010 A 
ATOM     43  C   UNL     1       0.565   4.538  15.169  1.00  0.00     0.010 A 
ATOM     44  C   UNL     1      -0.732   4.038  15.241  1.00  0.00    -0.014 A 
BRANCH  44  45
ATOM     45  C   UNL     1      -1.599   4.617  16.244  1.00  0.00     0.031 A 
ATOM     46  C   UNL     1      -1.323   3.884  17.575  1.00  0.00     0.074 A 
ATOM     47  C   UNL     1      -2.416   5.607  15.758  1.00  0.00     0.049 A 
ATOM     48  N   UNL     1      -2.137   3.577  18.533  1.00  0.00    -0.248 NA
ATOM     49  C   UNL     1       0.019   3.256  17.825  1.00  0.00     0.031 C 
ATOM     50  C   UNL     1      -2.409   6.152  14.368  1.00  0.00     0.029 A 
ATOM     51  N   UNL     1      -3.410   6.370  16.316  1.00  0.00    -0.354 N 
ATOM     52  C   UNL     1      -1.346   3.046  19.581  1.00  0.00     0.074 A 
ATOM     53  C   UNL     1      -0.097   2.674  19.016  1.00  0.00     0.031 C 
ATOM     54  C   UNL     1      -3.403   7.056  14.187  1.00  0.00     0.029 A 
ATOM     55  C   UNL     1      -4.122   7.229  15.434  1.00  0.00     0.049 A 
ATOM     56  H   UNL     1      -3.619   6.326  17.276  1.00  0.00     0.167 HD
ATOM     57  C   UNL     1      -1.689   3.182  20.893  1.00  0.00     0.034 A 
ATOM     58  C   UNL     1      -5.232   7.987  15.713  1.00  0.00     0.034 A 
ATOM     59  C   UNL     1      -2.914   3.910  20.966  1.00  0.00     0.049 A 
ATOM     60  C   UNL     1      -5.362   7.900  17.173  1.00  0.00     0.074 A 
ATOM     61  C   UNL     1      -4.192   3.583  20.596  1.00  0.00     0.029 A 
ATOM     62  N   UNL     1      -2.768   5.280  21.008  1.00  0.00    -0.354 N 
ATOM     63  N   UNL     1      -4.551   8.473  18.012  1.00  0.00    -0.248 NA
ATOM     64  C   UNL     1      -6.358   6.984  17.740  1.00  0.00     0.031 C 
ATOM     65  C   UNL     1      -4.629   4.755  19.951  1.00  0.00     0.029 A 
ATOM     66  C   UNL     1      -3.749   5.814  20.218  1.00  0.00     0.049 A 
ATOM     67  H   UNL     1      -2.086   5.780  21.511  1.00  0.00     0.167 HD
ATOM     68  C   UNL     1      -4.697   7.683  19.124  1.00  0.00     0.074 A 
ATOM     69  C   UNL     1      -6.004   7.066  19.019  1.00  0.00     0.031 C 
ATOM     70  C   UNL     1      -3.593   7.161  19.727  1.00  0.00     0.034 A 
BRANCH  57  71
ATOM     71  C   UNL     1      -0.931   3.032  22.183  1.00  0.00     0.023 A 
ATOM     72  C   UNL     1      -1.754   2.992  23.343  1.00  0.00     0.012 A 
ATOM     73  C   UNL     1       0.443   3.264  22.368  1.00  0.00     0.148 A 
ATOM     74  C   UNL     1      -1.277   3.328  24.604  1.00  0.00     0.002 A 
ATOM     75  C   UNL     1       0.929   3.539  23.649  1.00  0.00     0.091 A 
ATOM     76  F   UNL     1       1.258   3.307  21.310  1.00  0.00    -0.205 F 
ATOM     77  C   UNL     1       0.066   3.620  24.753  1.00  0.00     0.022 A 
BRANCH  75  78
ATOM     78  S   UNL     1       2.667   3.833  23.993  1.00  0.00     0.127 S 
ATOM     79  O   UNL     1       2.688   5.272  24.239  1.00  0.00    -0.237 OA
ATOM     80  O   UNL     1       2.876   3.011  25.189  1.00  0.00    -0.237 OA
ATOM     81  O   UNL     1       3.387   3.361  22.820  1.00  0.00    -0.744 OA
ENDBRANCH  75  78
ENDBRANCH  57  71
BRANCH  58  82
ATOM     82  C   UNL     1      -6.330   8.738  14.987  1.00  0.00     0.023 A 
ATOM     83  C   UNL     1      -6.324   9.052  13.623  1.00  0.00     0.012 A 
ATOM     84  C   UNL     1      -7.537   9.059  15.690  1.00  0.00     0.148 A 
ATOM     85  C   UNL     1      -7.483   9.558  12.987  1.00  0.00     0.002 A 
ATOM     86  C   UNL     1      -8.713   9.415  15.041  1.00  0.00     0.091 A 
ATOM     87  F   UNL     1      -7.550   9.055  17.026  1.00  0.00    -0.205 F 
ATOM     88  C   UNL     1      -8.689   9.686  13.680  1.00  0.00     0.022 A 
BRANCH  86  89
ATOM     89  S   UNL     1     -10.311   9.369  15.883  1.00  0.00     0.127 S 
ATOM     90  O   UNL     1     -10.841  10.706  15.624  1.00  0.00    -0.237 OA
ATOM     91  O   UNL     1     -10.987   8.289  15.164  1.00  0.00    -0.237 OA
ATOM     92  O   UNL     1     -10.030   9.075  17.283  1.00  0.00    -0.744 OA
ENDBRANCH  86  89
ENDBRANCH  58  82
BRANCH  70  93
ATOM     93  C   UNL     1      -2.293   7.960  19.538  1.00  0.00     0.023 A 
ATOM     94  C   UNL     1      -2.346   9.327  19.888  1.00  0.00     0.012 A 
ATOM     95  C   UNL     1      -1.078   7.503  18.963  1.00  0.00     0.148 A 
ATOM     96  C   UNL     1      -1.283  10.204  19.653  1.00  0.00     0.002 A 
ATOM     97  C   UNL     1      -0.014   8.388  18.713  1.00  0.00     0.091 A 
ATOM     98  F   UNL     1      -0.959   6.213  18.656  1.00  0.00    -0.205 F 
ATOM     99  C   UNL     1      -0.119   9.738  19.062  1.00  0.00     0.022 A 
BRANCH  97 100
ATOM    100  S   UNL     1       1.540   7.929  17.909  1.00  0.00     0.127 S 
ATOM    101  O   UNL     1       1.516   8.743  16.691  1.00  0.00    -0.237 OA
ATOM    102  O   UNL     1       2.539   8.352  18.887  1.00  0.00    -0.237 OA
ATOM    103  O   UNL     1       1.470   6.494  17.676  1.00  0.00    -0.744 OA
ENDBRANCH  97 100
ENDBRANCH  70  93
ENDBRANCH  44  45
ENDBRANCH  37  39
ENDBRANCH  36  37
ENDBRANCH  35  36
ENDBRANCH  34  35
ENDBRANCH  33  34
ENDBRANCH  32  33
ENDBRANCH   1  32
TORSDOF 26
