REMARK SMILES CCNC(=O)C[NH2+][C@@H](C)[C@@H](C)C(=O)OCCOCCOCCOC(=O)c1ccc(-c2c3nc(c(-c4cccc(S(=O)(=O)[O-])c4F)c4ccc([nH]4)c(-c4cccc(S(=O)(=O)[O-])c4F)c4nc(c(-c5cccc(S(=O)(=O)[O-])c5F)c5ccc2[nH]5)C=C4)C=C3)cc1
REMARK SMILES IDX 18 1 17 2 16 3 15 4 14 5 12 6 13 7 10 8 11 9 8 10 9 11 7 12
REMARK SMILES IDX 6 15 4 16 3 17 5 19 2 20 1 21 19 22 20 23 21 24 22 25 23 26
REMARK SMILES IDX 24 27 25 28 26 29 27 30 88 31 28 32 87 33 29 34 30 35 31 36
REMARK SMILES IDX 81 37 32 38 86 39 80 40 82 41 33 42 85 43 79 44 78 45 34 47
REMARK SMILES IDX 66 48 46 49 65 50 47 51 50 52 64 53 83 54 48 55 49 56 63 58
REMARK SMILES IDX 84 59 51 60 35 61 36 62 44 63 37 64 39 65 45 66 38 67 40 68
REMARK SMILES IDX 41 69 42 70 43 71 67 72 68 73 76 74 69 75 71 76 77 77 70 78
REMARK SMILES IDX 72 79 73 80 74 81 75 82 52 83 53 84 61 85 54 86 56 87 62 88
REMARK SMILES IDX 55 89 57 90 58 91 59 92 60 93
REMARK H PARENT 7 13 7 14 3 18 82 46 50 57
REMARK Flexibility Score: inf
ROOT
ATOM      1  C   UNL     1      -7.538  -0.636   2.720  1.00  0.00     0.188 C 
ENDROOT
BRANCH   1   2
ATOM      2  O   UNL     1      -8.476   0.126   1.977  1.00  0.00    -0.376 OA
BRANCH   2   3
ATOM      3  C   UNL     1      -8.175   0.407   0.612  1.00  0.00     0.202 C 
BRANCH   3   4
ATOM      4  C   UNL     1      -6.797   0.999   0.269  1.00  0.00     0.261 C 
BRANCH   4   5
ATOM      5  O   UNL     1      -5.641   0.116   0.375  1.00  0.00    -0.463 OA
BRANCH   5   6
ATOM      6  C   UNL     1      -4.710   0.517   1.278  1.00  0.00     0.314 C 
ATOM      7  O   UNL     1      -4.908   1.435   2.075  1.00  0.00    -0.252 OA
BRANCH   6   8
ATOM      8  C   UNL     1      -3.334  -0.149   1.241  1.00  0.00     0.154 C 
ATOM      9  C   UNL     1      -2.365   0.978   0.834  1.00  0.00     0.026 C 
BRANCH   8  10
ATOM     10  C   UNL     1      -3.008  -1.439   0.434  1.00  0.00     0.193 C 
ATOM     11  C   UNL     1      -3.948  -2.592   0.747  1.00  0.00     0.076 C 
BRANCH  10  12
ATOM     12  N   UNL     1      -1.606  -1.822   0.749  1.00  0.00    -0.336 N 
ATOM     13  H   UNL     1      -1.000  -1.052   0.466  1.00  0.00     0.346 HD
ATOM     14  H   UNL     1      -1.589  -2.017   1.750  1.00  0.00     0.346 HD
BRANCH  12  15
ATOM     15  C   UNL     1      -1.115  -3.046   0.094  1.00  0.00     0.362 C 
BRANCH  15  16
ATOM     16  C   UNL     1       0.404  -3.189   0.264  1.00  0.00     0.275 C 
ATOM     17  N   UNL     1       1.244  -2.284  -0.322  1.00  0.00    -0.351 N 
ATOM     18  H   UNL     1       2.203  -2.503  -0.291  1.00  0.00     0.163 HD
ATOM     19  O   UNL     1       0.900  -4.138   0.876  1.00  0.00    -0.269 OA
BRANCH  17  20
ATOM     20  C   UNL     1       0.897  -1.044  -0.984  1.00  0.00     0.112 C 
ATOM     21  C   UNL     1       1.204   0.141  -0.087  1.00  0.00     0.027 C 
ENDBRANCH  17  20
ENDBRANCH  15  16
ENDBRANCH  12  15
ENDBRANCH  10  12
ENDBRANCH   8  10
ENDBRANCH   6   8
ENDBRANCH   5   6
ENDBRANCH   4   5
ENDBRANCH   3   4
ENDBRANCH   2   3
ENDBRANCH   1   2
BRANCH   1  22
ATOM     22  C   UNL     1      -7.196  -2.036   2.192  1.00  0.00     0.188 C 
BRANCH  22  23
ATOM     23  O   UNL     1      -7.596  -2.240   0.845  1.00  0.00    -0.376 OA
BRANCH  23  24
ATOM     24  C   UNL     1      -7.483  -3.551   0.303  1.00  0.00     0.202 C 
BRANCH  24  25
ATOM     25  C   UNL     1      -8.449  -4.562   0.930  1.00  0.00     0.261 C 
BRANCH  25  26
ATOM     26  O   UNL     1      -8.123  -4.900   2.289  1.00  0.00    -0.460 OA
BRANCH  26  27
ATOM     27  C   UNL     1      -6.871  -5.364   2.514  1.00  0.00     0.338 C 
ATOM     28  O   UNL     1      -6.079  -5.762   1.675  1.00  0.00    -0.246 OA
BRANCH  27  29
ATOM     29  C   UNL     1      -6.518  -5.072   3.921  1.00  0.00     0.060 A 
ATOM     30  C   UNL     1      -5.231  -4.590   4.194  1.00  0.00     0.016 A 
ATOM     31  C   UNL     1      -7.447  -5.221   4.954  1.00  0.00     0.016 A 
ATOM     32  C   UNL     1      -4.854  -4.304   5.505  1.00  0.00     0.010 A 
ATOM     33  C   UNL     1      -7.068  -4.940   6.268  1.00  0.00     0.010 A 
ATOM     34  C   UNL     1      -5.757  -4.519   6.553  1.00  0.00    -0.014 A 
BRANCH  34  35
ATOM     35  C   UNL     1      -5.278  -4.508   7.957  1.00  0.00     0.031 A 
ATOM     36  C   UNL     1      -4.995  -5.830   8.619  1.00  0.00     0.074 A 
ATOM     37  C   UNL     1      -5.098  -3.360   8.633  1.00  0.00     0.049 A 
ATOM     38  N   UNL     1      -4.623  -6.080   9.845  1.00  0.00    -0.248 NA
ATOM     39  C   UNL     1      -5.160  -7.032   7.782  1.00  0.00     0.031 C 
ATOM     40  C   UNL     1      -5.321  -2.018   8.101  1.00  0.00     0.029 A 
ATOM     41  N   UNL     1      -4.705  -3.149   9.932  1.00  0.00    -0.354 N 
ATOM     42  C   UNL     1      -4.545  -7.464   9.940  1.00  0.00     0.074 A 
ATOM     43  C   UNL     1      -4.916  -8.001   8.650  1.00  0.00     0.031 C 
ATOM     44  C   UNL     1      -5.082  -1.120   9.074  1.00  0.00     0.029 A 
ATOM     45  C   UNL     1      -4.719  -1.825  10.303  1.00  0.00     0.049 A 
ATOM     46  H   UNL     1      -4.438  -3.876  10.539  1.00  0.00     0.167 HD
ATOM     47  C   UNL     1      -4.183  -8.223  11.000  1.00  0.00     0.034 A 
ATOM     48  C   UNL     1      -4.488  -1.254  11.502  1.00  0.00     0.034 A 
ATOM     49  C   UNL     1      -3.787  -7.691  12.274  1.00  0.00     0.049 A 
ATOM     50  C   UNL     1      -4.112  -2.124  12.676  1.00  0.00     0.074 A 
ATOM     51  C   UNL     1      -3.360  -8.379  13.396  1.00  0.00     0.029 A 
ATOM     52  N   UNL     1      -3.779  -6.345  12.601  1.00  0.00    -0.354 N 
ATOM     53  N   UNL     1      -3.939  -3.423  12.722  1.00  0.00    -0.248 NA
ATOM     54  C   UNL     1      -3.873  -1.445  13.959  1.00  0.00     0.031 C 
ATOM     55  C   UNL     1      -3.122  -7.448  14.412  1.00  0.00     0.029 A 
ATOM     56  C   UNL     1      -3.368  -6.180  13.912  1.00  0.00     0.049 A 
ATOM     57  H   UNL     1      -4.029  -5.614  11.991  1.00  0.00     0.167 HD
ATOM     58  C   UNL     1      -3.534  -3.711  14.023  1.00  0.00     0.074 A 
ATOM     59  C   UNL     1      -3.470  -2.448  14.728  1.00  0.00     0.031 C 
ATOM     60  C   UNL     1      -3.253  -4.912  14.586  1.00  0.00     0.034 A 
BRANCH  47  61
ATOM     61  C   UNL     1      -4.187  -9.717  10.819  1.00  0.00     0.023 A 
ATOM     62  C   UNL     1      -3.186 -10.332  10.041  1.00  0.00     0.012 A 
ATOM     63  C   UNL     1      -5.159 -10.513  11.455  1.00  0.00     0.148 A 
ATOM     64  C   UNL     1      -3.170 -11.716   9.873  1.00  0.00     0.002 A 
ATOM     65  C   UNL     1      -5.109 -11.895  11.320  1.00  0.00     0.091 A 
ATOM     66  F   UNL     1      -6.118  -9.906  12.167  1.00  0.00    -0.205 F 
ATOM     67  C   UNL     1      -4.123 -12.497  10.521  1.00  0.00     0.022 A 
BRANCH  65  68
ATOM     68  S   UNL     1      -6.245 -12.991  12.176  1.00  0.00     0.127 S 
ATOM     69  O   UNL     1      -7.066 -13.485  11.071  1.00  0.00    -0.237 OA
ATOM     70  O   UNL     1      -5.339 -13.983  12.753  1.00  0.00    -0.237 OA
ATOM     71  O   UNL     1      -6.943 -12.165  13.151  1.00  0.00    -0.744 OA
ENDBRANCH  65  68
ENDBRANCH  47  61
BRANCH  48  72
ATOM     72  C   UNL     1      -4.576   0.227  11.657  1.00  0.00     0.023 A 
ATOM     73  C   UNL     1      -3.406   0.970  11.911  1.00  0.00     0.012 A 
ATOM     74  C   UNL     1      -5.808   0.901  11.556  1.00  0.00     0.148 A 
ATOM     75  C   UNL     1      -3.467   2.352  12.093  1.00  0.00     0.002 A 
ATOM     76  C   UNL     1      -5.854   2.284  11.685  1.00  0.00     0.091 A 
ATOM     77  F   UNL     1      -6.913   0.174  11.335  1.00  0.00    -0.205 F 
ATOM     78  C   UNL     1      -4.688   3.010  11.970  1.00  0.00     0.022 A 
BRANCH  76  79
ATOM     79  S   UNL     1      -7.361   3.228  11.427  1.00  0.00     0.127 S 
ATOM     80  O   UNL     1      -7.653   3.699  12.778  1.00  0.00    -0.237 OA
ATOM     81  O   UNL     1      -6.911   4.263  10.497  1.00  0.00    -0.237 OA
ATOM     82  O   UNL     1      -8.321   2.289  10.864  1.00  0.00    -0.744 OA
ENDBRANCH  76  79
ENDBRANCH  48  72
BRANCH  60  83
ATOM     83  C   UNL     1      -2.807  -4.930  16.026  1.00  0.00     0.023 A 
ATOM     84  C   UNL     1      -3.735  -4.674  17.054  1.00  0.00     0.012 A 
ATOM     85  C   UNL     1      -1.484  -5.284  16.363  1.00  0.00     0.148 A 
ATOM     86  C   UNL     1      -3.348  -4.739  18.392  1.00  0.00     0.002 A 
ATOM     87  C   UNL     1      -1.118  -5.396  17.699  1.00  0.00     0.091 A 
ATOM     88  F   UNL     1      -0.610  -5.509  15.371  1.00  0.00    -0.205 F 
ATOM     89  C   UNL     1      -2.045  -5.111  18.715  1.00  0.00     0.022 A 
BRANCH  87  90
ATOM     90  S   UNL     1       0.508  -5.966  18.207  1.00  0.00     0.127 S 
ATOM     91  O   UNL     1       1.119  -4.730  18.692  1.00  0.00    -0.237 OA
ATOM     92  O   UNL     1       0.185  -6.938  19.253  1.00  0.00    -0.237 OA
ATOM     93  O   UNL     1       1.121  -6.542  17.018  1.00  0.00    -0.744 OA
ENDBRANCH  87  90
ENDBRANCH  60  83
ENDBRANCH  34  35
ENDBRANCH  27  29
ENDBRANCH  26  27
ENDBRANCH  25  26
ENDBRANCH  24  25
ENDBRANCH  23  24
ENDBRANCH  22  23
ENDBRANCH   1  22
TORSDOF 25
