REMARK SMILES O=C(OCCOCCOCCOC(=O)[C@@]1(Cl)C=CC=C(c2ccccc2)[C@H]1Cl)c1ccc(-c2c3nc(c(-c4cccc(S(=O)(=O)[O-])c4F)c4ccc([nH]4)c(-c4cccc(S(=O)(=O)[O-])c4F)c4nc(c(-c5cccc(S(=O)(=O)[O-])c5F)c5ccc2[nH]5)C=C4)C=C3)cc1
REMARK SMILES IDX 7 1 6 2 5 3 4 4 3 5 2 6 1 7 29 8 30 9 91 10 31 11 90 12
REMARK SMILES IDX 32 13 33 14 34 15 84 16 35 17 89 18 83 19 85 20 36 21 88 22
REMARK SMILES IDX 82 23 81 24 37 26 69 27 49 28 68 29 50 30 53 31 67 32 86 33
REMARK SMILES IDX 51 34 52 35 66 37 87 38 54 39 38 40 39 41 47 42 40 43 42 44
REMARK SMILES IDX 48 45 41 46 43 47 44 48 45 49 46 50 70 51 71 52 79 53 72 54
REMARK SMILES IDX 74 55 80 56 73 57 75 58 76 59 77 60 78 61 55 62 56 63 64 64
REMARK SMILES IDX 57 65 59 66 65 67 58 68 60 69 61 70 62 71 63 72 8 73 9 74
REMARK SMILES IDX 10 75 11 76 12 77 13 78 14 79 15 80 16 81 17 82 27 83 18 84
REMARK SMILES IDX 20 85 28 86 19 87 21 88 22 89 26 90 23 91 25 92 24 93
REMARK H PARENT 85 25 53 36
REMARK Flexibility Score: inf
ROOT
ATOM      1  C   UNL     1       2.693  -1.783  -0.223  1.00  0.00     0.188 C 
ENDROOT
BRANCH   1   2
ATOM      2  O   UNL     1       4.069  -1.688  -0.572  1.00  0.00    -0.376 OA
BRANCH   2   3
ATOM      3  C   UNL     1       4.992  -1.292   0.455  1.00  0.00     0.202 C 
BRANCH   3   4
ATOM      4  C   UNL     1       4.503  -0.439   1.643  1.00  0.00     0.261 C 
BRANCH   4   5
ATOM      5  O   UNL     1       4.214   0.889   1.200  1.00  0.00    -0.460 OA
BRANCH   5   6
ATOM      6  C   UNL     1       2.962   1.168   0.768  1.00  0.00     0.338 C 
ATOM      7  O   UNL     1       1.905   0.742   1.195  1.00  0.00    -0.246 OA
BRANCH   6   8
ATOM      8  C   UNL     1       3.165   2.038  -0.405  1.00  0.00     0.060 A 
ATOM      9  C   UNL     1       4.198   1.701  -1.294  1.00  0.00     0.016 A 
ATOM     10  C   UNL     1       2.449   3.221  -0.556  1.00  0.00     0.016 A 
ATOM     11  C   UNL     1       4.660   2.624  -2.204  1.00  0.00     0.010 A 
ATOM     12  C   UNL     1       2.879   4.134  -1.517  1.00  0.00     0.010 A 
ATOM     13  C   UNL     1       4.026   3.862  -2.284  1.00  0.00    -0.014 A 
BRANCH  13  14
ATOM     14  C   UNL     1       4.648   4.903  -3.119  1.00  0.00     0.031 A 
ATOM     15  C   UNL     1       5.432   5.969  -2.454  1.00  0.00     0.074 A 
ATOM     16  C   UNL     1       4.520   4.845  -4.452  1.00  0.00     0.049 A 
ATOM     17  N   UNL     1       6.034   6.983  -3.000  1.00  0.00    -0.248 NA
ATOM     18  C   UNL     1       5.537   5.901  -0.988  1.00  0.00     0.031 C 
ATOM     19  C   UNL     1       3.786   3.786  -5.110  1.00  0.00     0.029 A 
ATOM     20  N   UNL     1       4.967   5.625  -5.479  1.00  0.00    -0.354 N 
ATOM     21  C   UNL     1       6.499   7.739  -1.941  1.00  0.00     0.074 A 
ATOM     22  C   UNL     1       6.163   7.036  -0.723  1.00  0.00     0.031 C 
ATOM     23  C   UNL     1       3.851   3.951  -6.436  1.00  0.00     0.029 A 
ATOM     24  C   UNL     1       4.588   5.162  -6.722  1.00  0.00     0.049 A 
ATOM     25  H   UNL     1       5.506   6.439  -5.346  1.00  0.00     0.167 HD
ATOM     26  C   UNL     1       7.100   8.946  -2.006  1.00  0.00     0.034 A 
ATOM     27  C   UNL     1       4.801   5.661  -7.954  1.00  0.00     0.034 A 
ATOM     28  C   UNL     1       7.364   9.614  -3.250  1.00  0.00     0.049 A 
ATOM     29  C   UNL     1       5.564   6.950  -7.998  1.00  0.00     0.074 A 
ATOM     30  C   UNL     1       7.922  10.858  -3.462  1.00  0.00     0.029 A 
ATOM     31  N   UNL     1       7.058   9.089  -4.504  1.00  0.00    -0.354 N 
ATOM     32  N   UNL     1       6.049   7.636  -6.989  1.00  0.00    -0.248 NA
ATOM     33  C   UNL     1       5.822   7.540  -9.313  1.00  0.00     0.031 C 
ATOM     34  C   UNL     1       7.917  11.100  -4.841  1.00  0.00     0.029 A 
ATOM     35  C   UNL     1       7.404   9.987  -5.494  1.00  0.00     0.049 A 
ATOM     36  H   UNL     1       6.653   8.205  -4.661  1.00  0.00     0.167 HD
ATOM     37  C   UNL     1       6.677   8.736  -7.540  1.00  0.00     0.074 A 
ATOM     38  C   UNL     1       6.549   8.601  -8.982  1.00  0.00     0.031 C 
ATOM     39  C   UNL     1       7.277   9.777  -6.917  1.00  0.00     0.034 A 
BRANCH  26  40
ATOM     40  C   UNL     1       7.372   9.616  -0.692  1.00  0.00     0.023 A 
ATOM     41  C   UNL     1       8.352   9.106   0.185  1.00  0.00     0.012 A 
ATOM     42  C   UNL     1       6.559  10.688  -0.275  1.00  0.00     0.148 A 
ATOM     43  C   UNL     1       8.473   9.610   1.480  1.00  0.00     0.002 A 
ATOM     44  C   UNL     1       6.719  11.216   0.999  1.00  0.00     0.091 A 
ATOM     45  F   UNL     1       5.607  11.130  -1.107  1.00  0.00    -0.205 F 
ATOM     46  C   UNL     1       7.660  10.666   1.885  1.00  0.00     0.022 A 
BRANCH  44  47
ATOM     47  S   UNL     1       5.754  12.608   1.591  1.00  0.00     0.127 S 
ATOM     48  O   UNL     1       4.899  11.970   2.591  1.00  0.00    -0.237 OA
ATOM     49  O   UNL     1       6.790  13.483   2.141  1.00  0.00    -0.237 OA
ATOM     50  O   UNL     1       5.063  13.143   0.427  1.00  0.00    -0.744 OA
ENDBRANCH  44  47
ENDBRANCH  26  40
BRANCH  27  51
ATOM     51  C   UNL     1       4.364   4.921  -9.183  1.00  0.00     0.023 A 
ATOM     52  C   UNL     1       5.332   4.492 -10.113  1.00  0.00     0.012 A 
ATOM     53  C   UNL     1       3.019   4.550  -9.402  1.00  0.00     0.148 A 
ATOM     54  C   UNL     1       4.977   3.730 -11.230  1.00  0.00     0.002 A 
ATOM     55  C   UNL     1       2.686   3.712 -10.464  1.00  0.00     0.091 A 
ATOM     56  F   UNL     1       2.089   4.988  -8.542  1.00  0.00    -0.205 F 
ATOM     57  C   UNL     1       3.659   3.318 -11.392  1.00  0.00     0.022 A 
BRANCH  55  58
ATOM     58  S   UNL     1       1.056   2.972 -10.641  1.00  0.00     0.127 S 
ATOM     59  O   UNL     1       0.580   3.588 -11.877  1.00  0.00    -0.237 OA
ATOM     60  O   UNL     1       1.386   1.550 -10.746  1.00  0.00    -0.237 OA
ATOM     61  O   UNL     1       0.325   3.332  -9.434  1.00  0.00    -0.744 OA
ENDBRANCH  55  58
ENDBRANCH  27  51
BRANCH  39  62
ATOM     62  C   UNL     1       7.856  10.835  -7.804  1.00  0.00     0.023 A 
ATOM     63  C   UNL     1       7.008  11.753  -8.452  1.00  0.00     0.012 A 
ATOM     64  C   UNL     1       9.252  10.967  -7.908  1.00  0.00     0.148 A 
ATOM     65  C   UNL     1       7.547  12.786  -9.212  1.00  0.00     0.002 A 
ATOM     66  C   UNL     1       9.781  12.030  -8.620  1.00  0.00     0.091 A 
ATOM     67  F   UNL     1      10.026  10.057  -7.300  1.00  0.00    -0.205 F 
ATOM     68  C   UNL     1       8.931  12.934  -9.282  1.00  0.00     0.022 A 
BRANCH  66  69
ATOM     69  S   UNL     1      11.542  12.361  -8.674  1.00  0.00     0.127 S 
ATOM     70  O   UNL     1      11.845  12.122 -10.084  1.00  0.00    -0.237 OA
ATOM     71  O   UNL     1      11.601  13.763  -8.263  1.00  0.00    -0.237 OA
ATOM     72  O   UNL     1      12.159  11.427  -7.742  1.00  0.00    -0.744 OA
ENDBRANCH  66  69
ENDBRANCH  39  62
ENDBRANCH  13  14
ENDBRANCH   6   8
ENDBRANCH   5   6
ENDBRANCH   4   5
ENDBRANCH   3   4
ENDBRANCH   2   3
ENDBRANCH   1   2
BRANCH   1  73
ATOM     73  C   UNL     1       1.883  -2.864  -0.945  1.00  0.00     0.188 C 
BRANCH  73  74
ATOM     74  O   UNL     1       2.347  -4.206  -0.882  1.00  0.00    -0.376 OA
BRANCH  74  75
ATOM     75  C   UNL     1       3.700  -4.441  -1.247  1.00  0.00     0.202 C 
BRANCH  75  76
ATOM     76  C   UNL     1       4.183  -4.040  -2.647  1.00  0.00     0.261 C 
BRANCH  76  77
ATOM     77  O   UNL     1       3.467  -2.973  -3.278  1.00  0.00    -0.462 OA
BRANCH  77  78
ATOM     78  C   UNL     1       2.717  -3.324  -4.370  1.00  0.00     0.333 C 
ATOM     79  O   UNL     1       2.448  -4.486  -4.655  1.00  0.00    -0.250 OA
BRANCH  78  80
ATOM     80  C   UNL     1       2.334  -2.085  -5.202  1.00  0.00     0.180 C 
ATOM     81  Cl  UNL     1       1.055  -2.648  -6.406  1.00  0.00    -0.100 Cl
ATOM     82  C   UNL     1       1.575  -1.054  -4.381  1.00  0.00     0.009 C 
ATOM     83  C   UNL     1       3.562  -1.533  -6.013  1.00  0.00     0.148 C 
ATOM     84  C   UNL     1       1.676   0.253  -4.641  1.00  0.00    -0.002 C 
ATOM     85  C   UNL     1       3.533  -0.028  -6.200  1.00  0.00    -0.020 C 
ATOM     86  Cl  UNL     1       5.191  -2.009  -5.367  1.00  0.00    -0.115 Cl
ATOM     87  C   UNL     1       2.556   0.727  -5.673  1.00  0.00     0.006 C 
BRANCH  85  88
ATOM     88  C   UNL     1       4.615   0.595  -6.983  1.00  0.00    -0.021 A 
ATOM     89  C   UNL     1       5.714   1.160  -6.306  1.00  0.00     0.008 A 
ATOM     90  C   UNL     1       4.605   0.596  -8.375  1.00  0.00     0.008 A 
ATOM     91  C   UNL     1       6.793   1.696  -7.008  1.00  0.00     0.001 A 
ATOM     92  C   UNL     1       5.700   1.109  -9.076  1.00  0.00     0.001 A 
ATOM     93  C   UNL     1       6.790   1.659  -8.398  1.00  0.00     0.000 A 
ENDBRANCH  85  88
ENDBRANCH  78  80
ENDBRANCH  77  78
ENDBRANCH  76  77
ENDBRANCH  75  76
ENDBRANCH  74  75
ENDBRANCH  73  74
ENDBRANCH   1  73
TORSDOF 21
