REMARK SMILES CS(=O)(=O)c1ccc(C(=O)N2C[C@@H](C(=O)OCCOCCOCCOC(=O)c3ccc(-c4c5nc(c(-c6cccc(S(=O)(=O)[O-])c6F)c6ccc([nH]6)c(-c6cccc(S(=O)(=O)[O-])c6F)c6nc(c(-c7cccc(S(=O)(=O)[O-])c7F)c7ccc4[nH]7)C=C6)C=C5)cc3)[C@H](c3ccncc3)C2)cc1
REMARK SMILES IDX 20 1 19 2 18 3 17 4 16 5 14 6 15 7 13 8 11 9 12 10 98 11
REMARK SMILES IDX 91 12 9 13 10 14 8 15 5 16 6 17 100 18 7 19 99 20 2 21 1 22
REMARK SMILES IDX 3 23 4 24 92 25 93 26 97 27 94 28 96 29 95 30 21 31 22 32
REMARK SMILES IDX 23 33 24 34 25 35 26 36 27 37 28 38 29 39 90 40 30 41 89 42
REMARK SMILES IDX 31 43 32 44 33 45 83 46 34 47 88 48 82 49 84 50 35 51 87 52
REMARK SMILES IDX 81 53 80 54 36 56 68 57 48 58 67 59 49 60 52 61 66 62 85 63
REMARK SMILES IDX 50 64 51 65 65 67 86 68 53 69 37 70 38 71 46 72 39 73 41 74
REMARK SMILES IDX 47 75 40 76 42 77 43 78 44 79 45 80 69 81 70 82 78 83 71 84
REMARK SMILES IDX 73 85 79 86 72 87 74 88 75 89 76 90 77 91 54 92 55 93 63 94
REMARK SMILES IDX 56 95 58 96 64 97 57 98 59 99 60 100 61 101 62 102
REMARK H PARENT 84 55 52 66
REMARK Flexibility Score: inf
ROOT
ATOM      1  C   UNL     1      -1.438   8.033   3.928  1.00  0.00     0.188 C 
ENDROOT
BRANCH   1   2
ATOM      2  O   UNL     1      -2.129   9.255   4.165  1.00  0.00    -0.376 OA
BRANCH   2   3
ATOM      3  C   UNL     1      -1.996   9.770   5.485  1.00  0.00     0.202 C 
BRANCH   3   4
ATOM      4  C   UNL     1      -0.669  10.510   5.656  1.00  0.00     0.261 C 
BRANCH   4   5
ATOM      5  O   UNL     1       0.472   9.664   5.406  1.00  0.00    -0.463 OA
BRANCH   5   6
ATOM      6  C   UNL     1       0.876   8.785   6.370  1.00  0.00     0.311 C 
ATOM      7  O   UNL     1       0.451   8.753   7.503  1.00  0.00    -0.252 OA
BRANCH   6   8
ATOM      8  C   UNL     1       1.897   7.838   5.760  1.00  0.00     0.128 C 
ATOM      9  N   UNL     1       2.747   5.689   5.775  1.00  0.00    -0.337 N 
ATOM     10  C   UNL     1       1.474   6.377   5.814  1.00  0.00     0.135 C 
ATOM     11  C   UNL     1       3.632   6.400   6.670  1.00  0.00     0.129 C 
ATOM     12  C   UNL     1       3.305   7.896   6.421  1.00  0.00     0.055 C 
BRANCH   9  13
ATOM     13  C   UNL     1       2.993   4.365   5.443  1.00  0.00     0.253 C 
ATOM     14  O   UNL     1       3.622   3.630   6.199  1.00  0.00    -0.269 OA
BRANCH  13  15
ATOM     15  C   UNL     1       2.624   3.851   4.081  1.00  0.00     0.040 A 
ATOM     16  C   UNL     1       1.853   2.773   1.589  1.00  0.00     0.067 A 
ATOM     17  C   UNL     1       2.143   1.917   2.650  1.00  0.00     0.021 A 
ATOM     18  C   UNL     1       2.029   4.156   1.740  1.00  0.00     0.021 A 
ATOM     19  C   UNL     1       2.527   2.459   3.889  1.00  0.00     0.015 A 
ATOM     20  C   UNL     1       2.424   4.692   2.979  1.00  0.00     0.015 A 
BRANCH  16  21
ATOM     21  S   UNL     1       1.177   2.175   0.048  1.00  0.00     0.175 S 
ATOM     22  C   UNL     1       1.727   0.512  -0.192  1.00  0.00     0.163 C 
ATOM     23  O   UNL     1       1.785   2.966  -1.008  1.00  0.00    -0.224 OA
ATOM     24  O   UNL     1      -0.262   2.136   0.223  1.00  0.00    -0.224 OA
ENDBRANCH  16  21
ENDBRANCH  13  15
ENDBRANCH   9  13
BRANCH  12  25
ATOM     25  C   UNL     1       4.271   8.667   5.515  1.00  0.00    -0.039 A 
ATOM     26  C   UNL     1       3.918   9.943   5.044  1.00  0.00     0.024 A 
ATOM     27  C   UNL     1       5.516   8.173   5.114  1.00  0.00     0.024 A 
ATOM     28  C   UNL     1       4.769  10.618   4.179  1.00  0.00     0.111 A 
ATOM     29  C   UNL     1       6.307   8.929   4.256  1.00  0.00     0.111 A 
ATOM     30  N   UNL     1       5.959  10.138   3.773  1.00  0.00    -0.265 NA
ENDBRANCH  12  25
ENDBRANCH   6   8
ENDBRANCH   5   6
ENDBRANCH   4   5
ENDBRANCH   3   4
ENDBRANCH   2   3
ENDBRANCH   1   2
BRANCH   1  31
ATOM     31  C   UNL     1      -0.384   8.170   2.809  1.00  0.00     0.188 C 
BRANCH  31  32
ATOM     32  O   UNL     1      -0.670   9.013   1.704  1.00  0.00    -0.376 OA
BRANCH  32  33
ATOM     33  C   UNL     1      -1.994   8.990   1.191  1.00  0.00     0.202 C 
BRANCH  33  34
ATOM     34  C   UNL     1      -2.480   7.661   0.597  1.00  0.00     0.261 C 
BRANCH  34  35
ATOM     35  O   UNL     1      -2.572   6.577   1.551  1.00  0.00    -0.460 OA
BRANCH  35  36
ATOM     36  C   UNL     1      -1.866   5.457   1.248  1.00  0.00     0.338 C 
ATOM     37  O   UNL     1      -1.153   5.303   0.271  1.00  0.00    -0.246 OA
BRANCH  36  38
ATOM     38  C   UNL     1      -1.914   4.468   2.353  1.00  0.00     0.060 A 
ATOM     39  C   UNL     1      -0.939   4.546   3.338  1.00  0.00     0.016 A 
ATOM     40  C   UNL     1      -2.733   3.343   2.319  1.00  0.00     0.016 A 
ATOM     41  C   UNL     1      -0.708   3.482   4.212  1.00  0.00     0.010 A 
ATOM     42  C   UNL     1      -2.514   2.281   3.230  1.00  0.00     0.010 A 
ATOM     43  C   UNL     1      -1.435   2.292   4.133  1.00  0.00    -0.014 A 
BRANCH  43  44
ATOM     44  C   UNL     1      -0.934   1.069   4.866  1.00  0.00     0.031 A 
ATOM     45  C   UNL     1      -0.583  -0.205   4.109  1.00  0.00     0.074 A 
ATOM     46  C   UNL     1      -0.635   1.094   6.186  1.00  0.00     0.049 A 
ATOM     47  N   UNL     1      -0.038  -1.313   4.558  1.00  0.00    -0.248 NA
ATOM     48  C   UNL     1      -0.825  -0.226   2.659  1.00  0.00     0.031 C 
ATOM     49  C   UNL     1      -0.795   2.243   7.078  1.00  0.00     0.029 A 
ATOM     50  N   UNL     1      -0.128   0.111   7.014  1.00  0.00    -0.354 N 
ATOM     51  C   UNL     1       0.133  -2.143   3.455  1.00  0.00     0.074 A 
ATOM     52  C   UNL     1      -0.391  -1.429   2.315  1.00  0.00     0.031 C 
ATOM     53  C   UNL     1      -0.400   1.904   8.315  1.00  0.00     0.029 A 
ATOM     54  C   UNL     1      -0.053   0.486   8.338  1.00  0.00     0.049 A 
ATOM     55  H   UNL     1       0.152  -0.775   6.689  1.00  0.00     0.167 HD
ATOM     56  C   UNL     1       0.676  -3.381   3.368  1.00  0.00     0.034 A 
ATOM     57  C   UNL     1       0.188  -0.227   9.460  1.00  0.00     0.034 A 
ATOM     58  C   UNL     1       1.083  -4.188   4.483  1.00  0.00     0.049 A 
ATOM     59  C   UNL     1       0.498  -1.698   9.369  1.00  0.00     0.074 A 
ATOM     60  C   UNL     1       1.546  -5.494   4.473  1.00  0.00     0.029 A 
ATOM     61  N   UNL     1       1.005  -3.804   5.809  1.00  0.00    -0.354 N 
ATOM     62  N   UNL     1       0.733  -2.427   8.307  1.00  0.00    -0.248 NA
ATOM     63  C   UNL     1       0.576  -2.445  10.635  1.00  0.00     0.031 C 
ATOM     64  C   UNL     1       1.663  -5.926   5.798  1.00  0.00     0.029 A 
ATOM     65  C   UNL     1       1.337  -4.868   6.630  1.00  0.00     0.049 A 
ATOM     66  H   UNL     1       0.750  -2.906   6.122  1.00  0.00     0.167 HD
ATOM     67  C   UNL     1       1.013  -3.708   8.778  1.00  0.00     0.074 A 
ATOM     68  C   UNL     1       0.937  -3.652  10.221  1.00  0.00     0.031 C 
ATOM     69  C   UNL     1       1.296  -4.827   8.068  1.00  0.00     0.034 A 
BRANCH  56  70
ATOM     70  C   UNL     1       0.815  -3.975   1.992  1.00  0.00     0.023 A 
ATOM     71  C   UNL     1       1.898  -3.596   1.174  1.00  0.00     0.012 A 
ATOM     72  C   UNL     1      -0.105  -4.935   1.531  1.00  0.00     0.148 A 
ATOM     73  C   UNL     1       2.051  -4.152  -0.096  1.00  0.00     0.002 A 
ATOM     74  C   UNL     1       0.069  -5.503   0.277  1.00  0.00     0.091 A 
ATOM     75  F   UNL     1      -1.134  -5.261   2.325  1.00  0.00    -0.205 F 
ATOM     76  C   UNL     1       1.141  -5.109  -0.541  1.00  0.00     0.022 A 
BRANCH  74  77
ATOM     77  S   UNL     1      -1.029  -6.766  -0.371  1.00  0.00     0.127 S 
ATOM     78  O   UNL     1      -1.679  -6.051  -1.469  1.00  0.00    -0.237 OA
ATOM     79  O   UNL     1      -0.087  -7.804  -0.790  1.00  0.00    -0.237 OA
ATOM     80  O   UNL     1      -1.904  -7.142   0.730  1.00  0.00    -0.744 OA
ENDBRANCH  74  77
ENDBRANCH  56  70
BRANCH  57  81
ATOM     81  C   UNL     1       0.051   0.425  10.798  1.00  0.00     0.023 A 
ATOM     82  C   UNL     1       1.157   0.526  11.663  1.00  0.00     0.012 A 
ATOM     83  C   UNL     1      -1.195   0.933  11.220  1.00  0.00     0.148 A 
ATOM     84  C   UNL     1       1.018   1.107  12.926  1.00  0.00     0.002 A 
ATOM     85  C   UNL     1      -1.308   1.577  12.444  1.00  0.00     0.091 A 
ATOM     86  F   UNL     1      -2.251   0.781  10.408  1.00  0.00    -0.205 F 
ATOM     87  C   UNL     1      -0.208   1.648  13.310  1.00  0.00     0.022 A 
BRANCH  85  88
ATOM     88  S   UNL     1      -2.811   2.429  12.936  1.00  0.00     0.127 S 
ATOM     89  O   UNL     1      -3.320   1.556  13.989  1.00  0.00    -0.237 OA
ATOM     90  O   UNL     1      -2.290   3.717  13.398  1.00  0.00    -0.237 OA
ATOM     91  O   UNL     1      -3.626   2.514  11.731  1.00  0.00    -0.744 OA
ENDBRANCH  85  88
ENDBRANCH  57  81
BRANCH  69  92
ATOM     92  C   UNL     1       1.575  -6.102   8.823  1.00  0.00     0.023 A 
ATOM     93  C   UNL     1       0.530  -6.771   9.490  1.00  0.00     0.012 A 
ATOM     94  C   UNL     1       2.860  -6.681   8.803  1.00  0.00     0.148 A 
ATOM     95  C   UNL     1       0.766  -7.977  10.151  1.00  0.00     0.002 A 
ATOM     96  C   UNL     1       3.075  -7.910   9.417  1.00  0.00     0.091 A 
ATOM     97  F   UNL     1       3.848  -6.022   8.180  1.00  0.00    -0.205 F 
ATOM     98  C   UNL     1       2.034  -8.553  10.103  1.00  0.00     0.022 A 
BRANCH  96  99
ATOM     99  S   UNL     1       4.647  -8.773   9.313  1.00  0.00     0.127 S 
ATOM    100  O   UNL     1       5.164  -8.616  10.671  1.00  0.00    -0.237 OA
ATOM    101  O   UNL     1       4.232 -10.134   8.972  1.00  0.00    -0.237 OA
ATOM    102  O   UNL     1       5.409  -8.096   8.272  1.00  0.00    -0.744 OA
ENDBRANCH  96  99
ENDBRANCH  69  92
ENDBRANCH  43  44
ENDBRANCH  36  38
ENDBRANCH  35  36
ENDBRANCH  34  35
ENDBRANCH  33  34
ENDBRANCH  32  33
ENDBRANCH  31  32
ENDBRANCH   1  31
TORSDOF 24
