REMARK SMILES COc1ccc(/C=C/c2nc(C(=O)OCCOCCOCCOC(=O)c3ccc(-c4c5nc(c(-c6cccc(S(=O)(=O)[O-])c6F)c6ccc([nH]6)c(-c6cccc(S(=O)(=O)[O-])c6F)c6nc(c(-c7cccc(S(=O)(=O)[O-])c7F)c7ccc4[nH]7)C=C6)C=C5)cc3)ccc2C#N)cc1F
REMARK SMILES IDX 18 1 17 2 16 3 15 4 14 5 12 6 13 7 11 8 9 9 10 10 91 11
REMARK SMILES IDX 90 12 89 13 8 14 7 15 6 16 3 17 4 18 95 19 5 20 94 21 96 22
REMARK SMILES IDX 2 23 1 24 92 25 93 26 19 27 20 28 21 29 22 30 23 31 24 32
REMARK SMILES IDX 25 33 26 34 27 35 88 36 28 37 87 38 29 39 30 40 31 41 81 42
REMARK SMILES IDX 32 43 86 44 80 45 82 46 33 47 85 48 79 49 78 50 34 52 66 53
REMARK SMILES IDX 46 54 65 55 47 56 50 57 64 58 83 59 48 60 49 61 63 63 84 64
REMARK SMILES IDX 51 65 35 66 36 67 44 68 37 69 39 70 45 71 38 72 40 73 41 74
REMARK SMILES IDX 42 75 43 76 67 77 68 78 76 79 69 80 71 81 77 82 70 83 72 84
REMARK SMILES IDX 73 85 74 86 75 87 52 88 53 89 61 90 54 91 56 92 62 93 55 94
REMARK SMILES IDX 57 95 58 96 59 97 60 98
REMARK H PARENT 82 51 50 62
REMARK Flexibility Score: inf
ROOT
ATOM      1  C   UNL     1      -1.344  -7.720  -9.705  1.00  0.00     0.188 C 
ENDROOT
BRANCH   1   2
ATOM      2  O   UNL     1      -1.950  -7.824 -10.978  1.00  0.00    -0.376 OA
BRANCH   2   3
ATOM      3  C   UNL     1      -1.159  -7.842 -12.155  1.00  0.00     0.202 C 
BRANCH   3   4
ATOM      4  C   UNL     1       0.266  -7.259 -12.271  1.00  0.00     0.261 C 
BRANCH   4   5
ATOM      5  O   UNL     1       1.088  -7.288 -11.097  1.00  0.00    -0.459 OA
BRANCH   5   6
ATOM      6  C   UNL     1       1.334  -6.084 -10.509  1.00  0.00     0.357 C 
ATOM      7  O   UNL     1       1.006  -4.993 -10.941  1.00  0.00    -0.244 OA
BRANCH   6   8
ATOM      8  C   UNL     1       1.977  -6.313  -9.177  1.00  0.00     0.149 A 
ATOM      9  C   UNL     1       2.033  -5.774  -6.903  1.00  0.00     0.082 A 
ATOM     10  N   UNL     1       1.464  -5.610  -8.126  1.00  0.00    -0.240 NA
ATOM     11  C   UNL     1       3.103  -6.652  -6.698  1.00  0.00     0.078 A 
ATOM     12  C   UNL     1       3.576  -7.401  -7.785  1.00  0.00     0.024 A 
ATOM     13  C   UNL     1       3.006  -7.235  -9.044  1.00  0.00     0.037 A 
BRANCH   9  14
ATOM     14  C   UNL     1       1.379  -5.013  -5.820  1.00  0.00     0.030 C 
ATOM     15  C   UNL     1       2.057  -4.197  -4.995  1.00  0.00     0.010 C 
BRANCH  15  16
ATOM     16  C   UNL     1       1.552  -3.459  -3.820  1.00  0.00    -0.022 A 
ATOM     17  C   UNL     1       0.801  -2.042  -1.478  1.00  0.00     0.154 A 
ATOM     18  C   UNL     1      -0.119  -2.849  -2.152  1.00  0.00     0.050 A 
ATOM     19  C   UNL     1       2.100  -1.965  -1.970  1.00  0.00     0.165 A 
ATOM     20  C   UNL     1       0.247  -3.543  -3.319  1.00  0.00     0.012 A 
ATOM     21  C   UNL     1       2.472  -2.661  -3.121  1.00  0.00     0.051 A 
ATOM     22  F   UNL     1       3.050  -1.256  -1.342  1.00  0.00    -0.203 F 
BRANCH  17  23
ATOM     23  O   UNL     1       0.339  -1.444  -0.339  1.00  0.00    -0.494 OA
ATOM     24  C   UNL     1       0.881  -0.159  -0.053  1.00  0.00     0.278 C 
ENDBRANCH  17  23
ENDBRANCH  15  16
ENDBRANCH   9  14
BRANCH  11  25
ATOM     25  C   UNL     1       3.748  -6.814  -5.428  1.00  0.00     0.101 C 
ATOM     26  N   UNL     1       4.334  -6.949  -4.438  1.00  0.00    -0.192 NA
ENDBRANCH  11  25
ENDBRANCH   6   8
ENDBRANCH   5   6
ENDBRANCH   4   5
ENDBRANCH   3   4
ENDBRANCH   2   3
ENDBRANCH   1   2
BRANCH   1  27
ATOM     27  C   UNL     1      -0.445  -8.880  -9.235  1.00  0.00     0.188 C 
BRANCH  27  28
ATOM     28  O   UNL     1      -0.037  -9.792 -10.229  1.00  0.00    -0.376 OA
BRANCH  28  29
ATOM     29  C   UNL     1      -0.902 -10.859 -10.589  1.00  0.00     0.202 C 
BRANCH  29  30
ATOM     30  C   UNL     1      -2.354 -11.079 -10.096  1.00  0.00     0.261 C 
BRANCH  30  31
ATOM     31  O   UNL     1      -2.946 -10.129  -9.203  1.00  0.00    -0.460 OA
BRANCH  31  32
ATOM     32  C   UNL     1      -2.923 -10.452  -7.887  1.00  0.00     0.338 C 
ATOM     33  O   UNL     1      -2.429 -11.450  -7.390  1.00  0.00    -0.246 OA
BRANCH  32  34
ATOM     34  C   UNL     1      -3.399  -9.300  -7.092  1.00  0.00     0.060 A 
ATOM     35  C   UNL     1      -2.470  -8.602  -6.308  1.00  0.00     0.016 A 
ATOM     36  C   UNL     1      -4.747  -8.942  -7.071  1.00  0.00     0.016 A 
ATOM     37  C   UNL     1      -2.891  -7.567  -5.477  1.00  0.00     0.010 A 
ATOM     38  C   UNL     1      -5.171  -7.914  -6.218  1.00  0.00     0.010 A 
ATOM     39  C   UNL     1      -4.251  -7.244  -5.390  1.00  0.00    -0.014 A 
BRANCH  39  40
ATOM     40  C   UNL     1      -4.700  -6.309  -4.327  1.00  0.00     0.031 A 
ATOM     41  C   UNL     1      -5.372  -6.864  -3.097  1.00  0.00     0.074 A 
ATOM     42  C   UNL     1      -4.444  -4.989  -4.418  1.00  0.00     0.049 A 
ATOM     43  N   UNL     1      -5.801  -6.232  -2.036  1.00  0.00    -0.248 NA
ATOM     44  C   UNL     1      -5.580  -8.323  -3.047  1.00  0.00     0.031 C 
ATOM     45  C   UNL     1      -3.779  -4.336  -5.546  1.00  0.00     0.029 A 
ATOM     46  N   UNL     1      -4.715  -3.960  -3.549  1.00  0.00    -0.354 N 
ATOM     47  C   UNL     1      -6.339  -7.207  -1.203  1.00  0.00     0.074 A 
ATOM     48  C   UNL     1      -6.206  -8.472  -1.887  1.00  0.00     0.031 C 
ATOM     49  C   UNL     1      -3.696  -3.017  -5.301  1.00  0.00     0.029 A 
ATOM     50  C   UNL     1      -4.331  -2.724  -4.017  1.00  0.00     0.049 A 
ATOM     51  H   UNL     1      -5.144  -4.095  -2.673  1.00  0.00     0.167 HD
ATOM     52  C   UNL     1      -6.870  -7.063   0.033  1.00  0.00     0.034 A 
ATOM     53  C   UNL     1      -4.490  -1.495  -3.481  1.00  0.00     0.034 A 
ATOM     54  C   UNL     1      -6.978  -5.806   0.722  1.00  0.00     0.049 A 
ATOM     55  C   UNL     1      -5.150  -1.360  -2.131  1.00  0.00     0.074 A 
ATOM     56  C   UNL     1      -7.478  -5.570   1.990  1.00  0.00     0.029 A 
ATOM     57  N   UNL     1      -6.586  -4.582   0.208  1.00  0.00    -0.354 N 
ATOM     58  N   UNL     1      -5.577  -2.303  -1.326  1.00  0.00    -0.248 NA
ATOM     59  C   UNL     1      -5.328   0.001  -1.599  1.00  0.00     0.031 C 
ATOM     60  C   UNL     1      -7.429  -4.197   2.227  1.00  0.00     0.029 A 
ATOM     61  C   UNL     1      -6.845  -3.585   1.130  1.00  0.00     0.049 A 
ATOM     62  H   UNL     1      -6.183  -4.443  -0.679  1.00  0.00     0.167 HD
ATOM     63  C   UNL     1      -6.022  -1.654  -0.179  1.00  0.00     0.074 A 
ATOM     64  C   UNL     1      -5.812  -0.238  -0.388  1.00  0.00     0.031 C 
ATOM     65  C   UNL     1      -6.561  -2.187   0.943  1.00  0.00     0.034 A 
BRANCH  52  66
ATOM     66  C   UNL     1      -7.341  -8.290   0.768  1.00  0.00     0.023 A 
ATOM     67  C   UNL     1      -6.391  -9.169   1.324  1.00  0.00     0.012 A 
ATOM     68  C   UNL     1      -8.710  -8.481   1.047  1.00  0.00     0.148 A 
ATOM     69  C   UNL     1      -6.794 -10.221   2.145  1.00  0.00     0.002 A 
ATOM     70  C   UNL     1      -9.100  -9.503   1.903  1.00  0.00     0.091 A 
ATOM     71  F   UNL     1      -9.595  -7.637   0.500  1.00  0.00    -0.205 F 
ATOM     72  C   UNL     1      -8.145 -10.377   2.448  1.00  0.00     0.022 A 
BRANCH  70  73
ATOM     73  S   UNL     1     -10.802  -9.737   2.428  1.00  0.00     0.127 S 
ATOM     74  O   UNL     1     -11.096 -11.066   1.893  1.00  0.00    -0.237 OA
ATOM     75  O   UNL     1     -10.683  -9.679   3.885  1.00  0.00    -0.237 OA
ATOM     76  O   UNL     1     -11.565  -8.651   1.829  1.00  0.00    -0.744 OA
ENDBRANCH  70  73
ENDBRANCH  52  66
BRANCH  53  77
ATOM     77  C   UNL     1      -3.988  -0.288  -4.200  1.00  0.00     0.023 A 
ATOM     78  C   UNL     1      -2.937   0.467  -3.644  1.00  0.00     0.012 A 
ATOM     79  C   UNL     1      -4.550   0.120  -5.426  1.00  0.00     0.148 A 
ATOM     80  C   UNL     1      -2.481   1.625  -4.274  1.00  0.00     0.002 A 
ATOM     81  C   UNL     1      -4.051   1.242  -6.079  1.00  0.00     0.091 A 
ATOM     82  F   UNL     1      -5.561  -0.600  -5.932  1.00  0.00    -0.205 F 
ATOM     83  C   UNL     1      -3.031   2.007  -5.495  1.00  0.00     0.022 A 
BRANCH  81  84
ATOM     84  S   UNL     1      -4.614   1.740  -7.710  1.00  0.00     0.127 S 
ATOM     85  O   UNL     1      -5.301   2.996  -7.419  1.00  0.00    -0.237 OA
ATOM     86  O   UNL     1      -3.351   1.882  -8.434  1.00  0.00    -0.237 OA
ATOM     87  O   UNL     1      -5.462   0.654  -8.184  1.00  0.00    -0.744 OA
ENDBRANCH  81  84
ENDBRANCH  53  77
BRANCH  65  88
ATOM     88  C   UNL     1      -6.915  -1.275   2.088  1.00  0.00     0.023 A 
ATOM     89  C   UNL     1      -8.068  -0.471   2.019  1.00  0.00     0.012 A 
ATOM     90  C   UNL     1      -6.203  -1.368   3.303  1.00  0.00     0.148 A 
ATOM     91  C   UNL     1      -8.510   0.225   3.144  1.00  0.00     0.002 A 
ATOM     92  C   UNL     1      -6.680  -0.716   4.432  1.00  0.00     0.091 A 
ATOM     93  F   UNL     1      -5.103  -2.134   3.339  1.00  0.00    -0.205 F 
ATOM     94  C   UNL     1      -7.829   0.087   4.353  1.00  0.00     0.022 A 
BRANCH  92  95
ATOM     95  S   UNL     1      -5.942  -0.927   6.057  1.00  0.00     0.127 S 
ATOM     96  O   UNL     1      -5.499   0.433   6.361  1.00  0.00    -0.237 OA
ATOM     97  O   UNL     1      -7.078  -1.390   6.851  1.00  0.00    -0.237 OA
ATOM     98  O   UNL     1      -4.870  -1.900   5.894  1.00  0.00    -0.744 OA
ENDBRANCH  92  95
ENDBRANCH  65  88
ENDBRANCH  39  40
ENDBRANCH  32  34
ENDBRANCH  31  32
ENDBRANCH  30  31
ENDBRANCH  29  30
ENDBRANCH  28  29
ENDBRANCH  27  28
ENDBRANCH   1  27
TORSDOF 24
