REMARK SMILES CC1(C)C(C(=O)Nc2ccc(CC(=O)OCCOCCOCCOC(=O)c3ccc(-c4c5nc(c(-c6cccc(S(=O)(=O)[O-])c6F)c6ccc([nH]6)c(-c6cccc(S(=O)(=O)[O-])c6F)c6nc(c(-c7cccc(S(=O)(=O)[O-])c7F)c7ccc4[nH]7)C=C6)C=C5)cc3)cc2)C1(C)C
REMARK SMILES IDX 19 1 18 2 17 3 16 4 15 5 13 6 14 7 12 8 11 9 8 10 9 11 91 12
REMARK SMILES IDX 10 13 90 14 7 15 5 16 6 17 4 19 1 20 2 21 3 22 92 23 93 24
REMARK SMILES IDX 94 25 20 26 21 27 22 28 23 29 24 30 25 31 26 32 27 33 28 34
REMARK SMILES IDX 89 35 29 36 88 37 30 38 31 39 32 40 82 41 33 42 87 43 81 44
REMARK SMILES IDX 83 45 34 46 86 47 80 48 79 49 35 51 67 52 47 53 66 54 48 55
REMARK SMILES IDX 51 56 65 57 84 58 49 59 50 60 64 62 85 63 52 64 36 65 37 66
REMARK SMILES IDX 45 67 38 68 40 69 46 70 39 71 41 72 42 73 43 74 44 75 68 76
REMARK SMILES IDX 69 77 77 78 70 79 72 80 78 81 71 82 73 83 74 84 75 85 76 86
REMARK SMILES IDX 53 87 54 88 62 89 55 90 57 91 63 92 56 93 58 94 59 95 60 96
REMARK SMILES IDX 61 97
REMARK H PARENT 7 18 83 50 51 61
REMARK Flexibility Score: inf
ROOT
ATOM      1  C   UNL     1       2.901  -1.370   9.464  1.00  0.00     0.188 C 
ENDROOT
BRANCH   1   2
ATOM      2  O   UNL     1       4.200  -1.319  10.055  1.00  0.00    -0.376 OA
BRANCH   2   3
ATOM      3  C   UNL     1       5.135  -0.377   9.547  1.00  0.00     0.202 C 
BRANCH   3   4
ATOM      4  C   UNL     1       5.735  -0.740   8.191  1.00  0.00     0.261 C 
BRANCH   4   5
ATOM      5  O   UNL     1       4.712  -0.889   7.190  1.00  0.00    -0.463 OA
BRANCH   5   6
ATOM      6  C   UNL     1       4.772  -2.021   6.453  1.00  0.00     0.310 C 
ATOM      7  O   UNL     1       5.709  -2.814   6.475  1.00  0.00    -0.252 OA
BRANCH   6   8
ATOM      8  C   UNL     1       3.567  -2.265   5.585  1.00  0.00     0.158 C 
BRANCH   8   9
ATOM      9  C   UNL     1       2.444  -1.252   5.508  1.00  0.00    -0.037 A 
ATOM     10  C   UNL     1       0.219   0.222   4.675  1.00  0.00     0.041 A 
ATOM     11  C   UNL     1       0.038  -0.858   5.532  1.00  0.00     0.026 A 
ATOM     12  C   UNL     1       1.504   0.705   4.430  1.00  0.00     0.026 A 
ATOM     13  C   UNL     1       1.148  -1.621   5.905  1.00  0.00     0.006 A 
ATOM     14  C   UNL     1       2.619  -0.026   4.854  1.00  0.00     0.006 A 
BRANCH  10  15
ATOM     15  N   UNL     1      -0.907   0.690   3.972  1.00  0.00    -0.326 N 
ATOM     16  C   UNL     1      -0.855   1.174   2.685  1.00  0.00     0.228 C 
ATOM     17  O   UNL     1      -1.038   2.369   2.460  1.00  0.00    -0.274 OA
ATOM     18  H   UNL     1      -1.780   0.670   4.426  1.00  0.00     0.169 HD
BRANCH  16  19
ATOM     19  C   UNL     1      -0.914   0.224   1.518  1.00  0.00     0.091 C 
ATOM     20  C   UNL     1       0.283   0.020  -0.763  1.00  0.00     0.012 C 
ATOM     21  C   UNL     1       0.319  -0.242   0.733  1.00  0.00    -0.017 C 
ATOM     22  C   UNL     1       1.708  -0.033   1.282  1.00  0.00     0.012 C 
ATOM     23  C   UNL     1      -0.658  -1.267   1.376  1.00  0.00    -0.017 C 
ATOM     24  C   UNL     1      -1.620  -2.032   0.480  1.00  0.00     0.012 C 
ATOM     25  C   UNL     1      -0.258  -2.140   2.538  1.00  0.00     0.012 C 
ENDBRANCH  16  19
ENDBRANCH  10  15
ENDBRANCH   8   9
ENDBRANCH   6   8
ENDBRANCH   5   6
ENDBRANCH   4   5
ENDBRANCH   3   4
ENDBRANCH   2   3
ENDBRANCH   1   2
BRANCH   1  26
ATOM     26  C   UNL     1       2.319  -0.084   8.865  1.00  0.00     0.188 C 
BRANCH  26  27
ATOM     27  O   UNL     1       2.440   1.007   9.774  1.00  0.00    -0.376 OA
BRANCH  27  28
ATOM     28  C   UNL     1       1.301   1.859   9.779  1.00  0.00     0.202 C 
BRANCH  28  29
ATOM     29  C   UNL     1       0.419   1.506  10.977  1.00  0.00     0.261 C 
BRANCH  29  30
ATOM     30  O   UNL     1       0.036   0.118  11.033  1.00  0.00    -0.460 OA
BRANCH  30  31
ATOM     31  C   UNL     1      -0.835  -0.302  10.088  1.00  0.00     0.338 C 
ATOM     32  O   UNL     1      -1.323   0.371   9.198  1.00  0.00    -0.246 OA
BRANCH  31  33
ATOM     33  C   UNL     1      -1.004  -1.768  10.203  1.00  0.00     0.060 A 
ATOM     34  C   UNL     1      -0.928  -2.540   9.038  1.00  0.00     0.016 A 
ATOM     35  C   UNL     1      -1.293  -2.374  11.426  1.00  0.00     0.016 A 
ATOM     36  C   UNL     1      -1.182  -3.913   9.081  1.00  0.00     0.010 A 
ATOM     37  C   UNL     1      -1.559  -3.747  11.468  1.00  0.00     0.010 A 
ATOM     38  C   UNL     1      -1.542  -4.518  10.291  1.00  0.00    -0.014 A 
BRANCH  38  39
ATOM     39  C   UNL     1      -2.070  -5.906  10.311  1.00  0.00     0.031 A 
ATOM     40  C   UNL     1      -3.558  -6.110  10.428  1.00  0.00     0.074 A 
ATOM     41  C   UNL     1      -1.251  -6.972  10.250  1.00  0.00     0.049 A 
ATOM     42  N   UNL     1      -4.236  -7.218  10.570  1.00  0.00    -0.248 NA
ATOM     43  C   UNL     1      -4.391  -4.897  10.382  1.00  0.00     0.031 C 
ATOM     44  C   UNL     1       0.203  -6.918  10.117  1.00  0.00     0.029 A 
ATOM     45  N   UNL     1      -1.533  -8.315  10.325  1.00  0.00    -0.354 N 
ATOM     46  C   UNL     1      -5.568  -6.836  10.677  1.00  0.00     0.074 A 
ATOM     47  C   UNL     1      -5.603  -5.393  10.581  1.00  0.00     0.031 C 
ATOM     48  C   UNL     1       0.690  -8.171  10.153  1.00  0.00     0.029 A 
ATOM     49  C   UNL     1      -0.412  -9.112  10.345  1.00  0.00     0.049 A 
ATOM     50  H   UNL     1      -2.450  -8.673  10.362  1.00  0.00     0.167 HD
ATOM     51  C   UNL     1      -6.666  -7.613  10.831  1.00  0.00     0.034 A 
ATOM     52  C   UNL     1      -0.288 -10.442  10.530  1.00  0.00     0.034 A 
ATOM     53  C   UNL     1      -6.640  -9.049  10.896  1.00  0.00     0.049 A 
ATOM     54  C   UNL     1      -1.525 -11.284  10.724  1.00  0.00     0.074 A 
ATOM     55  C   UNL     1      -7.706  -9.924  11.009  1.00  0.00     0.029 A 
ATOM     56  N   UNL     1      -5.490  -9.821  10.862  1.00  0.00    -0.354 N 
ATOM     57  N   UNL     1      -2.784 -10.919  10.722  1.00  0.00    -0.248 NA
ATOM     58  C   UNL     1      -1.323 -12.729  10.918  1.00  0.00     0.031 C 
ATOM     59  C   UNL     1      -7.198 -11.226  11.064  1.00  0.00     0.029 A 
ATOM     60  C   UNL     1      -5.818 -11.162  10.959  1.00  0.00     0.049 A 
ATOM     61  H   UNL     1      -4.574  -9.468  10.780  1.00  0.00     0.167 HD
ATOM     62  C   UNL     1      -3.523 -12.088  10.878  1.00  0.00     0.074 A 
ATOM     63  C   UNL     1      -2.572 -13.177  10.952  1.00  0.00     0.031 C 
ATOM     64  C   UNL     1      -4.867 -12.244  10.968  1.00  0.00     0.034 A 
BRANCH  51  65
ATOM     65  C   UNL     1      -8.001  -6.922  10.919  1.00  0.00     0.023 A 
ATOM     66  C   UNL     1      -8.577  -6.365   9.760  1.00  0.00     0.012 A 
ATOM     67  C   UNL     1      -8.706  -6.868  12.137  1.00  0.00     0.148 A 
ATOM     68  C   UNL     1      -9.820  -5.737   9.817  1.00  0.00     0.002 A 
ATOM     69  C   UNL     1      -9.963  -6.277  12.178  1.00  0.00     0.091 A 
ATOM     70  F   UNL     1      -8.129  -7.381  13.233  1.00  0.00    -0.205 F 
ATOM     71  C   UNL     1     -10.516  -5.701  11.023  1.00  0.00     0.022 A 
BRANCH  69  72
ATOM     72  S   UNL     1     -10.969  -6.247  13.666  1.00  0.00     0.127 S 
ATOM     73  O   UNL     1     -10.888  -4.838  14.049  1.00  0.00    -0.237 OA
ATOM     74  O   UNL     1     -12.277  -6.668  13.162  1.00  0.00    -0.237 OA
ATOM     75  O   UNL     1     -10.345  -7.184  14.590  1.00  0.00    -0.744 OA
ENDBRANCH  69  72
ENDBRANCH  51  65
BRANCH  52  76
ATOM     76  C   UNL     1       1.062 -11.075  10.522  1.00  0.00     0.023 A 
ATOM     77  C   UNL     1       1.420 -11.932   9.462  1.00  0.00     0.012 A 
ATOM     78  C   UNL     1       1.992 -10.833  11.552  1.00  0.00     0.148 A 
ATOM     79  C   UNL     1       2.667 -12.558   9.443  1.00  0.00     0.002 A 
ATOM     80  C   UNL     1       3.252 -11.417  11.499  1.00  0.00     0.091 A 
ATOM     81  F   UNL     1       1.624 -10.034  12.564  1.00  0.00    -0.205 F 
ATOM     82  C   UNL     1       3.586 -12.293  10.454  1.00  0.00     0.022 A 
BRANCH  80  83
ATOM     83  S   UNL     1       4.540 -11.038  12.693  1.00  0.00     0.127 S 
ATOM     84  O   UNL     1       4.622 -12.285  13.449  1.00  0.00    -0.237 OA
ATOM     85  O   UNL     1       5.686 -10.768  11.824  1.00  0.00    -0.237 OA
ATOM     86  O   UNL     1       4.060  -9.879  13.431  1.00  0.00    -0.744 OA
ENDBRANCH  80  83
ENDBRANCH  52  76
BRANCH  64  87
ATOM     87  C   UNL     1      -5.408 -13.644  11.111  1.00  0.00     0.023 A 
ATOM     88  C   UNL     1      -5.272 -14.328  12.335  1.00  0.00     0.012 A 
ATOM     89  C   UNL     1      -6.128 -14.247  10.060  1.00  0.00     0.148 A 
ATOM     90  C   UNL     1      -5.818 -15.600  12.501  1.00  0.00     0.002 A 
ATOM     91  C   UNL     1      -6.710 -15.495  10.248  1.00  0.00     0.091 A 
ATOM     92  F   UNL     1      -6.232 -13.589   8.896  1.00  0.00    -0.205 F 
ATOM     93  C   UNL     1      -6.546 -16.178  11.464  1.00  0.00     0.022 A 
BRANCH  91  94
ATOM     94  S   UNL     1      -7.745 -16.272   9.001  1.00  0.00     0.127 S 
ATOM     95  O   UNL     1      -6.866 -17.325   8.497  1.00  0.00    -0.237 OA
ATOM     96  O   UNL     1      -8.880 -16.751   9.792  1.00  0.00    -0.237 OA
ATOM     97  O   UNL     1      -8.077 -15.222   8.047  1.00  0.00    -0.744 OA
ENDBRANCH  91  94
ENDBRANCH  64  87
ENDBRANCH  38  39
ENDBRANCH  31  33
ENDBRANCH  30  31
ENDBRANCH  29  30
ENDBRANCH  28  29
ENDBRANCH  27  28
ENDBRANCH  26  27
ENDBRANCH   1  26
TORSDOF 23
