REMARK SMILES Cc1ccc(-c2ccc(/C=C(\C#N)C3N=c4ccccc4=N3)o2)cc1C(=O)OCCOCCOCCOC(=O)c1ccc(-c2c3nc(c(-c4cccc(S(=O)(=O)[O-])c4F)c4ccc([nH]4)c(-c4cccc(S(=O)(=O)[O-])c4F)c4nc(c(-c5cccc(S(=O)(=O)[O-])c5F)c5ccc2[nH]5)C=C4)C=C3)cc1
REMARK SMILES IDX 32 1 31 2 30 3 29 4 28 5 26 6 27 7 25 8 1 9 2 10 3 11 4 12
REMARK SMILES IDX 24 13 5 14 6 15 7 16 23 17 8 18 9 19 10 20 11 21 12 22 13 23
REMARK SMILES IDX 14 24 15 25 22 26 16 27 21 28 17 29 20 30 18 31 19 32 33 33
REMARK SMILES IDX 34 34 35 35 36 36 37 37 38 38 39 39 40 40 41 41 102 42 42 43
REMARK SMILES IDX 101 44 43 45 44 46 45 47 95 48 46 49 100 50 94 51 96 52
REMARK SMILES IDX 47 53 99 54 93 55 92 56 48 58 80 59 60 60 79 61 61 62 64 63
REMARK SMILES IDX 78 64 97 65 62 66 63 67 77 69 98 70 65 71 49 72 50 73 58 74
REMARK SMILES IDX 51 75 53 76 59 77 52 78 54 79 55 80 56 81 57 82 81 83 82 84
REMARK SMILES IDX 90 85 83 86 85 87 91 88 84 89 86 90 87 91 88 92 89 93 66 94
REMARK SMILES IDX 67 95 75 96 68 97 70 98 76 99 69 100 71 101 72 102 73 103
REMARK SMILES IDX 74 104
REMARK H PARENT 96 57 64 68
REMARK Flexibility Score: inf
ROOT
ATOM      1  C   UNL     1       3.245   3.605  -2.806  1.00  0.00     0.188 C 
ENDROOT
BRANCH   1   2
ATOM      2  O   UNL     1       4.195   4.256  -2.021  1.00  0.00    -0.376 OA
BRANCH   2   3
ATOM      3  C   UNL     1       4.140   3.788  -0.679  1.00  0.00     0.202 C 
BRANCH   3   4
ATOM      4  C   UNL     1       4.043   2.195  -0.416  1.00  0.00     0.261 C 
BRANCH   4   5
ATOM      5  O   UNL     1       2.696   1.042  -0.333  1.00  0.00    -0.460 OA
BRANCH   5   6
ATOM      6  C   UNL     1       1.471   0.496   0.398  1.00  0.00     0.338 C 
ATOM      7  O   UNL     1       0.966   0.852   1.470  1.00  0.00    -0.246 OA
BRANCH   6   8
ATOM      8  C   UNL     1       0.535  -0.493  -0.137  1.00  0.00     0.063 A 
ATOM      9  C   UNL     1       2.435  -1.934  -0.898  1.00  0.00     0.045 C 
ATOM     10  C   UNL     1       0.986  -1.695  -0.631  1.00  0.00    -0.037 A 
ATOM     11  C   UNL     1       0.030  -2.707  -0.790  1.00  0.00     0.005 A 
ATOM     12  C   UNL     1      -1.348  -2.491  -0.552  1.00  0.00     0.012 A 
ATOM     13  C   UNL     1      -0.860  -0.277   0.131  1.00  0.00     0.028 A 
ATOM     14  C   UNL     1      -1.817  -1.253  -0.126  1.00  0.00     0.018 A 
BRANCH  14  15
ATOM     15  C   UNL     1      -3.232  -0.900  -0.156  1.00  0.00     0.134 A 
ATOM     16  C   UNL     1      -3.947  -0.171  -1.074  1.00  0.00     0.051 A 
ATOM     17  O   UNL     1      -4.056  -1.287   0.861  1.00  0.00    -0.457 OA
ATOM     18  C   UNL     1      -5.251  -0.036  -0.560  1.00  0.00     0.051 A 
ATOM     19  C   UNL     1      -5.313  -0.737   0.636  1.00  0.00     0.128 A 
BRANCH  19  20
ATOM     20  C   UNL     1      -6.469  -0.908   1.456  1.00  0.00     0.066 C 
ATOM     21  C   UNL     1      -6.490  -1.527   2.649  1.00  0.00     0.080 C 
BRANCH  21  22
ATOM     22  C   UNL     1      -5.300  -2.014   3.297  1.00  0.00     0.099 C 
ATOM     23  N   UNL     1      -4.428  -2.468   3.885  1.00  0.00    -0.193 NA
ENDBRANCH  21  22
BRANCH  21  24
ATOM     24  C   UNL     1      -7.804  -1.827   3.341  1.00  0.00     0.263 C 
ATOM     25  N   UNL     1      -8.063  -3.297   3.246  1.00  0.00    -0.251 NA
ATOM     26  N   UNL     1      -7.782  -1.403   4.769  1.00  0.00    -0.251 NA
ATOM     27  C   UNL     1      -7.983  -3.671   4.475  1.00  0.00     0.086 A 
ATOM     28  C   UNL     1      -7.831  -2.526   5.398  1.00  0.00     0.086 A 
ATOM     29  C   UNL     1      -8.045  -5.032   5.014  1.00  0.00     0.030 A 
ATOM     30  C   UNL     1      -7.783  -2.772   6.842  1.00  0.00     0.030 A 
ATOM     31  C   UNL     1      -7.976  -5.171   6.346  1.00  0.00     0.002 A 
ATOM     32  C   UNL     1      -7.856  -4.046   7.254  1.00  0.00     0.002 A 
ENDBRANCH  21  24
ENDBRANCH  19  20
ENDBRANCH  14  15
ENDBRANCH   6   8
ENDBRANCH   5   6
ENDBRANCH   4   5
ENDBRANCH   3   4
ENDBRANCH   2   3
ENDBRANCH   1   2
BRANCH   1  33
ATOM     33  C   UNL     1       3.733   3.112  -4.154  1.00  0.00     0.188 C 
BRANCH  33  34
ATOM     34  O   UNL     1       4.500   4.040  -4.874  1.00  0.00    -0.376 OA
BRANCH  34  35
ATOM     35  C   UNL     1       4.012   5.351  -4.701  1.00  0.00     0.202 C 
BRANCH  35  36
ATOM     36  C   UNL     1       2.513   5.642  -5.007  1.00  0.00     0.261 C 
BRANCH  36  37
ATOM     37  O   UNL     1       1.293   4.726  -5.022  1.00  0.00    -0.460 OA
BRANCH  37  38
ATOM     38  C   UNL     1       0.270   3.871  -4.801  1.00  0.00     0.338 C 
ATOM     39  O   UNL     1      -0.609   3.756  -5.649  1.00  0.00    -0.246 OA
BRANCH  38  40
ATOM     40  C   UNL     1       0.132   3.110  -3.535  1.00  0.00     0.060 A 
ATOM     41  C   UNL     1      -0.758   3.365  -2.509  1.00  0.00     0.016 A 
ATOM     42  C   UNL     1       0.850   1.997  -3.302  1.00  0.00     0.016 A 
ATOM     43  C   UNL     1      -0.364   3.209  -1.142  1.00  0.00     0.010 A 
ATOM     44  C   UNL     1       1.217   1.831  -1.958  1.00  0.00     0.010 A 
ATOM     45  C   UNL     1       0.879   2.699  -0.826  1.00  0.00    -0.014 A 
BRANCH  45  46
ATOM     46  C   UNL     1       1.676   3.105   0.687  1.00  0.00     0.031 A 
ATOM     47  C   UNL     1       2.677   2.181   1.894  1.00  0.00     0.074 A 
ATOM     48  C   UNL     1       1.550   4.421   0.993  1.00  0.00     0.049 A 
ATOM     49  N   UNL     1       2.579   2.309   3.196  1.00  0.00    -0.248 NA
ATOM     50  C   UNL     1       3.563   0.846   1.748  1.00  0.00     0.031 C 
ATOM     51  C   UNL     1       2.289   5.199   1.986  1.00  0.00     0.029 A 
ATOM     52  N   UNL     1       0.724   5.372   0.410  1.00  0.00    -0.354 N 
ATOM     53  C   UNL     1       3.403   1.293   3.758  1.00  0.00     0.074 A 
ATOM     54  C   UNL     1       3.458   0.205   2.891  1.00  0.00     0.031 C 
ATOM     55  C   UNL     1       1.729   6.420   2.099  1.00  0.00     0.029 A 
ATOM     56  C   UNL     1       0.503   6.403   1.325  1.00  0.00     0.049 A 
ATOM     57  H   UNL     1       0.354   5.327  -0.501  1.00  0.00     0.167 HD
ATOM     58  C   UNL     1       4.363   1.552   4.684  1.00  0.00     0.034 A 
ATOM     59  C   UNL     1      -0.755   6.495   1.857  1.00  0.00     0.034 A 
ATOM     60  C   UNL     1       3.983   2.808   5.287  1.00  0.00     0.049 A 
ATOM     61  C   UNL     1      -0.789   5.944   3.296  1.00  0.00     0.074 A 
ATOM     62  C   UNL     1       4.319   4.121   5.034  1.00  0.00     0.029 A 
ATOM     63  N   UNL     1       2.702   2.826   5.819  1.00  0.00    -0.354 N 
ATOM     64  N   UNL     1       0.234   5.406   3.926  1.00  0.00    -0.248 NA
ATOM     65  C   UNL     1      -1.954   6.037   4.168  1.00  0.00     0.031 C 
ATOM     66  C   UNL     1       3.129   4.901   5.263  1.00  0.00     0.029 A 
ATOM     67  C   UNL     1       2.098   4.067   5.683  1.00  0.00     0.049 A 
ATOM     68  H   UNL     1       2.271   2.049   6.244  1.00  0.00     0.167 HD
ATOM     69  C   UNL     1      -0.131   4.956   5.170  1.00  0.00     0.074 A 
ATOM     70  C   UNL     1      -1.492   5.466   5.295  1.00  0.00     0.031 C 
ATOM     71  C   UNL     1       0.660   4.180   5.995  1.00  0.00     0.034 A 
BRANCH  58  72
ATOM     72  C   UNL     1       5.653   0.723   4.926  1.00  0.00     0.023 A 
ATOM     73  C   UNL     1       6.353   1.048   6.100  1.00  0.00     0.012 A 
ATOM     74  C   UNL     1       6.291  -0.282   4.104  1.00  0.00     0.148 A 
ATOM     75  C   UNL     1       7.566   0.435   6.458  1.00  0.00     0.002 A 
ATOM     76  C   UNL     1       7.471  -0.944   4.500  1.00  0.00     0.091 A 
ATOM     77  F   UNL     1       5.842  -0.556   2.873  1.00  0.00    -0.205 F 
ATOM     78  C   UNL     1       8.115  -0.572   5.676  1.00  0.00     0.022 A 
BRANCH  76  79
ATOM     79  S   UNL     1       8.250  -2.291   3.560  1.00  0.00     0.127 S 
ATOM     80  O   UNL     1       9.512  -1.684   3.135  1.00  0.00    -0.237 OA
ATOM     81  O   UNL     1       8.399  -3.341   4.569  1.00  0.00    -0.237 OA
ATOM     82  O   UNL     1       7.334  -2.622   2.475  1.00  0.00    -0.744 OA
ENDBRANCH  76  79
ENDBRANCH  58  72
BRANCH  59  83
ATOM     83  C   UNL     1      -1.798   6.442   0.752  1.00  0.00     0.023 A 
ATOM     84  C   UNL     1      -1.565   7.329  -0.346  1.00  0.00     0.012 A 
ATOM     85  C   UNL     1      -2.710   5.394   0.543  1.00  0.00     0.148 A 
ATOM     86  C   UNL     1      -2.007   7.042  -1.641  1.00  0.00     0.002 A 
ATOM     87  C   UNL     1      -3.226   5.167  -0.747  1.00  0.00     0.091 A 
ATOM     88  F   UNL     1      -2.977   4.552   1.549  1.00  0.00    -0.205 F 
ATOM     89  C   UNL     1      -2.815   5.939  -1.847  1.00  0.00     0.022 A 
BRANCH  87  90
ATOM     90  S   UNL     1      -4.388   3.833  -1.077  1.00  0.00     0.127 S 
ATOM     91  O   UNL     1      -5.062   4.279  -2.298  1.00  0.00    -0.237 OA
ATOM     92  O   UNL     1      -3.503   2.696  -1.275  1.00  0.00    -0.237 OA
ATOM     93  O   UNL     1      -5.246   3.800   0.099  1.00  0.00    -0.744 OA
ENDBRANCH  87  90
ENDBRANCH  59  83
BRANCH  71  94
ATOM     94  C   UNL     1       0.094   3.378   7.191  1.00  0.00     0.023 A 
ATOM     95  C   UNL     1      -1.284   3.135   7.337  1.00  0.00     0.012 A 
ATOM     96  C   UNL     1       0.925   2.709   8.136  1.00  0.00     0.148 A 
ATOM     97  C   UNL     1      -1.815   2.421   8.418  1.00  0.00     0.002 A 
ATOM     98  C   UNL     1       0.402   1.836   9.089  1.00  0.00     0.091 A 
ATOM     99  F   UNL     1       2.248   2.923   8.161  1.00  0.00    -0.205 F 
ATOM    100  C   UNL     1      -0.971   1.747   9.284  1.00  0.00     0.022 A 
BRANCH  98 101
ATOM    101  S   UNL     1       1.469   0.675   9.960  1.00  0.00     0.127 S 
ATOM    102  O   UNL     1       1.810   1.419  11.169  1.00  0.00    -0.237 OA
ATOM    103  O   UNL     1       0.584  -0.471  10.180  1.00  0.00    -0.237 OA
ATOM    104  O   UNL     1       2.563   0.411   9.033  1.00  0.00    -0.744 OA
ENDBRANCH  98 101
ENDBRANCH  71  94
ENDBRANCH  45  46
ENDBRANCH  38  40
ENDBRANCH  37  38
ENDBRANCH  36  37
ENDBRANCH  35  36
ENDBRANCH  34  35
ENDBRANCH  33  34
ENDBRANCH   1  33
TORSDOF 24
