REMARK SMILES NS(=O)(=O)c1ccc(-n2nc(C(=O)OCCOCCOCCOC(=O)c3ccc(-c4c5nc(c(-c6cccc(S(=O)(=O)[O-])c6F)c6ccc([nH]6)c(-c6cccc(S(=O)(=O)[O-])c6F)c6nc(c(-c7cccc(S(=O)(=O)[O-])c7F)c7ccc4[nH]7)C=C6)C=C5)cc3)cc2-c2ccc(Cl)s2)cc1
REMARK SMILES IDX 18 1 17 2 16 3 15 4 14 5 12 6 13 7 11 8 9 9 10 10 90 11
REMARK SMILES IDX 89 12 8 13 5 14 6 15 98 16 7 17 97 18 2 19 3 20 4 21 1 22
REMARK SMILES IDX 91 25 92 26 96 27 93 28 94 29 95 30 19 31 20 32 21 33 22 34
REMARK SMILES IDX 23 35 24 36 25 37 26 38 27 39 88 40 28 41 87 42 29 43 30 44
REMARK SMILES IDX 31 45 81 46 32 47 86 48 80 49 82 50 33 51 85 52 79 53 78 54
REMARK SMILES IDX 34 56 66 57 46 58 65 59 47 60 50 61 64 62 83 63 48 64 49 65
REMARK SMILES IDX 63 67 84 68 51 69 35 70 36 71 44 72 37 73 39 74 45 75 38 76
REMARK SMILES IDX 40 77 41 78 42 79 43 80 67 81 68 82 76 83 69 84 71 85 77 86
REMARK SMILES IDX 70 87 72 88 73 89 74 90 75 91 52 92 53 93 61 94 54 95 56 96
REMARK SMILES IDX 62 97 55 98 57 99 58 100 59 101 60 102
REMARK H PARENT 1 23 1 24 82 55 50 66
REMARK Flexibility Score: inf
ROOT
ATOM      1  C   UNL     1       5.668  -5.253  -7.294  1.00  0.00     0.188 C 
ENDROOT
BRANCH   1   2
ATOM      2  O   UNL     1       6.677  -6.086  -7.846  1.00  0.00    -0.376 OA
BRANCH   2   3
ATOM      3  C   UNL     1       6.333  -7.271  -8.545  1.00  0.00     0.202 C 
BRANCH   3   4
ATOM      4  C   UNL     1       5.332  -8.289  -7.959  1.00  0.00     0.261 C 
BRANCH   4   5
ATOM      5  O   UNL     1       4.140  -7.745  -7.372  1.00  0.00    -0.458 OA
BRANCH   5   6
ATOM      6  C   UNL     1       4.100  -7.696  -6.008  1.00  0.00     0.358 C 
ATOM      7  O   UNL     1       4.904  -8.254  -5.272  1.00  0.00    -0.244 OA
BRANCH   6   8
ATOM      8  C   UNL     1       3.018  -6.818  -5.522  1.00  0.00     0.171 A 
ATOM      9  N   UNL     1       2.017  -5.332  -4.343  1.00  0.00    -0.231 N 
ATOM     10  N   UNL     1       3.219  -5.918  -4.538  1.00  0.00    -0.160 NA
ATOM     11  C   UNL     1       1.047  -5.828  -5.199  1.00  0.00     0.085 A 
ATOM     12  C   UNL     1       1.695  -6.725  -6.023  1.00  0.00     0.068 A 
BRANCH   9  13
ATOM     13  C   UNL     1       1.815  -4.490  -3.227  1.00  0.00     0.065 A 
ATOM     14  C   UNL     1       1.170  -2.752  -1.160  1.00  0.00     0.082 A 
ATOM     15  C   UNL     1       0.645  -4.049  -1.165  1.00  0.00     0.024 A 
ATOM     16  C   UNL     1       2.037  -2.326  -2.175  1.00  0.00     0.024 A 
ATOM     17  C   UNL     1       0.959  -4.918  -2.206  1.00  0.00     0.030 A 
ATOM     18  C   UNL     1       2.381  -3.208  -3.207  1.00  0.00     0.030 A 
BRANCH  14  19
ATOM     19  S   UNL     1       0.677  -1.692   0.168  1.00  0.00     0.238 S 
ATOM     20  O   UNL     1       1.309  -2.149   1.372  1.00  0.00    -0.207 OA
ATOM     21  O   UNL     1      -0.761  -1.498   0.071  1.00  0.00    -0.207 OA
BRANCH  19  22
ATOM     22  N   UNL     1       1.351  -0.198  -0.177  1.00  0.00    -0.225 NA
ATOM     23  H   UNL     1       1.102   0.465   0.557  1.00  0.00     0.137 HD
ATOM     24  H   UNL     1       0.995   0.137  -1.073  1.00  0.00     0.137 HD
ENDBRANCH  19  22
ENDBRANCH  14  19
ENDBRANCH   9  13
BRANCH  11  25
ATOM     25  C   UNL     1      -0.345  -5.482  -5.168  1.00  0.00     0.054 A 
ATOM     26  C   UNL     1      -1.393  -6.379  -5.085  1.00  0.00     0.024 A 
ATOM     27  S   UNL     1      -0.910  -3.862  -5.199  1.00  0.00    -0.122 S 
ATOM     28  C   UNL     1      -2.654  -5.728  -4.947  1.00  0.00     0.033 A 
ATOM     29  C   UNL     1      -2.510  -4.365  -4.977  1.00  0.00     0.094 A 
ATOM     30  Cl  UNL     1      -3.762  -3.203  -4.812  1.00  0.00    -0.072 Cl
ENDBRANCH  11  25
ENDBRANCH   6   8
ENDBRANCH   5   6
ENDBRANCH   4   5
ENDBRANCH   3   4
ENDBRANCH   2   3
ENDBRANCH   1   2
BRANCH   1  31
ATOM     31  C   UNL     1       4.381  -4.919  -8.091  1.00  0.00     0.188 C 
BRANCH  31  32
ATOM     32  O   UNL     1       4.121  -5.755  -9.201  1.00  0.00    -0.376 OA
BRANCH  32  33
ATOM     33  C   UNL     1       4.320  -5.318 -10.539  1.00  0.00     0.202 C 
BRANCH  33  34
ATOM     34  C   UNL     1       5.470  -4.411 -10.982  1.00  0.00     0.261 C 
BRANCH  34  35
ATOM     35  O   UNL     1       6.209  -3.845  -9.928  1.00  0.00    -0.460 OA
BRANCH  35  36
ATOM     36  C   UNL     1       5.721  -2.669  -9.492  1.00  0.00     0.338 C 
ATOM     37  O   UNL     1       4.675  -2.137  -9.828  1.00  0.00    -0.246 OA
BRANCH  36  38
ATOM     38  C   UNL     1       6.677  -2.099  -8.538  1.00  0.00     0.060 A 
ATOM     39  C   UNL     1       6.272  -0.891  -7.973  1.00  0.00     0.016 A 
ATOM     40  C   UNL     1       8.021  -2.472  -8.677  1.00  0.00     0.016 A 
ATOM     41  C   UNL     1       7.200   0.110  -7.955  1.00  0.00     0.010 A 
ATOM     42  C   UNL     1       8.943  -1.467  -8.678  1.00  0.00     0.010 A 
ATOM     43  C   UNL     1       8.474  -0.178  -8.454  1.00  0.00    -0.014 A 
BRANCH  43  44
ATOM     44  C   UNL     1       9.316   0.943  -8.766  1.00  0.00     0.031 A 
ATOM     45  C   UNL     1       9.914   1.529  -7.559  1.00  0.00     0.074 A 
ATOM     46  C   UNL     1       9.534   1.319 -10.038  1.00  0.00     0.049 A 
ATOM     47  N   UNL     1       9.627   2.662  -7.012  1.00  0.00    -0.248 NA
ATOM     48  C   UNL     1      10.759   0.647  -6.742  1.00  0.00     0.031 C 
ATOM     49  C   UNL     1       9.203   0.601 -11.274  1.00  0.00     0.029 A 
ATOM     50  N   UNL     1      10.263   2.373 -10.481  1.00  0.00    -0.354 N 
ATOM     51  C   UNL     1      10.464   2.732  -5.908  1.00  0.00     0.074 A 
ATOM     52  C   UNL     1      10.929   1.395  -5.654  1.00  0.00     0.031 C 
ATOM     53  C   UNL     1       9.973   1.085 -12.276  1.00  0.00     0.029 A 
ATOM     54  C   UNL     1      10.744   2.209 -11.772  1.00  0.00     0.049 A 
ATOM     55  H   UNL     1      10.434   3.177  -9.939  1.00  0.00     0.167 HD
ATOM     56  C   UNL     1      10.968   3.921  -5.489  1.00  0.00     0.034 A 
ATOM     57  C   UNL     1      11.803   2.867 -12.303  1.00  0.00     0.034 A 
ATOM     58  C   UNL     1      10.229   5.036  -6.022  1.00  0.00     0.049 A 
ATOM     59  C   UNL     1      12.034   4.077 -11.470  1.00  0.00     0.074 A 
ATOM     60  C   UNL     1       8.908   5.437  -5.976  1.00  0.00     0.029 A 
ATOM     61  N   UNL     1      10.796   5.720  -7.071  1.00  0.00    -0.354 N 
ATOM     62  N   UNL     1      11.186   5.066 -11.388  1.00  0.00    -0.248 NA
ATOM     63  C   UNL     1      12.976   3.972 -10.365  1.00  0.00     0.031 C 
ATOM     64  C   UNL     1       8.639   5.965  -7.272  1.00  0.00     0.029 A 
ATOM     65  C   UNL     1       9.820   5.905  -8.015  1.00  0.00     0.049 A 
ATOM     66  H   UNL     1      11.732   6.020  -7.133  1.00  0.00     0.167 HD
ATOM     67  C   UNL     1      11.187   5.418 -10.043  1.00  0.00     0.074 A 
ATOM     68  C   UNL     1      12.379   4.781  -9.484  1.00  0.00     0.031 C 
ATOM     69  C   UNL     1      10.072   5.931  -9.441  1.00  0.00     0.034 A 
BRANCH  56  70
ATOM     70  C   UNL     1      12.358   4.073  -4.931  1.00  0.00     0.023 A 
ATOM     71  C   UNL     1      12.677   5.303  -4.323  1.00  0.00     0.012 A 
ATOM     72  C   UNL     1      13.430   3.190  -5.205  1.00  0.00     0.148 A 
ATOM     73  C   UNL     1      14.001   5.649  -4.037  1.00  0.00     0.002 A 
ATOM     74  C   UNL     1      14.729   3.498  -4.832  1.00  0.00     0.091 A 
ATOM     75  F   UNL     1      13.236   2.106  -5.962  1.00  0.00    -0.205 F 
ATOM     76  C   UNL     1      15.027   4.742  -4.278  1.00  0.00     0.022 A 
BRANCH  74  77
ATOM     77  S   UNL     1      16.069   2.327  -5.077  1.00  0.00     0.127 S 
ATOM     78  O   UNL     1      16.728   2.880  -6.256  1.00  0.00    -0.237 OA
ATOM     79  O   UNL     1      16.816   2.460  -3.826  1.00  0.00    -0.237 OA
ATOM     80  O   UNL     1      15.422   1.031  -5.246  1.00  0.00    -0.744 OA
ENDBRANCH  74  77
ENDBRANCH  56  70
BRANCH  57  81
ATOM     81  C   UNL     1      12.828   2.335 -13.234  1.00  0.00     0.023 A 
ATOM     82  C   UNL     1      13.632   3.224 -13.973  1.00  0.00     0.012 A 
ATOM     83  C   UNL     1      13.194   0.969 -13.214  1.00  0.00     0.148 A 
ATOM     84  C   UNL     1      14.768   2.769 -14.657  1.00  0.00     0.002 A 
ATOM     85  C   UNL     1      14.311   0.518 -13.911  1.00  0.00     0.091 A 
ATOM     86  F   UNL     1      12.505   0.124 -12.436  1.00  0.00    -0.205 F 
ATOM     87  C   UNL     1      15.108   1.419 -14.625  1.00  0.00     0.022 A 
BRANCH  85  88
ATOM     88  S   UNL     1      14.803  -1.212 -13.908  1.00  0.00     0.127 S 
ATOM     89  O   UNL     1      15.031  -1.463 -15.332  1.00  0.00    -0.237 OA
ATOM     90  O   UNL     1      16.012  -1.182 -13.090  1.00  0.00    -0.237 OA
ATOM     91  O   UNL     1      13.676  -1.946 -13.347  1.00  0.00    -0.744 OA
ENDBRANCH  85  88
ENDBRANCH  57  81
BRANCH  69  92
ATOM     92  C   UNL     1       8.896   6.301 -10.314  1.00  0.00     0.023 A 
ATOM     93  C   UNL     1       8.184   5.337 -11.060  1.00  0.00     0.012 A 
ATOM     94  C   UNL     1       8.382   7.605 -10.230  1.00  0.00     0.148 A 
ATOM     95  C   UNL     1       7.000   5.671 -11.724  1.00  0.00     0.002 A 
ATOM     96  C   UNL     1       7.181   7.923 -10.855  1.00  0.00     0.091 A 
ATOM     97  F   UNL     1       9.061   8.508  -9.506  1.00  0.00    -0.205 F 
ATOM     98  C   UNL     1       6.492   6.962 -11.611  1.00  0.00     0.022 A 
BRANCH  96  99
ATOM     99  S   UNL     1       6.407   9.528 -10.644  1.00  0.00     0.127 S 
ATOM    100  O   UNL     1       6.644  10.155 -11.942  1.00  0.00    -0.237 OA
ATOM    101  O   UNL     1       5.011   9.171 -10.383  1.00  0.00    -0.237 OA
ATOM    102  O   UNL     1       7.081  10.154  -9.513  1.00  0.00    -0.744 OA
ENDBRANCH  96  99
ENDBRANCH  69  92
ENDBRANCH  43  44
ENDBRANCH  36  38
ENDBRANCH  35  36
ENDBRANCH  34  35
ENDBRANCH  33  34
ENDBRANCH  32  33
ENDBRANCH  31  32
ENDBRANCH   1  31
TORSDOF 24
