REMARK SMILES Cc1ccc(Nc2c(F)cccc2Cl)c(CC(=O)OCCOCCOCCOC(=O)c2ccc(-c3c4nc(c(-c5cccc(S(=O)(=O)[O-])c5F)c5ccc([nH]5)c(-c5cccc(S(=O)(=O)[O-])c5F)c5nc(c(-c6cccc(S(=O)(=O)[O-])c6F)c6ccc3[nH]6)C=C5)C=C4)cc2)c1
REMARK SMILES IDX 23 1 22 2 21 3 20 4 19 5 17 6 18 7 16 8 15 9 1 10 2 11 3 12
REMARK SMILES IDX 94 13 4 14 5 15 6 16 7 18 8 19 13 20 9 21 10 22 12 23 14 24
REMARK SMILES IDX 11 25 24 26 25 27 26 28 27 29 28 30 29 31 30 32 31 33 32 34
REMARK SMILES IDX 93 35 33 36 92 37 34 38 35 39 36 40 86 41 37 42 91 43 85 44
REMARK SMILES IDX 87 45 38 46 90 47 84 48 83 49 39 51 71 52 51 53 70 54 52 55
REMARK SMILES IDX 55 56 69 57 88 58 53 59 54 60 68 62 89 63 56 64 40 65 41 66
REMARK SMILES IDX 49 67 42 68 44 69 50 70 43 71 45 72 46 73 47 74 48 75 72 76
REMARK SMILES IDX 73 77 81 78 74 79 76 80 82 81 75 82 77 83 78 84 79 85 80 86
REMARK SMILES IDX 57 87 58 88 66 89 59 90 61 91 67 92 60 93 62 94 63 95 64 96
REMARK SMILES IDX 65 97
REMARK H PARENT 6 17 87 50 55 61
REMARK Flexibility Score: inf
ROOT
ATOM      1  C   UNL     1      -4.818   0.785  -4.032  1.00  0.00     0.188 C 
ENDROOT
BRANCH   1   2
ATOM      2  O   UNL     1      -4.275   1.920  -4.672  1.00  0.00    -0.376 OA
BRANCH   2   3
ATOM      3  C   UNL     1      -2.898   2.019  -4.993  1.00  0.00     0.202 C 
BRANCH   3   4
ATOM      4  C   UNL     1      -1.578   2.517  -4.144  1.00  0.00     0.261 C 
BRANCH   4   5
ATOM      5  O   UNL     1      -0.930   2.319  -2.477  1.00  0.00    -0.463 OA
BRANCH   5   6
ATOM      6  C   UNL     1      -0.797   3.005  -0.996  1.00  0.00     0.310 C 
ATOM      7  O   UNL     1      -1.191   4.057  -0.475  1.00  0.00    -0.252 OA
BRANCH   6   8
ATOM      8  C   UNL     1      -0.350   2.106   0.015  1.00  0.00     0.160 C 
BRANCH   8   9
ATOM      9  C   UNL     1      -0.283   0.836  -0.728  1.00  0.00    -0.013 A 
ATOM     10  C   UNL     1       3.377  -0.163  -0.088  1.00  0.00     0.044 C 
ATOM     11  C   UNL     1       1.897  -0.287  -0.270  1.00  0.00    -0.051 A 
ATOM     12  C   UNL     1       1.154  -1.304   0.263  1.00  0.00     0.005 A 
ATOM     13  C   UNL     1       1.179   0.719  -0.871  1.00  0.00     0.009 A 
ATOM     14  C   UNL     1      -0.268  -1.263   0.176  1.00  0.00     0.026 A 
ATOM     15  C   UNL     1      -1.241  -0.177  -0.513  1.00  0.00     0.042 A 
BRANCH  15  16
ATOM     16  N   UNL     1      -3.215  -0.477  -0.890  1.00  0.00    -0.352 N 
ATOM     17  H   UNL     1      -3.543   0.090  -1.625  1.00  0.00     0.167 HD
BRANCH  16  18
ATOM     18  C   UNL     1      -4.519  -1.532  -0.208  1.00  0.00     0.094 A 
ATOM     19  C   UNL     1      -4.362  -2.527   0.922  1.00  0.00     0.148 A 
ATOM     20  C   UNL     1      -5.689  -1.786  -0.951  1.00  0.00     0.067 A 
ATOM     21  F   UNL     1      -3.339  -2.630   1.790  1.00  0.00    -0.205 F 
ATOM     22  C   UNL     1      -5.196  -3.626   1.154  1.00  0.00     0.041 A 
ATOM     23  C   UNL     1      -6.463  -2.978  -0.730  1.00  0.00     0.023 A 
ATOM     24  Cl  UNL     1      -6.490  -0.700  -1.982  1.00  0.00    -0.082 Cl
ATOM     25  C   UNL     1      -6.207  -3.903   0.280  1.00  0.00     0.005 A 
ENDBRANCH  16  18
ENDBRANCH  15  16
ENDBRANCH   8   9
ENDBRANCH   6   8
ENDBRANCH   5   6
ENDBRANCH   4   5
ENDBRANCH   3   4
ENDBRANCH   2   3
ENDBRANCH   1   2
BRANCH   1  26
ATOM     26  C   UNL     1      -4.497  -0.649  -4.466  1.00  0.00     0.188 C 
BRANCH  26  27
ATOM     27  O   UNL     1      -3.153  -0.868  -4.836  1.00  0.00    -0.376 OA
BRANCH  27  28
ATOM     28  C   UNL     1      -2.773  -2.232  -5.029  1.00  0.00     0.202 C 
BRANCH  28  29
ATOM     29  C   UNL     1      -3.141  -3.333  -3.935  1.00  0.00     0.261 C 
BRANCH  29  30
ATOM     30  O   UNL     1      -2.239  -3.453  -2.748  1.00  0.00    -0.460 OA
BRANCH  30  31
ATOM     31  C   UNL     1      -2.675  -3.396  -1.401  1.00  0.00     0.338 C 
ATOM     32  O   UNL     1      -3.373  -4.295  -0.972  1.00  0.00    -0.246 OA
BRANCH  31  33
ATOM     33  C   UNL     1      -2.171  -2.038  -0.680  1.00  0.00     0.060 A 
ATOM     34  C   UNL     1      -2.566  -0.823   0.805  1.00  0.00     0.016 A 
ATOM     35  C   UNL     1      -1.914  -1.205  -2.257  1.00  0.00     0.016 A 
ATOM     36  C   UNL     1      -2.913   1.001   0.393  1.00  0.00     0.010 A 
ATOM     37  C   UNL     1      -2.291   0.475  -2.493  1.00  0.00     0.010 A 
ATOM     38  C   UNL     1      -2.830   1.699  -1.308  1.00  0.00    -0.014 A 
BRANCH  38  39
ATOM     39  C   UNL     1      -2.912   3.414  -2.082  1.00  0.00     0.031 A 
ATOM     40  C   UNL     1      -1.492   4.586  -2.570  1.00  0.00     0.074 A 
ATOM     41  C   UNL     1      -4.017   3.892  -2.702  1.00  0.00     0.049 A 
ATOM     42  N   UNL     1      -1.312   5.842  -2.201  1.00  0.00    -0.248 NA
ATOM     43  C   UNL     1      -0.013   4.194  -3.140  1.00  0.00     0.031 C 
ATOM     44  C   UNL     1      -4.042   4.948  -3.738  1.00  0.00     0.029 A 
ATOM     45  N   UNL     1      -5.349   3.494  -2.638  1.00  0.00    -0.354 N 
ATOM     46  C   UNL     1       0.067   6.181  -2.476  1.00  0.00     0.074 A 
ATOM     47  C   UNL     1       0.828   5.005  -2.546  1.00  0.00     0.031 C 
ATOM     48  C   UNL     1      -5.316   5.281  -4.006  1.00  0.00     0.029 A 
ATOM     49  C   UNL     1      -6.120   4.619  -3.001  1.00  0.00     0.049 A 
ATOM     50  H   UNL     1      -5.688   2.604  -2.389  1.00  0.00     0.167 HD
ATOM     51  C   UNL     1       0.475   7.264  -3.205  1.00  0.00     0.034 A 
ATOM     52  C   UNL     1      -6.860   5.233  -2.037  1.00  0.00     0.034 A 
ATOM     53  C   UNL     1      -0.734   7.945  -3.605  1.00  0.00     0.049 A 
ATOM     54  C   UNL     1      -6.314   6.622  -1.744  1.00  0.00     0.074 A 
ATOM     55  C   UNL     1      -1.546   7.848  -4.721  1.00  0.00     0.029 A 
ATOM     56  N   UNL     1      -1.523   8.415  -2.577  1.00  0.00    -0.354 N 
ATOM     57  N   UNL     1      -5.175   7.079  -2.206  1.00  0.00    -0.248 NA
ATOM     58  C   UNL     1      -7.041   7.642  -0.999  1.00  0.00     0.031 C 
ATOM     59  C   UNL     1      -2.869   8.203  -4.312  1.00  0.00     0.029 A 
ATOM     60  C   UNL     1      -2.843   8.538  -2.966  1.00  0.00     0.049 A 
ATOM     61  H   UNL     1      -1.188   8.634  -1.677  1.00  0.00     0.167 HD
ATOM     62  C   UNL     1      -4.955   8.351  -1.771  1.00  0.00     0.074 A 
ATOM     63  C   UNL     1      -6.185   8.678  -1.067  1.00  0.00     0.031 C 
ATOM     64  C   UNL     1      -3.785   9.033  -1.971  1.00  0.00     0.034 A 
BRANCH  51  65
ATOM     65  C   UNL     1       1.871   7.395  -3.889  1.00  0.00     0.023 A 
ATOM     66  C   UNL     1       1.918   8.178  -5.060  1.00  0.00     0.012 A 
ATOM     67  C   UNL     1       3.127   6.812  -3.503  1.00  0.00     0.148 A 
ATOM     68  C   UNL     1       3.084   8.335  -5.827  1.00  0.00     0.002 A 
ATOM     69  C   UNL     1       4.273   6.900  -4.319  1.00  0.00     0.091 A 
ATOM     70  F   UNL     1       3.253   6.213  -2.309  1.00  0.00    -0.205 F 
ATOM     71  C   UNL     1       4.252   7.676  -5.478  1.00  0.00     0.022 A 
BRANCH  69  72
ATOM     72  S   UNL     1       5.805   5.976  -4.011  1.00  0.00     0.127 S 
ATOM     73  O   UNL     1       6.185   5.528  -5.355  1.00  0.00    -0.237 OA
ATOM     74  O   UNL     1       6.689   6.993  -3.448  1.00  0.00    -0.237 OA
ATOM     75  O   UNL     1       5.434   4.884  -3.118  1.00  0.00    -0.744 OA
ENDBRANCH  69  72
ENDBRANCH  51  65
BRANCH  52  76
ATOM     76  C   UNL     1      -7.469   4.202  -1.124  1.00  0.00     0.023 A 
ATOM     77  C   UNL     1      -8.319   3.250  -1.766  1.00  0.00     0.012 A 
ATOM     78  C   UNL     1      -6.914   3.856   0.123  1.00  0.00     0.148 A 
ATOM     79  C   UNL     1      -8.490   1.962  -1.258  1.00  0.00     0.002 A 
ATOM     80  C   UNL     1      -7.113   2.568   0.637  1.00  0.00     0.091 A 
ATOM     81  F   UNL     1      -6.160   4.760   0.761  1.00  0.00    -0.205 F 
ATOM     82  C   UNL     1      -7.870   1.617  -0.066  1.00  0.00     0.022 A 
BRANCH  80  83
ATOM     83  S   UNL     1      -6.364   1.997   2.171  1.00  0.00     0.127 S 
ATOM     84  O   UNL     1      -7.473   2.161   3.108  1.00  0.00    -0.237 OA
ATOM     85  O   UNL     1      -6.031   0.602   1.871  1.00  0.00    -0.237 OA
ATOM     86  O   UNL     1      -5.212   2.857   2.390  1.00  0.00    -0.744 OA
ENDBRANCH  80  83
ENDBRANCH  52  76
BRANCH  64  87
ATOM     87  C   UNL     1      -3.364  10.234  -1.137  1.00  0.00     0.023 A 
ATOM     88  C   UNL     1      -3.910  10.463   0.136  1.00  0.00     0.012 A 
ATOM     89  C   UNL     1      -2.245  11.034  -1.502  1.00  0.00     0.148 A 
ATOM     90  C   UNL     1      -3.451  11.492   0.960  1.00  0.00     0.002 A 
ATOM     91  C   UNL     1      -1.677  11.922  -0.600  1.00  0.00     0.091 A 
ATOM     92  F   UNL     1      -1.714  10.942  -2.731  1.00  0.00    -0.205 F 
ATOM     93  C   UNL     1      -2.313  12.200   0.608  1.00  0.00     0.022 A 
BRANCH  91  94
ATOM     94  S   UNL     1      -0.014  12.558  -0.859  1.00  0.00     0.127 S 
ATOM     95  O   UNL     1      -0.275  13.824  -1.538  1.00  0.00    -0.237 OA
ATOM     96  O   UNL     1       0.488  12.693   0.510  1.00  0.00    -0.237 OA
ATOM     97  O   UNL     1       0.662  11.532  -1.642  1.00  0.00    -0.744 OA
ENDBRANCH  91  94
ENDBRANCH  64  87
ENDBRANCH  38  39
ENDBRANCH  31  33
ENDBRANCH  30  31
ENDBRANCH  29  30
ENDBRANCH  28  29
ENDBRANCH  27  28
ENDBRANCH  26  27
ENDBRANCH   1  26
TORSDOF 23
