REMARK SMILES COc1ccc([C@H](NC(=O)[C@H]2CC(C)=C(C)C[C@@H]2C(=O)OCCOCCOCCOC(=O)c2ccc(-c3c4nc(c(-c5cccc(S(=O)(=O)[O-])c5F)c5ccc([nH]5)c(-c5cccc(S(=O)(=O)[O-])c5F)c5nc(c(-c6cccc(S(=O)(=O)[O-])c6F)c6ccc3[nH]6)C=C5)C=C4)cc2)c2ccccc2)cc1
REMARK SMILES IDX 25 1 24 2 23 3 22 4 21 5 19 6 20 7 18 8 11 9 12 10 13 11
REMARK SMILES IDX 17 12 14 13 15 14 16 15 9 16 8 17 10 19 7 20 6 21 3 22 4 23
REMARK SMILES IDX 103 24 5 25 102 26 2 27 1 28 96 29 97 30 101 31 98 32 100 33
REMARK SMILES IDX 99 34 26 35 27 36 28 37 29 38 30 39 31 40 32 41 33 42 34 43
REMARK SMILES IDX 95 44 35 45 94 46 36 47 37 48 38 49 88 50 39 51 93 52 87 53
REMARK SMILES IDX 89 54 40 55 92 56 86 57 85 58 41 60 73 61 53 62 72 63 54 64
REMARK SMILES IDX 57 65 71 66 90 67 55 68 56 69 70 71 91 72 58 73 42 74 43 75
REMARK SMILES IDX 51 76 44 77 46 78 52 79 45 80 47 81 48 82 49 83 50 84 74 85
REMARK SMILES IDX 75 86 83 87 76 88 78 89 84 90 77 91 79 92 80 93 81 94 82 95
REMARK SMILES IDX 59 96 60 97 68 98 61 99 63 100 69 101 62 102 64 103 65 104
REMARK SMILES IDX 66 105 67 106
REMARK H PARENT 8 18 89 59 57 70
REMARK Flexibility Score: inf
ROOT
ATOM      1  C   UNL     1      -2.618   1.530   5.907  1.00  0.00     0.188 C 
ENDROOT
BRANCH   1   2
ATOM      2  O   UNL     1      -3.388   2.451   6.652  1.00  0.00    -0.376 OA
BRANCH   2   3
ATOM      3  C   UNL     1      -2.936   2.692   7.967  1.00  0.00     0.202 C 
BRANCH   3   4
ATOM      4  C   UNL     1      -1.706   3.580   7.931  1.00  0.00     0.261 C 
BRANCH   4   5
ATOM      5  O   UNL     1      -0.562   3.035   7.237  1.00  0.00    -0.463 OA
BRANCH   5   6
ATOM      6  C   UNL     1       0.105   1.955   7.740  1.00  0.00     0.310 C 
ATOM      7  O   UNL     1      -0.267   1.301   8.708  1.00  0.00    -0.252 OA
BRANCH   6   8
ATOM      8  C   UNL     1       1.377   1.739   6.927  1.00  0.00     0.116 C 
ATOM      9  C   UNL     1       1.203   1.330   5.485  1.00  0.00     0.097 C 
ATOM     10  C   UNL     1       1.744  -0.083   5.123  1.00  0.00     0.045 C 
ATOM     11  C   UNL     1       2.544  -0.840   6.154  1.00  0.00    -0.074 C 
ATOM     12  C   UNL     1       2.523   1.106   7.695  1.00  0.00     0.046 C 
ATOM     13  C   UNL     1       2.949  -2.235   5.733  1.00  0.00     0.039 C 
ATOM     14  C   UNL     1       2.911  -0.286   7.323  1.00  0.00    -0.073 C 
ATOM     15  C   UNL     1       3.824  -0.950   8.319  1.00  0.00     0.039 C 
BRANCH   9  16
ATOM     16  C   UNL     1       1.712   2.340   4.446  1.00  0.00     0.225 C 
ATOM     17  N   UNL     1       2.177   3.590   4.566  1.00  0.00    -0.345 N 
ATOM     18  H   UNL     1       2.485   3.824   3.661  1.00  0.00     0.164 HD
ATOM     19  O   UNL     1       1.653   1.993   3.250  1.00  0.00    -0.275 OA
BRANCH  17  20
ATOM     20  C   UNL     1       2.464   4.813   5.383  1.00  0.00     0.143 C 
BRANCH  20  21
ATOM     21  C   UNL     1       2.059   6.069   4.572  1.00  0.00    -0.021 A 
ATOM     22  C   UNL     1       1.296   8.416   3.186  1.00  0.00     0.118 A 
ATOM     23  C   UNL     1       2.011   8.498   4.380  1.00  0.00     0.047 A 
ATOM     24  C   UNL     1       0.970   7.163   2.675  1.00  0.00     0.047 A 
ATOM     25  C   UNL     1       2.409   7.343   5.053  1.00  0.00     0.010 A 
ATOM     26  C   UNL     1       1.327   6.003   3.371  1.00  0.00     0.010 A 
BRANCH  22  27
ATOM     27  O   UNL     1       0.982   9.619   2.619  1.00  0.00    -0.497 OA
ATOM     28  C   UNL     1       0.100   9.579   1.504  1.00  0.00     0.278 C 
ENDBRANCH  22  27
ENDBRANCH  20  21
BRANCH  20  29
ATOM     29  C   UNL     1       2.080   4.937   6.859  1.00  0.00    -0.021 A 
ATOM     30  C   UNL     1       0.913   5.597   7.286  1.00  0.00     0.006 A 
ATOM     31  C   UNL     1       2.921   4.406   7.859  1.00  0.00     0.006 A 
ATOM     32  C   UNL     1       0.569   5.654   8.642  1.00  0.00     0.000 A 
ATOM     33  C   UNL     1       2.514   4.361   9.198  1.00  0.00     0.000 A 
ATOM     34  C   UNL     1       1.331   4.977   9.587  1.00  0.00     0.000 A 
ENDBRANCH  20  29
ENDBRANCH  17  20
ENDBRANCH   9  16
ENDBRANCH   6   8
ENDBRANCH   5   6
ENDBRANCH   4   5
ENDBRANCH   3   4
ENDBRANCH   2   3
ENDBRANCH   1   2
BRANCH   1  35
ATOM     35  C   UNL     1      -2.508   1.937   4.431  1.00  0.00     0.188 C 
BRANCH  35  36
ATOM     36  O   UNL     1      -3.476   2.838   3.909  1.00  0.00    -0.376 OA
BRANCH  36  37
ATOM     37  C   UNL     1      -4.830   2.653   4.305  1.00  0.00     0.202 C 
BRANCH  37  38
ATOM     38  C   UNL     1      -5.447   1.257   4.093  1.00  0.00     0.261 C 
BRANCH  38  39
ATOM     39  O   UNL     1      -4.859   0.173   4.856  1.00  0.00    -0.460 OA
BRANCH  39  40
ATOM     40  C   UNL     1      -4.274  -0.832   4.145  1.00  0.00     0.338 C 
ATOM     41  O   UNL     1      -4.239  -0.922   2.929  1.00  0.00    -0.246 OA
BRANCH  40  42
ATOM     42  C   UNL     1      -3.506  -1.770   5.014  1.00  0.00     0.060 A 
ATOM     43  C   UNL     1      -2.104  -1.792   4.912  1.00  0.00     0.016 A 
ATOM     44  C   UNL     1      -4.144  -2.716   5.815  1.00  0.00     0.016 A 
ATOM     45  C   UNL     1      -1.349  -2.772   5.573  1.00  0.00     0.010 A 
ATOM     46  C   UNL     1      -3.385  -3.715   6.457  1.00  0.00     0.010 A 
ATOM     47  C   UNL     1      -1.984  -3.777   6.310  1.00  0.00    -0.014 A 
BRANCH  47  48
ATOM     48  C   UNL     1      -1.225  -4.997   6.728  1.00  0.00     0.031 A 
ATOM     49  C   UNL     1      -1.373  -6.254   5.904  1.00  0.00     0.074 A 
ATOM     50  C   UNL     1      -0.407  -5.019   7.799  1.00  0.00     0.049 A 
ATOM     51  N   UNL     1      -0.910  -7.459   6.121  1.00  0.00    -0.248 NA
ATOM     52  C   UNL     1      -2.154  -6.128   4.662  1.00  0.00     0.031 C 
ATOM     53  C   UNL     1      -0.112  -3.882   8.666  1.00  0.00     0.029 A 
ATOM     54  N   UNL     1       0.302  -6.061   8.357  1.00  0.00    -0.354 N 
ATOM     55  C   UNL     1      -1.380  -8.244   5.073  1.00  0.00     0.074 A 
ATOM     56  C   UNL     1      -2.165  -7.376   4.221  1.00  0.00     0.031 C 
ATOM     57  C   UNL     1       0.675  -4.297   9.675  1.00  0.00     0.029 A 
ATOM     58  C   UNL     1       0.913  -5.736   9.548  1.00  0.00     0.049 A 
ATOM     59  H   UNL     1       0.365  -6.953   7.945  1.00  0.00     0.167 HD
ATOM     60  C   UNL     1      -1.180  -9.563   4.831  1.00  0.00     0.034 A 
ATOM     61  C   UNL     1       1.552  -6.510  10.452  1.00  0.00     0.034 A 
ATOM     62  C   UNL     1      -0.389 -10.433   5.660  1.00  0.00     0.049 A 
ATOM     63  C   UNL     1       1.723  -7.989  10.192  1.00  0.00     0.074 A 
ATOM     64  C   UNL     1      -0.109 -11.777   5.475  1.00  0.00     0.029 A 
ATOM     65  N   UNL     1       0.234 -10.057   6.839  1.00  0.00    -0.354 N 
ATOM     66  N   UNL     1       1.337  -8.700   9.161  1.00  0.00    -0.248 NA
ATOM     67  C   UNL     1       2.447  -8.767  11.212  1.00  0.00     0.031 C 
ATOM     68  C   UNL     1       0.650 -12.221   6.563  1.00  0.00     0.029 A 
ATOM     69  C   UNL     1       0.884 -11.144   7.401  1.00  0.00     0.049 A 
ATOM     70  H   UNL     1       0.217  -9.150   7.221  1.00  0.00     0.167 HD
ATOM     71  C   UNL     1       1.799  -9.994   9.389  1.00  0.00     0.074 A 
ATOM     72  C   UNL     1       2.513  -9.966  10.648  1.00  0.00     0.031 C 
ATOM     73  C   UNL     1       1.636 -11.107   8.630  1.00  0.00     0.034 A 
BRANCH  60  74
ATOM     74  C   UNL     1      -1.842 -10.151   3.610  1.00  0.00     0.023 A 
ATOM     75  C   UNL     1      -1.382  -9.809   2.321  1.00  0.00     0.012 A 
ATOM     76  C   UNL     1      -2.906 -11.066   3.741  1.00  0.00     0.148 A 
ATOM     77  C   UNL     1      -2.001 -10.329   1.185  1.00  0.00     0.002 A 
ATOM     78  C   UNL     1      -3.484 -11.620   2.606  1.00  0.00     0.091 A 
ATOM     79  F   UNL     1      -3.342 -11.367   4.973  1.00  0.00    -0.205 F 
ATOM     80  C   UNL     1      -3.045 -11.240   1.327  1.00  0.00     0.022 A 
BRANCH  78  81
ATOM     81  S   UNL     1      -4.777 -12.864   2.686  1.00  0.00     0.127 S 
ATOM     82  O   UNL     1      -5.939 -12.114   2.214  1.00  0.00    -0.237 OA
ATOM     83  O   UNL     1      -4.286 -13.878   1.751  1.00  0.00    -0.237 OA
ATOM     84  O   UNL     1      -4.833 -13.297   4.075  1.00  0.00    -0.744 OA
ENDBRANCH  78  81
ENDBRANCH  60  74
BRANCH  61  85
ATOM     85  C   UNL     1       2.078  -5.906  11.713  1.00  0.00     0.023 A 
ATOM     86  C   UNL     1       3.467  -5.834  11.934  1.00  0.00     0.012 A 
ATOM     87  C   UNL     1       1.202  -5.410  12.699  1.00  0.00     0.148 A 
ATOM     88  C   UNL     1       3.973  -5.306  13.124  1.00  0.00     0.002 A 
ATOM     89  C   UNL     1       1.713  -4.830  13.854  1.00  0.00     0.091 A 
ATOM     90  F   UNL     1      -0.117  -5.511  12.483  1.00  0.00    -0.205 F 
ATOM     91  C   UNL     1       3.098  -4.794  14.078  1.00  0.00     0.022 A 
BRANCH  89  92
ATOM     92  S   UNL     1       0.670  -4.036  15.082  1.00  0.00     0.127 S 
ATOM     93  O   UNL     1       0.859  -4.903  16.242  1.00  0.00    -0.237 OA
ATOM     94  O   UNL     1       1.292  -2.716  15.192  1.00  0.00    -0.237 OA
ATOM     95  O   UNL     1      -0.672  -4.027  14.517  1.00  0.00    -0.744 OA
ENDBRANCH  89  92
ENDBRANCH  61  85
BRANCH  73  96
ATOM     96  C   UNL     1       2.283 -12.388   9.100  1.00  0.00     0.023 A 
ATOM     97  C   UNL     1       1.783 -13.064  10.232  1.00  0.00     0.012 A 
ATOM     98  C   UNL     1       3.351 -12.959   8.377  1.00  0.00     0.148 A 
ATOM     99  C   UNL     1       2.361 -14.260  10.659  1.00  0.00     0.002 A 
ATOM    100  C   UNL     1       3.888 -14.178   8.778  1.00  0.00     0.091 A 
ATOM    101  F   UNL     1       3.827 -12.298   7.311  1.00  0.00    -0.205 F 
ATOM    102  C   UNL     1       3.405 -14.822   9.927  1.00  0.00     0.022 A 
BRANCH 100 103
ATOM    103  S   UNL     1       5.168 -15.024   7.842  1.00  0.00     0.127 S 
ATOM    104  O   UNL     1       6.331 -14.861   8.713  1.00  0.00    -0.237 OA
ATOM    105  O   UNL     1       4.648 -16.390   7.770  1.00  0.00    -0.237 OA
ATOM    106  O   UNL     1       5.247 -14.339   6.559  1.00  0.00    -0.744 OA
ENDBRANCH 100 103
ENDBRANCH  73  96
ENDBRANCH  47  48
ENDBRANCH  40  42
ENDBRANCH  39  40
ENDBRANCH  38  39
ENDBRANCH  37  38
ENDBRANCH  36  37
ENDBRANCH  35  36
ENDBRANCH   1  35
TORSDOF 25
