REMARK SMILES NS(=O)(=O)c1ccc(-n2nc(NC(=O)NCCCCCCCCCCC(=O)OCCOCCOCCOC(=O)c3ccc(-c4c5nc(c(-c6cccc(S(=O)(=O)[O-])c6F)c6ccc([nH]6)c(-c6cccc(S(=O)(=O)[O-])c6F)c6nc(c(-c7cccc(S(=O)(=O)[O-])c7F)c7ccc4[nH]7)C=C6)C=C5)cc3)cc2-c2ccccc2)cc1
REMARK SMILES IDX 26 1 27 2 25 3 24 4 23 5 22 6 21 7 20 8 19 9 18 10 17 11
REMARK SMILES IDX 16 12 15 13 12 14 13 15 14 17 11 19 9 20 10 21 104 22 103 23
REMARK SMILES IDX 8 24 5 25 6 26 112 27 7 28 111 29 2 30 3 31 4 32 1 33 105 36
REMARK SMILES IDX 106 37 110 38 107 39 109 40 108 41 28 42 29 43 30 44 31 45
REMARK SMILES IDX 32 46 33 47 34 48 35 49 36 50 37 51 38 52 39 53 40 54 41 55
REMARK SMILES IDX 102 56 42 57 101 58 43 59 44 60 45 61 95 62 46 63 100 64
REMARK SMILES IDX 94 65 96 66 47 67 99 68 93 69 92 70 48 72 80 73 60 74 79 75
REMARK SMILES IDX 61 76 64 77 78 78 97 79 62 80 63 81 77 83 98 84 65 85 49 86
REMARK SMILES IDX 50 87 58 88 51 89 53 90 59 91 52 92 54 93 55 94 56 95 57 96
REMARK SMILES IDX 81 97 82 98 90 99 83 100 85 101 91 102 84 103 86 104 87 105
REMARK SMILES IDX 88 106 89 107 66 108 67 109 75 110 68 111 70 112 76 113
REMARK SMILES IDX 69 114 71 115 72 116 73 117 74 118
REMARK H PARENT 12 16 15 18 1 34 1 35 96 71 64 82
REMARK Flexibility Score: inf
ROOT
ATOM      1  C   UNL     1      -6.247   2.773   0.399  1.00  0.00     0.305 C 
ATOM      2  O   UNL     1      -6.988   1.817   0.199  1.00  0.00    -0.252 OA
ENDROOT
BRANCH   1   3
ATOM      3  C   UNL     1      -4.723   2.640   0.340  1.00  0.00     0.123 C 
BRANCH   3   4
ATOM      4  C   UNL     1      -3.824   3.832   0.681  1.00  0.00     0.012 C 
BRANCH   4   5
ATOM      5  C   UNL     1      -4.242   4.625   1.911  1.00  0.00     0.001 C 
BRANCH   5   6
ATOM      6  C   UNL     1      -4.316   3.708   3.121  1.00  0.00     0.000 C 
BRANCH   6   7
ATOM      7  C   UNL     1      -2.921   3.234   3.510  1.00  0.00     0.000 C 
BRANCH   7   8
ATOM      8  C   UNL     1      -2.024   4.414   3.886  1.00  0.00     0.000 C 
BRANCH   8   9
ATOM      9  C   UNL     1      -2.639   5.303   4.974  1.00  0.00     0.000 C 
BRANCH   9  10
ATOM     10  C   UNL     1      -3.046   4.503   6.218  1.00  0.00     0.002 C 
BRANCH  10  11
ATOM     11  C   UNL     1      -1.922   3.643   6.765  1.00  0.00     0.021 C 
BRANCH  11  12
ATOM     12  C   UNL     1      -0.657   4.412   7.042  1.00  0.00     0.117 C 
BRANCH  12  13
ATOM     13  N   UNL     1      -0.660   5.263   8.197  1.00  0.00    -0.338 N 
ATOM     14  N   UNL     1       1.545   4.821   8.979  1.00  0.00    -0.291 N 
ATOM     15  C   UNL     1       0.331   5.413   9.104  1.00  0.00     0.320 C 
ATOM     16  H   UNL     1       2.060   4.792   9.818  1.00  0.00     0.173 HD
ATOM     17  O   UNL     1       0.073   6.021  10.148  1.00  0.00    -0.248 OA
ATOM     18  H   UNL     1      -1.474   5.796   8.347  1.00  0.00     0.165 HD
BRANCH  14  19
ATOM     19  C   UNL     1       2.201   4.250   7.903  1.00  0.00     0.157 A 
ATOM     20  N   UNL     1       2.440   3.398   5.979  1.00  0.00    -0.231 N 
ATOM     21  N   UNL     1       1.990   4.511   6.605  1.00  0.00    -0.149 NA
ATOM     22  C   UNL     1       3.425   2.795   6.750  1.00  0.00     0.076 A 
ATOM     23  C   UNL     1       3.225   3.282   8.029  1.00  0.00     0.078 A 
BRANCH  20  24
ATOM     24  C   UNL     1       1.910   2.964   4.720  1.00  0.00     0.065 A 
ATOM     25  C   UNL     1       0.977   2.127   2.205  1.00  0.00     0.082 A 
ATOM     26  C   UNL     1       1.333   1.172   3.157  1.00  0.00     0.024 A 
ATOM     27  C   UNL     1       1.068   3.491   2.511  1.00  0.00     0.024 A 
ATOM     28  C   UNL     1       1.804   1.591   4.411  1.00  0.00     0.030 A 
ATOM     29  C   UNL     1       1.506   3.910   3.776  1.00  0.00     0.030 A 
BRANCH  25  30
ATOM     30  S   UNL     1       0.492   1.673   0.562  1.00  0.00     0.238 S 
ATOM     31  O   UNL     1       1.149   2.558  -0.369  1.00  0.00    -0.207 OA
ATOM     32  O   UNL     1      -0.931   1.434   0.554  1.00  0.00    -0.207 OA
BRANCH  30  33
ATOM     33  N   UNL     1       1.213   0.172   0.295  1.00  0.00    -0.225 NA
ATOM     34  H   UNL     1       0.976  -0.157  -0.640  1.00  0.00     0.137 HD
ATOM     35  H   UNL     1       0.873  -0.496   0.987  1.00  0.00     0.137 HD
ENDBRANCH  30  33
ENDBRANCH  25  30
ENDBRANCH  20  24
BRANCH  22  36
ATOM     36  C   UNL     1       4.441   1.932   6.174  1.00  0.00     0.000 A 
ATOM     37  C   UNL     1       5.089   2.367   5.006  1.00  0.00     0.010 A 
ATOM     38  C   UNL     1       4.738   0.678   6.704  1.00  0.00     0.010 A 
ATOM     39  C   UNL     1       5.987   1.543   4.343  1.00  0.00     0.001 A 
ATOM     40  C   UNL     1       5.652  -0.145   6.042  1.00  0.00     0.001 A 
ATOM     41  C   UNL     1       6.266   0.284   4.862  1.00  0.00     0.000 A 
ENDBRANCH  22  36
ENDBRANCH  14  19
ENDBRANCH  12  13
ENDBRANCH  11  12
ENDBRANCH  10  11
ENDBRANCH   9  10
ENDBRANCH   8   9
ENDBRANCH   7   8
ENDBRANCH   6   7
ENDBRANCH   5   6
ENDBRANCH   4   5
ENDBRANCH   3   4
ENDBRANCH   1   3
BRANCH   1  42
ATOM     42  O   UNL     1      -6.677   4.046   0.570  1.00  0.00    -0.463 OA
BRANCH  42  43
ATOM     43  C   UNL     1      -8.056   4.355   0.309  1.00  0.00     0.261 C 
BRANCH  43  44
ATOM     44  C   UNL     1      -8.276   5.193  -0.963  1.00  0.00     0.202 C 
BRANCH  44  45
ATOM     45  O   UNL     1      -7.606   4.804  -2.153  1.00  0.00    -0.376 OA
BRANCH  45  46
ATOM     46  C   UNL     1      -6.195   4.648  -2.102  1.00  0.00     0.188 C 
BRANCH  46  47
ATOM     47  C   UNL     1      -5.382   5.835  -1.605  1.00  0.00     0.188 C 
BRANCH  47  48
ATOM     48  O   UNL     1      -5.618   6.379  -0.321  1.00  0.00    -0.376 OA
BRANCH  48  49
ATOM     49  C   UNL     1      -6.088   7.714  -0.136  1.00  0.00     0.202 C 
BRANCH  49  50
ATOM     50  C   UNL     1      -6.140   8.816  -1.206  1.00  0.00     0.261 C 
BRANCH  50  51
ATOM     51  O   UNL     1      -5.670   8.539  -2.502  1.00  0.00    -0.460 OA
BRANCH  51  52
ATOM     52  C   UNL     1      -4.337   8.294  -2.653  1.00  0.00     0.338 C 
ATOM     53  O   UNL     1      -3.488   8.289  -1.817  1.00  0.00    -0.246 OA
BRANCH  52  54
ATOM     54  C   UNL     1      -4.160   7.983  -4.084  1.00  0.00     0.060 A 
ATOM     55  C   UNL     1      -2.946   7.499  -4.559  1.00  0.00     0.016 A 
ATOM     56  C   UNL     1      -5.147   8.354  -4.976  1.00  0.00     0.016 A 
ATOM     57  C   UNL     1      -2.534   7.972  -5.797  1.00  0.00     0.010 A 
ATOM     58  C   UNL     1      -4.751   8.588  -6.251  1.00  0.00     0.010 A 
ATOM     59  C   UNL     1      -3.410   8.781  -6.522  1.00  0.00    -0.014 A 
BRANCH  59  60
ATOM     60  C   UNL     1      -3.089   9.414  -7.803  1.00  0.00     0.031 A 
ATOM     61  C   UNL     1      -3.016   8.297  -8.807  1.00  0.00     0.074 A 
ATOM     62  C   UNL     1      -3.002  10.773  -7.999  1.00  0.00     0.049 A 
ATOM     63  N   UNL     1      -1.929   7.664  -9.129  1.00  0.00    -0.248 NA
ATOM     64  C   UNL     1      -4.224   7.508  -9.165  1.00  0.00     0.031 C 
ATOM     65  C   UNL     1      -3.178  11.910  -7.064  1.00  0.00     0.029 A 
ATOM     66  N   UNL     1      -2.742  11.469  -9.165  1.00  0.00    -0.354 N 
ATOM     67  C   UNL     1      -2.340   6.712 -10.059  1.00  0.00     0.074 A 
ATOM     68  C   UNL     1      -3.695   6.422  -9.736  1.00  0.00     0.031 C 
ATOM     69  C   UNL     1      -3.303  13.087  -7.745  1.00  0.00     0.029 A 
ATOM     70  C   UNL     1      -3.074  12.854  -9.157  1.00  0.00     0.049 A 
ATOM     71  H   UNL     1      -2.349  11.033  -9.956  1.00  0.00     0.167 HD
ATOM     72  C   UNL     1      -1.712   6.652 -11.267  1.00  0.00     0.034 A 
ATOM     73  C   UNL     1      -3.103  13.716 -10.236  1.00  0.00     0.034 A 
ATOM     74  C   UNL     1      -0.444   7.337 -11.161  1.00  0.00     0.049 A 
ATOM     75  C   UNL     1      -2.269  13.089 -11.292  1.00  0.00     0.074 A 
ATOM     76  C   UNL     1       0.681   7.198 -10.374  1.00  0.00     0.029 A 
ATOM     77  N   UNL     1      -0.489   8.645 -11.566  1.00  0.00    -0.354 N 
ATOM     78  N   UNL     1      -0.984  12.930 -11.133  1.00  0.00    -0.248 NA
ATOM     79  C   UNL     1      -2.955  12.124 -12.138  1.00  0.00     0.031 C 
ATOM     80  C   UNL     1       1.045   8.529 -10.010  1.00  0.00     0.029 A 
ATOM     81  C   UNL     1       0.258   9.424 -10.733  1.00  0.00     0.049 A 
ATOM     82  H   UNL     1      -0.989   8.975 -12.347  1.00  0.00     0.167 HD
ATOM     83  C   UNL     1      -0.804  11.580 -11.386  1.00  0.00     0.074 A 
ATOM     84  C   UNL     1      -2.066  11.134 -12.002  1.00  0.00     0.031 C 
ATOM     85  C   UNL     1       0.158  10.864 -10.733  1.00  0.00     0.034 A 
BRANCH  72  86
ATOM     86  C   UNL     1      -2.410   6.509 -12.621  1.00  0.00     0.023 A 
ATOM     87  C   UNL     1      -1.557   6.490 -13.750  1.00  0.00     0.012 A 
ATOM     88  C   UNL     1      -3.795   6.668 -12.888  1.00  0.00     0.148 A 
ATOM     89  C   UNL     1      -2.037   6.678 -15.051  1.00  0.00     0.002 A 
ATOM     90  C   UNL     1      -4.277   6.807 -14.190  1.00  0.00     0.091 A 
ATOM     91  F   UNL     1      -4.672   6.779 -11.891  1.00  0.00    -0.205 F 
ATOM     92  C   UNL     1      -3.397   6.837 -15.272  1.00  0.00     0.022 A 
BRANCH  90  93
ATOM     93  S   UNL     1      -6.031   7.000 -14.561  1.00  0.00     0.127 S 
ATOM     94  O   UNL     1      -6.059   8.321 -15.184  1.00  0.00    -0.237 OA
ATOM     95  O   UNL     1      -6.259   5.881 -15.476  1.00  0.00    -0.237 OA
ATOM     96  O   UNL     1      -6.728   6.890 -13.287  1.00  0.00    -0.744 OA
ENDBRANCH  90  93
ENDBRANCH  72  86
BRANCH  73  97
ATOM     97  C   UNL     1      -4.109  14.769 -10.637  1.00  0.00     0.023 A 
ATOM     98  C   UNL     1      -3.916  15.669 -11.725  1.00  0.00     0.012 A 
ATOM     99  C   UNL     1      -5.420  14.651 -10.145  1.00  0.00     0.148 A 
ATOM    100  C   UNL     1      -4.992  16.398 -12.287  1.00  0.00     0.002 A 
ATOM    101  C   UNL     1      -6.481  15.360 -10.709  1.00  0.00     0.091 A 
ATOM    102  F   UNL     1      -5.647  13.761  -9.175  1.00  0.00    -0.205 F 
ATOM    103  C   UNL     1      -6.279  16.232 -11.785  1.00  0.00     0.022 A 
BRANCH 101 104
ATOM    104  S   UNL     1      -8.163  15.135 -10.116  1.00  0.00     0.127 S 
ATOM    105  O   UNL     1      -8.568  16.512  -9.837  1.00  0.00    -0.237 OA
ATOM    106  O   UNL     1      -8.813  14.524 -11.272  1.00  0.00    -0.237 OA
ATOM    107  O   UNL     1      -8.058  14.288  -8.935  1.00  0.00    -0.744 OA
ENDBRANCH 101 104
ENDBRANCH  73  97
BRANCH  85 108
ATOM    108  C   UNL     1       1.189  11.601  -9.917  1.00  0.00     0.023 A 
ATOM    109  C   UNL     1       0.958  12.248  -8.681  1.00  0.00     0.012 A 
ATOM    110  C   UNL     1       2.504  11.470 -10.378  1.00  0.00     0.148 A 
ATOM    111  C   UNL     1       2.033  12.776  -7.947  1.00  0.00     0.002 A 
ATOM    112  C   UNL     1       3.563  11.956  -9.634  1.00  0.00     0.091 A 
ATOM    113  F   UNL     1       2.696  10.817 -11.534  1.00  0.00    -0.205 F 
ATOM    114  C   UNL     1       3.336  12.626  -8.423  1.00  0.00     0.022 A 
BRANCH 112 115
ATOM    115  S   UNL     1       5.250  11.681 -10.163  1.00  0.00     0.127 S 
ATOM    116  O   UNL     1       5.667  13.029 -10.541  1.00  0.00    -0.237 OA
ATOM    117  O   UNL     1       5.875  11.161  -8.946  1.00  0.00    -0.237 OA
ATOM    118  O   UNL     1       5.184  10.720 -11.257  1.00  0.00    -0.744 OA
ENDBRANCH 112 115
ENDBRANCH  85 108
ENDBRANCH  59  60
ENDBRANCH  52  54
ENDBRANCH  51  52
ENDBRANCH  50  51
ENDBRANCH  49  50
ENDBRANCH  48  49
ENDBRANCH  47  48
ENDBRANCH  46  47
ENDBRANCH  45  46
ENDBRANCH  44  45
ENDBRANCH  43  44
ENDBRANCH  42  43
ENDBRANCH   1  42
TORSDOF 35
