REMARK SMILES CC(C)OCCS(=O)(=O)N[C@@H]1COC[C@@H]1C(=O)OCCOCCOCCOC(=O)c1ccc(-c2c3nc(c(-c4cccc(S(=O)(=O)[O-])c4F)c4ccc([nH]4)c(-c4cccc(S(=O)(=O)[O-])c4F)c4nc(c(-c5cccc(S(=O)(=O)[O-])c5F)c5ccc2[nH]5)C=C4)C=C3)cc1
REMARK SMILES IDX 21 1 20 2 19 3 18 4 16 5 17 6 15 7 11 8 12 9 13 10 14 11
REMARK SMILES IDX 10 12 7 14 8 15 9 16 6 17 5 18 4 19 2 20 1 21 3 22 22 23
REMARK SMILES IDX 23 24 24 25 25 26 26 27 27 28 28 29 29 30 30 31 31 32 92 33
REMARK SMILES IDX 32 34 91 35 33 36 34 37 35 38 85 39 36 40 90 41 84 42 86 43
REMARK SMILES IDX 37 44 89 45 83 46 82 47 38 49 70 50 50 51 69 52 51 53 54 54
REMARK SMILES IDX 68 55 87 56 52 57 53 58 67 60 88 61 55 62 39 63 40 64 48 65
REMARK SMILES IDX 41 66 43 67 49 68 42 69 44 70 45 71 46 72 47 73 71 74 72 75
REMARK SMILES IDX 80 76 73 77 75 78 81 79 74 80 76 81 77 82 78 83 79 84 56 85
REMARK SMILES IDX 57 86 65 87 58 88 60 89 66 90 59 91 61 92 62 93 63 94 64 95
REMARK H PARENT 10 13 86 48 54 59
REMARK Flexibility Score: inf
ROOT
ATOM      1  O   UNL     1       6.567   1.120  -0.877  1.00  0.00    -0.376 OA
ENDROOT
BRANCH   1   2
ATOM      2  C   UNL     1       6.609  -0.294  -0.725  1.00  0.00     0.202 C 
BRANCH   2   3
ATOM      3  C   UNL     1       5.515  -0.925   0.147  1.00  0.00     0.261 C 
BRANCH   3   4
ATOM      4  O   UNL     1       4.165  -0.670  -0.297  1.00  0.00    -0.463 OA
BRANCH   4   5
ATOM      5  C   UNL     1       3.425   0.099   0.545  1.00  0.00     0.313 C 
ATOM      6  O   UNL     1       3.839   0.577   1.598  1.00  0.00    -0.252 OA
BRANCH   5   7
ATOM      7  C   UNL     1       2.022   0.381   0.077  1.00  0.00     0.145 C 
ATOM      8  C   UNL     1       1.411  -0.308  -1.118  1.00  0.00     0.112 C 
ATOM      9  C   UNL     1       1.706   0.609  -2.293  1.00  0.00     0.181 C 
ATOM     10  O   UNL     1       2.046   1.893  -1.762  1.00  0.00    -0.379 OA
ATOM     11  C   UNL     1       1.922   1.844  -0.332  1.00  0.00     0.177 C 
BRANCH   8  12
ATOM     12  N   UNL     1       1.724  -1.717  -1.397  1.00  0.00    -0.209 NA
ATOM     13  H   UNL     1       1.316  -1.928  -2.308  1.00  0.00     0.141 HD
BRANCH  12  14
ATOM     14  S   UNL     1       1.234  -2.938  -0.363  1.00  0.00     0.214 S 
ATOM     15  O   UNL     1       1.244  -2.407   0.981  1.00  0.00    -0.212 OA
ATOM     16  O   UNL     1       2.080  -4.058  -0.715  1.00  0.00    -0.212 OA
BRANCH  14  17
ATOM     17  C   UNL     1      -0.444  -3.365  -0.866  1.00  0.00     0.182 C 
BRANCH  17  18
ATOM     18  C   UNL     1      -1.523  -2.970   0.133  1.00  0.00     0.178 C 
BRANCH  18  19
ATOM     19  O   UNL     1      -2.611  -2.215  -0.411  1.00  0.00    -0.378 OA
BRANCH  19  20
ATOM     20  C   UNL     1      -2.458  -0.811  -0.638  1.00  0.00     0.112 C 
ATOM     21  C   UNL     1      -1.714  -0.052   0.461  1.00  0.00     0.038 C 
ATOM     22  C   UNL     1      -1.964  -0.560  -2.061  1.00  0.00     0.038 C 
ENDBRANCH  19  20
ENDBRANCH  18  19
ENDBRANCH  17  18
ENDBRANCH  14  17
ENDBRANCH  12  14
ENDBRANCH   8  12
ENDBRANCH   5   7
ENDBRANCH   4   5
ENDBRANCH   3   4
ENDBRANCH   2   3
ENDBRANCH   1   2
BRANCH   1  23
ATOM     23  C   UNL     1       5.498   1.649  -1.652  1.00  0.00     0.188 C 
BRANCH  23  24
ATOM     24  C   UNL     1       5.405   1.142  -3.090  1.00  0.00     0.188 C 
BRANCH  24  25
ATOM     25  O   UNL     1       5.145  -0.256  -3.194  1.00  0.00    -0.376 OA
BRANCH  25  26
ATOM     26  C   UNL     1       5.031  -0.809  -4.509  1.00  0.00     0.202 C 
BRANCH  26  27
ATOM     27  C   UNL     1       5.655  -0.073  -5.713  1.00  0.00     0.261 C 
BRANCH  27  28
ATOM     28  O   UNL     1       5.260   1.304  -5.866  1.00  0.00    -0.460 OA
BRANCH  28  29
ATOM     29  C   UNL     1       3.934   1.556  -5.989  1.00  0.00     0.338 C 
ATOM     30  O   UNL     1       3.062   0.727  -6.183  1.00  0.00    -0.246 OA
BRANCH  29  31
ATOM     31  C   UNL     1       3.678   2.969  -5.591  1.00  0.00     0.060 A 
ATOM     32  C   UNL     1       2.542   3.224  -4.813  1.00  0.00     0.016 A 
ATOM     33  C   UNL     1       4.556   4.015  -5.892  1.00  0.00     0.016 A 
ATOM     34  C   UNL     1       2.258   4.516  -4.364  1.00  0.00     0.010 A 
ATOM     35  C   UNL     1       4.261   5.317  -5.457  1.00  0.00     0.010 A 
ATOM     36  C   UNL     1       3.092   5.583  -4.718  1.00  0.00    -0.014 A 
BRANCH  36  37
ATOM     37  C   UNL     1       2.625   6.981  -4.505  1.00  0.00     0.031 A 
ATOM     38  C   UNL     1       2.053   7.722  -5.687  1.00  0.00     0.074 A 
ATOM     39  C   UNL     1       2.655   7.582  -3.300  1.00  0.00     0.049 A 
ATOM     40  N   UNL     1       1.640   8.960  -5.773  1.00  0.00    -0.248 NA
ATOM     41  C   UNL     1       1.923   6.958  -6.940  1.00  0.00     0.031 C 
ATOM     42  C   UNL     1       3.119   6.975  -2.055  1.00  0.00     0.029 A 
ATOM     43  N   UNL     1       2.292   8.859  -2.934  1.00  0.00    -0.354 N 
ATOM     44  C   UNL     1       1.257   9.139  -7.096  1.00  0.00     0.074 A 
ATOM     45  C   UNL     1       1.469   7.881  -7.776  1.00  0.00     0.031 C 
ATOM     46  C   UNL     1       3.034   7.886  -1.066  1.00  0.00     0.029 A 
ATOM     47  C   UNL     1       2.546   9.152  -1.613  1.00  0.00     0.049 A 
ATOM     48  H   UNL     1       1.888   9.503  -3.560  1.00  0.00     0.167 HD
ATOM     49  C   UNL     1       0.767  10.248  -7.697  1.00  0.00     0.034 A 
ATOM     50  C   UNL     1       2.430  10.314  -0.935  1.00  0.00     0.034 A 
ATOM     51  C   UNL     1       0.501  11.489  -7.025  1.00  0.00     0.049 A 
ATOM     52  C   UNL     1       1.922  11.548  -1.645  1.00  0.00     0.074 A 
ATOM     53  C   UNL     1      -0.039  12.649  -7.552  1.00  0.00     0.029 A 
ATOM     54  N   UNL     1       0.760  11.738  -5.689  1.00  0.00    -0.354 N 
ATOM     55  N   UNL     1       1.479  11.676  -2.873  1.00  0.00    -0.248 NA
ATOM     56  C   UNL     1       1.880  12.797  -0.866  1.00  0.00     0.031 C 
ATOM     57  C   UNL     1      -0.076  13.612  -6.540  1.00  0.00     0.029 A 
ATOM     58  C   UNL     1       0.409  13.040  -5.376  1.00  0.00     0.049 A 
ATOM     59  H   UNL     1       1.139  11.087  -5.055  1.00  0.00     0.167 HD
ATOM     60  C   UNL     1       1.068  13.001  -2.996  1.00  0.00     0.074 A 
ATOM     61  C   UNL     1       1.295  13.632  -1.714  1.00  0.00     0.031 C 
ATOM     62  C   UNL     1       0.565  13.643  -4.079  1.00  0.00     0.034 A 
BRANCH  49  63
ATOM     63  C   UNL     1       0.487  10.180  -9.172  1.00  0.00     0.023 A 
ATOM     64  C   UNL     1      -0.653   9.502  -9.645  1.00  0.00     0.012 A 
ATOM     65  C   UNL     1       1.321  10.860 -10.081  1.00  0.00     0.148 A 
ATOM     66  C   UNL     1      -0.949   9.485 -11.008  1.00  0.00     0.002 A 
ATOM     67  C   UNL     1       0.996  10.876 -11.431  1.00  0.00     0.091 A 
ATOM     68  F   UNL     1       2.413  11.476  -9.607  1.00  0.00    -0.205 F 
ATOM     69  C   UNL     1      -0.133  10.182 -11.897  1.00  0.00     0.022 A 
BRANCH  67  70
ATOM     70  S   UNL     1       1.938  11.809 -12.641  1.00  0.00     0.127 S 
ATOM     71  O   UNL     1       2.534  10.739 -13.439  1.00  0.00    -0.237 OA
ATOM     72  O   UNL     1       0.890  12.568 -13.324  1.00  0.00    -0.237 OA
ATOM     73  O   UNL     1       2.881  12.619 -11.882  1.00  0.00    -0.744 OA
ENDBRANCH  67  70
ENDBRANCH  49  63
BRANCH  50  74
ATOM     74  C   UNL     1       2.802  10.397   0.510  1.00  0.00     0.023 A 
ATOM     75  C   UNL     1       1.810  10.684   1.471  1.00  0.00     0.012 A 
ATOM     76  C   UNL     1       4.138  10.254   0.931  1.00  0.00     0.148 A 
ATOM     77  C   UNL     1       2.149  10.871   2.812  1.00  0.00     0.002 A 
ATOM     78  C   UNL     1       4.460  10.384   2.277  1.00  0.00     0.091 A 
ATOM     79  F   UNL     1       5.075  10.014   0.003  1.00  0.00    -0.205 F 
ATOM     80  C   UNL     1       3.472  10.712   3.217  1.00  0.00     0.022 A 
BRANCH  78  81
ATOM     81  S   UNL     1       6.118  10.085   2.899  1.00  0.00     0.127 S 
ATOM     82  O   UNL     1       6.579  11.440   3.187  1.00  0.00    -0.237 OA
ATOM     83  O   UNL     1       5.856   9.259   4.078  1.00  0.00    -0.237 OA
ATOM     84  O   UNL     1       6.816   9.390   1.825  1.00  0.00    -0.744 OA
ENDBRANCH  78  81
ENDBRANCH  50  74
BRANCH  62  85
ATOM     85  C   UNL     1       0.160  15.088  -3.930  1.00  0.00     0.023 A 
ATOM     86  C   UNL     1       1.146  16.087  -3.813  1.00  0.00     0.012 A 
ATOM     87  C   UNL     1      -1.197  15.463  -3.998  1.00  0.00     0.148 A 
ATOM     88  C   UNL     1       0.786  17.433  -3.735  1.00  0.00     0.002 A 
ATOM     89  C   UNL     1      -1.546  16.808  -3.971  1.00  0.00     0.091 A 
ATOM     90  F   UNL     1      -2.123  14.497  -4.095  1.00  0.00    -0.205 F 
ATOM     91  C   UNL     1      -0.557  17.794  -3.827  1.00  0.00     0.022 A 
BRANCH  89  92
ATOM     92  S   UNL     1      -3.239  17.369  -4.186  1.00  0.00     0.127 S 
ATOM     93  O   UNL     1      -3.582  17.808  -2.834  1.00  0.00    -0.237 OA
ATOM     94  O   UNL     1      -3.088  18.452  -5.159  1.00  0.00    -0.237 OA
ATOM     95  O   UNL     1      -3.985  16.218  -4.678  1.00  0.00    -0.744 OA
ENDBRANCH  89  92
ENDBRANCH  62  85
ENDBRANCH  36  37
ENDBRANCH  29  31
ENDBRANCH  28  29
ENDBRANCH  27  28
ENDBRANCH  26  27
ENDBRANCH  25  26
ENDBRANCH  24  25
ENDBRANCH  23  24
ENDBRANCH   1  23
TORSDOF 26
