REMARK SMILES COc1ccc(-c2noc(CC(=O)OCCOCCOCCOC(=O)c3ccc(-c4c5nc(c(-c6cccc(S(=O)(=O)[O-])c6F)c6ccc([nH]6)c(-c6cccc(S(=O)(=O)[O-])c6F)c6nc(c(-c7cccc(S(=O)(=O)[O-])c7F)c7ccc4[nH]7)C=C6)C=C5)cc3)c2-c2ccc(OC)cc2)cc1
REMARK SMILES IDX 18 1 17 2 16 3 15 4 14 5 12 6 13 7 11 8 10 9 7 10 8 11 89 12
REMARK SMILES IDX 9 13 6 14 3 15 4 16 99 17 5 18 98 19 2 20 1 21 90 22 91 23
REMARK SMILES IDX 97 24 92 25 96 26 93 27 94 28 95 29 19 30 20 31 21 32 22 33
REMARK SMILES IDX 23 34 24 35 25 36 26 37 27 38 88 39 28 40 87 41 29 42 30 43
REMARK SMILES IDX 31 44 81 45 32 46 86 47 80 48 82 49 33 50 85 51 79 52 78 53
REMARK SMILES IDX 34 55 66 56 46 57 65 58 47 59 50 60 64 61 83 62 48 63 49 64
REMARK SMILES IDX 63 66 84 67 51 68 35 69 36 70 44 71 37 72 39 73 45 74 38 75
REMARK SMILES IDX 40 76 41 77 42 78 43 79 67 80 68 81 76 82 69 83 71 84 77 85
REMARK SMILES IDX 70 86 72 87 73 88 74 89 75 90 52 91 53 92 61 93 54 94 56 95
REMARK SMILES IDX 62 96 55 97 57 98 58 99 59 100 60 101
REMARK H PARENT 82 54 50 65
REMARK Flexibility Score: inf
ROOT
ATOM      1  C   UNL     1       2.118   8.045   9.427  1.00  0.00     0.188 C 
ENDROOT
BRANCH   1   2
ATOM      2  O   UNL     1       1.817   9.428   9.323  1.00  0.00    -0.376 OA
BRANCH   2   3
ATOM      3  C   UNL     1       1.606   9.957   8.015  1.00  0.00     0.202 C 
BRANCH   3   4
ATOM      4  C   UNL     1       2.666   9.633   6.948  1.00  0.00     0.261 C 
BRANCH   4   5
ATOM      5  O   UNL     1       2.864   8.215   6.733  1.00  0.00    -0.463 OA
BRANCH   5   6
ATOM      6  C   UNL     1       4.154   7.817   6.550  1.00  0.00     0.313 C 
ATOM      7  O   UNL     1       5.085   8.593   6.350  1.00  0.00    -0.252 OA
BRANCH   6   8
ATOM      8  C   UNL     1       4.386   6.341   6.805  1.00  0.00     0.201 C 
BRANCH   8   9
ATOM      9  C   UNL     1       3.460   5.415   6.102  1.00  0.00     0.156 A 
ATOM     10  C   UNL     1       2.272   3.991   4.872  1.00  0.00     0.122 A 
ATOM     11  N   UNL     1       1.794   3.904   6.120  1.00  0.00    -0.079 NA
ATOM     12  C   UNL     1       3.344   4.931   4.817  1.00  0.00     0.053 A 
ATOM     13  O   UNL     1       2.574   4.742   6.887  1.00  0.00    -0.359 OA
BRANCH  10  14
ATOM     14  C   UNL     1       1.741   3.173   3.792  1.00  0.00     0.005 A 
ATOM     15  C   UNL     1       0.763   1.731   1.587  1.00  0.00     0.118 A 
ATOM     16  C   UNL     1      -0.081   2.575   2.313  1.00  0.00     0.047 A 
ATOM     17  C   UNL     1       2.094   1.591   1.980  1.00  0.00     0.047 A 
ATOM     18  C   UNL     1       0.398   3.283   3.420  1.00  0.00     0.014 A 
ATOM     19  C   UNL     1       2.581   2.310   3.077  1.00  0.00     0.014 A 
BRANCH  15  20
ATOM     20  O   UNL     1       0.185   1.134   0.500  1.00  0.00    -0.497 OA
ATOM     21  C   UNL     1       0.842  -0.019  -0.011  1.00  0.00     0.278 C 
ENDBRANCH  15  20
ENDBRANCH  10  14
BRANCH  12  22
ATOM     22  C   UNL     1       4.255   5.250   3.748  1.00  0.00    -0.012 A 
ATOM     23  C   UNL     1       3.810   5.817   2.554  1.00  0.00     0.013 A 
ATOM     24  C   UNL     1       5.606   4.926   3.903  1.00  0.00     0.013 A 
ATOM     25  C   UNL     1       4.729   6.084   1.535  1.00  0.00     0.047 A 
ATOM     26  C   UNL     1       6.519   5.202   2.891  1.00  0.00     0.047 A 
ATOM     27  C   UNL     1       6.086   5.794   1.705  1.00  0.00     0.118 A 
BRANCH  27  28
ATOM     28  O   UNL     1       6.894   6.116   0.649  1.00  0.00    -0.497 OA
ATOM     29  C   UNL     1       8.294   6.042   0.897  1.00  0.00     0.278 C 
ENDBRANCH  27  28
ENDBRANCH  12  22
ENDBRANCH   8   9
ENDBRANCH   6   8
ENDBRANCH   5   6
ENDBRANCH   4   5
ENDBRANCH   3   4
ENDBRANCH   2   3
ENDBRANCH   1   2
BRANCH   1  30
ATOM     30  C   UNL     1       1.170   7.056   8.738  1.00  0.00     0.188 C 
BRANCH  30  31
ATOM     31  O   UNL     1       0.155   7.651   7.950  1.00  0.00    -0.376 OA
BRANCH  31  32
ATOM     32  C   UNL     1      -1.007   6.864   7.717  1.00  0.00     0.202 C 
BRANCH  32  33
ATOM     33  C   UNL     1      -1.925   6.812   8.950  1.00  0.00     0.261 C 
BRANCH  33  34
ATOM     34  O   UNL     1      -1.357   6.145  10.096  1.00  0.00    -0.460 OA
BRANCH  34  35
ATOM     35  C   UNL     1      -1.023   4.842   9.928  1.00  0.00     0.338 C 
ATOM     36  O   UNL     1      -1.348   4.132   8.990  1.00  0.00    -0.246 OA
BRANCH  35  37
ATOM     37  C   UNL     1       0.011   4.481  10.936  1.00  0.00     0.060 A 
ATOM     38  C   UNL     1       1.170   3.824  10.495  1.00  0.00     0.016 A 
ATOM     39  C   UNL     1      -0.120   4.830  12.283  1.00  0.00     0.016 A 
ATOM     40  C   UNL     1       2.162   3.454  11.410  1.00  0.00     0.010 A 
ATOM     41  C   UNL     1       0.872   4.452  13.199  1.00  0.00     0.010 A 
ATOM     42  C   UNL     1       1.998   3.721  12.777  1.00  0.00    -0.014 A 
BRANCH  42  43
ATOM     43  C   UNL     1       2.900   3.075  13.773  1.00  0.00     0.031 A 
ATOM     44  C   UNL     1       2.410   1.847  14.501  1.00  0.00     0.074 A 
ATOM     45  C   UNL     1       4.137   3.543  14.028  1.00  0.00     0.049 A 
ATOM     46  N   UNL     1       3.024   1.105  15.387  1.00  0.00    -0.248 NA
ATOM     47  C   UNL     1       1.043   1.400  14.188  1.00  0.00     0.031 C 
ATOM     48  C   UNL     1       4.742   4.722  13.414  1.00  0.00     0.029 A 
ATOM     49  N   UNL     1       5.101   3.083  14.895  1.00  0.00    -0.354 N 
ATOM     50  C   UNL     1       2.114   0.121  15.755  1.00  0.00     0.074 A 
ATOM     51  C   UNL     1       0.898   0.372  15.011  1.00  0.00     0.031 C 
ATOM     52  C   UNL     1       5.968   4.906  13.938  1.00  0.00     0.029 A 
ATOM     53  C   UNL     1       6.230   3.868  14.936  1.00  0.00     0.049 A 
ATOM     54  H   UNL     1       4.994   2.267  15.435  1.00  0.00     0.167 HD
ATOM     55  C   UNL     1       2.272  -0.913  16.616  1.00  0.00     0.034 A 
ATOM     56  C   UNL     1       7.340   3.771  15.697  1.00  0.00     0.034 A 
ATOM     57  C   UNL     1       3.480  -1.183  17.350  1.00  0.00     0.049 A 
ATOM     58  C   UNL     1       7.488   2.620  16.663  1.00  0.00     0.074 A 
ATOM     59  C   UNL     1       3.748  -2.240  18.204  1.00  0.00     0.029 A 
ATOM     60  N   UNL     1       4.612  -0.386  17.337  1.00  0.00    -0.354 N 
ATOM     61  N   UNL     1       6.670   1.622  16.895  1.00  0.00    -0.248 NA
ATOM     62  C   UNL     1       8.734   2.563  17.444  1.00  0.00     0.031 C 
ATOM     63  C   UNL     1       5.030  -2.060  18.735  1.00  0.00     0.029 A 
ATOM     64  C   UNL     1       5.576  -0.916  18.180  1.00  0.00     0.049 A 
ATOM     65  H   UNL     1       4.717   0.438  16.807  1.00  0.00     0.167 HD
ATOM     66  C   UNL     1       7.316   0.803  17.819  1.00  0.00     0.074 A 
ATOM     67  C   UNL     1       8.605   1.407  18.081  1.00  0.00     0.031 C 
ATOM     68  C   UNL     1       6.876  -0.338  18.407  1.00  0.00     0.034 A 
BRANCH  55  69
ATOM     69  C   UNL     1       1.108  -1.853  16.797  1.00  0.00     0.023 A 
ATOM     70  C   UNL     1       0.754  -2.738  15.758  1.00  0.00     0.012 A 
ATOM     71  C   UNL     1       0.400  -1.899  18.014  1.00  0.00     0.148 A 
ATOM     72  C   UNL     1      -0.308  -3.628  15.913  1.00  0.00     0.002 A 
ATOM     73  C   UNL     1      -0.626  -2.821  18.179  1.00  0.00     0.091 A 
ATOM     74  F   UNL     1       0.738  -1.036  18.982  1.00  0.00    -0.205 F 
ATOM     75  C   UNL     1      -0.990  -3.677  17.126  1.00  0.00     0.022 A 
BRANCH  73  76
ATOM     76  S   UNL     1      -1.509  -3.021  19.730  1.00  0.00     0.127 S 
ATOM     77  O   UNL     1      -2.833  -2.507  19.383  1.00  0.00    -0.237 OA
ATOM     78  O   UNL     1      -1.451  -4.469  19.931  1.00  0.00    -0.237 OA
ATOM     79  O   UNL     1      -0.775  -2.240  20.715  1.00  0.00    -0.744 OA
ENDBRANCH  73  76
ENDBRANCH  55  69
BRANCH  56  80
ATOM     80  C   UNL     1       8.432   4.779  15.562  1.00  0.00     0.023 A 
ATOM     81  C   UNL     1       9.677   4.394  15.026  1.00  0.00     0.012 A 
ATOM     82  C   UNL     1       8.246   6.113  15.975  1.00  0.00     0.148 A 
ATOM     83  C   UNL     1      10.727   5.310  14.936  1.00  0.00     0.002 A 
ATOM     84  C   UNL     1       9.277   7.034  15.827  1.00  0.00     0.091 A 
ATOM     85  F   UNL     1       7.062   6.454  16.502  1.00  0.00    -0.205 F 
ATOM     86  C   UNL     1      10.524   6.630  15.326  1.00  0.00     0.022 A 
BRANCH  84  87
ATOM     87  S   UNL     1       9.069   8.781  16.186  1.00  0.00     0.127 S 
ATOM     88  O   UNL     1       9.936   8.953  17.349  1.00  0.00    -0.237 OA
ATOM     89  O   UNL     1       9.560   9.399  14.954  1.00  0.00    -0.237 OA
ATOM     90  O   UNL     1       7.645   8.967  16.428  1.00  0.00    -0.744 OA
ENDBRANCH  84  87
ENDBRANCH  56  80
BRANCH  68  91
ATOM     91  C   UNL     1       7.807  -1.039  19.367  1.00  0.00     0.023 A 
ATOM     92  C   UNL     1       8.105  -0.455  20.616  1.00  0.00     0.012 A 
ATOM     93  C   UNL     1       8.354  -2.300  19.051  1.00  0.00     0.148 A 
ATOM     94  C   UNL     1       8.969  -1.089  21.510  1.00  0.00     0.002 A 
ATOM     95  C   UNL     1       9.171  -2.950  19.969  1.00  0.00     0.091 A 
ATOM     96  F   UNL     1       8.074  -2.837  17.855  1.00  0.00    -0.205 F 
ATOM     97  C   UNL     1       9.494  -2.339  21.191  1.00  0.00     0.022 A 
BRANCH  95  98
ATOM     98  S   UNL     1       9.814  -4.604  19.684  1.00  0.00     0.127 S 
ATOM     99  O   UNL     1      11.220  -4.331  19.390  1.00  0.00    -0.237 OA
ATOM    100  O   UNL     1       9.577  -5.256  20.972  1.00  0.00    -0.237 OA
ATOM    101  O   UNL     1       9.037  -5.150  18.580  1.00  0.00    -0.744 OA
ENDBRANCH  95  98
ENDBRANCH  68  91
ENDBRANCH  42  43
ENDBRANCH  35  37
ENDBRANCH  34  35
ENDBRANCH  33  34
ENDBRANCH  32  33
ENDBRANCH  31  32
ENDBRANCH  30  31
ENDBRANCH   1  30
TORSDOF 25
