REMARK SMILES O=C(OCCOCCOCCOC(=O)[C@H]1CC[C@@H](CNc2cccc(F)c2[N+](=O)[O-])O1)c1ccc(-c2c3nc(c(-c4cccc(S(=O)(=O)[O-])c4F)c4ccc([nH]4)c(-c4cccc(S(=O)(=O)[O-])c4F)c4nc(c(-c5cccc(S(=O)(=O)[O-])c5F)c5ccc2[nH]5)C=C4)C=C3)cc1
REMARK SMILES IDX 8 1 7 2 6 3 5 4 4 5 3 6 2 7 1 8 32 9 33 10 94 11 34 12 93 13
REMARK SMILES IDX 35 14 36 15 37 16 87 17 38 18 92 19 86 20 88 21 39 22 91 23
REMARK SMILES IDX 85 24 84 25 40 27 72 28 52 29 71 30 53 31 56 32 70 33 89 34
REMARK SMILES IDX 54 35 55 36 69 38 90 39 57 40 41 41 42 42 50 43 43 44 45 45
REMARK SMILES IDX 51 46 44 47 46 48 47 49 48 50 49 51 73 52 74 53 82 54 75 55
REMARK SMILES IDX 77 56 83 57 76 58 78 59 79 60 80 61 81 62 58 63 59 64 67 65
REMARK SMILES IDX 60 66 62 67 68 68 61 69 63 70 64 71 65 72 66 73 9 74 10 75
REMARK SMILES IDX 11 76 12 77 13 78 14 79 15 80 16 81 31 82 17 83 18 84 19 85
REMARK SMILES IDX 20 86 21 88 22 89 27 90 23 91 25 92 24 93 26 94 28 95 29 96
REMARK SMILES IDX 30 97
REMARK H PARENT 88 26 56 37 20 87
REMARK Flexibility Score: inf
ROOT
ATOM      1  C   UNL     1       4.507   2.228   1.679  1.00  0.00     0.188 C 
ENDROOT
BRANCH   1   2
ATOM      2  C   UNL     1       3.809   0.941   1.234  1.00  0.00     0.188 C 
BRANCH   2   3
ATOM      3  O   UNL     1       2.387   0.959   1.382  1.00  0.00    -0.376 OA
BRANCH   3   4
ATOM      4  C   UNL     1       1.831  -0.241   1.936  1.00  0.00     0.202 C 
BRANCH   4   5
ATOM      5  C   UNL     1       1.929  -1.518   1.077  1.00  0.00     0.261 C 
BRANCH   5   6
ATOM      6  O   UNL     1       3.060  -1.548   0.189  1.00  0.00    -0.460 OA
BRANCH   6   7
ATOM      7  C   UNL     1       3.141  -1.148  -1.107  1.00  0.00     0.338 C 
ATOM      8  O   UNL     1       4.186  -1.368  -1.718  1.00  0.00    -0.246 OA
BRANCH   7   9
ATOM      9  C   UNL     1       2.037  -0.440  -1.826  1.00  0.00     0.060 A 
ATOM     10  C   UNL     1       0.955   0.176  -1.205  1.00  0.00     0.016 A 
ATOM     11  C   UNL     1       2.111  -0.364  -3.229  1.00  0.00     0.016 A 
ATOM     12  C   UNL     1      -0.095   0.709  -1.927  1.00  0.00     0.010 A 
ATOM     13  C   UNL     1       1.080   0.223  -3.973  1.00  0.00     0.010 A 
ATOM     14  C   UNL     1      -0.057   0.702  -3.316  1.00  0.00    -0.014 A 
BRANCH  14  15
ATOM     15  C   UNL     1      -1.323   1.011  -4.003  1.00  0.00     0.031 A 
ATOM     16  C   UNL     1      -2.110  -0.135  -4.552  1.00  0.00     0.074 A 
ATOM     17  C   UNL     1      -1.840   2.250  -3.925  1.00  0.00     0.049 A 
ATOM     18  N   UNL     1      -3.284  -0.123  -5.114  1.00  0.00    -0.248 NA
ATOM     19  C   UNL     1      -1.514  -1.479  -4.427  1.00  0.00     0.031 C 
ATOM     20  C   UNL     1      -1.170   3.377  -3.283  1.00  0.00     0.029 A 
ATOM     21  N   UNL     1      -3.037   2.769  -4.335  1.00  0.00    -0.354 N 
ATOM     22  C   UNL     1      -3.544  -1.442  -5.454  1.00  0.00     0.074 A 
ATOM     23  C   UNL     1      -2.417  -2.235  -5.029  1.00  0.00     0.031 C 
ATOM     24  C   UNL     1      -1.970   4.452  -3.315  1.00  0.00     0.029 A 
ATOM     25  C   UNL     1      -3.179   4.109  -4.053  1.00  0.00     0.049 A 
ATOM     26  H   UNL     1      -3.730   2.236  -4.788  1.00  0.00     0.167 HD
ATOM     27  C   UNL     1      -4.639  -1.936  -6.067  1.00  0.00     0.034 A 
ATOM     28  C   UNL     1      -4.162   4.966  -4.393  1.00  0.00     0.034 A 
ATOM     29  C   UNL     1      -5.749  -1.119  -6.456  1.00  0.00     0.049 A 
ATOM     30  C   UNL     1      -5.329   4.401  -5.157  1.00  0.00     0.074 A 
ATOM     31  C   UNL     1      -6.899  -1.496  -7.118  1.00  0.00     0.029 A 
ATOM     32  N   UNL     1      -5.838   0.247  -6.223  1.00  0.00    -0.354 N 
ATOM     33  N   UNL     1      -5.571   3.148  -5.469  1.00  0.00    -0.248 NA
ATOM     34  C   UNL     1      -6.357   5.344  -5.611  1.00  0.00     0.031 C 
ATOM     35  C   UNL     1      -7.668  -0.348  -7.322  1.00  0.00     0.029 A 
ATOM     36  C   UNL     1      -7.018   0.736  -6.747  1.00  0.00     0.049 A 
ATOM     37  H   UNL     1      -5.161   0.786  -5.753  1.00  0.00     0.167 HD
ATOM     38  C   UNL     1      -6.783   3.148  -6.142  1.00  0.00     0.074 A 
ATOM     39  C   UNL     1      -7.241   4.524  -6.168  1.00  0.00     0.031 C 
ATOM     40  C   UNL     1      -7.451   2.111  -6.705  1.00  0.00     0.034 A 
BRANCH  27  41
ATOM     41  C   UNL     1      -4.657  -3.403  -6.382  1.00  0.00     0.023 A 
ATOM     42  C   UNL     1      -4.855  -4.350  -5.357  1.00  0.00     0.012 A 
ATOM     43  C   UNL     1      -4.502  -3.839  -7.711  1.00  0.00     0.148 A 
ATOM     44  C   UNL     1      -4.878  -5.713  -5.651  1.00  0.00     0.002 A 
ATOM     45  C   UNL     1      -4.574  -5.193  -8.002  1.00  0.00     0.091 A 
ATOM     46  F   UNL     1      -4.281  -2.919  -8.661  1.00  0.00    -0.205 F 
ATOM     47  C   UNL     1      -4.750  -6.133  -6.973  1.00  0.00     0.022 A 
BRANCH  45  48
ATOM     48  S   UNL     1      -4.490  -5.829  -9.679  1.00  0.00     0.127 S 
ATOM     49  O   UNL     1      -3.286  -6.657  -9.621  1.00  0.00    -0.237 OA
ATOM     50  O   UNL     1      -5.742  -6.578  -9.779  1.00  0.00    -0.237 OA
ATOM     51  O   UNL     1      -4.396  -4.666 -10.550  1.00  0.00    -0.744 OA
ENDBRANCH  45  48
ENDBRANCH  27  41
BRANCH  28  52
ATOM     52  C   UNL     1      -4.063   6.412  -4.033  1.00  0.00     0.023 A 
ATOM     53  C   UNL     1      -5.005   6.993  -3.163  1.00  0.00     0.012 A 
ATOM     54  C   UNL     1      -3.002   7.210  -4.513  1.00  0.00     0.148 A 
ATOM     55  C   UNL     1      -4.903   8.338  -2.796  1.00  0.00     0.002 A 
ATOM     56  C   UNL     1      -2.865   8.526  -4.087  1.00  0.00     0.091 A 
ATOM     57  F   UNL     1      -2.124   6.651  -5.358  1.00  0.00    -0.205 F 
ATOM     58  C   UNL     1      -3.828   9.101  -3.247  1.00  0.00     0.022 A 
BRANCH  56  59
ATOM     59  S   UNL     1      -1.434   9.534  -4.504  1.00  0.00     0.127 S 
ATOM     60  O   UNL     1      -2.057  10.628  -5.250  1.00  0.00    -0.237 OA
ATOM     61  O   UNL     1      -0.926   9.899  -3.178  1.00  0.00    -0.237 OA
ATOM     62  O   UNL     1      -0.556   8.668  -5.269  1.00  0.00    -0.744 OA
ENDBRANCH  56  59
ENDBRANCH  28  52
BRANCH  40  63
ATOM     63  C   UNL     1      -8.758   2.409  -7.383  1.00  0.00     0.023 A 
ATOM     64  C   UNL     1      -8.759   3.019  -8.651  1.00  0.00     0.012 A 
ATOM     65  C   UNL     1      -9.961   1.926  -6.834  1.00  0.00     0.148 A 
ATOM     66  C   UNL     1      -9.947   3.147  -9.366  1.00  0.00     0.002 A 
ATOM     67  C   UNL     1     -11.129   2.004  -7.577  1.00  0.00     0.091 A 
ATOM     68  F   UNL     1      -9.927   1.360  -5.619  1.00  0.00    -0.205 F 
ATOM     69  C   UNL     1     -11.126   2.623  -8.839  1.00  0.00     0.022 A 
BRANCH  67  70
ATOM     70  S   UNL     1     -12.664   1.245  -7.038  1.00  0.00     0.127 S 
ATOM     71  O   UNL     1     -13.513   2.415  -6.823  1.00  0.00    -0.237 OA
ATOM     72  O   UNL     1     -13.026   0.429  -8.197  1.00  0.00    -0.237 OA
ATOM     73  O   UNL     1     -12.341   0.486  -5.837  1.00  0.00    -0.744 OA
ENDBRANCH  67  70
ENDBRANCH  40  63
ENDBRANCH  14  15
ENDBRANCH   7   9
ENDBRANCH   6   7
ENDBRANCH   5   6
ENDBRANCH   4   5
ENDBRANCH   3   4
ENDBRANCH   2   3
ENDBRANCH   1   2
BRANCH   1  74
ATOM     74  O   UNL     1       4.416   2.581   3.057  1.00  0.00    -0.376 OA
BRANCH  74  75
ATOM     75  C   UNL     1       3.125   2.607   3.655  1.00  0.00     0.202 C 
BRANCH  75  76
ATOM     76  C   UNL     1       2.123   3.675   3.192  1.00  0.00     0.261 C 
BRANCH  76  77
ATOM     77  O   UNL     1       1.946   3.746   1.772  1.00  0.00    -0.461 OA
BRANCH  77  78
ATOM     78  C   UNL     1       2.549   4.814   1.175  1.00  0.00     0.335 C 
ATOM     79  O   UNL     1       3.137   5.701   1.784  1.00  0.00    -0.249 OA
BRANCH  78  80
ATOM     80  C   UNL     1       2.445   4.726  -0.356  1.00  0.00     0.228 C 
ATOM     81  C   UNL     1       1.055   5.022  -0.861  1.00  0.00     0.047 C 
ATOM     82  O   UNL     1       3.251   5.739  -0.976  1.00  0.00    -0.361 OA
ATOM     83  C   UNL     1       1.000   6.527  -0.752  1.00  0.00     0.037 C 
ATOM     84  C   UNL     1       2.437   6.937  -1.091  1.00  0.00     0.138 C 
BRANCH  84  85
ATOM     85  C   UNL     1       3.011   8.015  -0.146  1.00  0.00     0.145 C 
BRANCH  85  86
ATOM     86  N   UNL     1       3.421   9.207  -0.887  1.00  0.00    -0.377 N 
ATOM     87  H   UNL     1       4.171   9.159  -1.522  1.00  0.00     0.160 HD
BRANCH  86  88
ATOM     88  C   UNL     1       2.745  10.412  -0.693  1.00  0.00     0.116 A 
ATOM     89  C   UNL     1       2.497  10.842   0.627  1.00  0.00     0.033 A 
ATOM     90  C   UNL     1       2.297  11.240  -1.751  1.00  0.00     0.327 A 
ATOM     91  C   UNL     1       1.806  12.022   0.901  1.00  0.00     0.006 A 
ATOM     92  C   UNL     1       1.594  12.415  -1.469  1.00  0.00     0.202 A 
ATOM     93  C   UNL     1       1.346  12.801  -0.151  1.00  0.00     0.047 A 
ATOM     94  F   UNL     1       1.155  13.239  -2.431  1.00  0.00    -0.199 F 
BRANCH  90  95
ATOM     95  N   UNL     1       2.635  10.941  -3.147  1.00  0.00     0.068 N 
ATOM     96  O   UNL     1       3.055   9.803  -3.417  1.00  0.00    -0.258 OA
ATOM     97  O   UNL     1       2.637  11.878  -3.960  1.00  0.00    -0.258 OA
ENDBRANCH  90  95
ENDBRANCH  86  88
ENDBRANCH  85  86
ENDBRANCH  84  85
ENDBRANCH  78  80
ENDBRANCH  77  78
ENDBRANCH  76  77
ENDBRANCH  75  76
ENDBRANCH  74  75
ENDBRANCH   1  74
TORSDOF 24
