REMARK SMILES CC[C@H](C(=O)OCCOCCOCCOC(=O)c1ccc(-c2c3nc(c(-c4cccc(S(=O)(=O)[O-])c4F)c4ccc([nH]4)c(-c4cccc(S(=O)(=O)[O-])c4F)c4nc(c(-c5cccc(S(=O)(=O)[O-])c5F)c5ccc2[nH]5)C=C4)C=C3)cc1)N1C(=O)/C(=C\c2cccs2)SC1=S
REMARK SMILES IDX 11 1 10 2 9 3 8 4 7 5 6 6 4 7 5 8 3 9 2 10 1 11 81 12 82 13
REMARK SMILES IDX 92 14 83 15 84 16 91 17 93 18 85 19 86 20 87 21 90 22 88 23
REMARK SMILES IDX 89 24 12 25 13 26 14 27 15 28 16 29 17 30 18 31 19 32 80 33
REMARK SMILES IDX 20 34 79 35 21 36 22 37 23 38 73 39 24 40 78 41 72 42 74 43
REMARK SMILES IDX 25 44 77 45 71 46 70 47 26 49 58 50 38 51 57 52 39 53 42 54
REMARK SMILES IDX 56 55 75 56 40 57 41 58 55 60 76 61 43 62 27 63 28 64 36 65
REMARK SMILES IDX 29 66 31 67 37 68 30 69 32 70 33 71 34 72 35 73 59 74 60 75
REMARK SMILES IDX 68 76 61 77 63 78 69 79 62 80 64 81 65 82 66 83 67 84 44 85
REMARK SMILES IDX 45 86 53 87 46 88 48 89 54 90 47 91 49 92 50 93 51 94 52 95
REMARK H PARENT 74 48 42 59
REMARK Flexibility Score: inf
ROOT
ATOM      1  C   UNL     1       2.471   2.470  -0.969  1.00  0.00     0.188 C 
ENDROOT
BRANCH   1   2
ATOM      2  C   UNL     1       1.067   3.096  -0.873  1.00  0.00     0.188 C 
BRANCH   2   3
ATOM      3  O   UNL     1       0.419   3.252   0.372  1.00  0.00    -0.376 OA
BRANCH   3   4
ATOM      4  C   UNL     1       0.425   2.221   1.336  1.00  0.00     0.202 C 
BRANCH   4   5
ATOM      5  C   UNL     1      -0.038   0.809   0.972  1.00  0.00     0.261 C 
BRANCH   5   6
ATOM      6  O   UNL     1       0.601   0.199  -0.159  1.00  0.00    -0.462 OA
BRANCH   6   7
ATOM      7  C   UNL     1      -0.140   0.140  -1.307  1.00  0.00     0.329 C 
ATOM      8  O   UNL     1      -1.215   0.699  -1.476  1.00  0.00    -0.250 OA
BRANCH   7   9
ATOM      9  C   UNL     1       0.523  -0.796  -2.326  1.00  0.00     0.201 C 
BRANCH   9  10
ATOM     10  C   UNL     1       0.037  -2.227  -2.022  1.00  0.00     0.034 C 
ATOM     11  C   UNL     1      -1.454  -2.361  -1.686  1.00  0.00     0.007 C 
ENDBRANCH   9  10
BRANCH   9  12
ATOM     12  N   UNL     1       0.309  -0.264  -3.701  1.00  0.00    -0.278 N 
ATOM     13  C   UNL     1      -0.645  -0.745  -4.575  1.00  0.00     0.267 C 
ATOM     14  C   UNL     1       1.087   0.711  -4.277  1.00  0.00     0.149 C 
ATOM     15  O   UNL     1      -1.233  -1.808  -4.465  1.00  0.00    -0.268 OA
ATOM     16  C   UNL     1      -0.756   0.143  -5.779  1.00  0.00     0.081 C 
ATOM     17  S   UNL     1       0.133   1.583  -5.463  1.00  0.00    -0.054 SA
ATOM     18  S   UNL     1       2.729   0.929  -4.112  1.00  0.00    -0.052 S 
ATOM     19  C   UNL     1      -1.187  -0.154  -7.014  1.00  0.00     0.040 C 
BRANCH  19  20
ATOM     20  C   UNL     1      -1.439  -1.497  -7.394  1.00  0.00     0.028 A 
ATOM     21  C   UNL     1      -2.403  -2.390  -6.966  1.00  0.00     0.020 A 
ATOM     22  S   UNL     1      -0.353  -2.255  -8.497  1.00  0.00    -0.144 S 
ATOM     23  C   UNL     1      -2.135  -3.723  -7.391  1.00  0.00     0.012 A 
ATOM     24  C   UNL     1      -1.038  -3.792  -8.217  1.00  0.00     0.065 A 
ENDBRANCH  19  20
ENDBRANCH   9  12
ENDBRANCH   7   9
ENDBRANCH   6   7
ENDBRANCH   5   6
ENDBRANCH   4   5
ENDBRANCH   3   4
ENDBRANCH   2   3
ENDBRANCH   1   2
BRANCH   1  25
ATOM     25  O   UNL     1       3.351   2.470   0.137  1.00  0.00    -0.376 OA
BRANCH  25  26
ATOM     26  C   UNL     1       3.564   3.690   0.827  1.00  0.00     0.202 C 
BRANCH  26  27
ATOM     27  C   UNL     1       4.053   4.909   0.037  1.00  0.00     0.261 C 
BRANCH  27  28
ATOM     28  O   UNL     1       3.116   5.377  -0.950  1.00  0.00    -0.460 OA
BRANCH  28  29
ATOM     29  C   UNL     1       3.563   5.376  -2.235  1.00  0.00     0.338 C 
ATOM     30  O   UNL     1       4.664   5.034  -2.619  1.00  0.00    -0.246 OA
BRANCH  29  31
ATOM     31  C   UNL     1       2.449   5.684  -3.166  1.00  0.00     0.060 A 
ATOM     32  C   UNL     1       2.260   4.829  -4.257  1.00  0.00     0.016 A 
ATOM     33  C   UNL     1       1.627   6.802  -3.007  1.00  0.00     0.016 A 
ATOM     34  C   UNL     1       1.248   5.080  -5.186  1.00  0.00     0.010 A 
ATOM     35  C   UNL     1       0.630   7.069  -3.959  1.00  0.00     0.010 A 
ATOM     36  C   UNL     1       0.437   6.212  -5.056  1.00  0.00    -0.014 A 
BRANCH  36  37
ATOM     37  C   UNL     1      -0.514   6.562  -6.143  1.00  0.00     0.031 A 
ATOM     38  C   UNL     1      -0.009   7.324  -7.335  1.00  0.00     0.074 A 
ATOM     39  C   UNL     1      -1.807   6.188  -6.089  1.00  0.00     0.049 A 
ATOM     40  N   UNL     1      -0.670   7.797  -8.359  1.00  0.00    -0.248 NA
ATOM     41  C   UNL     1       1.442   7.566  -7.389  1.00  0.00     0.031 C 
ATOM     42  C   UNL     1      -2.404   5.360  -5.045  1.00  0.00     0.029 A 
ATOM     43  N   UNL     1      -2.854   6.473  -6.934  1.00  0.00    -0.354 N 
ATOM     44  C   UNL     1       0.277   8.412  -9.169  1.00  0.00     0.074 A 
ATOM     45  C   UNL     1       1.561   8.236  -8.525  1.00  0.00     0.031 C 
ATOM     46  C   UNL     1      -3.721   5.234  -5.289  1.00  0.00     0.029 A 
ATOM     47  C   UNL     1      -4.067   6.009  -6.480  1.00  0.00     0.049 A 
ATOM     48  H   UNL     1      -2.746   6.963  -7.781  1.00  0.00     0.167 HD
ATOM     49  C   UNL     1       0.096   9.072 -10.337  1.00  0.00     0.034 A 
ATOM     50  C   UNL     1      -5.315   6.225  -6.947  1.00  0.00     0.034 A 
ATOM     51  C   UNL     1      -1.184   9.283 -10.958  1.00  0.00     0.049 A 
ATOM     52  C   UNL     1      -5.506   7.081  -8.177  1.00  0.00     0.074 A 
ATOM     53  C   UNL     1      -1.472   9.970 -12.124  1.00  0.00     0.029 A 
ATOM     54  N   UNL     1      -2.393   8.836 -10.448  1.00  0.00    -0.354 N 
ATOM     55  N   UNL     1      -4.602   7.617  -8.961  1.00  0.00    -0.248 NA
ATOM     56  C   UNL     1      -6.891   7.353  -8.594  1.00  0.00     0.031 C 
ATOM     57  C   UNL     1      -2.860   9.977 -12.294  1.00  0.00     0.029 A 
ATOM     58  C   UNL     1      -3.433   9.254 -11.261  1.00  0.00     0.049 A 
ATOM     59  H   UNL     1      -2.497   8.301  -9.628  1.00  0.00     0.167 HD
ATOM     60  C   UNL     1      -5.304   8.258  -9.978  1.00  0.00     0.074 A 
ATOM     61  C   UNL     1      -6.711   8.029  -9.721  1.00  0.00     0.031 C 
ATOM     62  C   UNL     1      -4.829   8.980 -11.023  1.00  0.00     0.034 A 
BRANCH  49  63
ATOM     63  C   UNL     1       1.320   9.652 -10.995  1.00  0.00     0.023 A 
ATOM     64  C   UNL     1       2.256   8.802 -11.617  1.00  0.00     0.012 A 
ATOM     65  C   UNL     1       1.537  11.044 -11.001  1.00  0.00     0.148 A 
ATOM     66  C   UNL     1       3.412   9.325 -12.197  1.00  0.00     0.002 A 
ATOM     67  C   UNL     1       2.668  11.561 -11.619  1.00  0.00     0.091 A 
ATOM     68  F   UNL     1       0.645  11.833 -10.385  1.00  0.00    -0.205 F 
ATOM     69  C   UNL     1       3.614  10.703 -12.204  1.00  0.00     0.022 A 
BRANCH  67  70
ATOM     70  S   UNL     1       2.984  13.325 -11.740  1.00  0.00     0.127 S 
ATOM     71  O   UNL     1       4.123  13.483 -10.836  1.00  0.00    -0.237 OA
ATOM     72  O   UNL     1       3.305  13.482 -13.158  1.00  0.00    -0.237 OA
ATOM     73  O   UNL     1       1.756  13.983 -11.317  1.00  0.00    -0.744 OA
ENDBRANCH  67  70
ENDBRANCH  49  63
BRANCH  50  74
ATOM     74  C   UNL     1      -6.498   5.641  -6.247  1.00  0.00     0.023 A 
ATOM     75  C   UNL     1      -7.292   4.678  -6.900  1.00  0.00     0.012 A 
ATOM     76  C   UNL     1      -6.854   6.051  -4.946  1.00  0.00     0.148 A 
ATOM     77  C   UNL     1      -8.432   4.157  -6.284  1.00  0.00     0.002 A 
ATOM     78  C   UNL     1      -7.958   5.488  -4.317  1.00  0.00     0.091 A 
ATOM     79  F   UNL     1      -6.104   6.988  -4.349  1.00  0.00    -0.205 F 
ATOM     80  C   UNL     1      -8.760   4.554  -4.991  1.00  0.00     0.022 A 
BRANCH  78  81
ATOM     81  S   UNL     1      -8.396   5.857  -2.614  1.00  0.00     0.127 S 
ATOM     82  O   UNL     1      -9.679   6.537  -2.775  1.00  0.00    -0.237 OA
ATOM     83  O   UNL     1      -8.477   4.519  -2.030  1.00  0.00    -0.237 OA
ATOM     84  O   UNL     1      -7.312   6.679  -2.095  1.00  0.00    -0.744 OA
ENDBRANCH  78  81
ENDBRANCH  50  74
BRANCH  62  85
ATOM     85  C   UNL     1      -5.822   9.551 -12.004  1.00  0.00     0.023 A 
ATOM     86  C   UNL     1      -6.629  10.646 -11.636  1.00  0.00     0.012 A 
ATOM     87  C   UNL     1      -5.881   9.065 -13.326  1.00  0.00     0.148 A 
ATOM     88  C   UNL     1      -7.495  11.232 -12.560  1.00  0.00     0.002 A 
ATOM     89  C   UNL     1      -6.707   9.686 -14.256  1.00  0.00     0.091 A 
ATOM     90  F   UNL     1      -5.116   8.013 -13.654  1.00  0.00    -0.205 F 
ATOM     91  C   UNL     1      -7.524  10.761 -13.872  1.00  0.00     0.022 A 
BRANCH  89  92
ATOM     92  S   UNL     1      -6.738   9.218 -15.990  1.00  0.00     0.127 S 
ATOM     93  O   UNL     1      -8.082   8.659 -16.124  1.00  0.00    -0.237 OA
ATOM     94  O   UNL     1      -6.541  10.504 -16.660  1.00  0.00    -0.237 OA
ATOM     95  O   UNL     1      -5.650   8.266 -16.172  1.00  0.00    -0.744 OA
ENDBRANCH  89  92
ENDBRANCH  62  85
ENDBRANCH  36  37
ENDBRANCH  29  31
ENDBRANCH  28  29
ENDBRANCH  27  28
ENDBRANCH  26  27
ENDBRANCH  25  26
ENDBRANCH   1  25
TORSDOF 23
