REMARK SMILES COc1ccc(NS(=O)(=O)c2ccc(NC(=O)[C@H]3CCCC[C@@H]3C(=O)OCCOCCOCCOC(=O)c3ccc(-c4c5nc(c(-c6cccc(S(=O)(=O)[O-])c6F)c6ccc([nH]6)c(-c6cccc(S(=O)(=O)[O-])c6F)c6nc(c(-c7cccc(S(=O)(=O)[O-])c7F)c7ccc4[nH]7)C=C6)C=C5)cc3)cc2)cc1
REMARK SMILES IDX 29 1 28 2 27 3 26 4 24 5 25 6 23 7 18 8 19 9 20 10 22 11
REMARK SMILES IDX 21 12 16 13 15 14 17 16 14 17 11 18 12 19 102 20 13 21
REMARK SMILES IDX 101 22 8 23 9 24 10 25 7 26 6 28 3 29 4 30 104 31 5 32
REMARK SMILES IDX 103 33 2 34 1 35 30 36 31 37 32 38 33 39 34 40 35 41 36 42
REMARK SMILES IDX 37 43 38 44 39 45 100 46 40 47 99 48 41 49 42 50 43 51 93 52
REMARK SMILES IDX 44 53 98 54 92 55 94 56 45 57 97 58 91 59 90 60 46 62 78 63
REMARK SMILES IDX 58 64 77 65 59 66 62 67 76 68 95 69 60 70 61 71 75 73 96 74
REMARK SMILES IDX 63 75 47 76 48 77 56 78 49 79 51 80 57 81 50 82 52 83 53 84
REMARK SMILES IDX 54 85 55 86 79 87 80 88 88 89 81 90 83 91 89 92 82 93 84 94
REMARK SMILES IDX 85 95 86 96 87 97 64 98 65 99 73 100 66 101 68 102 74 103
REMARK SMILES IDX 67 104 69 105 70 106 71 107 72 108
REMARK H PARENT 15 15 7 27 94 61 62 72
REMARK Flexibility Score: inf
ROOT
ATOM      1  O   UNL     1      -6.486  -2.159   1.346  1.00  0.00    -0.376 OA
ENDROOT
BRANCH   1   2
ATOM      2  C   UNL     1      -7.085  -0.889   1.467  1.00  0.00     0.202 C 
BRANCH   2   3
ATOM      3  C   UNL     1      -7.241   0.130   0.330  1.00  0.00     0.261 C 
BRANCH   3   4
ATOM      4  O   UNL     1      -6.533  -0.071  -0.896  1.00  0.00    -0.463 OA
BRANCH   4   5
ATOM      5  C   UNL     1      -5.233   0.335  -0.954  1.00  0.00     0.309 C 
ATOM      6  O   UNL     1      -4.602   0.736   0.010  1.00  0.00    -0.252 OA
BRANCH   5   7
ATOM      7  C   UNL     1      -4.766   0.343  -2.410  1.00  0.00     0.111 C 
ATOM      8  C   UNL     1      -4.540  -0.970  -3.154  1.00  0.00     0.093 C 
ATOM      9  C   UNL     1      -3.130  -1.519  -2.786  1.00  0.00     0.014 C 
ATOM     10  C   UNL     1      -1.991  -0.499  -2.912  1.00  0.00     0.001 C 
ATOM     11  C   UNL     1      -3.651   1.322  -2.663  1.00  0.00     0.016 C 
ATOM     12  C   UNL     1      -2.305   0.813  -2.218  1.00  0.00     0.001 C 
BRANCH   8  13
ATOM     13  C   UNL     1      -4.739  -0.949  -4.700  1.00  0.00     0.228 C 
ATOM     14  N   UNL     1      -5.579  -0.120  -5.400  1.00  0.00    -0.326 N 
ATOM     15  H   UNL     1      -5.582  -0.282  -6.371  1.00  0.00     0.169 HD
ATOM     16  O   UNL     1      -4.103  -1.747  -5.403  1.00  0.00    -0.274 OA
BRANCH  14  17
ATOM     17  C   UNL     1      -6.434   0.913  -4.993  1.00  0.00     0.041 A 
ATOM     18  C   UNL     1      -7.479   3.170  -3.717  1.00  0.00     0.087 A 
ATOM     19  C   UNL     1      -7.915   1.891  -3.346  1.00  0.00     0.024 A 
ATOM     20  C   UNL     1      -6.716   3.314  -4.881  1.00  0.00     0.024 A 
ATOM     21  C   UNL     1      -7.411   0.756  -4.007  1.00  0.00     0.027 A 
ATOM     22  C   UNL     1      -6.189   2.185  -5.518  1.00  0.00     0.027 A 
BRANCH  18  23
ATOM     23  S   UNL     1      -8.116   4.622  -2.913  1.00  0.00     0.261 S 
ATOM     24  O   UNL     1      -9.224   4.178  -2.086  1.00  0.00    -0.201 OA
ATOM     25  O   UNL     1      -8.358   5.606  -3.949  1.00  0.00    -0.201 OA
BRANCH  23  26
ATOM     26  N   UNL     1      -7.056   5.314  -1.802  1.00  0.00    -0.280 N 
ATOM     27  H   UNL     1      -7.417   6.081  -1.301  1.00  0.00     0.180 HD
BRANCH  26  28
ATOM     28  C   UNL     1      -5.712   4.954  -1.476  1.00  0.00     0.049 A 
ATOM     29  C   UNL     1      -3.069   4.425  -0.617  1.00  0.00     0.119 A 
ATOM     30  C   UNL     1      -3.393   4.465  -1.974  1.00  0.00     0.048 A 
ATOM     31  C   UNL     1      -4.027   4.812   0.307  1.00  0.00     0.048 A 
ATOM     32  C   UNL     1      -4.712   4.707  -2.405  1.00  0.00     0.030 A 
ATOM     33  C   UNL     1      -5.330   5.097  -0.128  1.00  0.00     0.030 A 
BRANCH  29  34
ATOM     34  O   UNL     1      -1.802   4.022  -0.304  1.00  0.00    -0.497 OA
ATOM     35  C   UNL     1      -1.690   3.242   0.894  1.00  0.00     0.278 C 
ENDBRANCH  29  34
ENDBRANCH  26  28
ENDBRANCH  23  26
ENDBRANCH  18  23
ENDBRANCH  14  17
ENDBRANCH   8  13
ENDBRANCH   5   7
ENDBRANCH   4   5
ENDBRANCH   3   4
ENDBRANCH   2   3
ENDBRANCH   1   2
BRANCH   1  36
ATOM     36  C   UNL     1      -5.832  -2.559   0.170  1.00  0.00     0.188 C 
BRANCH  36  37
ATOM     37  C   UNL     1      -6.741  -2.976  -1.004  1.00  0.00     0.188 C 
BRANCH  37  38
ATOM     38  O   UNL     1      -8.096  -3.328  -0.785  1.00  0.00    -0.376 OA
BRANCH  38  39
ATOM     39  C   UNL     1      -8.432  -4.107   0.345  1.00  0.00     0.202 C 
BRANCH  39  40
ATOM     40  C   UNL     1      -7.726  -5.454   0.570  1.00  0.00     0.261 C 
BRANCH  40  41
ATOM     41  O   UNL     1      -6.287  -5.413   0.607  1.00  0.00    -0.460 OA
BRANCH  41  42
ATOM     42  C   UNL     1      -5.639  -5.980  -0.442  1.00  0.00     0.338 C 
ATOM     43  O   UNL     1      -6.162  -6.541  -1.399  1.00  0.00    -0.246 OA
BRANCH  42  44
ATOM     44  C   UNL     1      -4.188  -5.667  -0.401  1.00  0.00     0.060 A 
ATOM     45  C   UNL     1      -3.607  -5.063  -1.527  1.00  0.00     0.016 A 
ATOM     46  C   UNL     1      -3.391  -5.985   0.701  1.00  0.00     0.016 A 
ATOM     47  C   UNL     1      -2.232  -4.806  -1.565  1.00  0.00     0.010 A 
ATOM     48  C   UNL     1      -2.007  -5.743   0.651  1.00  0.00     0.010 A 
ATOM     49  C   UNL     1      -1.414  -5.174  -0.491  1.00  0.00    -0.014 A 
BRANCH  49  50
ATOM     50  C   UNL     1       0.066  -5.143  -0.648  1.00  0.00     0.031 A 
ATOM     51  C   UNL     1       0.767  -6.402  -1.087  1.00  0.00     0.074 A 
ATOM     52  C   UNL     1       0.790  -4.028  -0.427  1.00  0.00     0.049 A 
ATOM     53  N   UNL     1       2.045  -6.634  -1.238  1.00  0.00    -0.248 NA
ATOM     54  C   UNL     1      -0.096  -7.552  -1.402  1.00  0.00     0.031 C 
ATOM     55  C   UNL     1       0.249  -2.727  -0.047  1.00  0.00     0.029 A 
ATOM     56  N   UNL     1       2.151  -3.827  -0.472  1.00  0.00    -0.354 N 
ATOM     57  C   UNL     1       2.144  -7.962  -1.634  1.00  0.00     0.074 A 
ATOM     58  C   UNL     1       0.796  -8.484  -1.702  1.00  0.00     0.031 C 
ATOM     59  C   UNL     1       1.269  -1.869   0.142  1.00  0.00     0.029 A 
ATOM     60  C   UNL     1       2.537  -2.569  -0.069  1.00  0.00     0.049 A 
ATOM     61  H   UNL     1       2.789  -4.517  -0.766  1.00  0.00     0.167 HD
ATOM     62  C   UNL     1       3.252  -8.687  -1.919  1.00  0.00     0.034 A 
ATOM     63  C   UNL     1       3.767  -2.053   0.142  1.00  0.00     0.034 A 
ATOM     64  C   UNL     1       4.596  -8.180  -1.855  1.00  0.00     0.049 A 
ATOM     65  C   UNL     1       4.991  -2.901  -0.119  1.00  0.00     0.074 A 
ATOM     66  C   UNL     1       5.777  -8.840  -2.148  1.00  0.00     0.029 A 
ATOM     67  N   UNL     1       4.943  -6.901  -1.452  1.00  0.00    -0.354 N 
ATOM     68  N   UNL     1       5.067  -4.128  -0.576  1.00  0.00    -0.248 NA
ATOM     69  C   UNL     1       6.302  -2.283   0.141  1.00  0.00     0.031 C 
ATOM     70  C   UNL     1       6.841  -7.973  -1.879  1.00  0.00     0.029 A 
ATOM     71  C   UNL     1       6.321  -6.757  -1.469  1.00  0.00     0.049 A 
ATOM     72  H   UNL     1       4.305  -6.197  -1.193  1.00  0.00     0.167 HD
ATOM     73  C   UNL     1       6.426  -4.410  -0.697  1.00  0.00     0.074 A 
ATOM     74  C   UNL     1       7.138  -3.222  -0.281  1.00  0.00     0.031 C 
ATOM     75  C   UNL     1       7.027  -5.555  -1.107  1.00  0.00     0.034 A 
BRANCH  62  76
ATOM     76  C   UNL     1       3.057 -10.127  -2.314  1.00  0.00     0.023 A 
ATOM     77  C   UNL     1       2.521 -10.446  -3.577  1.00  0.00     0.012 A 
ATOM     78  C   UNL     1       3.449 -11.164  -1.445  1.00  0.00     0.148 A 
ATOM     79  C   UNL     1       2.343 -11.776  -3.955  1.00  0.00     0.002 A 
ATOM     80  C   UNL     1       3.314 -12.486  -1.848  1.00  0.00     0.091 A 
ATOM     81  F   UNL     1       3.937 -10.838  -0.240  1.00  0.00    -0.205 F 
ATOM     82  C   UNL     1       2.749 -12.794  -3.096  1.00  0.00     0.022 A 
BRANCH  80  83
ATOM     83  S   UNL     1       3.880 -13.865  -0.847  1.00  0.00     0.127 S 
ATOM     84  O   UNL     1       2.615 -14.495  -0.471  1.00  0.00    -0.237 OA
ATOM     85  O   UNL     1       4.681 -14.629  -1.804  1.00  0.00    -0.237 OA
ATOM     86  O   UNL     1       4.636 -13.283   0.253  1.00  0.00    -0.744 OA
ENDBRANCH  80  83
ENDBRANCH  62  76
BRANCH  63  87
ATOM     87  C   UNL     1       3.922  -0.652   0.637  1.00  0.00     0.023 A 
ATOM     88  C   UNL     1       4.522   0.322  -0.185  1.00  0.00     0.012 A 
ATOM     89  C   UNL     1       3.497  -0.289   1.931  1.00  0.00     0.148 A 
ATOM     90  C   UNL     1       4.730   1.621   0.285  1.00  0.00     0.002 A 
ATOM     91  C   UNL     1       3.650   1.021   2.369  1.00  0.00     0.091 A 
ATOM     92  F   UNL     1       2.948  -1.233   2.707  1.00  0.00    -0.205 F 
ATOM     93  C   UNL     1       4.287   1.972   1.557  1.00  0.00     0.022 A 
BRANCH  91  94
ATOM     94  S   UNL     1       2.997   1.598   3.939  1.00  0.00     0.127 S 
ATOM     95  O   UNL     1       4.216   1.958   4.659  1.00  0.00    -0.237 OA
ATOM     96  O   UNL     1       2.170   2.730   3.519  1.00  0.00    -0.237 OA
ATOM     97  O   UNL     1       2.247   0.479   4.494  1.00  0.00    -0.744 OA
ENDBRANCH  91  94
ENDBRANCH  63  87
BRANCH  75  98
ATOM     98  C   UNL     1       8.535  -5.580  -1.188  1.00  0.00     0.023 A 
ATOM     99  C   UNL     1       9.310  -5.588  -0.011  1.00  0.00     0.012 A 
ATOM    100  C   UNL     1       9.181  -5.682  -2.438  1.00  0.00     0.148 A 
ATOM    101  C   UNL     1      10.702  -5.662  -0.079  1.00  0.00     0.002 A 
ATOM    102  C   UNL     1      10.564  -5.809  -2.495  1.00  0.00     0.091 A 
ATOM    103  F   UNL     1       8.430  -5.659  -3.548  1.00  0.00    -0.205 F 
ATOM    104  C   UNL     1      11.328  -5.785  -1.317  1.00  0.00     0.022 A 
BRANCH 102 105
ATOM    105  S   UNL     1      11.448  -6.073  -4.037  1.00  0.00     0.127 S 
ATOM    106  O   UNL     1      12.148  -4.800  -4.201  1.00  0.00    -0.237 OA
ATOM    107  O   UNL     1      12.313  -7.206  -3.708  1.00  0.00    -0.237 OA
ATOM    108  O   UNL     1      10.431  -6.359  -5.041  1.00  0.00    -0.744 OA
ENDBRANCH 102 105
ENDBRANCH  75  98
ENDBRANCH  49  50
ENDBRANCH  42  44
ENDBRANCH  41  42
ENDBRANCH  40  41
ENDBRANCH  39  40
ENDBRANCH  38  39
ENDBRANCH  37  38
ENDBRANCH  36  37
ENDBRANCH   1  36
TORSDOF 26
