REMARK SMILES O=C(OCCOCCOCCOC(=O)c1ccc(-c2c(F)cccc2F)cn1)c1ccc(-c2c3nc(c(-c4cccc(S(=O)(=O)[O-])c4F)c4ccc([nH]4)c(-c4cccc(S(=O)(=O)[O-])c4F)c4nc(c(-c5cccc(S(=O)(=O)[O-])c5F)c5ccc2[nH]5)C=C4)C=C3)cc1
REMARK SMILES IDX 7 1 6 2 5 3 4 4 3 5 2 6 1 7 29 8 30 9 91 10 31 11 90 12
REMARK SMILES IDX 32 13 33 14 34 15 84 16 35 17 89 18 83 19 85 20 36 21 88 22
REMARK SMILES IDX 82 23 81 24 37 26 69 27 49 28 68 29 50 30 53 31 67 32 86 33
REMARK SMILES IDX 51 34 52 35 66 37 87 38 54 39 38 40 39 41 47 42 40 43 42 44
REMARK SMILES IDX 48 45 41 46 43 47 44 48 45 49 46 50 70 51 71 52 79 53 72 54
REMARK SMILES IDX 74 55 80 56 73 57 75 58 76 59 77 60 78 61 55 62 56 63 64 64
REMARK SMILES IDX 57 65 59 66 65 67 58 68 60 69 61 70 62 71 63 72 8 73 9 74
REMARK SMILES IDX 10 75 11 76 12 77 13 78 14 79 15 80 16 81 28 82 17 83 27 84
REMARK SMILES IDX 18 85 19 86 20 87 25 88 21 89 22 90 24 91 26 92 23 93
REMARK H PARENT 85 25 53 36
REMARK Flexibility Score: inf
ROOT
ATOM      1  C   UNL     1       2.461   0.443  -2.048  1.00  0.00     0.188 C 
ENDROOT
BRANCH   1   2
ATOM      2  O   UNL     1       3.812   0.558  -1.583  1.00  0.00    -0.376 OA
BRANCH   2   3
ATOM      3  C   UNL     1       4.557  -0.661  -1.652  1.00  0.00     0.202 C 
BRANCH   3   4
ATOM      4  C   UNL     1       4.363  -1.599  -0.454  1.00  0.00     0.261 C 
BRANCH   4   5
ATOM      5  O   UNL     1       2.992  -1.651  -0.027  1.00  0.00    -0.460 OA
BRANCH   5   6
ATOM      6  C   UNL     1       2.389  -0.940   0.961  1.00  0.00     0.338 C 
ATOM      7  O   UNL     1       1.204  -1.177   1.195  1.00  0.00    -0.246 OA
BRANCH   6   8
ATOM      8  C   UNL     1       3.085   0.080   1.812  1.00  0.00     0.060 A 
ATOM      9  C   UNL     1       4.269   0.742   1.484  1.00  0.00     0.016 A 
ATOM     10  C   UNL     1       2.477   0.406   3.039  1.00  0.00     0.016 A 
ATOM     11  C   UNL     1       4.920   1.558   2.402  1.00  0.00     0.010 A 
ATOM     12  C   UNL     1       3.090   1.284   3.942  1.00  0.00     0.010 A 
ATOM     13  C   UNL     1       4.353   1.805   3.651  1.00  0.00    -0.014 A 
BRANCH  13  14
ATOM     14  C   UNL     1       5.185   2.482   4.668  1.00  0.00     0.031 A 
ATOM     15  C   UNL     1       5.785   1.656   5.770  1.00  0.00     0.074 A 
ATOM     16  C   UNL     1       5.510   3.778   4.513  1.00  0.00     0.049 A 
ATOM     17  N   UNL     1       6.633   2.010   6.698  1.00  0.00    -0.248 NA
ATOM     18  C   UNL     1       5.394   0.236   5.824  1.00  0.00     0.031 C 
ATOM     19  C   UNL     1       5.023   4.644   3.437  1.00  0.00     0.029 A 
ATOM     20  N   UNL     1       6.352   4.582   5.236  1.00  0.00    -0.354 N 
ATOM     21  C   UNL     1       6.844   0.872   7.467  1.00  0.00     0.074 A 
ATOM     22  C   UNL     1       6.041  -0.186   6.899  1.00  0.00     0.031 C 
ATOM     23  C   UNL     1       5.600   5.851   3.554  1.00  0.00     0.029 A 
ATOM     24  C   UNL     1       6.462   5.856   4.733  1.00  0.00     0.049 A 
ATOM     25  H   UNL     1       6.832   4.276   6.040  1.00  0.00     0.167 HD
ATOM     26  C   UNL     1       7.644   0.719   8.547  1.00  0.00     0.034 A 
ATOM     27  C   UNL     1       7.179   6.905   5.180  1.00  0.00     0.034 A 
ATOM     28  C   UNL     1       8.457   1.770   9.088  1.00  0.00     0.049 A 
ATOM     29  C   UNL     1       8.047   6.712   6.396  1.00  0.00     0.074 A 
ATOM     30  C   UNL     1       9.288   1.738  10.192  1.00  0.00     0.029 A 
ATOM     31  N   UNL     1       8.536   3.050   8.559  1.00  0.00    -0.354 N 
ATOM     32  N   UNL     1       8.279   5.615   7.079  1.00  0.00    -0.248 NA
ATOM     33  C   UNL     1       8.767   7.892   6.894  1.00  0.00     0.031 C 
ATOM     34  C   UNL     1       9.860   3.007  10.338  1.00  0.00     0.029 A 
ATOM     35  C   UNL     1       9.397   3.822   9.315  1.00  0.00     0.049 A 
ATOM     36  H   UNL     1       8.050   3.362   7.761  1.00  0.00     0.167 HD
ATOM     37  C   UNL     1       9.188   5.965   8.069  1.00  0.00     0.074 A 
ATOM     38  C   UNL     1       9.486   7.372   7.880  1.00  0.00     0.031 C 
ATOM     39  C   UNL     1       9.713   5.205   9.061  1.00  0.00     0.034 A 
BRANCH  26  40
ATOM     40  C   UNL     1       7.655  -0.633   9.205  1.00  0.00     0.023 A 
ATOM     41  C   UNL     1       8.356  -1.700   8.606  1.00  0.00     0.012 A 
ATOM     42  C   UNL     1       6.954  -0.851  10.406  1.00  0.00     0.148 A 
ATOM     43  C   UNL     1       8.329  -2.973   9.177  1.00  0.00     0.002 A 
ATOM     44  C   UNL     1       6.960  -2.115  10.986  1.00  0.00     0.091 A 
ATOM     45  F   UNL     1       6.268   0.169  10.940  1.00  0.00    -0.205 F 
ATOM     46  C   UNL     1       7.638  -3.178  10.368  1.00  0.00     0.022 A 
BRANCH  44  47
ATOM     47  S   UNL     1       6.136  -2.462  12.543  1.00  0.00     0.127 S 
ATOM     48  O   UNL     1       4.966  -3.217  12.096  1.00  0.00    -0.237 OA
ATOM     49  O   UNL     1       7.139  -3.255  13.254  1.00  0.00    -0.237 OA
ATOM     50  O   UNL     1       5.855  -1.165  13.143  1.00  0.00    -0.744 OA
ENDBRANCH  44  47
ENDBRANCH  26  40
BRANCH  27  51
ATOM     51  C   UNL     1       7.135   8.207   4.454  1.00  0.00     0.023 A 
ATOM     52  C   UNL     1       8.291   8.693   3.813  1.00  0.00     0.012 A 
ATOM     53  C   UNL     1       5.943   8.951   4.363  1.00  0.00     0.148 A 
ATOM     54  C   UNL     1       8.265   9.903   3.116  1.00  0.00     0.002 A 
ATOM     55  C   UNL     1       5.906  10.120   3.611  1.00  0.00     0.091 A 
ATOM     56  F   UNL     1       4.855   8.498   5.004  1.00  0.00    -0.205 F 
ATOM     57  C   UNL     1       7.070  10.610   3.002  1.00  0.00     0.022 A 
BRANCH  55  58
ATOM     58  S   UNL     1       4.359  10.973   3.286  1.00  0.00     0.127 S 
ATOM     59  O   UNL     1       4.382  12.037   4.285  1.00  0.00    -0.237 OA
ATOM     60  O   UNL     1       4.535  11.418   1.903  1.00  0.00    -0.237 OA
ATOM     61  O   UNL     1       3.328   9.955   3.449  1.00  0.00    -0.744 OA
ENDBRANCH  55  58
ENDBRANCH  27  51
BRANCH  39  62
ATOM     62  C   UNL     1      10.679   5.867  10.004  1.00  0.00     0.023 A 
ATOM     63  C   UNL     1      10.192   6.741  10.995  1.00  0.00     0.012 A 
ATOM     64  C   UNL     1      12.050   5.552   9.967  1.00  0.00     0.148 A 
ATOM     65  C   UNL     1      11.062   7.311  11.923  1.00  0.00     0.002 A 
ATOM     66  C   UNL     1      12.904   6.088  10.923  1.00  0.00     0.091 A 
ATOM     67  F   UNL     1      12.496   4.737   8.999  1.00  0.00    -0.205 F 
ATOM     68  C   UNL     1      12.414   6.974  11.896  1.00  0.00     0.022 A 
BRANCH  66  69
ATOM     69  S   UNL     1      14.636   5.621  11.012  1.00  0.00     0.127 S 
ATOM     70  O   UNL     1      15.283   6.745  10.340  1.00  0.00    -0.237 OA
ATOM     71  O   UNL     1      14.872   5.554  12.455  1.00  0.00    -0.237 OA
ATOM     72  O   UNL     1      14.730   4.336  10.331  1.00  0.00    -0.744 OA
ENDBRANCH  66  69
ENDBRANCH  39  62
ENDBRANCH  13  14
ENDBRANCH   6   8
ENDBRANCH   5   6
ENDBRANCH   4   5
ENDBRANCH   3   4
ENDBRANCH   2   3
ENDBRANCH   1   2
BRANCH   1  73
ATOM     73  C   UNL     1       2.022   1.661  -2.866  1.00  0.00     0.188 C 
BRANCH  73  74
ATOM     74  O   UNL     1       2.682   1.813  -4.127  1.00  0.00    -0.376 OA
BRANCH  74  75
ATOM     75  C   UNL     1       4.083   2.079  -4.080  1.00  0.00     0.202 C 
BRANCH  75  76
ATOM     76  C   UNL     1       4.497   3.467  -3.583  1.00  0.00     0.261 C 
BRANCH  76  77
ATOM     77  O   UNL     1       4.004   3.781  -2.270  1.00  0.00    -0.459 OA
BRANCH  77  78
ATOM     78  C   UNL     1       3.405   4.998  -2.176  1.00  0.00     0.356 C 
ATOM     79  O   UNL     1       3.307   5.824  -3.074  1.00  0.00    -0.244 OA
BRANCH  78  80
ATOM     80  C   UNL     1       2.927   5.282  -0.800  1.00  0.00     0.148 A 
ATOM     81  C   UNL     1       3.359   6.468  -0.224  1.00  0.00     0.037 A 
ATOM     82  N   UNL     1       1.946   4.496  -0.280  1.00  0.00    -0.249 NA
ATOM     83  C   UNL     1       2.708   6.920   0.917  1.00  0.00     0.013 A 
ATOM     84  C   UNL     1       1.328   4.982   0.833  1.00  0.00     0.121 A 
ATOM     85  C   UNL     1       1.626   6.203   1.446  1.00  0.00     0.006 A 
BRANCH  85  86
ATOM     86  C   UNL     1       0.811   6.786   2.519  1.00  0.00     0.055 A 
ATOM     87  C   UNL     1       0.253   8.067   2.369  1.00  0.00     0.134 A 
ATOM     88  C   UNL     1       0.560   6.130   3.728  1.00  0.00     0.134 A 
ATOM     89  F   UNL     1       0.383   8.723   1.203  1.00  0.00    -0.206 F 
ATOM     90  C   UNL     1      -0.484   8.683   3.379  1.00  0.00     0.040 A 
ATOM     91  C   UNL     1      -0.181   6.731   4.751  1.00  0.00     0.040 A 
ATOM     92  F   UNL     1       1.024   4.886   3.928  1.00  0.00    -0.206 F 
ATOM     93  C   UNL     1      -0.696   8.016   4.581  1.00  0.00     0.006 A 
ENDBRANCH  85  86
ENDBRANCH  78  80
ENDBRANCH  77  78
ENDBRANCH  76  77
ENDBRANCH  75  76
ENDBRANCH  74  75
ENDBRANCH  73  74
ENDBRANCH   1  73
TORSDOF 21
