REMARK SMILES CC1=C(C(=O)Nc2ccccc2)[C@@H](c2ccc(C(=O)OCCOCCOCCOC(=O)c3ccc(-c4c5nc(c(-c6cccc(S(=O)(=O)[O-])c6F)c6ccc([nH]6)c(-c6cccc(S(=O)(=O)[O-])c6F)c6nc(c(-c7cccc(S(=O)(=O)[O-])c7F)c7ccc4[nH]7)C=C6)C=C5)cc3)cc2)n2ncnc2N1
REMARK SMILES IDX 24 1 23 2 22 3 21 4 20 5 18 6 19 7 17 8 14 9 15 10 96 11
REMARK SMILES IDX 16 12 95 13 13 14 1 15 2 16 3 17 102 18 101 19 97 21 100 22
REMARK SMILES IDX 98 23 99 24 4 25 5 26 6 27 7 29 8 30 12 31 9 32 11 33 10 34
REMARK SMILES IDX 25 35 26 36 27 37 28 38 29 39 30 40 31 41 32 42 33 43 94 44
REMARK SMILES IDX 34 45 93 46 35 47 36 48 37 49 87 50 38 51 92 52 86 53 88 54
REMARK SMILES IDX 39 55 91 56 85 57 84 58 40 60 72 61 52 62 71 63 53 64 56 65
REMARK SMILES IDX 70 66 89 67 54 68 55 69 69 71 90 72 57 73 41 74 42 75 50 76
REMARK SMILES IDX 43 77 45 78 51 79 44 80 46 81 47 82 48 83 49 84 73 85 74 86
REMARK SMILES IDX 82 87 75 88 77 89 83 90 76 91 78 92 79 93 80 94 81 95 58 96
REMARK SMILES IDX 59 97 67 98 60 99 62 100 68 101 61 102 63 103 64 104 65 105
REMARK SMILES IDX 66 106
REMARK H PARENT 102 20 6 28 88 59 56 70
REMARK Flexibility Score: inf
ROOT
ATOM      1  C   UNL     1      -6.333   4.266   1.838  1.00  0.00     0.188 C 
ENDROOT
BRANCH   1   2
ATOM      2  O   UNL     1      -7.657   4.674   2.160  1.00  0.00    -0.376 OA
BRANCH   2   3
ATOM      3  C   UNL     1      -7.959   5.115   3.476  1.00  0.00     0.202 C 
BRANCH   3   4
ATOM      4  C   UNL     1      -7.613   4.213   4.675  1.00  0.00     0.261 C 
BRANCH   4   5
ATOM      5  O   UNL     1      -6.271   3.699   4.670  1.00  0.00    -0.460 OA
BRANCH   5   6
ATOM      6  C   UNL     1      -6.144   2.354   4.553  1.00  0.00     0.338 C 
ATOM      7  O   UNL     1      -7.040   1.529   4.598  1.00  0.00    -0.246 OA
BRANCH   6   8
ATOM      8  C   UNL     1      -4.744   2.004   4.197  1.00  0.00     0.060 A 
ATOM      9  C   UNL     1      -2.134   1.167   3.538  1.00  0.00    -0.019 A 
ATOM     10  C   UNL     1      -3.241   0.582   2.909  1.00  0.00     0.007 A 
ATOM     11  C   UNL     1      -2.355   2.243   4.428  1.00  0.00     0.007 A 
ATOM     12  C   UNL     1      -4.537   0.989   3.251  1.00  0.00     0.016 A 
ATOM     13  C   UNL     1      -3.648   2.658   4.761  1.00  0.00     0.016 A 
BRANCH   9  14
ATOM     14  C   UNL     1      -0.738   0.542   3.484  1.00  0.00     0.179 C 
ATOM     15  C   UNL     1       2.173  -0.394   1.052  1.00  0.00     0.065 C 
ATOM     16  C   UNL     1       0.933  -0.448   1.915  1.00  0.00     0.026 C 
ATOM     17  C   UNL     1       0.091   0.591   2.182  1.00  0.00     0.065 C 
ATOM     18  N   UNL     1       0.783  -1.667   2.569  1.00  0.00    -0.328 N 
ATOM     19  C   UNL     1      -0.063  -1.869   3.588  1.00  0.00     0.226 A 
ATOM     20  H   UNL     1       1.332  -2.425   2.265  1.00  0.00     0.169 HD
ATOM     21  N   UNL     1      -0.797  -0.818   4.054  1.00  0.00    -0.219 N 
ATOM     22  N   UNL     1      -0.306  -2.935   4.306  1.00  0.00    -0.200 NA
ATOM     23  N   UNL     1      -1.476  -1.164   5.171  1.00  0.00    -0.157 NA
ATOM     24  C   UNL     1      -1.182  -2.465   5.248  1.00  0.00     0.248 A 
BRANCH  17  25
ATOM     25  C   UNL     1       0.157   1.944   1.556  1.00  0.00     0.255 C 
ATOM     26  O   UNL     1       0.077   2.928   2.298  1.00  0.00    -0.269 OA
ATOM     27  N   UNL     1       0.371   2.173   0.226  1.00  0.00    -0.322 N 
ATOM     28  H   UNL     1       0.430   3.129   0.002  1.00  0.00     0.170 HD
BRANCH  27  29
ATOM     29  C   UNL     1       0.525   1.333  -0.889  1.00  0.00     0.041 A 
ATOM     30  C   UNL     1       1.493   1.723  -1.826  1.00  0.00     0.026 A 
ATOM     31  C   UNL     1      -0.154   0.129  -1.071  1.00  0.00     0.026 A 
ATOM     32  C   UNL     1       1.874   0.860  -2.855  1.00  0.00     0.002 A 
ATOM     33  C   UNL     1       0.206  -0.721  -2.125  1.00  0.00     0.002 A 
ATOM     34  C   UNL     1       1.240  -0.370  -2.995  1.00  0.00     0.000 A 
ENDBRANCH  27  29
ENDBRANCH  17  25
ENDBRANCH   9  14
ENDBRANCH   6   8
ENDBRANCH   5   6
ENDBRANCH   4   5
ENDBRANCH   3   4
ENDBRANCH   2   3
ENDBRANCH   1   2
BRANCH   1  35
ATOM     35  C   UNL     1      -5.109   5.059   2.350  1.00  0.00     0.188 C 
BRANCH  35  36
ATOM     36  O   UNL     1      -5.391   6.041   3.337  1.00  0.00    -0.376 OA
BRANCH  36  37
ATOM     37  C   UNL     1      -5.071   7.383   2.992  1.00  0.00     0.202 C 
BRANCH  37  38
ATOM     38  C   UNL     1      -5.956   8.025   1.923  1.00  0.00     0.261 C 
BRANCH  38  39
ATOM     39  O   UNL     1      -6.130   7.245   0.746  1.00  0.00    -0.460 OA
BRANCH  39  40
ATOM     40  C   UNL     1      -5.057   7.139  -0.064  1.00  0.00     0.338 C 
ATOM     41  O   UNL     1      -3.912   7.459   0.193  1.00  0.00    -0.246 OA
BRANCH  40  42
ATOM     42  C   UNL     1      -5.508   6.602  -1.357  1.00  0.00     0.060 A 
ATOM     43  C   UNL     1      -4.532   6.179  -2.263  1.00  0.00     0.016 A 
ATOM     44  C   UNL     1      -6.854   6.731  -1.733  1.00  0.00     0.016 A 
ATOM     45  C   UNL     1      -4.872   6.069  -3.597  1.00  0.00     0.010 A 
ATOM     46  C   UNL     1      -7.190   6.632  -3.065  1.00  0.00     0.010 A 
ATOM     47  C   UNL     1      -6.175   6.392  -3.990  1.00  0.00    -0.014 A 
BRANCH  47  48
ATOM     48  C   UNL     1      -6.428   6.586  -5.406  1.00  0.00     0.031 A 
ATOM     49  C   UNL     1      -6.655   5.365  -6.198  1.00  0.00     0.074 A 
ATOM     50  C   UNL     1      -6.545   7.826  -5.924  1.00  0.00     0.049 A 
ATOM     51  N   UNL     1      -5.958   4.934  -7.198  1.00  0.00    -0.248 NA
ATOM     52  C   UNL     1      -7.744   4.471  -5.782  1.00  0.00     0.031 C 
ATOM     53  C   UNL     1      -6.647   9.077  -5.161  1.00  0.00     0.029 A 
ATOM     54  N   UNL     1      -6.740   8.226  -7.217  1.00  0.00    -0.354 N 
ATOM     55  C   UNL     1      -6.673   3.847  -7.689  1.00  0.00     0.074 A 
ATOM     56  C   UNL     1      -7.646   3.499  -6.688  1.00  0.00     0.031 C 
ATOM     57  C   UNL     1      -7.117  10.049  -5.970  1.00  0.00     0.029 A 
ATOM     58  C   UNL     1      -7.218   9.526  -7.322  1.00  0.00     0.049 A 
ATOM     59  H   UNL     1      -6.561   7.650  -7.995  1.00  0.00     0.167 HD
ATOM     60  C   UNL     1      -6.607   3.504  -9.001  1.00  0.00     0.034 A 
ATOM     61  C   UNL     1      -7.719  10.133  -8.421  1.00  0.00     0.034 A 
ATOM     62  C   UNL     1      -5.494   4.118  -9.673  1.00  0.00     0.049 A 
ATOM     63  C   UNL     1      -7.239   9.416  -9.621  1.00  0.00     0.074 A 
ATOM     64  C   UNL     1      -4.132   3.940  -9.743  1.00  0.00     0.029 A 
ATOM     65  N   UNL     1      -5.783   5.327 -10.246  1.00  0.00    -0.354 N 
ATOM     66  N   UNL     1      -5.998   9.419 -10.021  1.00  0.00    -0.248 NA
ATOM     67  C   UNL     1      -8.110   8.457 -10.292  1.00  0.00     0.031 C 
ATOM     68  C   UNL     1      -3.595   5.157 -10.256  1.00  0.00     0.029 A 
ATOM     69  C   UNL     1      -4.642   6.054 -10.458  1.00  0.00     0.049 A 
ATOM     70  H   UNL     1      -6.690   5.633 -10.475  1.00  0.00     0.167 HD
ATOM     71  C   UNL     1      -5.847   8.204 -10.661  1.00  0.00     0.074 A 
ATOM     72  C   UNL     1      -7.196   7.760 -10.972  1.00  0.00     0.031 C 
ATOM     73  C   UNL     1      -4.684   7.499 -10.564  1.00  0.00     0.034 A 
BRANCH  60  74
ATOM     74  C   UNL     1      -7.769   2.970  -9.809  1.00  0.00     0.023 A 
ATOM     75  C   UNL     1      -7.483   2.506 -11.113  1.00  0.00     0.012 A 
ATOM     76  C   UNL     1      -9.130   3.177  -9.490  1.00  0.00     0.148 A 
ATOM     77  C   UNL     1      -8.492   2.301 -12.060  1.00  0.00     0.002 A 
ATOM     78  C   UNL     1     -10.135   2.894 -10.409  1.00  0.00     0.091 A 
ATOM     79  F   UNL     1      -9.471   3.787  -8.350  1.00  0.00    -0.205 F 
ATOM     80  C   UNL     1      -9.822   2.485 -11.705  1.00  0.00     0.022 A 
BRANCH  78  81
ATOM     81  S   UNL     1     -11.864   3.073  -9.957  1.00  0.00     0.127 S 
ATOM     82  O   UNL     1     -12.150   4.430 -10.410  1.00  0.00    -0.237 OA
ATOM     83  O   UNL     1     -12.501   2.011 -10.737  1.00  0.00    -0.237 OA
ATOM     84  O   UNL     1     -11.893   2.846  -8.516  1.00  0.00    -0.744 OA
ENDBRANCH  78  81
ENDBRANCH  60  74
BRANCH  61  85
ATOM     85  C   UNL     1      -8.669  11.262  -8.515  1.00  0.00     0.023 A 
ATOM     86  C   UNL     1      -8.661  12.084  -9.658  1.00  0.00     0.012 A 
ATOM     87  C   UNL     1      -9.733  11.404  -7.596  1.00  0.00     0.148 A 
ATOM     88  C   UNL     1      -9.691  13.001  -9.892  1.00  0.00     0.002 A 
ATOM     89  C   UNL     1     -10.745  12.332  -7.824  1.00  0.00     0.091 A 
ATOM     90  F   UNL     1      -9.800  10.572  -6.548  1.00  0.00    -0.205 F 
ATOM     91  C   UNL     1     -10.733  13.124  -8.978  1.00  0.00     0.022 A 
BRANCH  89  92
ATOM     92  S   UNL     1     -12.113  12.547  -6.677  1.00  0.00     0.127 S 
ATOM     93  O   UNL     1     -12.269  14.002  -6.652  1.00  0.00    -0.237 OA
ATOM     94  O   UNL     1     -13.190  11.828  -7.351  1.00  0.00    -0.237 OA
ATOM     95  O   UNL     1     -11.655  11.978  -5.415  1.00  0.00    -0.744 OA
ENDBRANCH  89  92
ENDBRANCH  61  85
BRANCH  73  96
ATOM     96  C   UNL     1      -3.425   8.258 -10.256  1.00  0.00     0.023 A 
ATOM     97  C   UNL     1      -3.238   8.922  -9.028  1.00  0.00     0.012 A 
ATOM     98  C   UNL     1      -2.362   8.216 -11.177  1.00  0.00     0.148 A 
ATOM     99  C   UNL     1      -2.030   9.559  -8.738  1.00  0.00     0.002 A 
ATOM    100  C   UNL     1      -1.145   8.811 -10.864  1.00  0.00     0.091 A 
ATOM    101  F   UNL     1      -2.553   7.583 -12.345  1.00  0.00    -0.205 F 
ATOM    102  C   UNL     1      -0.979   9.494  -9.650  1.00  0.00     0.022 A 
BRANCH 100 103
ATOM    103  S   UNL     1       0.277   8.639 -11.946  1.00  0.00     0.127 S 
ATOM    104  O   UNL     1       0.227   9.874 -12.724  1.00  0.00    -0.237 OA
ATOM    105  O   UNL     1       1.393   8.557 -11.000  1.00  0.00    -0.237 OA
ATOM    106  O   UNL     1       0.049   7.406 -12.692  1.00  0.00    -0.744 OA
ENDBRANCH 100 103
ENDBRANCH  73  96
ENDBRANCH  47  48
ENDBRANCH  40  42
ENDBRANCH  39  40
ENDBRANCH  38  39
ENDBRANCH  37  38
ENDBRANCH  36  37
ENDBRANCH  35  36
ENDBRANCH   1  35
TORSDOF 23
