REMARK SMILES O=C(C[N@H+]1CCCC[C@H]1C(=O)OCCOCCOCCOC(=O)c1ccc(-c2c3nc(c(-c4cccc(S(=O)(=O)[O-])c4F)c4ccc([nH]4)c(-c4cccc(S(=O)(=O)[O-])c4F)c4nc(c(-c5cccc(S(=O)(=O)[O-])c5F)c5ccc2[nH]5)C=C4)C=C3)cc1)NC1CCCCC1
REMARK SMILES IDX 16 1 15 2 14 3 13 4 12 5 10 6 11 7 9 8 4 9 5 10 6 12 8 13
REMARK SMILES IDX 7 14 3 15 2 16 1 17 87 18 88 20 89 21 93 22 90 23 92 24
REMARK SMILES IDX 91 25 17 26 18 27 19 28 20 29 21 30 22 31 23 32 24 33 25 34
REMARK SMILES IDX 86 35 26 36 85 37 27 38 28 39 29 40 79 41 30 42 84 43 78 44
REMARK SMILES IDX 80 45 31 46 83 47 77 48 76 49 32 51 64 52 44 53 63 54 45 55
REMARK SMILES IDX 48 56 62 57 81 58 46 59 47 60 61 62 82 63 49 64 33 65 34 66
REMARK SMILES IDX 42 67 35 68 37 69 43 70 36 71 38 72 39 73 40 74 41 75 65 76
REMARK SMILES IDX 66 77 74 78 67 79 69 80 75 81 68 82 70 83 71 84 72 85 73 86
REMARK SMILES IDX 50 87 51 88 59 89 52 90 54 91 60 92 53 93 55 94 56 95 57 96
REMARK SMILES IDX 58 97
REMARK H PARENT 4 11 87 19 80 50 48 61
REMARK Flexibility Score: inf
ROOT
ATOM      1  C   UNL     1       0.626  -0.400  -4.137  1.00  0.00     0.188 C 
ENDROOT
BRANCH   1   2
ATOM      2  O   UNL     1      -0.683   0.024  -3.781  1.00  0.00    -0.376 OA
BRANCH   2   3
ATOM      3  C   UNL     1      -1.011   1.402  -3.725  1.00  0.00     0.202 C 
BRANCH   3   4
ATOM      4  C   UNL     1      -0.357   2.254  -2.631  1.00  0.00     0.261 C 
BRANCH   4   5
ATOM      5  O   UNL     1       1.088   2.269  -2.611  1.00  0.00    -0.459 OA
BRANCH   5   6
ATOM      6  C   UNL     1       1.646   1.487  -1.647  1.00  0.00     0.365 C 
ATOM      7  O   UNL     1       0.959   0.844  -0.863  1.00  0.00    -0.245 OA
BRANCH   6   8
ATOM      8  C   UNL     1       3.198   1.570  -1.546  1.00  0.00     0.295 C 
ATOM      9  N   UNL     1       3.924   0.280  -1.274  1.00  0.00    -0.315 N 
ATOM     10  C   UNL     1       4.444  -0.344  -2.498  1.00  0.00     0.263 C 
ATOM     11  H   UNL     1       4.674   0.610  -0.666  1.00  0.00     0.349 HD
ATOM     12  C   UNL     1       5.408   0.574  -3.235  1.00  0.00     0.062 C 
ATOM     13  C   UNL     1       3.967   2.516  -2.503  1.00  0.00     0.078 C 
ATOM     14  C   UNL     1       4.736   1.868  -3.652  1.00  0.00     0.013 C 
BRANCH   9  15
ATOM     15  C   UNL     1       3.188  -0.781  -0.501  1.00  0.00     0.364 C 
BRANCH  15  16
ATOM     16  C   UNL     1       2.644  -0.347   0.867  1.00  0.00     0.275 C 
ATOM     17  O   UNL     1       1.747  -0.955   1.445  1.00  0.00    -0.268 OA
ATOM     18  N   UNL     1       3.228   0.786   1.382  1.00  0.00    -0.348 N 
ATOM     19  H   UNL     1       4.157   1.004   1.142  1.00  0.00     0.163 HD
BRANCH  18  20
ATOM     20  C   UNL     1       2.498   1.666   2.273  1.00  0.00     0.082 C 
ATOM     21  C   UNL     1       2.743   1.311   3.738  1.00  0.00     0.025 C 
ATOM     22  C   UNL     1       2.857   3.124   1.955  1.00  0.00     0.025 C 
ATOM     23  C   UNL     1       2.070   2.314   4.670  1.00  0.00     0.002 C 
ATOM     24  C   UNL     1       2.215   4.111   2.917  1.00  0.00     0.002 C 
ATOM     25  C   UNL     1       2.510   3.743   4.364  1.00  0.00     0.000 C 
ENDBRANCH  18  20
ENDBRANCH  15  16
ENDBRANCH   9  15
ENDBRANCH   6   8
ENDBRANCH   5   6
ENDBRANCH   4   5
ENDBRANCH   3   4
ENDBRANCH   2   3
ENDBRANCH   1   2
BRANCH   1  26
ATOM     26  C   UNL     1       1.565   0.542  -4.897  1.00  0.00     0.188 C 
BRANCH  26  27
ATOM     27  O   UNL     1       0.902   1.463  -5.742  1.00  0.00    -0.376 OA
BRANCH  27  28
ATOM     28  C   UNL     1       1.339   1.499  -7.090  1.00  0.00     0.202 C 
BRANCH  28  29
ATOM     29  C   UNL     1       0.829   0.298  -7.893  1.00  0.00     0.261 C 
BRANCH  29  30
ATOM     30  O   UNL     1       1.324  -0.978  -7.444  1.00  0.00    -0.460 OA
BRANCH  30  31
ATOM     31  C   UNL     1       2.658  -1.183  -7.565  1.00  0.00     0.338 C 
ATOM     32  O   UNL     1       3.473  -0.415  -8.040  1.00  0.00    -0.246 OA
BRANCH  31  33
ATOM     33  C   UNL     1       3.006  -2.405  -6.808  1.00  0.00     0.060 A 
ATOM     34  C   UNL     1       3.952  -2.308  -5.779  1.00  0.00     0.016 A 
ATOM     35  C   UNL     1       2.418  -3.633  -7.113  1.00  0.00     0.016 A 
ATOM     36  C   UNL     1       4.328  -3.445  -5.061  1.00  0.00     0.010 A 
ATOM     37  C   UNL     1       2.814  -4.775  -6.409  1.00  0.00     0.010 A 
ATOM     38  C   UNL     1       3.788  -4.693  -5.396  1.00  0.00    -0.014 A 
BRANCH  38  39
ATOM     39  C   UNL     1       4.368  -5.936  -4.825  1.00  0.00     0.031 A 
ATOM     40  C   UNL     1       5.357  -6.710  -5.656  1.00  0.00     0.074 A 
ATOM     41  C   UNL     1       4.024  -6.382  -3.603  1.00  0.00     0.049 A 
ATOM     42  N   UNL     1       5.917  -7.866  -5.416  1.00  0.00    -0.248 NA
ATOM     43  C   UNL     1       5.770  -6.094  -6.929  1.00  0.00     0.031 C 
ATOM     44  C   UNL     1       3.114  -5.711  -2.677  1.00  0.00     0.029 A 
ATOM     45  N   UNL     1       4.389  -7.531  -2.942  1.00  0.00    -0.354 N 
ATOM     46  C   UNL     1       6.705  -8.142  -6.527  1.00  0.00     0.074 A 
ATOM     47  C   UNL     1       6.566  -7.024  -7.434  1.00  0.00     0.031 C 
ATOM     48  C   UNL     1       2.970  -6.474  -1.578  1.00  0.00     0.029 A 
ATOM     49  C   UNL     1       3.742  -7.705  -1.739  1.00  0.00     0.049 A 
ATOM     50  H   UNL     1       5.050  -8.169  -3.295  1.00  0.00     0.167 HD
ATOM     51  C   UNL     1       7.474  -9.227  -6.772  1.00  0.00     0.034 A 
ATOM     52  C   UNL     1       3.747  -8.752  -0.888  1.00  0.00     0.034 A 
ATOM     53  C   UNL     1       7.642 -10.325  -5.861  1.00  0.00     0.049 A 
ATOM     54  C   UNL     1       4.581  -9.969  -1.212  1.00  0.00     0.074 A 
ATOM     55  C   UNL     1       8.441 -11.446  -6.007  1.00  0.00     0.029 A 
ATOM     56  N   UNL     1       6.992 -10.452  -4.645  1.00  0.00    -0.354 N 
ATOM     57  N   UNL     1       5.400 -10.170  -2.216  1.00  0.00    -0.248 NA
ATOM     58  C   UNL     1       4.506 -11.098  -0.271  1.00  0.00     0.031 C 
ATOM     59  C   UNL     1       8.248 -12.268  -4.893  1.00  0.00     0.029 A 
ATOM     60  C   UNL     1       7.357 -11.641  -4.037  1.00  0.00     0.049 A 
ATOM     61  H   UNL     1       6.365  -9.794  -4.268  1.00  0.00     0.167 HD
ATOM     62  C   UNL     1       5.967 -11.424  -2.003  1.00  0.00     0.074 A 
ATOM     63  C   UNL     1       5.412 -11.929  -0.765  1.00  0.00     0.031 C 
ATOM     64  C   UNL     1       6.855 -12.103  -2.770  1.00  0.00     0.034 A 
BRANCH  51  65
ATOM     65  C   UNL     1       8.198  -9.291  -8.089  1.00  0.00     0.023 A 
ATOM     66  C   UNL     1       9.343  -8.500  -8.304  1.00  0.00     0.012 A 
ATOM     67  C   UNL     1       7.780 -10.195  -9.085  1.00  0.00     0.148 A 
ATOM     68  C   UNL     1      10.050  -8.591  -9.502  1.00  0.00     0.002 A 
ATOM     69  C   UNL     1       8.513 -10.311 -10.258  1.00  0.00     0.091 A 
ATOM     70  F   UNL     1       6.673 -10.919  -8.866  1.00  0.00    -0.205 F 
ATOM     71  C   UNL     1       9.642  -9.504 -10.473  1.00  0.00     0.022 A 
BRANCH  69  72
ATOM     72  S   UNL     1       8.115 -11.511 -11.534  1.00  0.00     0.127 S 
ATOM     73  O   UNL     1       7.671 -10.643 -12.625  1.00  0.00    -0.237 OA
ATOM     74  O   UNL     1       9.406 -12.160 -11.758  1.00  0.00    -0.237 OA
ATOM     75  O   UNL     1       7.088 -12.374 -10.970  1.00  0.00    -0.744 OA
ENDBRANCH  69  72
ENDBRANCH  51  65
BRANCH  52  76
ATOM     76  C   UNL     1       2.939  -8.719   0.366  1.00  0.00     0.023 A 
ATOM     77  C   UNL     1       3.594  -8.721   1.614  1.00  0.00     0.012 A 
ATOM     78  C   UNL     1       1.531  -8.736   0.333  1.00  0.00     0.148 A 
ATOM     79  C   UNL     1       2.865  -8.781   2.802  1.00  0.00     0.002 A 
ATOM     80  C   UNL     1       0.809  -8.742   1.522  1.00  0.00     0.091 A 
ATOM     81  F   UNL     1       0.923  -8.763  -0.861  1.00  0.00    -0.205 F 
ATOM     82  C   UNL     1       1.474  -8.784   2.757  1.00  0.00     0.022 A 
BRANCH  80  83
ATOM     83  S   UNL     1      -0.984  -8.649   1.555  1.00  0.00     0.127 S 
ATOM     84  O   UNL     1      -1.348 -10.015   1.921  1.00  0.00    -0.237 OA
ATOM     85  O   UNL     1      -1.218  -7.650   2.599  1.00  0.00    -0.237 OA
ATOM     86  O   UNL     1      -1.377  -8.224   0.218  1.00  0.00    -0.744 OA
ENDBRANCH  80  83
ENDBRANCH  52  76
BRANCH  64  87
ATOM     87  C   UNL     1       7.341 -13.443  -2.278  1.00  0.00     0.023 A 
ATOM     88  C   UNL     1       6.482 -14.559  -2.306  1.00  0.00     0.012 A 
ATOM     89  C   UNL     1       8.680 -13.613  -1.871  1.00  0.00     0.148 A 
ATOM     90  C   UNL     1       6.939 -15.816  -1.908  1.00  0.00     0.002 A 
ATOM     91  C   UNL     1       9.142 -14.878  -1.526  1.00  0.00     0.091 A 
ATOM     92  F   UNL     1       9.479 -12.537  -1.835  1.00  0.00    -0.205 F 
ATOM     93  C   UNL     1       8.270 -15.978  -1.531  1.00  0.00     0.022 A 
BRANCH  91  94
ATOM     94  S   UNL     1      10.865 -15.197  -1.128  1.00  0.00     0.127 S 
ATOM     95  O   UNL     1      10.802 -15.419   0.316  1.00  0.00    -0.237 OA
ATOM     96  O   UNL     1      11.150 -16.396  -1.917  1.00  0.00    -0.237 OA
ATOM     97  O   UNL     1      11.601 -14.012  -1.547  1.00  0.00    -0.744 OA
ENDBRANCH  91  94
ENDBRANCH  64  87
ENDBRANCH  38  39
ENDBRANCH  31  33
ENDBRANCH  30  31
ENDBRANCH  29  30
ENDBRANCH  28  29
ENDBRANCH  27  28
ENDBRANCH  26  27
ENDBRANCH   1  26
TORSDOF 23
