REMARK SMILES COc1ccc2c(c1)c(CC(=O)OCCOCCOCCOC(=O)c1ccc(-c3c4nc(c(-c5cccc(S(=O)(=O)[O-])c5F)c5ccc([nH]5)c(-c5cccc(S(=O)(=O)[O-])c5F)c5nc(c(-c6cccc(S(=O)(=O)[O-])c6F)c6ccc3[nH]6)C=C5)C=C4)cc1)c(C)n2Cc1ccc(Br)cc1
REMARK SMILES IDX 17 1 16 2 15 3 14 4 13 5 11 6 12 7 10 8 9 9 3 10 4 11 8 12
REMARK SMILES IDX 5 13 7 14 6 15 90 16 88 17 89 18 2 19 1 20 91 21 92 22 93 23
REMARK SMILES IDX 98 24 94 25 97 26 95 27 96 28 18 29 19 30 20 31 21 32 22 33
REMARK SMILES IDX 23 34 24 35 25 36 26 37 87 38 27 39 86 40 28 41 29 42 30 43
REMARK SMILES IDX 80 44 31 45 85 46 79 47 81 48 32 49 84 50 78 51 77 52 33 54
REMARK SMILES IDX 65 55 45 56 64 57 46 58 49 59 63 60 82 61 47 62 48 63 62 65
REMARK SMILES IDX 83 66 50 67 34 68 35 69 43 70 36 71 38 72 44 73 37 74 39 75
REMARK SMILES IDX 40 76 41 77 42 78 66 79 67 80 75 81 68 82 70 83 76 84 69 85
REMARK SMILES IDX 71 86 72 87 73 88 74 89 51 90 52 91 60 92 53 93 55 94 61 95
REMARK SMILES IDX 54 96 56 97 57 98 58 99 59 100
REMARK H PARENT 81 53 49 64
REMARK Flexibility Score: inf
ROOT
ATOM      1  C   UNL     1      -2.015   5.518  -0.545  1.00  0.00     0.188 C 
ENDROOT
BRANCH   1   2
ATOM      2  O   UNL     1      -2.475   6.718  -1.168  1.00  0.00    -0.376 OA
BRANCH   2   3
ATOM      3  C   UNL     1      -1.732   7.908  -0.925  1.00  0.00     0.202 C 
BRANCH   3   4
ATOM      4  C   UNL     1      -1.646   8.301   0.552  1.00  0.00     0.261 C 
BRANCH   4   5
ATOM      5  O   UNL     1      -0.734   7.411   1.226  1.00  0.00    -0.463 OA
BRANCH   5   6
ATOM      6  C   UNL     1      -0.958   7.226   2.554  1.00  0.00     0.310 C 
ATOM      7  O   UNL     1      -1.570   8.028   3.249  1.00  0.00    -0.252 OA
BRANCH   6   8
ATOM      8  C   UNL     1      -0.588   5.820   2.984  1.00  0.00     0.160 C 
BRANCH   8   9
ATOM      9  C   UNL     1       0.808   5.498   3.367  1.00  0.00    -0.008 A 
ATOM     10  C   UNL     1       2.345   2.387   1.727  1.00  0.00     0.119 A 
ATOM     11  C   UNL     1       3.461   2.320   2.548  1.00  0.00     0.048 A 
ATOM     12  C   UNL     1       1.453   3.452   1.875  1.00  0.00     0.057 A 
ATOM     13  C   UNL     1       3.709   3.319   3.508  1.00  0.00     0.031 A 
ATOM     14  C   UNL     1       1.626   4.433   2.868  1.00  0.00     0.007 A 
ATOM     15  C   UNL     1       2.769   4.355   3.664  1.00  0.00     0.049 A 
ATOM     16  N   UNL     1       2.696   5.432   4.528  1.00  0.00    -0.340 N 
ATOM     17  C   UNL     1       1.400   5.901   4.551  1.00  0.00     0.020 A 
ATOM     18  C   UNL     1       0.777   6.633   5.696  1.00  0.00     0.065 C 
BRANCH  10  19
ATOM     19  O   UNL     1       2.018   1.505   0.734  1.00  0.00    -0.497 OA
ATOM     20  C   UNL     1       2.508   0.175   0.856  1.00  0.00     0.278 C 
ENDBRANCH  10  19
BRANCH  16  21
ATOM     21  C   UNL     1       3.811   6.039   5.244  1.00  0.00     0.157 C 
BRANCH  21  22
ATOM     22  C   UNL     1       4.157   7.363   4.583  1.00  0.00    -0.028 A 
ATOM     23  C   UNL     1       3.458   8.533   4.924  1.00  0.00     0.007 A 
ATOM     24  C   UNL     1       5.077   7.415   3.526  1.00  0.00     0.007 A 
ATOM     25  C   UNL     1       3.633   9.713   4.199  1.00  0.00     0.016 A 
ATOM     26  C   UNL     1       5.278   8.604   2.819  1.00  0.00     0.016 A 
ATOM     27  C   UNL     1       4.544   9.742   3.149  1.00  0.00     0.017 A 
ATOM     28  Br  UNL     1       4.770  11.332   2.151  1.00  0.00    -0.051 Br
ENDBRANCH  21  22
ENDBRANCH  16  21
ENDBRANCH   8   9
ENDBRANCH   6   8
ENDBRANCH   5   6
ENDBRANCH   4   5
ENDBRANCH   3   4
ENDBRANCH   2   3
ENDBRANCH   1   2
BRANCH   1  29
ATOM     29  C   UNL     1      -0.514   5.202  -0.655  1.00  0.00     0.188 C 
BRANCH  29  30
ATOM     30  O   UNL     1      -0.062   5.580  -1.940  1.00  0.00    -0.376 OA
BRANCH  30  31
ATOM     31  C   UNL     1       0.563   4.606  -2.744  1.00  0.00     0.202 C 
BRANCH  31  32
ATOM     32  C   UNL     1       0.030   3.158  -2.781  1.00  0.00     0.261 C 
BRANCH  32  33
ATOM     33  O   UNL     1      -1.243   2.958  -2.144  1.00  0.00    -0.460 OA
BRANCH  33  34
ATOM     34  C   UNL     1      -1.370   1.754  -1.521  1.00  0.00     0.338 C 
ATOM     35  O   UNL     1      -0.729   0.742  -1.774  1.00  0.00    -0.246 OA
BRANCH  34  36
ATOM     36  C   UNL     1      -2.128   1.954  -0.263  1.00  0.00     0.060 A 
ATOM     37  C   UNL     1      -3.444   2.418  -0.211  1.00  0.00     0.016 A 
ATOM     38  C   UNL     1      -1.416   1.770   0.924  1.00  0.00     0.016 A 
ATOM     39  C   UNL     1      -4.013   2.751   1.032  1.00  0.00     0.010 A 
ATOM     40  C   UNL     1      -1.954   2.164   2.147  1.00  0.00     0.010 A 
ATOM     41  C   UNL     1      -3.257   2.662   2.212  1.00  0.00    -0.014 A 
BRANCH  41  42
ATOM     42  C   UNL     1      -3.871   2.753   3.543  1.00  0.00     0.031 A 
ATOM     43  C   UNL     1      -4.572   1.528   3.953  1.00  0.00     0.074 A 
ATOM     44  C   UNL     1      -3.866   3.748   4.453  1.00  0.00     0.049 A 
ATOM     45  N   UNL     1      -5.835   1.342   3.757  1.00  0.00    -0.248 NA
ATOM     46  C   UNL     1      -3.858   0.400   4.547  1.00  0.00     0.031 C 
ATOM     47  C   UNL     1      -3.355   5.097   4.310  1.00  0.00     0.029 A 
ATOM     48  N   UNL     1      -4.297   3.733   5.755  1.00  0.00    -0.354 N 
ATOM     49  C   UNL     1      -6.132   0.182   4.435  1.00  0.00     0.074 A 
ATOM     50  C   UNL     1      -4.868  -0.455   4.738  1.00  0.00     0.031 C 
ATOM     51  C   UNL     1      -3.260   5.698   5.521  1.00  0.00     0.029 A 
ATOM     52  C   UNL     1      -3.887   4.829   6.504  1.00  0.00     0.049 A 
ATOM     53  H   UNL     1      -4.850   3.008   6.127  1.00  0.00     0.167 HD
ATOM     54  C   UNL     1      -7.376  -0.043   4.931  1.00  0.00     0.034 A 
ATOM     55  C   UNL     1      -4.332   5.216   7.722  1.00  0.00     0.034 A 
ATOM     56  C   UNL     1      -8.322   0.987   4.590  1.00  0.00     0.049 A 
ATOM     57  C   UNL     1      -5.762   4.845   7.762  1.00  0.00     0.074 A 
ATOM     58  C   UNL     1      -8.851   1.507   3.428  1.00  0.00     0.029 A 
ATOM     59  N   UNL     1      -8.563   1.911   5.579  1.00  0.00    -0.354 N 
ATOM     60  N   UNL     1      -6.685   5.433   7.053  1.00  0.00    -0.248 NA
ATOM     61  C   UNL     1      -6.170   3.621   8.433  1.00  0.00     0.031 C 
ATOM     62  C   UNL     1      -9.107   2.885   3.697  1.00  0.00     0.029 A 
ATOM     63  C   UNL     1      -8.724   3.150   5.012  1.00  0.00     0.049 A 
ATOM     64  H   UNL     1      -8.612   1.715   6.543  1.00  0.00     0.167 HD
ATOM     65  C   UNL     1      -7.622   4.439   6.830  1.00  0.00     0.074 A 
ATOM     66  C   UNL     1      -7.349   3.429   7.839  1.00  0.00     0.031 C 
ATOM     67  C   UNL     1      -8.329   4.386   5.664  1.00  0.00     0.034 A 
BRANCH  54  68
ATOM     68  C   UNL     1      -7.632  -1.015   6.029  1.00  0.00     0.023 A 
ATOM     69  C   UNL     1      -8.855  -1.705   6.053  1.00  0.00     0.012 A 
ATOM     70  C   UNL     1      -6.761  -1.160   7.126  1.00  0.00     0.148 A 
ATOM     71  C   UNL     1      -9.169  -2.564   7.110  1.00  0.00     0.002 A 
ATOM     72  C   UNL     1      -7.033  -2.083   8.123  1.00  0.00     0.091 A 
ATOM     73  F   UNL     1      -5.712  -0.332   7.244  1.00  0.00    -0.205 F 
ATOM     74  C   UNL     1      -8.243  -2.780   8.128  1.00  0.00     0.022 A 
BRANCH  72  75
ATOM     75  S   UNL     1      -5.800  -2.471   9.366  1.00  0.00     0.127 S 
ATOM     76  O   UNL     1      -6.231  -1.636  10.482  1.00  0.00    -0.237 OA
ATOM     77  O   UNL     1      -5.994  -3.909   9.553  1.00  0.00    -0.237 OA
ATOM     78  O   UNL     1      -4.530  -2.120   8.741  1.00  0.00    -0.744 OA
ENDBRANCH  72  75
ENDBRANCH  54  68
BRANCH  55  79
ATOM     79  C   UNL     1      -3.598   5.703   8.916  1.00  0.00     0.023 A 
ATOM     80  C   UNL     1      -4.343   6.193  10.013  1.00  0.00     0.012 A 
ATOM     81  C   UNL     1      -2.222   5.459   9.114  1.00  0.00     0.148 A 
ATOM     82  C   UNL     1      -3.765   6.363  11.275  1.00  0.00     0.002 A 
ATOM     83  C   UNL     1      -1.645   5.640  10.375  1.00  0.00     0.091 A 
ATOM     84  F   UNL     1      -1.496   4.972   8.097  1.00  0.00    -0.205 F 
ATOM     85  C   UNL     1      -2.419   6.073  11.461  1.00  0.00     0.022 A 
BRANCH  83  86
ATOM     86  S   UNL     1       0.100   5.313  10.674  1.00  0.00     0.127 S 
ATOM     87  O   UNL     1       0.436   6.286  11.716  1.00  0.00    -0.237 OA
ATOM     88  O   UNL     1       0.085   3.925  11.123  1.00  0.00    -0.237 OA
ATOM     89  O   UNL     1       0.758   5.570   9.397  1.00  0.00    -0.744 OA
ENDBRANCH  83  86
ENDBRANCH  55  79
BRANCH  67  90
ATOM     90  C   UNL     1      -8.459   5.659   4.868  1.00  0.00     0.023 A 
ATOM     91  C   UNL     1      -7.355   6.276   4.248  1.00  0.00     0.012 A 
ATOM     92  C   UNL     1      -9.746   6.178   4.641  1.00  0.00     0.148 A 
ATOM     93  C   UNL     1      -7.528   7.398   3.432  1.00  0.00     0.002 A 
ATOM     94  C   UNL     1      -9.920   7.269   3.798  1.00  0.00     0.091 A 
ATOM     95  F   UNL     1     -10.785   5.580   5.245  1.00  0.00    -0.205 F 
ATOM     96  C   UNL     1      -8.812   7.886   3.197  1.00  0.00     0.022 A 
BRANCH  94  97
ATOM     97  S   UNL     1     -11.550   7.886   3.366  1.00  0.00     0.127 S 
ATOM     98  O   UNL     1     -11.595   9.163   4.076  1.00  0.00    -0.237 OA
ATOM     99  O   UNL     1     -11.465   8.000   1.909  1.00  0.00    -0.237 OA
ATOM    100  O   UNL     1     -12.499   6.881   3.830  1.00  0.00    -0.744 OA
ENDBRANCH  94  97
ENDBRANCH  67  90
ENDBRANCH  41  42
ENDBRANCH  34  36
ENDBRANCH  33  34
ENDBRANCH  32  33
ENDBRANCH  31  32
ENDBRANCH  30  31
ENDBRANCH  29  30
ENDBRANCH   1  29
TORSDOF 24
