REMARK SMILES CNc1cc(-c2cncc(SCC(=O)OCCOCCOCCOC(=O)c3ccc(-c4c5nc(c(-c6cccc(S(=O)(=O)[O-])c6F)c6ccc([nH]6)c(-c6cccc(S(=O)(=O)[O-])c6F)c6nc(c(-c7cccc(S(=O)(=O)[O-])c7F)c7ccc4[nH]7)C=C6)C=C5)cc3)n2)c2cc[nH]c2n1
REMARK SMILES IDX 19 1 18 2 17 3 16 4 15 5 13 6 14 7 12 8 11 9 10 10 6 11 7 12
REMARK SMILES IDX 90 13 8 14 9 15 5 16 3 17 4 18 96 19 95 20 91 21 94 22 92 23
REMARK SMILES IDX 93 24 2 26 1 27 20 29 21 30 22 31 23 32 24 33 25 34 26 35
REMARK SMILES IDX 27 36 28 37 89 38 29 39 88 40 30 41 31 42 32 43 82 44 33 45
REMARK SMILES IDX 87 46 81 47 83 48 34 49 86 50 80 51 79 52 35 54 67 55 47 56
REMARK SMILES IDX 66 57 48 58 51 59 65 60 84 61 49 62 50 63 64 65 85 66 52 67
REMARK SMILES IDX 36 68 37 69 45 70 38 71 40 72 46 73 39 74 41 75 42 76 43 77
REMARK SMILES IDX 44 78 68 79 69 80 77 81 70 82 72 83 78 84 71 85 73 86 74 87
REMARK SMILES IDX 75 88 76 89 53 90 54 91 62 92 55 93 57 94 63 95 56 96 58 97
REMARK SMILES IDX 59 98 60 99 61 100
REMARK H PARENT 94 25 2 28 83 53 51 64
REMARK Flexibility Score: inf
ROOT
ATOM      1  C   UNL     1      -2.754   3.651   6.271  1.00  0.00     0.188 C 
ENDROOT
BRANCH   1   2
ATOM      2  O   UNL     1      -2.801   3.979   7.637  1.00  0.00    -0.376 OA
BRANCH   2   3
ATOM      3  C   UNL     1      -3.872   4.841   7.985  1.00  0.00     0.202 C 
BRANCH   3   4
ATOM      4  C   UNL     1      -4.065   6.099   7.098  1.00  0.00     0.261 C 
BRANCH   4   5
ATOM      5  O   UNL     1      -4.208   5.856   5.657  1.00  0.00    -0.463 OA
BRANCH   5   6
ATOM      6  C   UNL     1      -3.459   6.627   4.808  1.00  0.00     0.316 C 
ATOM      7  O   UNL     1      -2.858   7.629   5.193  1.00  0.00    -0.251 OA
BRANCH   6   8
ATOM      8  C   UNL     1      -3.238   6.067   3.382  1.00  0.00     0.199 C 
BRANCH   8   9
ATOM      9  S   UNL     1      -4.698   5.375   2.525  1.00  0.00    -0.093 SA
BRANCH   9  10
ATOM     10  C   UNL     1      -4.063   4.093   1.384  1.00  0.00     0.116 A 
ATOM     11  C   UNL     1      -2.601   1.920   1.234  1.00  0.00     0.091 A 
ATOM     12  C   UNL     1      -3.519   1.811   0.041  1.00  0.00     0.140 A 
ATOM     13  N   UNL     1      -2.991   3.314   1.717  1.00  0.00    -0.238 NA
ATOM     14  N   UNL     1      -4.554   2.627  -0.413  1.00  0.00    -0.260 NA
ATOM     15  C   UNL     1      -4.845   3.706   0.331  1.00  0.00     0.146 A 
BRANCH  11  16
ATOM     16  C   UNL     1      -1.312   0.597   2.268  1.00  0.00     0.016 A 
ATOM     17  C   UNL     1       0.734  -1.321   2.373  1.00  0.00     0.128 A 
ATOM     18  C   UNL     1      -0.146  -0.400   1.779  1.00  0.00     0.058 A 
ATOM     19  N   UNL     1       0.792  -1.442   3.668  1.00  0.00    -0.213 NA
ATOM     20  C   UNL     1      -0.080  -0.686   4.316  1.00  0.00     0.140 A 
ATOM     21  C   UNL     1      -1.103   0.165   3.839  1.00  0.00     0.028 A 
ATOM     22  N   UNL     1      -0.017  -0.731   5.681  1.00  0.00    -0.346 N 
ATOM     23  C   UNL     1      -1.777   0.361   5.129  1.00  0.00     0.030 A 
ATOM     24  C   UNL     1      -1.084  -0.113   6.212  1.00  0.00     0.085 A 
ATOM     25  H   UNL     1       0.705  -1.155   6.199  1.00  0.00     0.167 HD
BRANCH  17  26
ATOM     26  N   UNL     1       1.533  -2.180   1.675  1.00  0.00    -0.373 N 
ATOM     27  C   UNL     1       1.873  -2.093   0.278  1.00  0.00     0.141 C 
ATOM     28  H   UNL     1       1.917  -2.935   2.177  1.00  0.00     0.161 HD
ENDBRANCH  17  26
ENDBRANCH  11  16
ENDBRANCH   9  10
ENDBRANCH   8   9
ENDBRANCH   6   8
ENDBRANCH   5   6
ENDBRANCH   4   5
ENDBRANCH   3   4
ENDBRANCH   2   3
ENDBRANCH   1   2
BRANCH   1  29
ATOM     29  C   UNL     1      -4.059   3.145   5.616  1.00  0.00     0.188 C 
BRANCH  29  30
ATOM     30  O   UNL     1      -5.232   2.977   6.389  1.00  0.00    -0.376 OA
BRANCH  30  31
ATOM     31  C   UNL     1      -6.280   2.298   5.680  1.00  0.00     0.202 C 
BRANCH  31  32
ATOM     32  C   UNL     1      -6.015   0.796   5.414  1.00  0.00     0.261 C 
BRANCH  32  33
ATOM     33  O   UNL     1      -4.859   0.462   4.613  1.00  0.00    -0.460 OA
BRANCH  33  34
ATOM     34  C   UNL     1      -4.738   1.046   3.405  1.00  0.00     0.338 C 
ATOM     35  O   UNL     1      -5.616   1.643   2.809  1.00  0.00    -0.246 OA
BRANCH  34  36
ATOM     36  C   UNL     1      -3.330   0.936   2.917  1.00  0.00     0.060 A 
ATOM     37  C   UNL     1      -2.075   2.268   3.235  1.00  0.00     0.016 A 
ATOM     38  C   UNL     1      -3.121  -0.149   1.484  1.00  0.00     0.016 A 
ATOM     39  C   UNL     1      -0.761   2.603   1.982  1.00  0.00     0.010 A 
ATOM     40  C   UNL     1      -1.806   0.200   0.250  1.00  0.00     0.010 A 
ATOM     41  C   UNL     1      -0.621   1.608   0.459  1.00  0.00    -0.014 A 
BRANCH  41  42
ATOM     42  C   UNL     1       0.720   1.631  -0.389  1.00  0.00     0.031 A 
ATOM     43  C   UNL     1       0.843   0.813  -1.693  1.00  0.00     0.074 A 
ATOM     44  C   UNL     1       1.911   2.055   0.127  1.00  0.00     0.049 A 
ATOM     45  N   UNL     1       1.910   0.264  -2.237  1.00  0.00    -0.248 NA
ATOM     46  C   UNL     1      -0.395   0.455  -2.393  1.00  0.00     0.031 C 
ATOM     47  C   UNL     1       2.139   2.665   1.433  1.00  0.00     0.029 A 
ATOM     48  N   UNL     1       3.210   1.949  -0.367  1.00  0.00    -0.354 N 
ATOM     49  C   UNL     1       1.452  -0.628  -3.212  1.00  0.00     0.074 A 
ATOM     50  C   UNL     1       0.006  -0.553  -3.161  1.00  0.00     0.031 C 
ATOM     51  C   UNL     1       3.436   2.918   1.629  1.00  0.00     0.029 A 
ATOM     52  C   UNL     1       4.188   2.390   0.513  1.00  0.00     0.049 A 
ATOM     53  H   UNL     1       3.416   1.593  -1.261  1.00  0.00     0.167 HD
ATOM     54  C   UNL     1       2.147  -1.413  -4.082  1.00  0.00     0.034 A 
ATOM     55  C   UNL     1       5.537   2.349   0.515  1.00  0.00     0.034 A 
ATOM     56  C   UNL     1       3.570  -1.311  -4.317  1.00  0.00     0.049 A 
ATOM     57  C   UNL     1       6.273   1.703  -0.618  1.00  0.00     0.074 A 
ATOM     58  C   UNL     1       4.306  -1.859  -5.360  1.00  0.00     0.029 A 
ATOM     59  N   UNL     1       4.466  -0.599  -3.541  1.00  0.00    -0.354 N 
ATOM     60  N   UNL     1       5.791   1.007  -1.612  1.00  0.00    -0.248 NA
ATOM     61  C   UNL     1       7.736   1.865  -0.649  1.00  0.00     0.031 C 
ATOM     62  C   UNL     1       5.646  -1.493  -5.205  1.00  0.00     0.029 A 
ATOM     63  C   UNL     1       5.738  -0.684  -4.089  1.00  0.00     0.049 A 
ATOM     64  H   UNL     1       4.235  -0.105  -2.722  1.00  0.00     0.167 HD
ATOM     65  C   UNL     1       6.883   0.696  -2.413  1.00  0.00     0.074 A 
ATOM     66  C   UNL     1       8.048   1.291  -1.801  1.00  0.00     0.031 C 
ATOM     67  C   UNL     1       6.901  -0.033  -3.552  1.00  0.00     0.034 A 
BRANCH  54  68
ATOM     68  C   UNL     1       1.399  -2.401  -4.969  1.00  0.00     0.023 A 
ATOM     69  C   UNL     1       0.503  -1.934  -5.950  1.00  0.00     0.012 A 
ATOM     70  C   UNL     1       1.708  -3.783  -4.936  1.00  0.00     0.148 A 
ATOM     71  C   UNL     1      -0.120  -2.817  -6.834  1.00  0.00     0.002 A 
ATOM     72  C   UNL     1       1.137  -4.648  -5.867  1.00  0.00     0.091 A 
ATOM     73  F   UNL     1       2.574  -4.224  -4.012  1.00  0.00    -0.205 F 
ATOM     74  C   UNL     1       0.206  -4.169  -6.801  1.00  0.00     0.022 A 
BRANCH  72  75
ATOM     75  S   UNL     1       1.588  -6.385  -6.011  1.00  0.00     0.127 S 
ATOM     76  O   UNL     1       0.340  -7.046  -5.633  1.00  0.00    -0.237 OA
ATOM     77  O   UNL     1       1.930  -6.496  -7.429  1.00  0.00    -0.237 OA
ATOM     78  O   UNL     1       2.702  -6.590  -5.095  1.00  0.00    -0.744 OA
ENDBRANCH  72  75
ENDBRANCH  54  68
BRANCH  55  79
ATOM     79  C   UNL     1       6.319   3.012   1.608  1.00  0.00     0.023 A 
ATOM     80  C   UNL     1       6.996   4.213   1.312  1.00  0.00     0.012 A 
ATOM     81  C   UNL     1       6.417   2.474   2.907  1.00  0.00     0.148 A 
ATOM     82  C   UNL     1       7.806   4.832   2.263  1.00  0.00     0.002 A 
ATOM     83  C   UNL     1       7.179   3.130   3.870  1.00  0.00     0.091 A 
ATOM     84  F   UNL     1       5.759   1.339   3.177  1.00  0.00    -0.205 F 
ATOM     85  C   UNL     1       7.893   4.294   3.542  1.00  0.00     0.022 A 
BRANCH  83  86
ATOM     86  S   UNL     1       7.262   2.593   5.583  1.00  0.00     0.127 S 
ATOM     87  O   UNL     1       8.639   2.116   5.681  1.00  0.00    -0.237 OA
ATOM     88  O   UNL     1       6.990   3.839   6.302  1.00  0.00    -0.237 OA
ATOM     89  O   UNL     1       6.229   1.578   5.728  1.00  0.00    -0.744 OA
ENDBRANCH  83  86
ENDBRANCH  55  79
BRANCH  67  90
ATOM     90  C   UNL     1       8.204  -0.153  -4.296  1.00  0.00     0.023 A 
ATOM     91  C   UNL     1       9.258  -0.934  -3.783  1.00  0.00     0.012 A 
ATOM     92  C   UNL     1       8.358   0.479  -5.547  1.00  0.00     0.148 A 
ATOM     93  C   UNL     1      10.456  -1.057  -4.488  1.00  0.00     0.002 A 
ATOM     94  C   UNL     1       9.533   0.309  -6.267  1.00  0.00     0.091 A 
ATOM     95  F   UNL     1       7.353   1.240  -6.006  1.00  0.00    -0.205 F 
ATOM     96  C   UNL     1      10.589  -0.447  -5.734  1.00  0.00     0.022 A 
BRANCH  94  97
ATOM     97  S   UNL     1       9.757   0.979  -7.919  1.00  0.00     0.127 S 
ATOM     98  O   UNL     1      10.766   2.011  -7.688  1.00  0.00    -0.237 OA
ATOM     99  O   UNL     1      10.235  -0.187  -8.662  1.00  0.00    -0.237 OA
ATOM    100  O   UNL     1       8.450   1.469  -8.336  1.00  0.00    -0.744 OA
ENDBRANCH  94  97
ENDBRANCH  67  90
ENDBRANCH  41  42
ENDBRANCH  34  36
ENDBRANCH  33  34
ENDBRANCH  32  33
ENDBRANCH  31  32
ENDBRANCH  30  31
ENDBRANCH  29  30
ENDBRANCH   1  29
TORSDOF 24
