REMARK SMILES O=C(OCCOCCOCCOC(=O)[C@@H]1CC[C@@H](CNC(=O)N2CC[NH2+]CC2)O1)c1ccc(-c2c3nc(c(-c4cccc(S(=O)(=O)[O-])c4F)c4ccc([nH]4)c(-c4cccc(S(=O)(=O)[O-])c4F)c4nc(c(-c5cccc(S(=O)(=O)[O-])c5F)c5ccc2[nH]5)C=C4)C=C3)cc1
REMARK SMILES IDX 7 1 6 2 5 3 4 4 3 5 2 6 1 7 30 8 31 9 92 10 32 11 91 12
REMARK SMILES IDX 33 13 34 14 35 15 85 16 36 17 90 18 84 19 86 20 37 21 89 22
REMARK SMILES IDX 83 23 82 24 38 26 70 27 50 28 69 29 51 30 54 31 68 32 87 33
REMARK SMILES IDX 52 34 53 35 67 37 88 38 55 39 39 40 40 41 48 42 41 43 43 44
REMARK SMILES IDX 49 45 42 46 44 47 45 48 46 49 47 50 71 51 72 52 80 53 73 54
REMARK SMILES IDX 75 55 81 56 74 57 76 58 77 59 78 60 79 61 56 62 57 63 65 64
REMARK SMILES IDX 58 65 60 66 66 67 59 68 61 69 62 70 63 71 64 72 8 73 9 74
REMARK SMILES IDX 10 75 11 76 12 77 13 78 14 79 15 80 16 81 29 82 17 83 18 84
REMARK SMILES IDX 19 85 20 86 21 87 22 89 23 90 24 91 28 92 25 93 27 94 26 95
REMARK H PARENT 86 25 54 36 20 88 26 96 26 97
REMARK Flexibility Score: inf
ROOT
ATOM      1  C   UNL     1       2.521   1.731   0.579  1.00  0.00     0.188 C 
ENDROOT
BRANCH   1   2
ATOM      2  O   UNL     1       3.896   1.385   0.758  1.00  0.00    -0.376 OA
BRANCH   2   3
ATOM      3  C   UNL     1       4.675   1.499  -0.440  1.00  0.00     0.202 C 
BRANCH   3   4
ATOM      4  C   UNL     1       4.340   0.508  -1.581  1.00  0.00     0.261 C 
BRANCH   4   5
ATOM      5  O   UNL     1       2.989   0.000  -1.574  1.00  0.00    -0.460 OA
BRANCH   5   6
ATOM      6  C   UNL     1       2.473  -1.104  -0.973  1.00  0.00     0.338 C 
ATOM      7  O   UNL     1       1.301  -1.398  -1.205  1.00  0.00    -0.246 OA
BRANCH   6   8
ATOM      8  C   UNL     1       3.238  -1.966  -0.020  1.00  0.00     0.060 A 
ATOM      9  C   UNL     1       4.464  -1.617   0.532  1.00  0.00     0.016 A 
ATOM     10  C   UNL     1       2.671  -3.190   0.385  1.00  0.00     0.016 A 
ATOM     11  C   UNL     1       5.161  -2.461   1.371  1.00  0.00     0.010 A 
ATOM     12  C   UNL     1       3.340  -4.032   1.287  1.00  0.00     0.010 A 
ATOM     13  C   UNL     1       4.606  -3.671   1.761  1.00  0.00    -0.014 A 
BRANCH  13  14
ATOM     14  C   UNL     1       5.479  -4.549   2.560  1.00  0.00     0.031 A 
ATOM     15  C   UNL     1       6.146  -5.691   1.869  1.00  0.00     0.074 A 
ATOM     16  C   UNL     1       5.843  -4.178   3.803  1.00  0.00     0.049 A 
ATOM     17  N   UNL     1       7.043  -6.511   2.335  1.00  0.00    -0.248 NA
ATOM     18  C   UNL     1       5.813  -5.896   0.447  1.00  0.00     0.031 C 
ATOM     19  C   UNL     1       5.397  -2.956   4.465  1.00  0.00     0.029 A 
ATOM     20  N   UNL     1       6.681  -4.744   4.721  1.00  0.00    -0.354 N 
ATOM     21  C   UNL     1       7.384  -7.329   1.270  1.00  0.00     0.074 A 
ATOM     22  C   UNL     1       6.591  -6.920   0.135  1.00  0.00     0.031 C 
ATOM     23  C   UNL     1       5.906  -2.885   5.702  1.00  0.00     0.029 A 
ATOM     24  C   UNL     1       6.715  -4.068   5.921  1.00  0.00     0.049 A 
ATOM     25  H   UNL     1       7.209  -5.556   4.542  1.00  0.00     0.167 HD
ATOM     26  C   UNL     1       8.299  -8.321   1.250  1.00  0.00     0.034 A 
ATOM     27  C   UNL     1       7.322  -4.389   7.074  1.00  0.00     0.034 A 
ATOM     28  C   UNL     1       9.052  -8.718   2.405  1.00  0.00     0.049 A 
ATOM     29  C   UNL     1       8.179  -5.618   7.070  1.00  0.00     0.074 A 
ATOM     30  C   UNL     1       9.944  -9.764   2.535  1.00  0.00     0.029 A 
ATOM     31  N   UNL     1       8.982  -8.089   3.641  1.00  0.00    -0.354 N 
ATOM     32  N   UNL     1       8.490  -6.392   6.059  1.00  0.00    -0.248 NA
ATOM     33  C   UNL     1       8.800  -5.995   8.343  1.00  0.00     0.031 C 
ATOM     34  C   UNL     1      10.384  -9.790   3.862  1.00  0.00     0.029 A 
ATOM     35  C   UNL     1       9.801  -8.735   4.548  1.00  0.00     0.049 A 
ATOM     36  H   UNL     1       8.429  -7.299   3.842  1.00  0.00     0.167 HD
ATOM     37  C   UNL     1       9.380  -7.326   6.561  1.00  0.00     0.074 A 
ATOM     38  C   UNL     1       9.571  -7.003   7.963  1.00  0.00     0.031 C 
ATOM     39  C   UNL     1       9.983  -8.360   5.926  1.00  0.00     0.034 A 
BRANCH  26  40
ATOM     40  C   UNL     1       8.479  -9.052  -0.048  1.00  0.00     0.023 A 
ATOM     41  C   UNL     1       9.163  -8.438  -1.117  1.00  0.00     0.012 A 
ATOM     42  C   UNL     1       7.950 -10.345  -0.212  1.00  0.00     0.148 A 
ATOM     43  C   UNL     1       9.292  -9.092  -2.342  1.00  0.00     0.002 A 
ATOM     44  C   UNL     1       8.118 -11.006  -1.420  1.00  0.00     0.091 A 
ATOM     45  F   UNL     1       7.275 -10.890   0.809  1.00  0.00    -0.205 F 
ATOM     46  C   UNL     1       8.777 -10.378  -2.490  1.00  0.00     0.022 A 
BRANCH  44  47
ATOM     47  S   UNL     1       7.537 -12.681  -1.699  1.00  0.00     0.127 S 
ATOM     48  O   UNL     1       6.561 -12.482  -2.767  1.00  0.00    -0.237 OA
ATOM     49  O   UNL     1       8.762 -13.362  -2.104  1.00  0.00    -0.237 OA
ATOM     50  O   UNL     1       6.975 -13.130  -0.427  1.00  0.00    -0.744 OA
ENDBRANCH  44  47
ENDBRANCH  26  40
BRANCH  27  51
ATOM     51  C   UNL     1       7.133  -3.589   8.315  1.00  0.00     0.023 A 
ATOM     52  C   UNL     1       8.216  -2.891   8.880  1.00  0.00     0.012 A 
ATOM     53  C   UNL     1       5.898  -3.603   8.992  1.00  0.00     0.148 A 
ATOM     54  C   UNL     1       8.091  -2.270  10.125  1.00  0.00     0.002 A 
ATOM     55  C   UNL     1       5.780  -2.982  10.230  1.00  0.00     0.091 A 
ATOM     56  F   UNL     1       4.856  -4.214   8.410  1.00  0.00    -0.205 F 
ATOM     57  C   UNL     1       6.877  -2.326  10.805  1.00  0.00     0.022 A 
BRANCH  55  58
ATOM     58  S   UNL     1       4.259  -3.033  11.176  1.00  0.00     0.127 S 
ATOM     59  O   UNL     1       4.737  -3.237  12.541  1.00  0.00    -0.237 OA
ATOM     60  O   UNL     1       3.711  -1.710  10.907  1.00  0.00    -0.237 OA
ATOM     61  O   UNL     1       3.507  -4.160  10.630  1.00  0.00    -0.744 OA
ENDBRANCH  55  58
ENDBRANCH  27  51
BRANCH  39  62
ATOM     62  C   UNL     1      10.938  -9.176   6.746  1.00  0.00     0.023 A 
ATOM     63  C   UNL     1      10.450 -10.033   7.751  1.00  0.00     0.012 A 
ATOM     64  C   UNL     1      12.319  -9.113   6.487  1.00  0.00     0.148 A 
ATOM     65  C   UNL     1      11.334 -10.784   8.521  1.00  0.00     0.002 A 
ATOM     66  C   UNL     1      13.186  -9.912   7.215  1.00  0.00     0.091 A 
ATOM     67  F   UNL     1      12.756  -8.268   5.543  1.00  0.00    -0.205 F 
ATOM     68  C   UNL     1      12.698 -10.734   8.244  1.00  0.00     0.022 A 
BRANCH  66  69
ATOM     69  S   UNL     1      14.940  -9.992   6.849  1.00  0.00     0.127 S 
ATOM     70  O   UNL     1      15.514  -9.265   7.979  1.00  0.00    -0.237 OA
ATOM     71  O   UNL     1      15.191 -11.434   6.857  1.00  0.00    -0.237 OA
ATOM     72  O   UNL     1      15.107  -9.360   5.547  1.00  0.00    -0.744 OA
ENDBRANCH  66  69
ENDBRANCH  39  62
ENDBRANCH  13  14
ENDBRANCH   6   8
ENDBRANCH   5   6
ENDBRANCH   4   5
ENDBRANCH   3   4
ENDBRANCH   2   3
ENDBRANCH   1   2
BRANCH   1  73
ATOM     73  C   UNL     1       1.957   2.764   1.554  1.00  0.00     0.188 C 
BRANCH  73  74
ATOM     74  O   UNL     1       2.655   3.998   1.680  1.00  0.00    -0.376 OA
BRANCH  74  75
ATOM     75  C   UNL     1       4.002   3.941   2.139  1.00  0.00     0.202 C 
BRANCH  75  76
ATOM     76  C   UNL     1       4.288   3.357   3.533  1.00  0.00     0.261 C 
BRANCH  76  77
ATOM     77  O   UNL     1       3.715   2.062   3.782  1.00  0.00    -0.461 OA
BRANCH  77  78
ATOM     78  C   UNL     1       2.737   2.019   4.736  1.00  0.00     0.335 C 
ATOM     79  O   UNL     1       2.336   2.998   5.358  1.00  0.00    -0.249 OA
BRANCH  78  80
ATOM     80  C   UNL     1       2.110   0.626   4.893  1.00  0.00     0.228 C 
ATOM     81  C   UNL     1       3.037  -0.530   4.617  1.00  0.00     0.047 C 
ATOM     82  O   UNL     1       0.961   0.350   4.072  1.00  0.00    -0.361 OA
ATOM     83  C   UNL     1       2.066  -1.688   4.626  1.00  0.00     0.037 C 
ATOM     84  C   UNL     1       0.850  -1.095   3.928  1.00  0.00     0.138 C 
BRANCH  84  85
ATOM     85  C   UNL     1      -0.514  -1.546   4.476  1.00  0.00     0.149 C 
BRANCH  85  86
ATOM     86  N   UNL     1      -0.646  -2.968   4.751  1.00  0.00    -0.335 N 
ATOM     87  C   UNL     1      -0.441  -3.679   5.889  1.00  0.00     0.317 C 
ATOM     88  H   UNL     1      -0.933  -3.507   3.979  1.00  0.00     0.165 HD
ATOM     89  O   UNL     1      -0.212  -4.882   5.758  1.00  0.00    -0.249 OA
ATOM     90  N   UNL     1      -0.444  -3.054   7.097  1.00  0.00    -0.314 N 
ATOM     91  C   UNL     1       0.387  -3.567   8.191  1.00  0.00     0.182 C 
ATOM     92  C   UNL     1      -1.332  -1.977   7.515  1.00  0.00     0.182 C 
ATOM     93  C   UNL     1       1.162  -2.407   8.859  1.00  0.00     0.282 C 
ATOM     94  C   UNL     1      -0.508  -0.814   8.082  1.00  0.00     0.282 C 
ATOM     95  N   UNL     1       0.335  -1.221   9.208  1.00  0.00    -0.343 N 
ATOM     96  H   UNL     1       0.952  -0.448   9.458  1.00  0.00     0.346 HD
ATOM     97  H   UNL     1      -0.269  -1.468   9.991  1.00  0.00     0.346 HD
ENDBRANCH  85  86
ENDBRANCH  84  85
ENDBRANCH  78  80
ENDBRANCH  77  78
ENDBRANCH  76  77
ENDBRANCH  75  76
ENDBRANCH  74  75
ENDBRANCH  73  74
ENDBRANCH   1  73
TORSDOF 22
