REMARK SMILES C[C@H](NC(=O)N1CC[C@@H](C(=O)OCCOCCOCCOC(=O)c2ccc(-c3c4nc(c(-c5cccc(S(=O)(=O)[O-])c5F)c5ccc([nH]5)c(-c5cccc(S(=O)(=O)[O-])c5F)c5nc(c(-c6cccc(S(=O)(=O)[O-])c6F)c6ccc3[nH]6)C=C5)C=C4)cc2)[C@@H]1C)c1cccc(Cl)c1
REMARK SMILES IDX 16 1 15 2 14 3 13 4 12 5 10 6 11 7 9 8 6 9 7 10 87 11 8 12
REMARK SMILES IDX 88 13 4 14 3 15 5 17 2 18 1 19 89 20 90 21 95 22 91 23 93 24
REMARK SMILES IDX 92 25 94 26 17 27 18 28 19 29 20 30 21 31 22 32 23 33 24 34
REMARK SMILES IDX 25 35 86 36 26 37 85 38 27 39 28 40 29 41 79 42 30 43 84 44
REMARK SMILES IDX 78 45 80 46 31 47 83 48 77 49 76 50 32 52 64 53 44 54 63 55
REMARK SMILES IDX 45 56 48 57 62 58 81 59 46 60 47 61 61 63 82 64 49 65 33 66
REMARK SMILES IDX 34 67 42 68 35 69 37 70 43 71 36 72 38 73 39 74 40 75 41 76
REMARK SMILES IDX 65 77 66 78 74 79 67 80 69 81 75 82 68 83 70 84 71 85 72 86
REMARK SMILES IDX 73 87 50 88 51 89 59 90 52 91 54 92 60 93 53 94 55 95 56 96
REMARK SMILES IDX 57 97 58 98
REMARK H PARENT 3 16 80 51 48 62
REMARK Flexibility Score: inf
ROOT
ATOM      1  C   UNL     1       1.183   5.350   4.423  1.00  0.00     0.188 C 
ENDROOT
BRANCH   1   2
ATOM      2  O   UNL     1      -0.036   5.729   5.043  1.00  0.00    -0.376 OA
BRANCH   2   3
ATOM      3  C   UNL     1      -1.185   4.930   4.784  1.00  0.00     0.202 C 
BRANCH   3   4
ATOM      4  C   UNL     1      -1.612   4.731   3.322  1.00  0.00     0.261 C 
BRANCH   4   5
ATOM      5  O   UNL     1      -0.581   4.291   2.409  1.00  0.00    -0.463 OA
BRANCH   5   6
ATOM      6  C   UNL     1      -0.266   5.180   1.431  1.00  0.00     0.311 C 
ATOM      7  O   UNL     1      -0.769   6.295   1.327  1.00  0.00    -0.252 OA
BRANCH   6   8
ATOM      8  C   UNL     1       0.769   4.708   0.425  1.00  0.00     0.123 C 
ATOM      9  N   UNL     1       0.801   2.560  -0.609  1.00  0.00    -0.321 N 
ATOM     10  C   UNL     1       0.551   3.511  -1.671  1.00  0.00     0.122 C 
ATOM     11  C   UNL     1       1.345   3.282   0.545  1.00  0.00     0.098 C 
ATOM     12  C   UNL     1       0.090   4.755  -0.954  1.00  0.00     0.039 C 
ATOM     13  C   UNL     1       2.885   3.319   0.462  1.00  0.00     0.032 C 
BRANCH   9  14
ATOM     14  C   UNL     1       0.999   1.268  -0.966  1.00  0.00     0.318 C 
ATOM     15  N   UNL     1       0.843   0.232  -0.137  1.00  0.00    -0.331 N 
ATOM     16  H   UNL     1       1.322  -0.556  -0.483  1.00  0.00     0.165 HD
ATOM     17  O   UNL     1       1.296   0.971  -2.129  1.00  0.00    -0.249 OA
BRANCH  15  18
ATOM     18  C   UNL     1       0.183  -0.091   1.119  1.00  0.00     0.111 C 
ATOM     19  C   UNL     1       0.720   0.547   2.387  1.00  0.00     0.036 C 
BRANCH  18  20
ATOM     20  C   UNL     1      -1.335  -0.053   1.089  1.00  0.00    -0.024 A 
ATOM     21  C   UNL     1      -2.040   1.157   1.016  1.00  0.00     0.006 A 
ATOM     22  C   UNL     1      -2.063  -1.239   1.293  1.00  0.00     0.026 A 
ATOM     23  C   UNL     1      -3.424   1.193   1.208  1.00  0.00     0.002 A 
ATOM     24  C   UNL     1      -3.445  -1.198   1.482  1.00  0.00     0.041 A 
ATOM     25  C   UNL     1      -4.126   0.015   1.456  1.00  0.00     0.020 A 
ATOM     26  Cl  UNL     1      -4.306  -2.655   1.802  1.00  0.00    -0.084 Cl
ENDBRANCH  18  20
ENDBRANCH  15  18
ENDBRANCH   9  14
ENDBRANCH   6   8
ENDBRANCH   5   6
ENDBRANCH   4   5
ENDBRANCH   3   4
ENDBRANCH   2   3
ENDBRANCH   1   2
BRANCH   1  27
ATOM     27  C   UNL     1       1.703   3.934   4.700  1.00  0.00     0.188 C 
BRANCH  27  28
ATOM     28  O   UNL     1       0.707   2.974   5.009  1.00  0.00    -0.376 OA
BRANCH  28  29
ATOM     29  C   UNL     1       1.129   1.736   5.575  1.00  0.00     0.202 C 
BRANCH  29  30
ATOM     30  C   UNL     1       1.935   1.798   6.884  1.00  0.00     0.261 C 
BRANCH  30  31
ATOM     31  O   UNL     1       3.210   2.466   6.811  1.00  0.00    -0.460 OA
BRANCH  31  32
ATOM     32  C   UNL     1       4.050   2.150   5.797  1.00  0.00     0.338 C 
ATOM     33  O   UNL     1       3.972   1.179   5.061  1.00  0.00    -0.246 OA
BRANCH  32  34
ATOM     34  C   UNL     1       4.916   3.332   5.539  1.00  0.00     0.060 A 
ATOM     35  C   UNL     1       5.186   3.682   4.208  1.00  0.00     0.016 A 
ATOM     36  C   UNL     1       5.373   4.146   6.580  1.00  0.00     0.016 A 
ATOM     37  C   UNL     1       5.946   4.819   3.918  1.00  0.00     0.010 A 
ATOM     38  C   UNL     1       6.138   5.279   6.290  1.00  0.00     0.010 A 
ATOM     39  C   UNL     1       6.462   5.601   4.960  1.00  0.00    -0.014 A 
BRANCH  39  40
ATOM     40  C   UNL     1       7.517   6.609   4.687  1.00  0.00     0.031 A 
ATOM     41  C   UNL     1       8.947   6.216   4.948  1.00  0.00     0.074 A 
ATOM     42  C   UNL     1       7.233   7.842   4.230  1.00  0.00     0.049 A 
ATOM     43  N   UNL     1      10.038   6.929   4.849  1.00  0.00    -0.248 NA
ATOM     44  C   UNL     1       9.172   4.829   5.389  1.00  0.00     0.031 C 
ATOM     45  C   UNL     1       5.897   8.348   3.921  1.00  0.00     0.029 A 
ATOM     46  N   UNL     1       8.064   8.905   3.971  1.00  0.00    -0.354 N 
ATOM     47  C   UNL     1      11.073   6.090   5.246  1.00  0.00     0.074 A 
ATOM     48  C   UNL     1      10.478   4.822   5.604  1.00  0.00     0.031 C 
ATOM     49  C   UNL     1       5.998   9.633   3.534  1.00  0.00     0.029 A 
ATOM     50  C   UNL     1       7.398  10.049   3.598  1.00  0.00     0.049 A 
ATOM     51  H   UNL     1       9.045   8.853   4.045  1.00  0.00     0.167 HD
ATOM     52  C   UNL     1      12.402   6.342   5.297  1.00  0.00     0.034 A 
ATOM     53  C   UNL     1       7.865  11.293   3.359  1.00  0.00     0.034 A 
ATOM     54  C   UNL     1      12.999   7.597   4.933  1.00  0.00     0.049 A 
ATOM     55  C   UNL     1       9.346  11.564   3.464  1.00  0.00     0.074 A 
ATOM     56  C   UNL     1      14.339   7.939   4.918  1.00  0.00     0.029 A 
ATOM     57  N   UNL     1      12.294   8.722   4.536  1.00  0.00    -0.354 N 
ATOM     58  N   UNL     1      10.323  10.735   3.744  1.00  0.00    -0.248 NA
ATOM     59  C   UNL     1       9.792  12.940   3.192  1.00  0.00     0.031 C 
ATOM     60  C   UNL     1      14.442   9.283   4.544  1.00  0.00     0.029 A 
ATOM     61  C   UNL     1      13.169   9.765   4.286  1.00  0.00     0.049 A 
ATOM     62  H   UNL     1      11.315   8.773   4.445  1.00  0.00     0.167 HD
ATOM     63  C   UNL     1      11.497  11.476   3.642  1.00  0.00     0.074 A 
ATOM     64  C   UNL     1      11.111  12.817   3.258  1.00  0.00     0.031 C 
ATOM     65  C   UNL     1      12.779  11.084   3.855  1.00  0.00     0.034 A 
BRANCH  52  66
ATOM     66  C   UNL     1      13.298   5.225   5.762  1.00  0.00     0.023 A 
ATOM     67  C   UNL     1      13.501   4.098   4.938  1.00  0.00     0.012 A 
ATOM     68  C   UNL     1      13.955   5.299   7.005  1.00  0.00     0.148 A 
ATOM     69  C   UNL     1      14.308   3.044   5.363  1.00  0.00     0.002 A 
ATOM     70  C   UNL     1      14.797   4.267   7.400  1.00  0.00     0.091 A 
ATOM     71  F   UNL     1      13.729   6.365   7.786  1.00  0.00    -0.205 F 
ATOM     72  C   UNL     1      14.963   3.133   6.588  1.00  0.00     0.022 A 
BRANCH  70  73
ATOM     73  S   UNL     1      15.746   4.324   8.924  1.00  0.00     0.127 S 
ATOM     74  O   UNL     1      15.059   3.321   9.736  1.00  0.00    -0.237 OA
ATOM     75  O   UNL     1      17.080   3.930   8.469  1.00  0.00    -0.237 OA
ATOM     76  O   UNL     1      15.648   5.694   9.406  1.00  0.00    -0.744 OA
ENDBRANCH  70  73
ENDBRANCH  52  66
BRANCH  53  77
ATOM     77  C   UNL     1       6.925  12.383   2.967  1.00  0.00     0.023 A 
ATOM     78  C   UNL     1       6.982  12.914   1.663  1.00  0.00     0.012 A 
ATOM     79  C   UNL     1       5.979  12.897   3.875  1.00  0.00     0.148 A 
ATOM     80  C   UNL     1       6.134  13.955   1.279  1.00  0.00     0.002 A 
ATOM     81  C   UNL     1       5.101  13.895   3.470  1.00  0.00     0.091 A 
ATOM     82  F   UNL     1       5.954  12.392   5.116  1.00  0.00    -0.205 F 
ATOM     83  C   UNL     1       5.187  14.438   2.178  1.00  0.00     0.022 A 
BRANCH  81  84
ATOM     84  S   UNL     1       3.773  14.501   4.518  1.00  0.00     0.127 S 
ATOM     85  O   UNL     1       4.182  15.884   4.749  1.00  0.00    -0.237 OA
ATOM     86  O   UNL     1       2.609  14.338   3.647  1.00  0.00    -0.237 OA
ATOM     87  O   UNL     1       3.775  13.641   5.694  1.00  0.00    -0.744 OA
ENDBRANCH  81  84
ENDBRANCH  53  77
BRANCH  65  88
ATOM     88  C   UNL     1      13.874  12.097   3.633  1.00  0.00     0.023 A 
ATOM     89  C   UNL     1      14.044  13.166   4.536  1.00  0.00     0.012 A 
ATOM     90  C   UNL     1      14.785  11.943   2.568  1.00  0.00     0.148 A 
ATOM     91  C   UNL     1      15.079  14.085   4.361  1.00  0.00     0.002 A 
ATOM     92  C   UNL     1      15.845  12.832   2.430  1.00  0.00     0.091 A 
ATOM     93  F   UNL     1      14.600  10.929   1.710  1.00  0.00    -0.205 F 
ATOM     94  C   UNL     1      15.985  13.912   3.317  1.00  0.00     0.022 A 
BRANCH  92  95
ATOM     95  S   UNL     1      17.117  12.630   1.178  1.00  0.00     0.127 S 
ATOM     96  O   UNL     1      16.809  13.726   0.261  1.00  0.00    -0.237 OA
ATOM     97  O   UNL     1      18.346  12.809   1.952  1.00  0.00    -0.237 OA
ATOM     98  O   UNL     1      16.936  11.291   0.633  1.00  0.00    -0.744 OA
ENDBRANCH  92  95
ENDBRANCH  65  88
ENDBRANCH  39  40
ENDBRANCH  32  34
ENDBRANCH  31  32
ENDBRANCH  30  31
ENDBRANCH  29  30
ENDBRANCH  28  29
ENDBRANCH  27  28
ENDBRANCH   1  27
TORSDOF 23
