REMARK SMILES CCCOc1ccccc1O[C@@H]1CC[C@@]([NH3+])(C(=O)OCCOCCOCCOC(=O)c2ccc(-c3c4nc(c(-c5cccc(S(=O)(=O)[O-])c5F)c5ccc([nH]5)c(-c5cccc(S(=O)(=O)[O-])c5F)c5nc(c(-c6cccc(S(=O)(=O)[O-])c6F)c6ccc3[nH]6)C=C5)C=C4)cc2)C1
REMARK SMILES IDX 23 1 22 2 21 3 20 4 19 5 17 6 18 7 15 8 12 9 13 10 94 11
REMARK SMILES IDX 14 12 11 13 10 14 5 15 6 16 7 17 9 18 8 19 4 20 3 21 2 22
REMARK SMILES IDX 1 23 16 24 24 28 25 29 26 30 27 31 28 32 29 33 30 34 31 35
REMARK SMILES IDX 32 36 93 37 33 38 92 39 34 40 35 41 36 42 86 43 37 44 91 45
REMARK SMILES IDX 85 46 87 47 38 48 90 49 84 50 83 51 39 53 71 54 51 55 70 56
REMARK SMILES IDX 52 57 55 58 69 59 88 60 53 61 54 62 68 64 89 65 56 66 40 67
REMARK SMILES IDX 41 68 49 69 42 70 44 71 50 72 43 73 45 74 46 75 47 76 48 77
REMARK SMILES IDX 72 78 73 79 81 80 74 81 76 82 82 83 75 84 77 85 78 86 79 87
REMARK SMILES IDX 80 88 57 89 58 90 66 91 59 92 61 93 67 94 60 95 62 96 63 97
REMARK SMILES IDX 64 98 65 99
REMARK H PARENT 16 25 16 26 16 27 87 52 55 63
REMARK Flexibility Score: inf
ROOT
ATOM      1  C   UNL     1      -0.912  -0.166   4.299  1.00  0.00     0.188 C 
ENDROOT
BRANCH   1   2
ATOM      2  O   UNL     1      -0.656  -0.232   5.682  1.00  0.00    -0.376 OA
BRANCH   2   3
ATOM      3  C   UNL     1      -0.393   0.990   6.353  1.00  0.00     0.202 C 
BRANCH   3   4
ATOM      4  C   UNL     1       0.606   2.064   5.821  1.00  0.00     0.261 C 
BRANCH   4   5
ATOM      5  O   UNL     1       0.571   2.431   4.419  1.00  0.00    -0.459 OA
BRANCH   5   6
ATOM      6  C   UNL     1       1.744   2.475   3.678  1.00  0.00     0.368 C 
ATOM      7  O   UNL     1       2.854   2.209   4.120  1.00  0.00    -0.245 OA
BRANCH   6   8
ATOM      8  C   UNL     1       1.488   3.046   2.091  1.00  0.00     0.196 C 
ATOM      9  C   UNL     1       0.425   1.178  -0.417  1.00  0.00     0.180 C 
ATOM     10  C   UNL     1      -1.131   2.258   0.300  1.00  0.00     0.052 C 
ATOM     11  C   UNL     1       2.101   1.806   0.594  1.00  0.00     0.126 C 
ATOM     12  C   UNL     1      -0.480   3.310   1.865  1.00  0.00     0.085 C 
BRANCH   9  13
ATOM     13  O   UNL     1       0.434   0.686  -1.733  1.00  0.00    -0.486 OA
BRANCH  13  14
ATOM     14  C   UNL     1       1.061   1.498  -2.587  1.00  0.00     0.161 A 
ATOM     15  C   UNL     1       1.094   2.852  -2.345  1.00  0.00     0.161 A 
ATOM     16  C   UNL     1       1.650   3.687  -3.299  1.00  0.00     0.050 A 
ATOM     17  C   UNL     1       2.186   3.131  -4.472  1.00  0.00     0.004 A 
ATOM     18  C   UNL     1       1.548   0.929  -3.756  1.00  0.00     0.050 A 
ATOM     19  C   UNL     1       2.124   1.753  -4.706  1.00  0.00     0.004 A 
BRANCH  15  20
ATOM     20  O   UNL     1       0.306   3.318  -1.337  1.00  0.00    -0.490 OA
BRANCH  20  21
ATOM     21  C   UNL     1       0.700   3.110   0.126  1.00  0.00     0.229 C 
BRANCH  21  22
ATOM     22  C   UNL     1       0.365   1.440   1.489  1.00  0.00     0.038 C 
ATOM     23  C   UNL     1       1.228  -0.095   1.714  1.00  0.00     0.007 C 
ENDBRANCH  21  22
ENDBRANCH  20  21
ENDBRANCH  15  20
ENDBRANCH  13  14
ENDBRANCH   9  13
BRANCH   8  24
ATOM     24  N   UNL     1       2.166   4.372   2.181  1.00  0.00    -0.343 N 
ATOM     25  H   UNL     1       1.777   4.901   2.962  1.00  0.00     0.345 HD
ATOM     26  H   UNL     1       2.018   4.889   1.314  1.00  0.00     0.345 HD
ATOM     27  H   UNL     1       3.166   4.234   2.328  1.00  0.00     0.345 HD
ENDBRANCH   8  24
ENDBRANCH   6   8
ENDBRANCH   5   6
ENDBRANCH   4   5
ENDBRANCH   3   4
ENDBRANCH   2   3
ENDBRANCH   1   2
BRANCH   1  28
ATOM     28  C   UNL     1      -2.053   0.722   3.788  1.00  0.00     0.188 C 
BRANCH  28  29
ATOM     29  O   UNL     1      -2.801   1.461   4.706  1.00  0.00    -0.376 OA
BRANCH  29  30
ATOM     30  C   UNL     1      -3.896   0.816   5.317  1.00  0.00     0.202 C 
BRANCH  30  31
ATOM     31  C   UNL     1      -4.447  -0.576   4.904  1.00  0.00     0.261 C 
BRANCH  31  32
ATOM     32  O   UNL     1      -3.640  -1.468   4.102  1.00  0.00    -0.460 OA
BRANCH  32  33
ATOM     33  C   UNL     1      -4.007  -1.614   2.793  1.00  0.00     0.338 C 
ATOM     34  O   UNL     1      -4.942  -1.050   2.246  1.00  0.00    -0.246 OA
BRANCH  33  35
ATOM     35  C   UNL     1      -2.970  -2.365   2.029  1.00  0.00     0.060 A 
ATOM     36  C   UNL     1      -2.256  -1.701   1.020  1.00  0.00     0.016 A 
ATOM     37  C   UNL     1      -2.727  -3.720   2.249  1.00  0.00     0.016 A 
ATOM     38  C   UNL     1      -1.277  -2.370   0.268  1.00  0.00     0.010 A 
ATOM     39  C   UNL     1      -1.761  -4.396   1.476  1.00  0.00     0.010 A 
ATOM     40  C   UNL     1      -1.013  -3.726   0.489  1.00  0.00    -0.014 A 
BRANCH  40  41
ATOM     41  C   UNL     1      -0.024  -4.456  -0.360  1.00  0.00     0.031 A 
ATOM     42  C   UNL     1      -0.495  -5.198  -1.580  1.00  0.00     0.074 A 
ATOM     43  C   UNL     1       1.291  -4.475  -0.061  1.00  0.00     0.049 A 
ATOM     44  N   UNL     1       0.164  -6.016  -2.360  1.00  0.00    -0.248 NA
ATOM     45  C   UNL     1      -1.896  -4.985  -1.972  1.00  0.00     0.031 C 
ATOM     46  C   UNL     1       1.914  -3.751   1.042  1.00  0.00     0.029 A 
ATOM     47  N   UNL     1       2.340  -5.152  -0.649  1.00  0.00    -0.354 N 
ATOM     48  C   UNL     1      -0.753  -6.465  -3.302  1.00  0.00     0.074 A 
ATOM     49  C   UNL     1      -2.007  -5.799  -3.014  1.00  0.00     0.031 C 
ATOM     50  C   UNL     1       3.228  -4.034   1.068  1.00  0.00     0.029 A 
ATOM     51  C   UNL     1       3.531  -5.020   0.031  1.00  0.00     0.049 A 
ATOM     52  H   UNL     1       2.246  -5.678  -1.475  1.00  0.00     0.167 HD
ATOM     53  C   UNL     1      -0.576  -7.361  -4.303  1.00  0.00     0.034 A 
ATOM     54  C   UNL     1       4.711  -5.663  -0.116  1.00  0.00     0.034 A 
ATOM     55  C   UNL     1       0.666  -8.028  -4.596  1.00  0.00     0.049 A 
ATOM     56  C   UNL     1       4.858  -6.723  -1.183  1.00  0.00     0.074 A 
ATOM     57  C   UNL     1       0.930  -8.944  -5.601  1.00  0.00     0.029 A 
ATOM     58  N   UNL     1       1.840  -7.881  -3.876  1.00  0.00    -0.354 N 
ATOM     59  N   UNL     1       3.998  -7.103  -2.097  1.00  0.00    -0.248 NA
ATOM     60  C   UNL     1       6.141  -7.444  -1.240  1.00  0.00     0.031 C 
ATOM     61  C   UNL     1       2.245  -9.395  -5.450  1.00  0.00     0.029 A 
ATOM     62  C   UNL     1       2.821  -8.711  -4.394  1.00  0.00     0.049 A 
ATOM     63  H   UNL     1       1.959  -7.275  -3.109  1.00  0.00     0.167 HD
ATOM     64  C   UNL     1       4.642  -8.084  -2.847  1.00  0.00     0.074 A 
ATOM     65  C   UNL     1       5.976  -8.219  -2.304  1.00  0.00     0.031 C 
ATOM     66  C   UNL     1       4.163  -8.819  -3.881  1.00  0.00     0.034 A 
BRANCH  53  67
ATOM     67  C   UNL     1      -1.778  -7.720  -5.138  1.00  0.00     0.023 A 
ATOM     68  C   UNL     1      -2.308  -6.796  -6.060  1.00  0.00     0.012 A 
ATOM     69  C   UNL     1      -2.347  -9.006  -5.040  1.00  0.00     0.148 A 
ATOM     70  C   UNL     1      -3.411  -7.135  -6.844  1.00  0.00     0.002 A 
ATOM     71  C   UNL     1      -3.412  -9.352  -5.860  1.00  0.00     0.091 A 
ATOM     72  F   UNL     1      -1.835  -9.864  -4.146  1.00  0.00    -0.205 F 
ATOM     73  C   UNL     1      -3.955  -8.414  -6.752  1.00  0.00     0.022 A 
BRANCH  71  74
ATOM     74  S   UNL     1      -4.130 -10.998  -5.873  1.00  0.00     0.127 S 
ATOM     75  O   UNL     1      -5.472 -10.738  -5.355  1.00  0.00    -0.237 OA
ATOM     76  O   UNL     1      -4.080 -11.341  -7.295  1.00  0.00    -0.237 OA
ATOM     77  O   UNL     1      -3.283 -11.817  -5.017  1.00  0.00    -0.744 OA
ENDBRANCH  71  74
ENDBRANCH  53  67
BRANCH  54  78
ATOM     78  C   UNL     1       5.853  -5.383   0.809  1.00  0.00     0.023 A 
ATOM     79  C   UNL     1       7.057  -4.850   0.304  1.00  0.00     0.012 A 
ATOM     80  C   UNL     1       5.766  -5.686   2.182  1.00  0.00     0.148 A 
ATOM     81  C   UNL     1       8.159  -4.659   1.140  1.00  0.00     0.002 A 
ATOM     82  C   UNL     1       6.845  -5.432   3.021  1.00  0.00     0.091 A 
ATOM     83  F   UNL     1       4.627  -6.221   2.642  1.00  0.00    -0.205 F 
ATOM     84  C   UNL     1       8.050  -4.939   2.500  1.00  0.00     0.022 A 
BRANCH  82  85
ATOM     85  S   UNL     1       6.755  -5.653   4.801  1.00  0.00     0.127 S 
ATOM     86  O   UNL     1       7.715  -6.732   5.018  1.00  0.00    -0.237 OA
ATOM     87  O   UNL     1       7.182  -4.340   5.285  1.00  0.00    -0.237 OA
ATOM     88  O   UNL     1       5.365  -5.981   5.090  1.00  0.00    -0.744 OA
ENDBRANCH  82  85
ENDBRANCH  54  78
BRANCH  66  89
ATOM     89  C   UNL     1       5.091  -9.813  -4.539  1.00  0.00     0.023 A 
ATOM     90  C   UNL     1       5.475 -10.985  -3.858  1.00  0.00     0.012 A 
ATOM     91  C   UNL     1       5.519  -9.620  -5.869  1.00  0.00     0.148 A 
ATOM     92  C   UNL     1       6.297 -11.930  -4.475  1.00  0.00     0.002 A 
ATOM     93  C   UNL     1       6.293 -10.589  -6.496  1.00  0.00     0.091 A 
ATOM     94  F   UNL     1       5.153  -8.494  -6.500  1.00  0.00    -0.205 F 
ATOM     95  C   UNL     1       6.696 -11.738  -5.796  1.00  0.00     0.022 A 
BRANCH  93  96
ATOM     96  S   UNL     1       6.780 -10.476  -8.222  1.00  0.00     0.127 S 
ATOM     97  O   UNL     1       8.232 -10.345  -8.114  1.00  0.00    -0.237 OA
ATOM     98  O   UNL     1       6.321 -11.758  -8.755  1.00  0.00    -0.237 OA
ATOM     99  O   UNL     1       6.093  -9.310  -8.762  1.00  0.00    -0.744 OA
ENDBRANCH  93  96
ENDBRANCH  66  89
ENDBRANCH  40  41
ENDBRANCH  33  35
ENDBRANCH  32  33
ENDBRANCH  31  32
ENDBRANCH  30  31
ENDBRANCH  29  30
ENDBRANCH  28  29
ENDBRANCH   1  28
TORSDOF 26
