REMARK SMILES [NH3+][C@@]1(C(=O)OCCOCCOCCOC(=O)c2ccc(-c3c4nc(c(-c5cccc(S(=O)(=O)[O-])c5F)c5ccc([nH]5)c(-c5cccc(S(=O)(=O)[O-])c5F)c5nc(c(-c6cccc(S(=O)(=O)[O-])c6F)c6ccc3[nH]6)C=C5)C=C4)cc2)CC[C@@H](Sc2ccc(Cl)c(Cl)c2)C1
REMARK SMILES IDX 10 1 9 2 8 3 7 4 6 5 5 6 3 7 4 8 2 9 80 10 92 11 81 12 82 13
REMARK SMILES IDX 1 14 83 18 84 19 85 20 91 21 86 22 89 23 87 24 90 25 88 26
REMARK SMILES IDX 11 27 12 28 13 29 14 30 15 31 16 32 17 33 18 34 79 35 19 36
REMARK SMILES IDX 78 37 20 38 21 39 22 40 72 41 23 42 77 43 71 44 73 45 24 46
REMARK SMILES IDX 76 47 70 48 69 49 25 51 57 52 37 53 56 54 38 55 41 56 55 57
REMARK SMILES IDX 74 58 39 59 40 60 54 62 75 63 42 64 26 65 27 66 35 67 28 68
REMARK SMILES IDX 30 69 36 70 29 71 31 72 32 73 33 74 34 75 58 76 59 77 67 78
REMARK SMILES IDX 60 79 62 80 68 81 61 82 63 83 64 84 65 85 66 86 43 87 44 88
REMARK SMILES IDX 52 89 45 90 47 91 53 92 46 93 48 94 49 95 50 96 51 97
REMARK H PARENT 1 15 1 16 1 17 73 50 41 61
REMARK Flexibility Score: inf
ROOT
ATOM      1  C   UNL     1      -2.208   1.523   0.362  1.00  0.00     0.188 C 
ENDROOT
BRANCH   1   2
ATOM      2  C   UNL     1      -2.638   0.092   0.020  1.00  0.00     0.188 C 
BRANCH   2   3
ATOM      3  O   UNL     1      -3.804  -0.413   0.650  1.00  0.00    -0.376 OA
BRANCH   3   4
ATOM      4  C   UNL     1      -3.877  -0.379   2.074  1.00  0.00     0.202 C 
BRANCH   4   5
ATOM      5  C   UNL     1      -2.649  -0.781   2.912  1.00  0.00     0.261 C 
BRANCH   5   6
ATOM      6  O   UNL     1      -1.463   0.003   2.656  1.00  0.00    -0.459 OA
BRANCH   6   7
ATOM      7  C   UNL     1      -0.302  -0.695   2.525  1.00  0.00     0.368 C 
ATOM      8  O   UNL     1      -0.218  -1.905   2.720  1.00  0.00    -0.245 OA
BRANCH   7   9
ATOM      9  C   UNL     1       0.916   0.176   2.050  1.00  0.00     0.193 C 
ATOM     10  C   UNL     1       2.091  -0.138   2.994  1.00  0.00     0.082 C 
ATOM     11  C   UNL     1       0.771   1.717   2.132  1.00  0.00     0.095 C 
ATOM     12  C   UNL     1       2.003   0.934   4.071  1.00  0.00     0.022 C 
ATOM     13  C   UNL     1       1.588   2.198   3.332  1.00  0.00     0.059 C 
BRANCH   9  14
ATOM     14  N   UNL     1       1.250  -0.247   0.674  1.00  0.00    -0.343 N 
ATOM     15  H   UNL     1       1.341  -1.263   0.643  1.00  0.00     0.345 HD
ATOM     16  H   UNL     1       2.131   0.181   0.390  1.00  0.00     0.345 HD
ATOM     17  H   UNL     1       0.509   0.048   0.038  1.00  0.00     0.345 HD
ENDBRANCH   9  14
BRANCH  13  18
ATOM     18  S   UNL     1       2.933   3.389   2.907  1.00  0.00    -0.122 SA
BRANCH  18  19
ATOM     19  C   UNL     1       4.139   2.393   2.060  1.00  0.00     0.009 A 
ATOM     20  C   UNL     1       5.273   1.957   2.752  1.00  0.00     0.017 A 
ATOM     21  C   UNL     1       4.011   2.091   0.702  1.00  0.00     0.037 A 
ATOM     22  C   UNL     1       6.245   1.187   2.107  1.00  0.00     0.023 A 
ATOM     23  C   UNL     1       4.974   1.305   0.056  1.00  0.00     0.060 A 
ATOM     24  C   UNL     1       6.093   0.850   0.760  1.00  0.00     0.059 A 
ATOM     25  Cl  UNL     1       4.709   0.925  -1.608  1.00  0.00    -0.083 Cl
ATOM     26  Cl  UNL     1       7.324  -0.116   0.032  1.00  0.00    -0.083 Cl
ENDBRANCH  18  19
ENDBRANCH  13  18
ENDBRANCH   7   9
ENDBRANCH   6   7
ENDBRANCH   5   6
ENDBRANCH   4   5
ENDBRANCH   3   4
ENDBRANCH   2   3
ENDBRANCH   1   2
BRANCH   1  27
ATOM     27  O   UNL     1      -2.866   2.110   1.459  1.00  0.00    -0.376 OA
BRANCH  27  28
ATOM     28  C   UNL     1      -3.809   3.147   1.236  1.00  0.00     0.202 C 
BRANCH  28  29
ATOM     29  C   UNL     1      -4.711   3.233  -0.015  1.00  0.00     0.261 C 
BRANCH  29  30
ATOM     30  O   UNL     1      -4.189   2.766  -1.266  1.00  0.00    -0.460 OA
BRANCH  30  31
ATOM     31  C   UNL     1      -3.301   3.555  -1.918  1.00  0.00     0.338 C 
ATOM     32  O   UNL     1      -2.899   4.652  -1.562  1.00  0.00    -0.246 OA
BRANCH  31  33
ATOM     33  C   UNL     1      -2.688   2.723  -2.983  1.00  0.00     0.060 A 
ATOM     34  C   UNL     1      -1.314   2.435  -2.921  1.00  0.00     0.016 A 
ATOM     35  C   UNL     1      -3.478   2.158  -3.984  1.00  0.00     0.016 A 
ATOM     36  C   UNL     1      -0.730   1.575  -3.854  1.00  0.00     0.010 A 
ATOM     37  C   UNL     1      -2.885   1.327  -4.938  1.00  0.00     0.010 A 
ATOM     38  C   UNL     1      -1.508   1.040  -4.887  1.00  0.00    -0.014 A 
BRANCH  38  39
ATOM     39  C   UNL     1      -0.881   0.310  -6.016  1.00  0.00     0.031 A 
ATOM     40  C   UNL     1      -0.621   1.062  -7.291  1.00  0.00     0.074 A 
ATOM     41  C   UNL     1      -0.613  -1.006  -5.941  1.00  0.00     0.049 A 
ATOM     42  N   UNL     1      -0.237   0.613  -8.455  1.00  0.00    -0.248 NA
ATOM     43  C   UNL     1      -0.832   2.519  -7.244  1.00  0.00     0.031 C 
ATOM     44  C   UNL     1      -0.792  -1.842  -4.756  1.00  0.00     0.029 A 
ATOM     45  N   UNL     1      -0.171  -1.879  -6.907  1.00  0.00    -0.354 N 
ATOM     46  C   UNL     1      -0.205   1.720  -9.294  1.00  0.00     0.074 A 
ATOM     47  C   UNL     1      -0.600   2.865  -8.502  1.00  0.00     0.031 C 
ATOM     48  C   UNL     1      -0.506  -3.117  -5.077  1.00  0.00     0.029 A 
ATOM     49  C   UNL     1      -0.168  -3.192  -6.497  1.00  0.00     0.049 A 
ATOM     50  H   UNL     1       0.116  -1.591  -7.804  1.00  0.00     0.167 HD
ATOM     51  C   UNL     1       0.122   1.779 -10.605  1.00  0.00     0.034 A 
ATOM     52  C   UNL     1       0.038  -4.326  -7.200  1.00  0.00     0.034 A 
ATOM     53  C   UNL     1       0.525   0.642 -11.387  1.00  0.00     0.049 A 
ATOM     54  C   UNL     1       0.344  -4.239  -8.675  1.00  0.00     0.074 A 
ATOM     55  C   UNL     1       0.932   0.612 -12.709  1.00  0.00     0.029 A 
ATOM     56  N   UNL     1       0.547  -0.666 -10.931  1.00  0.00    -0.354 N 
ATOM     57  N   UNL     1       0.484  -3.176  -9.431  1.00  0.00    -0.248 NA
ATOM     58  C   UNL     1       0.536  -5.510  -9.393  1.00  0.00     0.031 C 
ATOM     59  C   UNL     1       1.155  -0.721 -13.066  1.00  0.00     0.029 A 
ATOM     60  C   UNL     1       0.930  -1.516 -11.954  1.00  0.00     0.049 A 
ATOM     61  H   UNL     1       0.324  -0.949 -10.015  1.00  0.00     0.167 HD
ATOM     62  C   UNL     1       0.812  -3.647 -10.699  1.00  0.00     0.074 A 
ATOM     63  C   UNL     1       0.869  -5.091 -10.607  1.00  0.00     0.031 C 
ATOM     64  C   UNL     1       1.032  -2.948 -11.841  1.00  0.00     0.034 A 
BRANCH  51  65
ATOM     65  C   UNL     1       0.055   3.120 -11.285  1.00  0.00     0.023 A 
ATOM     66  C   UNL     1       1.021   4.104 -10.998  1.00  0.00     0.012 A 
ATOM     67  C   UNL     1      -0.934   3.380 -12.253  1.00  0.00     0.148 A 
ATOM     68  C   UNL     1       0.985   5.340 -11.643  1.00  0.00     0.002 A 
ATOM     69  C   UNL     1      -0.935   4.595 -12.926  1.00  0.00     0.091 A 
ATOM     70  F   UNL     1      -1.857   2.438 -12.494  1.00  0.00    -0.205 F 
ATOM     71  C   UNL     1       0.016   5.580 -12.613  1.00  0.00     0.022 A 
BRANCH  69  72
ATOM     72  S   UNL     1      -2.091   4.971 -14.247  1.00  0.00     0.127 S 
ATOM     73  O   UNL     1      -2.914   6.012 -13.631  1.00  0.00    -0.237 OA
ATOM     74  O   UNL     1      -1.201   5.445 -15.307  1.00  0.00    -0.237 OA
ATOM     75  O   UNL     1      -2.784   3.725 -14.544  1.00  0.00    -0.744 OA
ENDBRANCH  69  72
ENDBRANCH  51  65
BRANCH  52  76
ATOM     76  C   UNL     1      -0.041  -5.653  -6.523  1.00  0.00     0.023 A 
ATOM     77  C   UNL     1       1.126  -6.431  -6.385  1.00  0.00     0.012 A 
ATOM     78  C   UNL     1      -1.260  -6.152  -6.025  1.00  0.00     0.148 A 
ATOM     79  C   UNL     1       1.073  -7.692  -5.790  1.00  0.00     0.002 A 
ATOM     80  C   UNL     1      -1.296  -7.385  -5.385  1.00  0.00     0.091 A 
ATOM     81  F   UNL     1      -2.363  -5.407  -6.185  1.00  0.00    -0.205 F 
ATOM     82  C   UNL     1      -0.134  -8.165  -5.282  1.00  0.00     0.022 A 
BRANCH  80  83
ATOM     83  S   UNL     1      -2.779  -8.028  -4.602  1.00  0.00     0.127 S 
ATOM     84  O   UNL     1      -3.088  -9.180  -5.445  1.00  0.00    -0.237 OA
ATOM     85  O   UNL     1      -2.292  -8.358  -3.263  1.00  0.00    -0.237 OA
ATOM     86  O   UNL     1      -3.749  -6.942  -4.641  1.00  0.00    -0.744 OA
ENDBRANCH  80  83
ENDBRANCH  52  76
BRANCH  64  87
ATOM     87  C   UNL     1       1.390  -3.717 -13.088  1.00  0.00     0.023 A 
ATOM     88  C   UNL     1       0.404  -4.468 -13.758  1.00  0.00     0.012 A 
ATOM     89  C   UNL     1       2.677  -3.608 -13.653  1.00  0.00     0.148 A 
ATOM     90  C   UNL     1       0.700  -5.117 -14.957  1.00  0.00     0.002 A 
ATOM     91  C   UNL     1       2.950  -4.215 -14.873  1.00  0.00     0.091 A 
ATOM     92  F   UNL     1       3.604  -2.896 -12.995  1.00  0.00    -0.205 F 
ATOM     93  C   UNL     1       1.966  -4.980 -15.520  1.00  0.00     0.022 A 
BRANCH  91  94
ATOM     94  S   UNL     1       4.519  -4.016 -15.727  1.00  0.00     0.127 S 
ATOM     95  O   UNL     1       5.055  -5.376 -15.685  1.00  0.00    -0.237 OA
ATOM     96  O   UNL     1       4.092  -3.569 -17.053  1.00  0.00    -0.237 OA
ATOM     97  O   UNL     1       5.273  -3.030 -14.965  1.00  0.00    -0.744 OA
ENDBRANCH  91  94
ENDBRANCH  64  87
ENDBRANCH  38  39
ENDBRANCH  31  33
ENDBRANCH  30  31
ENDBRANCH  29  30
ENDBRANCH  28  29
ENDBRANCH  27  28
ENDBRANCH   1  27
TORSDOF 23
