REMARK SMILES C[C@@]([NH2+]CCCO)(C(=O)OCCOCCOCCOC(=O)c1ccc(-c2c3nc(c(-c4cccc(S(=O)(=O)[O-])c4F)c4ccc([nH]4)c(-c4cccc(S(=O)(=O)[O-])c4F)c4nc(c(-c5cccc(S(=O)(=O)[O-])c5F)c5ccc2[nH]5)C=C4)C=C3)cc1)C(F)(F)F
REMARK SMILES IDX 14 1 13 2 12 3 11 4 10 5 8 6 9 7 2 8 1 9 3 10 4 13 5 14 6 15
REMARK SMILES IDX 7 16 85 18 86 19 87 20 88 21 15 22 16 23 17 24 18 25 19 26
REMARK SMILES IDX 20 27 21 28 22 29 23 30 84 31 24 32 83 33 25 34 26 35 27 36
REMARK SMILES IDX 77 37 28 38 82 39 76 40 78 41 29 42 81 43 75 44 74 45 30 47
REMARK SMILES IDX 62 48 42 49 61 50 43 51 46 52 60 53 79 54 44 55 45 56 59 58
REMARK SMILES IDX 80 59 47 60 31 61 32 62 40 63 33 64 35 65 41 66 34 67 36 68
REMARK SMILES IDX 37 69 38 70 39 71 63 72 64 73 72 74 65 75 67 76 73 77 66 78
REMARK SMILES IDX 68 79 69 80 70 81 71 82 48 83 49 84 57 85 50 86 52 87 58 88
REMARK SMILES IDX 51 89 53 90 54 91 55 92 56 93
REMARK H PARENT 3 11 3 12 7 17 78 46 46 57
REMARK Flexibility Score: inf
ROOT
ATOM      1  C   UNL     1      -2.443   1.809  -0.066  1.00  0.00     0.188 C 
ENDROOT
BRANCH   1   2
ATOM      2  O   UNL     1      -3.702   1.414  -0.591  1.00  0.00    -0.376 OA
BRANCH   2   3
ATOM      3  C   UNL     1      -3.979   0.050  -0.857  1.00  0.00     0.202 C 
BRANCH   3   4
ATOM      4  C   UNL     1      -3.037  -0.772  -1.751  1.00  0.00     0.261 C 
BRANCH   4   5
ATOM      5  O   UNL     1      -1.633  -0.761  -1.416  1.00  0.00    -0.458 OA
BRANCH   5   6
ATOM      6  C   UNL     1      -0.840   0.002  -2.220  1.00  0.00     0.377 C 
ATOM      7  O   UNL     1      -1.292   0.682  -3.136  1.00  0.00    -0.244 OA
BRANCH   6   8
ATOM      8  C   UNL     1       0.670  -0.098  -1.919  1.00  0.00     0.287 C 
ATOM      9  C   UNL     1       1.050  -0.899  -0.646  1.00  0.00     0.103 C 
BRANCH   8  10
ATOM     10  N   UNL     1       1.378  -0.906  -2.993  1.00  0.00    -0.325 N 
ATOM     11  H   UNL     1       1.208  -1.891  -2.790  1.00  0.00     0.347 HD
ATOM     12  H   UNL     1       2.349  -0.599  -2.940  1.00  0.00     0.347 HD
BRANCH  10  13
ATOM     13  C   UNL     1       1.005  -0.681  -4.388  1.00  0.00     0.264 C 
BRANCH  13  14
ATOM     14  C   UNL     1       1.411   0.649  -5.026  1.00  0.00     0.089 C 
BRANCH  14  15
ATOM     15  C   UNL     1       2.898   0.970  -4.939  1.00  0.00     0.162 C 
BRANCH  15  16
ATOM     16  O   UNL     1       3.665   0.032  -5.684  1.00  0.00    -0.396 OA
ATOM     17  H   UNL     1       3.526  -0.858  -5.324  1.00  0.00     0.210 HD
ENDBRANCH  15  16
ENDBRANCH  14  15
ENDBRANCH  13  14
ENDBRANCH  10  13
ENDBRANCH   8  10
BRANCH   8  18
ATOM     18  C   UNL     1       1.144   1.366  -1.682  1.00  0.00     0.455 C 
ATOM     19  F   UNL     1       0.730   1.851  -0.485  1.00  0.00    -0.164 F 
ATOM     20  F   UNL     1       2.504   1.402  -1.655  1.00  0.00    -0.164 F 
ATOM     21  F   UNL     1       0.755   2.251  -2.614  1.00  0.00    -0.164 F 
ENDBRANCH   8  18
ENDBRANCH   6   8
ENDBRANCH   5   6
ENDBRANCH   4   5
ENDBRANCH   3   4
ENDBRANCH   2   3
ENDBRANCH   1   2
BRANCH   1  22
ATOM     22  C   UNL     1      -1.719   0.898   0.942  1.00  0.00     0.188 C 
BRANCH  22  23
ATOM     23  O   UNL     1      -2.466  -0.201   1.397  1.00  0.00    -0.376 OA
BRANCH  23  24
ATOM     24  C   UNL     1      -3.051  -0.149   2.680  1.00  0.00     0.202 C 
BRANCH  24  25
ATOM     25  C   UNL     1      -3.635   1.143   3.284  1.00  0.00     0.261 C 
BRANCH  25  26
ATOM     26  O   UNL     1      -3.126   2.400   2.823  1.00  0.00    -0.460 OA
BRANCH  26  27
ATOM     27  C   UNL     1      -2.008   2.880   3.425  1.00  0.00     0.338 C 
ATOM     28  O   UNL     1      -1.364   2.337   4.298  1.00  0.00    -0.246 OA
BRANCH  27  29
ATOM     29  C   UNL     1      -1.573   4.085   2.675  1.00  0.00     0.060 A 
ATOM     30  C   UNL     1      -0.337   4.069   2.011  1.00  0.00     0.016 A 
ATOM     31  C   UNL     1      -2.384   5.220   2.621  1.00  0.00     0.016 A 
ATOM     32  C   UNL     1       0.107   5.199   1.320  1.00  0.00     0.010 A 
ATOM     33  C   UNL     1      -1.926   6.359   1.952  1.00  0.00     0.010 A 
ATOM     34  C   UNL     1      -0.664   6.367   1.328  1.00  0.00    -0.014 A 
BRANCH  34  35
ATOM     35  C   UNL     1      -0.076   7.662   0.898  1.00  0.00     0.031 A 
ATOM     36  C   UNL     1       0.464   8.576   1.966  1.00  0.00     0.074 A 
ATOM     37  C   UNL     1      -0.050   8.047  -0.390  1.00  0.00     0.049 A 
ATOM     38  N   UNL     1       0.895   9.805   1.871  1.00  0.00    -0.248 NA
ATOM     39  C   UNL     1       0.514   8.023   3.330  1.00  0.00     0.031 C 
ATOM     40  C   UNL     1      -0.504   7.248  -1.524  1.00  0.00     0.029 A 
ATOM     41  N   UNL     1       0.346   9.238  -0.951  1.00  0.00    -0.354 N 
ATOM     42  C   UNL     1       1.222  10.190   3.166  1.00  0.00     0.074 A 
ATOM     43  C   UNL     1       0.942   9.063   4.028  1.00  0.00     0.031 C 
ATOM     44  C   UNL     1      -0.402   7.987  -2.644  1.00  0.00     0.029 A 
ATOM     45  C   UNL     1       0.086   9.322  -2.299  1.00  0.00     0.049 A 
ATOM     46  H   UNL     1       0.774   9.961  -0.438  1.00  0.00     0.167 HD
ATOM     47  C   UNL     1       1.713  11.374   3.601  1.00  0.00     0.034 A 
ATOM     48  C   UNL     1       0.191  10.367  -3.145  1.00  0.00     0.034 A 
ATOM     49  C   UNL     1       1.998  12.492   2.745  1.00  0.00     0.049 A 
ATOM     50  C   UNL     1       0.696  11.694  -2.631  1.00  0.00     0.074 A 
ATOM     51  C   UNL     1       2.530  13.723   3.087  1.00  0.00     0.029 A 
ATOM     52  N   UNL     1       1.757  12.525   1.381  1.00  0.00    -0.354 N 
ATOM     53  N   UNL     1       1.082  12.021  -1.421  1.00  0.00    -0.248 NA
ATOM     54  C   UNL     1       0.803  12.791  -3.606  1.00  0.00     0.031 C 
ATOM     55  C   UNL     1       2.571  14.515   1.936  1.00  0.00     0.029 A 
ATOM     56  C   UNL     1       2.115  13.759   0.867  1.00  0.00     0.049 A 
ATOM     57  H   UNL     1       1.386  11.780   0.854  1.00  0.00     0.167 HD
ATOM     58  C   UNL     1       1.520  13.340  -1.500  1.00  0.00     0.074 A 
ATOM     59  C   UNL     1       1.359  13.751  -2.879  1.00  0.00     0.031 C 
ATOM     60  C   UNL     1       2.005  14.141  -0.518  1.00  0.00     0.034 A 
BRANCH  47  61
ATOM     61  C   UNL     1       1.963  11.520   5.079  1.00  0.00     0.023 A 
ATOM     62  C   UNL     1       3.022  10.818   5.689  1.00  0.00     0.012 A 
ATOM     63  C   UNL     1       1.163  12.379   5.859  1.00  0.00     0.148 A 
ATOM     64  C   UNL     1       3.255  10.935   7.059  1.00  0.00     0.002 A 
ATOM     65  C   UNL     1       1.434  12.531   7.212  1.00  0.00     0.091 A 
ATOM     66  F   UNL     1       0.147  13.020   5.265  1.00  0.00    -0.205 F 
ATOM     67  C   UNL     1       2.469  11.798   7.817  1.00  0.00     0.022 A 
BRANCH  65  68
ATOM     68  S   UNL     1       0.531  13.680   8.256  1.00  0.00     0.127 S 
ATOM     69  O   UNL     1      -0.226  12.768   9.112  1.00  0.00    -0.237 OA
ATOM     70  O   UNL     1       1.614  14.393   8.934  1.00  0.00    -0.237 OA
ATOM     71  O   UNL     1      -0.268  14.500   7.357  1.00  0.00    -0.744 OA
ENDBRANCH  65  68
ENDBRANCH  47  61
BRANCH  48  72
ATOM     72  C   UNL     1      -0.183  10.208  -4.581  1.00  0.00     0.023 A 
ATOM     73  C   UNL     1       0.817  10.267  -5.571  1.00  0.00     0.012 A 
ATOM     74  C   UNL     1      -1.522  10.002  -4.968  1.00  0.00     0.148 A 
ATOM     75  C   UNL     1       0.487  10.154  -6.923  1.00  0.00     0.002 A 
ATOM     76  C   UNL     1      -1.836   9.834  -6.312  1.00  0.00     0.091 A 
ATOM     77  F   UNL     1      -2.460   9.967  -4.012  1.00  0.00    -0.205 F 
ATOM     78  C   UNL     1      -0.836   9.928  -7.292  1.00  0.00     0.022 A 
BRANCH  76  79
ATOM     79  S   UNL     1      -3.492   9.428  -6.877  1.00  0.00     0.127 S 
ATOM     80  O   UNL     1      -3.847  10.620  -7.644  1.00  0.00    -0.237 OA
ATOM     81  O   UNL     1      -3.248   8.229  -7.679  1.00  0.00    -0.237 OA
ATOM     82  O   UNL     1      -4.278   9.201  -5.672  1.00  0.00    -0.744 OA
ENDBRANCH  76  79
ENDBRANCH  48  72
BRANCH  60  83
ATOM     83  C   UNL     1       2.467  15.527  -0.893  1.00  0.00     0.023 A 
ATOM     84  C   UNL     1       1.531  16.524  -1.231  1.00  0.00     0.012 A 
ATOM     85  C   UNL     1       3.836  15.863  -0.819  1.00  0.00     0.148 A 
ATOM     86  C   UNL     1       1.952  17.822  -1.521  1.00  0.00     0.002 A 
ATOM     87  C   UNL     1       4.241  17.170  -1.056  1.00  0.00     0.091 A 
ATOM     88  F   UNL     1       4.714  14.898  -0.510  1.00  0.00    -0.205 F 
ATOM     89  C   UNL     1       3.303  18.148  -1.421  1.00  0.00     0.022 A 
BRANCH  87  90
ATOM     90  S   UNL     1       5.944  17.705  -0.850  1.00  0.00     0.127 S 
ATOM     91  O   UNL     1       6.345  17.961  -2.232  1.00  0.00    -0.237 OA
ATOM     92  O   UNL     1       5.794  18.905  -0.026  1.00  0.00    -0.237 OA
ATOM     93  O   UNL     1       6.637  16.604  -0.195  1.00  0.00    -0.744 OA
ENDBRANCH  87  90
ENDBRANCH  60  83
ENDBRANCH  34  35
ENDBRANCH  27  29
ENDBRANCH  26  27
ENDBRANCH  25  26
ENDBRANCH  24  25
ENDBRANCH  23  24
ENDBRANCH  22  23
ENDBRANCH   1  22
TORSDOF 26
