REMARK SMILES CC(C)[C@@H]1C(=O)Nc2ccccc2N1C(=O)N[C@H](Cc1ccccc1)C(=O)OCCOCCOCCOC(=O)c1ccc(-c2c3nc(c(-c4cccc(S(=O)(=O)[O-])c4F)c4ccc([nH]4)c(-c4cccc(S(=O)(=O)[O-])c4F)c4nc(c(-c5cccc(S(=O)(=O)[O-])c5F)c5ccc2[nH]5)C=C4)C=C3)cc1
REMARK SMILES IDX 32 1 31 2 30 3 29 4 28 5 26 6 27 7 18 8 17 9 15 10 16 11
REMARK SMILES IDX 14 13 4 14 5 15 6 16 7 17 13 18 8 19 12 21 9 22 11 23 10 24
REMARK SMILES IDX 2 25 1 26 3 27 19 28 20 29 21 30 25 31 22 32 24 33 23 34
REMARK SMILES IDX 33 35 34 36 35 37 36 38 37 39 38 40 39 41 40 42 41 43 102 44
REMARK SMILES IDX 42 45 101 46 43 47 44 48 45 49 95 50 46 51 100 52 94 53
REMARK SMILES IDX 96 54 47 55 99 56 93 57 92 58 48 60 80 61 60 62 79 63 61 64
REMARK SMILES IDX 64 65 78 66 97 67 62 68 63 69 77 71 98 72 65 73 49 74 50 75
REMARK SMILES IDX 58 76 51 77 53 78 59 79 52 80 54 81 55 82 56 83 57 84 81 85
REMARK SMILES IDX 82 86 90 87 83 88 85 89 91 90 84 91 86 92 87 93 88 94 89 95
REMARK SMILES IDX 66 96 67 97 75 98 68 99 70 100 76 101 69 102 71 103 72 104
REMARK SMILES IDX 73 105 74 106
REMARK H PARENT 17 12 7 20 96 59 64 70
REMARK Flexibility Score: inf
ROOT
ATOM      1  C   UNL     1       1.631   2.688   4.447  1.00  0.00     0.188 C 
ENDROOT
BRANCH   1   2
ATOM      2  O   UNL     1       2.813   2.798   5.223  1.00  0.00    -0.376 OA
BRANCH   2   3
ATOM      3  C   UNL     1       3.935   2.209   4.541  1.00  0.00     0.202 C 
BRANCH   3   4
ATOM      4  C   UNL     1       3.716   0.787   3.942  1.00  0.00     0.261 C 
BRANCH   4   5
ATOM      5  O   UNL     1       3.096   0.763   2.615  1.00  0.00    -0.462 OA
BRANCH   5   6
ATOM      6  C   UNL     1       2.153  -0.193   2.316  1.00  0.00     0.329 C 
ATOM      7  O   UNL     1       1.547  -0.834   3.167  1.00  0.00    -0.250 OA
BRANCH   6   8
ATOM      8  C   UNL     1       2.052  -0.501   0.780  1.00  0.00     0.198 C 
BRANCH   8   9
ATOM      9  N   UNL     1       3.302  -0.138   0.048  1.00  0.00    -0.324 N 
ATOM     10  C   UNL     1       4.149   0.832  -0.284  1.00  0.00     0.323 C 
ATOM     11  O   UNL     1       4.960   0.413  -1.131  1.00  0.00    -0.248 OA
ATOM     12  H   UNL     1       3.643  -0.966  -0.362  1.00  0.00     0.166 HD
BRANCH  10  13
ATOM     13  N   UNL     1       4.279   2.084   0.251  1.00  0.00    -0.280 N 
ATOM     14  C   UNL     1       3.257   3.148   0.640  1.00  0.00     0.184 C 
ATOM     15  C   UNL     1       3.732   4.616   0.376  1.00  0.00     0.247 C 
ATOM     16  O   UNL     1       3.005   5.613   0.409  1.00  0.00    -0.272 OA
ATOM     17  N   UNL     1       5.051   4.858   0.234  1.00  0.00    -0.322 N 
ATOM     18  C   UNL     1       5.676   2.530   0.404  1.00  0.00     0.070 A 
ATOM     19  C   UNL     1       6.019   3.883   0.330  1.00  0.00     0.065 A 
ATOM     20  H   UNL     1       5.337   5.782   0.051  1.00  0.00     0.170 HD
ATOM     21  C   UNL     1       6.742   1.628   0.589  1.00  0.00     0.028 A 
ATOM     22  C   UNL     1       7.349   4.320   0.331  1.00  0.00     0.028 A 
ATOM     23  C   UNL     1       8.078   2.059   0.622  1.00  0.00     0.002 A 
ATOM     24  C   UNL     1       8.382   3.406   0.472  1.00  0.00     0.002 A 
BRANCH  14  25
ATOM     25  C   UNL     1       1.815   3.145   0.055  1.00  0.00     0.015 C 
ATOM     26  C   UNL     1       1.763   2.821  -1.430  1.00  0.00     0.010 C 
ATOM     27  C   UNL     1       0.751   2.574   0.975  1.00  0.00     0.010 C 
ENDBRANCH  14  25
ENDBRANCH  10  13
ENDBRANCH   8   9
BRANCH   8  28
ATOM     28  C   UNL     1       0.866  -0.442  -0.272  1.00  0.00     0.072 C 
BRANCH  28  29
ATOM     29  C   UNL     1      -0.660  -0.365  -0.225  1.00  0.00    -0.045 A 
ATOM     30  C   UNL     1      -1.317   0.827  -0.612  1.00  0.00     0.004 A 
ATOM     31  C   UNL     1      -1.464  -1.507  -0.161  1.00  0.00     0.004 A 
ATOM     32  C   UNL     1      -2.688   0.911  -0.867  1.00  0.00     0.000 A 
ATOM     33  C   UNL     1      -2.839  -1.443  -0.473  1.00  0.00     0.000 A 
ATOM     34  C   UNL     1      -3.452  -0.238  -0.817  1.00  0.00     0.000 A 
ENDBRANCH  28  29
ENDBRANCH   8  28
ENDBRANCH   6   8
ENDBRANCH   5   6
ENDBRANCH   4   5
ENDBRANCH   3   4
ENDBRANCH   2   3
ENDBRANCH   1   2
BRANCH   1  35
ATOM     35  C   UNL     1       0.707   3.890   4.535  1.00  0.00     0.188 C 
BRANCH  35  36
ATOM     36  O   UNL     1       0.992   4.770   3.432  1.00  0.00    -0.376 OA
BRANCH  36  37
ATOM     37  C   UNL     1       1.098   6.144   3.775  1.00  0.00     0.202 C 
BRANCH  37  38
ATOM     38  C   UNL     1      -0.234   6.872   4.008  1.00  0.00     0.261 C 
BRANCH  38  39
ATOM     39  O   UNL     1      -1.283   5.994   4.435  1.00  0.00    -0.460 OA
BRANCH  39  40
ATOM     40  C   UNL     1      -1.991   5.426   3.423  1.00  0.00     0.338 C 
ATOM     41  O   UNL     1      -1.951   5.738   2.241  1.00  0.00    -0.246 OA
BRANCH  40  42
ATOM     42  C   UNL     1      -2.733   4.244   3.932  1.00  0.00     0.060 A 
ATOM     43  C   UNL     1      -2.952   3.171   3.054  1.00  0.00     0.016 A 
ATOM     44  C   UNL     1      -3.170   4.156   5.258  1.00  0.00     0.016 A 
ATOM     45  C   UNL     1      -3.658   2.041   3.480  1.00  0.00     0.010 A 
ATOM     46  C   UNL     1      -3.875   3.026   5.684  1.00  0.00     0.010 A 
ATOM     47  C   UNL     1      -4.165   1.984   4.785  1.00  0.00    -0.014 A 
BRANCH  47  48
ATOM     48  C   UNL     1      -5.214   0.992   5.140  1.00  0.00     0.031 A 
ATOM     49  C   UNL     1      -6.651   1.443   5.065  1.00  0.00     0.074 A 
ATOM     50  C   UNL     1      -4.928  -0.258   5.547  1.00  0.00     0.049 A 
ATOM     51  N   UNL     1      -7.743   0.805   5.394  1.00  0.00    -0.248 NA
ATOM     52  C   UNL     1      -6.881   2.807   4.556  1.00  0.00     0.031 C 
ATOM     53  C   UNL     1      -3.592  -0.836   5.657  1.00  0.00     0.029 A 
ATOM     54  N   UNL     1      -5.767  -1.262   5.974  1.00  0.00    -0.354 N 
ATOM     55  C   UNL     1      -8.784   1.696   5.160  1.00  0.00     0.074 A 
ATOM     56  C   UNL     1      -8.193   2.925   4.679  1.00  0.00     0.031 C 
ATOM     57  C   UNL     1      -3.698  -2.085   6.149  1.00  0.00     0.029 A 
ATOM     58  C   UNL     1      -5.106  -2.386   6.412  1.00  0.00     0.049 A 
ATOM     59  H   UNL     1      -6.748  -1.184   5.966  1.00  0.00     0.167 HD
ATOM     60  C   UNL     1     -10.116   1.510   5.312  1.00  0.00     0.034 A 
ATOM     61  C   UNL     1      -5.582  -3.515   6.978  1.00  0.00     0.034 A 
ATOM     62  C   UNL     1     -10.717   0.292   5.776  1.00  0.00     0.049 A 
ATOM     63  C   UNL     1      -7.071  -3.684   7.176  1.00  0.00     0.074 A 
ATOM     64  C   UNL     1     -12.061   0.004   5.934  1.00  0.00     0.029 A 
ATOM     65  N   UNL     1     -10.016  -0.836   6.168  1.00  0.00    -0.354 N 
ATOM     66  N   UNL     1      -8.050  -2.876   6.845  1.00  0.00    -0.248 NA
ATOM     67  C   UNL     1      -7.524  -4.940   7.798  1.00  0.00     0.031 C 
ATOM     68  C   UNL     1     -12.172  -1.292   6.446  1.00  0.00     0.029 A 
ATOM     69  C   UNL     1     -10.898  -1.822   6.574  1.00  0.00     0.049 A 
ATOM     70  H   UNL     1      -9.035  -0.924   6.159  1.00  0.00     0.167 HD
ATOM     71  C   UNL     1      -9.228  -3.544   7.174  1.00  0.00     0.074 A 
ATOM     72  C   UNL     1      -8.843  -4.828   7.718  1.00  0.00     0.031 C 
ATOM     73  C   UNL     1     -10.512  -3.126   7.048  1.00  0.00     0.034 A 
BRANCH  60  74
ATOM     74  C   UNL     1     -11.018   2.657   4.945  1.00  0.00     0.023 A 
ATOM     75  C   UNL     1     -11.202   2.991   3.587  1.00  0.00     0.012 A 
ATOM     76  C   UNL     1     -11.710   3.377   5.936  1.00  0.00     0.148 A 
ATOM     77  C   UNL     1     -12.035   4.048   3.224  1.00  0.00     0.002 A 
ATOM     78  C   UNL     1     -12.576   4.398   5.564  1.00  0.00     0.091 A 
ATOM     79  F   UNL     1     -11.501   3.059   7.222  1.00  0.00    -0.205 F 
ATOM     80  C   UNL     1     -12.730   4.743   4.211  1.00  0.00     0.022 A 
BRANCH  78  81
ATOM     81  S   UNL     1     -13.574   5.300   6.752  1.00  0.00     0.127 S 
ATOM     82  O   UNL     1     -12.939   6.617   6.732  1.00  0.00    -0.237 OA
ATOM     83  O   UNL     1     -14.901   5.254   6.136  1.00  0.00    -0.237 OA
ATOM     84  O   UNL     1     -13.462   4.572   8.008  1.00  0.00    -0.744 OA
ENDBRANCH  78  81
ENDBRANCH  60  74
BRANCH  61  85
ATOM     85  C   UNL     1      -4.650  -4.610   7.381  1.00  0.00     0.023 A 
ATOM     86  C   UNL     1      -4.689  -5.841   6.694  1.00  0.00     0.012 A 
ATOM     87  C   UNL     1      -3.753  -4.454   8.454  1.00  0.00     0.148 A 
ATOM     88  C   UNL     1      -3.881  -6.907   7.093  1.00  0.00     0.002 A 
ATOM     89  C   UNL     1      -2.912  -5.502   8.813  1.00  0.00     0.091 A 
ATOM     90  F   UNL     1      -3.746  -3.286   9.111  1.00  0.00    -0.205 F 
ATOM     91  C   UNL     1      -2.988  -6.735   8.146  1.00  0.00     0.022 A 
BRANCH  89  92
ATOM     92  S   UNL     1      -1.653  -5.340  10.084  1.00  0.00     0.127 S 
ATOM     93  O   UNL     1      -2.179  -6.205  11.138  1.00  0.00    -0.237 OA
ATOM     94  O   UNL     1      -0.467  -5.856   9.400  1.00  0.00    -0.237 OA
ATOM     95  O   UNL     1      -1.595  -3.921  10.403  1.00  0.00    -0.744 OA
ENDBRANCH  89  92
ENDBRANCH  61  85
BRANCH  73  96
ATOM     96  C   UNL     1     -11.616  -4.076   7.441  1.00  0.00     0.023 A 
ATOM     97  C   UNL     1     -11.856  -4.357   8.800  1.00  0.00     0.012 A 
ATOM     98  C   UNL     1     -12.475  -4.619   6.463  1.00  0.00     0.148 A 
ATOM     99  C   UNL     1     -12.913  -5.187   9.178  1.00  0.00     0.002 A 
ATOM    100  C   UNL     1     -13.555  -5.404   6.849  1.00  0.00     0.091 A 
ATOM    101  F   UNL     1     -12.223  -4.353   5.173  1.00  0.00    -0.205 F 
ATOM    102  C   UNL     1     -13.768  -5.699   8.205  1.00  0.00     0.022 A 
BRANCH 100 103
ATOM    103  S   UNL     1     -14.766  -6.024   5.674  1.00  0.00     0.127 S 
ATOM    104  O   UNL     1     -14.440  -7.448   5.634  1.00  0.00    -0.237 OA
ATOM    105  O   UNL     1     -16.032  -5.707   6.336  1.00  0.00    -0.237 OA
ATOM    106  O   UNL     1     -14.533  -5.294   4.435  1.00  0.00    -0.744 OA
ENDBRANCH 100 103
ENDBRANCH  73  96
ENDBRANCH  47  48
ENDBRANCH  40  42
ENDBRANCH  39  40
ENDBRANCH  38  39
ENDBRANCH  37  38
ENDBRANCH  36  37
ENDBRANCH  35  36
ENDBRANCH   1  35
TORSDOF 25
