REMARK SMILES Cc1noc(C)c1[C@H](C)NC(=O)NCC(=O)NCC(=O)OCCOCCOCCOC(=O)c1ccc(-c2c3nc(c(-c4cccc(S(=O)(=O)[O-])c4F)c4ccc([nH]4)c(-c4cccc(S(=O)(=O)[O-])c4F)c4nc(c(-c5cccc(S(=O)(=O)[O-])c5F)c5ccc2[nH]5)C=C4)C=C3)cc1
REMARK SMILES IDX 25 1 24 2 23 3 22 4 21 5 19 6 20 7 18 8 17 9 15 10 16 11
REMARK SMILES IDX 14 13 13 14 10 15 11 16 12 18 8 20 9 21 7 22 1 23 2 24 3 25
REMARK SMILES IDX 4 26 5 27 6 28 26 29 27 30 28 31 29 32 30 33 31 34 32 35
REMARK SMILES IDX 33 36 34 37 95 38 35 39 94 40 36 41 37 42 38 43 88 44 39 45
REMARK SMILES IDX 93 46 87 47 89 48 40 49 92 50 86 51 85 52 41 54 73 55 53 56
REMARK SMILES IDX 72 57 54 58 57 59 71 60 90 61 55 62 56 63 70 65 91 66 58 67
REMARK SMILES IDX 42 68 43 69 51 70 44 71 46 72 52 73 45 74 47 75 48 76 49 77
REMARK SMILES IDX 50 78 74 79 75 80 83 81 76 82 78 83 84 84 77 85 79 86 80 87
REMARK SMILES IDX 81 88 82 89 59 90 60 91 68 92 61 93 63 94 69 95 62 96 64 97
REMARK SMILES IDX 65 98 66 99 67 100
REMARK H PARENT 17 12 10 17 13 19 89 53 57 64
REMARK Flexibility Score: inf
ROOT
ATOM      1  C   UNL     1      -1.176   9.012  -0.011  1.00  0.00     0.188 C 
ENDROOT
BRANCH   1   2
ATOM      2  O   UNL     1      -1.574  10.001   0.924  1.00  0.00    -0.376 OA
BRANCH   2   3
ATOM      3  C   UNL     1      -0.987   9.982   2.222  1.00  0.00     0.202 C 
BRANCH   3   4
ATOM      4  C   UNL     1      -0.957   8.641   2.967  1.00  0.00     0.261 C 
BRANCH   4   5
ATOM      5  O   UNL     1       0.077   7.778   2.445  1.00  0.00    -0.462 OA
BRANCH   5   6
ATOM      6  C   UNL     1      -0.350   6.546   2.042  1.00  0.00     0.325 C 
ATOM      7  O   UNL     1      -1.452   6.078   2.303  1.00  0.00    -0.250 OA
BRANCH   6   8
ATOM      8  C   UNL     1       0.531   5.989   0.931  1.00  0.00     0.238 C 
BRANCH   8   9
ATOM      9  N   UNL     1       1.970   6.033   1.009  1.00  0.00    -0.344 N 
ATOM     10  C   UNL     1       2.826   4.975   0.980  1.00  0.00     0.239 C 
ATOM     11  O   UNL     1       3.969   5.170   0.552  1.00  0.00    -0.273 OA
ATOM     12  H   UNL     1       2.378   6.925   1.093  1.00  0.00     0.164 HD
BRANCH  10  13
ATOM     13  C   UNL     1       2.405   3.545   1.386  1.00  0.00     0.217 C 
BRANCH  13  14
ATOM     14  N   UNL     1       1.218   3.343   2.205  1.00  0.00    -0.329 N 
ATOM     15  N   UNL     1      -0.592   2.732   0.797  1.00  0.00    -0.331 N 
ATOM     16  C   UNL     1      -0.064   3.007   2.000  1.00  0.00     0.315 C 
ATOM     17  H   UNL     1      -1.570   2.842   0.756  1.00  0.00     0.165 HD
ATOM     18  O   UNL     1      -0.802   3.005   2.986  1.00  0.00    -0.249 OA
ATOM     19  H   UNL     1       1.406   3.491   3.159  1.00  0.00     0.165 HD
BRANCH  15  20
ATOM     20  C   UNL     1       0.005   2.303  -0.458  1.00  0.00     0.116 C 
ATOM     21  C   UNL     1       0.451   0.851  -0.298  1.00  0.00     0.036 C 
BRANCH  20  22
ATOM     22  C   UNL     1      -0.946   2.550  -1.599  1.00  0.00     0.040 A 
ATOM     23  C   UNL     1      -0.437   5.076  -2.206  1.00  0.00     0.071 C 
ATOM     24  C   UNL     1      -1.112   3.767  -2.342  1.00  0.00     0.086 A 
ATOM     25  N   UNL     1      -2.021   3.636  -3.312  1.00  0.00    -0.085 NA
ATOM     26  O   UNL     1      -2.442   2.335  -3.261  1.00  0.00    -0.361 OA
ATOM     27  C   UNL     1      -1.793   1.679  -2.266  1.00  0.00     0.139 A 
ATOM     28  C   UNL     1      -2.115   0.242  -2.181  1.00  0.00     0.091 C 
ENDBRANCH  20  22
ENDBRANCH  15  20
ENDBRANCH  13  14
ENDBRANCH  10  13
ENDBRANCH   8   9
ENDBRANCH   6   8
ENDBRANCH   5   6
ENDBRANCH   4   5
ENDBRANCH   3   4
ENDBRANCH   2   3
ENDBRANCH   1   2
BRANCH   1  29
ATOM     29  C   UNL     1       0.203   9.216  -0.634  1.00  0.00     0.188 C 
BRANCH  29  30
ATOM     30  O   UNL     1       1.344   9.083   0.195  1.00  0.00    -0.376 OA
BRANCH  30  31
ATOM     31  C   UNL     1       2.153  10.215   0.520  1.00  0.00     0.202 C 
BRANCH  31  32
ATOM     32  C   UNL     1       2.256  11.522  -0.307  1.00  0.00     0.261 C 
BRANCH  32  33
ATOM     33  O   UNL     1       1.651  11.564  -1.599  1.00  0.00    -0.460 OA
BRANCH  33  34
ATOM     34  C   UNL     1       2.220  10.780  -2.549  1.00  0.00     0.338 C 
ATOM     35  O   UNL     1       3.287  10.221  -2.472  1.00  0.00    -0.246 OA
BRANCH  34  36
ATOM     36  C   UNL     1       1.183  10.510  -3.587  1.00  0.00     0.060 A 
ATOM     37  C   UNL     1       1.042   9.187  -4.025  1.00  0.00     0.016 A 
ATOM     38  C   UNL     1       0.311  11.497  -4.060  1.00  0.00     0.016 A 
ATOM     39  C   UNL     1       0.064   8.853  -4.965  1.00  0.00     0.010 A 
ATOM     40  C   UNL     1      -0.658  11.165  -5.016  1.00  0.00     0.010 A 
ATOM     41  C   UNL     1      -0.763   9.848  -5.500  1.00  0.00    -0.014 A 
BRANCH  41  42
ATOM     42  C   UNL     1      -1.581   9.561  -6.709  1.00  0.00     0.031 A 
ATOM     43  C   UNL     1      -1.024   9.964  -8.050  1.00  0.00     0.074 A 
ATOM     44  C   UNL     1      -2.786   8.967  -6.638  1.00  0.00     0.049 A 
ATOM     45  N   UNL     1      -1.566   9.875  -9.236  1.00  0.00    -0.248 NA
ATOM     46  C   UNL     1       0.328  10.549  -8.049  1.00  0.00     0.031 C 
ATOM     47  C   UNL     1      -3.438   8.510  -5.413  1.00  0.00     0.029 A 
ATOM     48  N   UNL     1      -3.691   8.674  -7.631  1.00  0.00    -0.354 N 
ATOM     49  C   UNL     1      -0.641  10.424 -10.116  1.00  0.00     0.074 A 
ATOM     50  C   UNL     1       0.495  10.848  -9.328  1.00  0.00     0.031 C 
ATOM     51  C   UNL     1      -4.655   8.027  -5.723  1.00  0.00     0.029 A 
ATOM     52  C   UNL     1      -4.880   8.165  -7.162  1.00  0.00     0.049 A 
ATOM     53  H   UNL     1      -3.506   8.815  -8.588  1.00  0.00     0.167 HD
ATOM     54  C   UNL     1      -0.721  10.555 -11.460  1.00  0.00     0.034 A 
ATOM     55  C   UNL     1      -6.025   7.872  -7.813  1.00  0.00     0.034 A 
ATOM     56  C   UNL     1      -1.836  10.117 -12.253  1.00  0.00     0.049 A 
ATOM     57  C   UNL     1      -6.100   8.056  -9.310  1.00  0.00     0.074 A 
ATOM     58  C   UNL     1      -1.981  10.165 -13.628  1.00  0.00     0.029 A 
ATOM     59  N   UNL     1      -3.002   9.568 -11.746  1.00  0.00    -0.354 N 
ATOM     60  N   UNL     1      -5.173   8.466 -10.142  1.00  0.00    -0.248 NA
ATOM     61  C   UNL     1      -7.372   7.706  -9.964  1.00  0.00     0.031 C 
ATOM     62  C   UNL     1      -3.250   9.676 -13.950  1.00  0.00     0.029 A 
ATOM     63  C   UNL     1      -3.879   9.288 -12.779  1.00  0.00     0.049 A 
ATOM     64  H   UNL     1      -3.180   9.402 -10.792  1.00  0.00     0.167 HD
ATOM     65  C   UNL     1      -5.734   8.385 -11.414  1.00  0.00     0.074 A 
ATOM     66  C   UNL     1      -7.076   7.870 -11.246  1.00  0.00     0.031 C 
ATOM     67  C   UNL     1      -5.191   8.719 -12.611  1.00  0.00     0.034 A 
BRANCH  54  68
ATOM     68  C   UNL     1       0.444  11.192 -12.169  1.00  0.00     0.023 A 
ATOM     69  C   UNL     1       1.650  10.478 -12.318  1.00  0.00     0.012 A 
ATOM     70  C   UNL     1       0.321  12.473 -12.741  1.00  0.00     0.148 A 
ATOM     71  C   UNL     1       2.726  11.041 -13.002  1.00  0.00     0.002 A 
ATOM     72  C   UNL     1       1.382  13.008 -13.461  1.00  0.00     0.091 A 
ATOM     73  F   UNL     1      -0.826  13.144 -12.566  1.00  0.00    -0.205 F 
ATOM     74  C   UNL     1       2.588  12.299 -13.583  1.00  0.00     0.022 A 
BRANCH  72  75
ATOM     75  S   UNL     1       1.275  14.585 -14.313  1.00  0.00     0.127 S 
ATOM     76  O   UNL     1       2.187  15.410 -13.521  1.00  0.00    -0.237 OA
ATOM     77  O   UNL     1       1.765  14.245 -15.649  1.00  0.00    -0.237 OA
ATOM     78  O   UNL     1      -0.126  14.979 -14.260  1.00  0.00    -0.744 OA
ENDBRANCH  72  75
ENDBRANCH  54  68
BRANCH  55  79
ATOM     79  C   UNL     1      -7.208   7.361  -7.061  1.00  0.00     0.023 A 
ATOM     80  C   UNL     1      -7.649   6.038  -7.265  1.00  0.00     0.012 A 
ATOM     81  C   UNL     1      -7.910   8.185  -6.159  1.00  0.00     0.148 A 
ATOM     82  C   UNL     1      -8.787   5.559  -6.614  1.00  0.00     0.002 A 
ATOM     83  C   UNL     1      -9.009   7.683  -5.471  1.00  0.00     0.091 A 
ATOM     84  F   UNL     1      -7.490   9.448  -5.995  1.00  0.00    -0.205 F 
ATOM     85  C   UNL     1      -9.461   6.377  -5.711  1.00  0.00     0.022 A 
BRANCH  83  86
ATOM     86  S   UNL     1      -9.866   8.626  -4.205  1.00  0.00     0.127 S 
ATOM     87  O   UNL     1     -11.144   8.906  -4.853  1.00  0.00    -0.237 OA
ATOM     88  O   UNL     1      -9.931   7.663  -3.104  1.00  0.00    -0.237 OA
ATOM     89  O   UNL     1      -9.024   9.785  -3.940  1.00  0.00    -0.744 OA
ENDBRANCH  83  86
ENDBRANCH  55  79
BRANCH  67  90
ATOM     90  C   UNL     1      -6.018   8.498 -13.854  1.00  0.00     0.023 A 
ATOM     91  C   UNL     1      -7.119   9.333 -14.127  1.00  0.00     0.012 A 
ATOM     92  C   UNL     1      -5.646   7.516 -14.796  1.00  0.00     0.148 A 
ATOM     93  C   UNL     1      -7.856   9.174 -15.301  1.00  0.00     0.002 A 
ATOM     94  C   UNL     1      -6.354   7.397 -15.986  1.00  0.00     0.091 A 
ATOM     95  F   UNL     1      -4.604   6.721 -14.513  1.00  0.00    -0.205 F 
ATOM     96  C   UNL     1      -7.466   8.216 -16.235  1.00  0.00     0.022 A 
BRANCH  94  97
ATOM     97  S   UNL     1      -5.866   6.261 -17.290  1.00  0.00     0.127 S 
ATOM     98  O   UNL     1      -6.923   5.253 -17.219  1.00  0.00    -0.237 OA
ATOM     99  O   UNL     1      -5.915   7.113 -18.479  1.00  0.00    -0.237 OA
ATOM    100  O   UNL     1      -4.532   5.793 -16.939  1.00  0.00    -0.744 OA
ENDBRANCH  94  97
ENDBRANCH  67  90
ENDBRANCH  41  42
ENDBRANCH  34  36
ENDBRANCH  33  34
ENDBRANCH  32  33
ENDBRANCH  31  32
ENDBRANCH  30  31
ENDBRANCH  29  30
ENDBRANCH   1  29
TORSDOF 25
