REMARK SMILES Cc1nc2sc3c(c2c2nc(CCC(=O)OCCOCCOCCOC(=O)c4ccc(-c5c6nc(c(-c7cccc(S(=O)(=O)[O-])c7F)c7ccc([nH]7)c(-c7cccc(S(=O)(=O)[O-])c7F)c7nc(c(-c8cccc(S(=O)(=O)[O-])c8F)c8ccc5[nH]8)C=C7)C=C6)cc4)nn12)[C@@H](C)CCC3
REMARK SMILES IDX 21 1 20 2 19 3 18 4 17 5 16 6 14 7 15 8 13 9 12 10 11 11
REMARK SMILES IDX 1 12 2 13 3 14 92 15 4 16 9 17 91 18 5 19 8 20 10 21 6 22
REMARK SMILES IDX 7 23 97 24 93 25 96 26 94 27 95 28 22 29 23 30 24 31 25 32
REMARK SMILES IDX 26 33 27 34 28 35 29 36 90 37 30 38 89 39 31 40 32 41 33 42
REMARK SMILES IDX 83 43 34 44 88 45 82 46 84 47 35 48 87 49 81 50 80 51 36 53
REMARK SMILES IDX 68 54 48 55 67 56 49 57 52 58 66 59 85 60 50 61 51 62 65 64
REMARK SMILES IDX 86 65 53 66 37 67 38 68 46 69 39 70 41 71 47 72 40 73 42 74
REMARK SMILES IDX 43 75 44 76 45 77 69 78 70 79 78 80 71 81 73 82 79 83 72 84
REMARK SMILES IDX 74 85 75 86 76 87 77 88 54 89 55 90 63 91 56 92 58 93 64 94
REMARK SMILES IDX 57 95 59 96 60 97 61 98 62 99
REMARK H PARENT 84 52 52 63
REMARK Flexibility Score: inf
ROOT
ATOM      1  C   UNL     1      -0.772   7.125  -3.584  1.00  0.00     0.188 C 
ENDROOT
BRANCH   1   2
ATOM      2  C   UNL     1       0.612   7.119  -4.189  1.00  0.00     0.188 C 
BRANCH   2   3
ATOM      3  O   UNL     1       0.636   7.375  -5.588  1.00  0.00    -0.376 OA
BRANCH   3   4
ATOM      4  C   UNL     1       1.111   6.291  -6.384  1.00  0.00     0.202 C 
BRANCH   4   5
ATOM      5  C   UNL     1       2.532   5.769  -6.062  1.00  0.00     0.261 C 
BRANCH   5   6
ATOM      6  O   UNL     1       2.635   5.097  -4.773  1.00  0.00    -0.463 OA
BRANCH   6   7
ATOM      7  C   UNL     1       3.373   5.721  -3.821  1.00  0.00     0.306 C 
ATOM      8  O   UNL     1       4.119   6.668  -4.058  1.00  0.00    -0.252 OA
BRANCH   7   9
ATOM      9  C   UNL     1       3.263   5.148  -2.414  1.00  0.00     0.131 C 
BRANCH   9  10
ATOM     10  C   UNL     1       1.915   4.781  -1.792  1.00  0.00     0.091 C 
BRANCH  10  11
ATOM     11  C   UNL     1       1.404   3.418  -2.106  1.00  0.00     0.152 A 
ATOM     12  C   UNL     1       1.010  -0.190  -0.101  1.00  0.00     0.090 C 
ATOM     13  C   UNL     1       0.531   0.124  -1.483  1.00  0.00     0.131 A 
ATOM     14  N   UNL     1      -0.062  -0.764  -2.243  1.00  0.00    -0.222 NA
ATOM     15  N   UNL     1       0.783   1.436  -1.907  1.00  0.00    -0.199 N 
ATOM     16  C   UNL     1      -0.421  -0.335  -3.500  1.00  0.00     0.129 A 
ATOM     17  C   UNL     1       0.412   1.884  -3.142  1.00  0.00     0.168 A 
ATOM     18  N   UNL     1       1.454   2.397  -1.228  1.00  0.00    -0.150 NA
ATOM     19  S   UNL     1      -1.150  -1.385  -4.638  1.00  0.00    -0.120 S 
ATOM     20  C   UNL     1      -0.246   0.925  -4.056  1.00  0.00     0.060 A 
ATOM     21  N   UNL     1       0.773   3.133  -3.288  1.00  0.00    -0.211 NA
ATOM     22  C   UNL     1      -1.204  -0.169  -5.834  1.00  0.00     0.011 A 
ATOM     23  C   UNL     1      -0.681   1.040  -5.407  1.00  0.00    -0.018 A 
ATOM     24  C   UNL     1      -1.722  -0.437  -7.216  1.00  0.00     0.047 C 
ATOM     25  C   UNL     1      -0.625   2.236  -6.323  1.00  0.00     0.018 C 
ATOM     26  C   UNL     1      -2.081   0.878  -7.919  1.00  0.00     0.006 C 
ATOM     27  C   UNL     1       0.728   2.924  -6.292  1.00  0.00     0.013 C 
ATOM     28  C   UNL     1      -0.943   1.888  -7.791  1.00  0.00     0.008 C 
ENDBRANCH  10  11
ENDBRANCH   9  10
ENDBRANCH   7   9
ENDBRANCH   6   7
ENDBRANCH   5   6
ENDBRANCH   4   5
ENDBRANCH   3   4
ENDBRANCH   2   3
ENDBRANCH   1   2
BRANCH   1  29
ATOM     29  O   UNL     1      -1.214   5.797  -3.239  1.00  0.00    -0.376 OA
BRANCH  29  30
ATOM     30  C   UNL     1      -1.792   5.022  -4.288  1.00  0.00     0.202 C 
BRANCH  30  31
ATOM     31  C   UNL     1      -3.287   5.219  -4.535  1.00  0.00     0.261 C 
BRANCH  31  32
ATOM     32  O   UNL     1      -3.621   6.584  -4.455  1.00  0.00    -0.460 OA
BRANCH  32  33
ATOM     33  C   UNL     1      -3.708   7.025  -3.174  1.00  0.00     0.338 C 
ATOM     34  O   UNL     1      -3.745   6.373  -2.158  1.00  0.00    -0.246 OA
BRANCH  33  35
ATOM     35  C   UNL     1      -3.722   8.489  -3.231  1.00  0.00     0.060 A 
ATOM     36  C   UNL     1      -3.648   9.164  -2.014  1.00  0.00     0.016 A 
ATOM     37  C   UNL     1      -4.039   9.122  -4.441  1.00  0.00     0.016 A 
ATOM     38  C   UNL     1      -4.241  10.394  -1.951  1.00  0.00     0.010 A 
ATOM     39  C   UNL     1      -4.653  10.333  -4.375  1.00  0.00     0.010 A 
ATOM     40  C   UNL     1      -4.858  10.868  -3.110  1.00  0.00    -0.014 A 
BRANCH  40  41
ATOM     41  C   UNL     1      -5.762  11.976  -2.990  1.00  0.00     0.031 A 
ATOM     42  C   UNL     1      -5.027  13.246  -2.951  1.00  0.00     0.074 A 
ATOM     43  C   UNL     1      -7.091  11.772  -2.995  1.00  0.00     0.049 A 
ATOM     44  N   UNL     1      -4.749  13.944  -1.902  1.00  0.00    -0.248 NA
ATOM     45  C   UNL     1      -4.259  13.621  -4.149  1.00  0.00     0.031 C 
ATOM     46  C   UNL     1      -7.822  10.537  -3.308  1.00  0.00     0.029 A 
ATOM     47  N   UNL     1      -8.085  12.678  -2.842  1.00  0.00    -0.354 N 
ATOM     48  C   UNL     1      -4.027  15.022  -2.397  1.00  0.00     0.074 A 
ATOM     49  C   UNL     1      -3.489  14.590  -3.654  1.00  0.00     0.031 C 
ATOM     50  C   UNL     1      -9.116  10.842  -3.569  1.00  0.00     0.029 A 
ATOM     51  C   UNL     1      -9.325  12.255  -3.311  1.00  0.00     0.049 A 
ATOM     52  H   UNL     1      -7.943  13.563  -2.434  1.00  0.00     0.167 HD
ATOM     53  C   UNL     1      -4.290  16.274  -1.937  1.00  0.00     0.034 A 
ATOM     54  C   UNL     1     -10.395  13.056  -3.544  1.00  0.00     0.034 A 
ATOM     55  C   UNL     1      -4.987  16.209  -0.670  1.00  0.00     0.049 A 
ATOM     56  C   UNL     1     -10.163  14.304  -2.774  1.00  0.00     0.074 A 
ATOM     57  C   UNL     1      -4.716  15.654   0.565  1.00  0.00     0.029 A 
ATOM     58  N   UNL     1      -6.347  16.409  -0.716  1.00  0.00    -0.354 N 
ATOM     59  N   UNL     1     -10.132  14.352  -1.471  1.00  0.00    -0.248 NA
ATOM     60  C   UNL     1      -9.511  15.410  -3.457  1.00  0.00     0.031 C 
ATOM     61  C   UNL     1      -5.970  15.176   1.045  1.00  0.00     0.029 A 
ATOM     62  C   UNL     1      -6.962  15.521   0.123  1.00  0.00     0.049 A 
ATOM     63  H   UNL     1      -6.805  17.085  -1.266  1.00  0.00     0.167 HD
ATOM     64  C   UNL     1      -9.077  15.210  -1.184  1.00  0.00     0.074 A 
ATOM     65  C   UNL     1      -8.819  15.923  -2.436  1.00  0.00     0.031 C 
ATOM     66  C   UNL     1      -8.317  15.035  -0.062  1.00  0.00     0.034 A 
BRANCH  53  67
ATOM     67  C   UNL     1      -4.349  17.511  -2.820  1.00  0.00     0.023 A 
ATOM     68  C   UNL     1      -4.655  18.725  -2.167  1.00  0.00     0.012 A 
ATOM     69  C   UNL     1      -4.388  17.533  -4.237  1.00  0.00     0.148 A 
ATOM     70  C   UNL     1      -5.060  19.862  -2.874  1.00  0.00     0.002 A 
ATOM     71  C   UNL     1      -4.723  18.683  -4.940  1.00  0.00     0.091 A 
ATOM     72  F   UNL     1      -4.213  16.422  -4.947  1.00  0.00    -0.205 F 
ATOM     73  C   UNL     1      -5.095  19.842  -4.262  1.00  0.00     0.022 A 
BRANCH  71  74
ATOM     74  S   UNL     1      -4.738  18.721  -6.741  1.00  0.00     0.127 S 
ATOM     75  O   UNL     1      -6.165  18.854  -7.017  1.00  0.00    -0.237 OA
ATOM     76  O   UNL     1      -3.937  19.913  -7.016  1.00  0.00    -0.237 OA
ATOM     77  O   UNL     1      -4.121  17.474  -7.176  1.00  0.00    -0.744 OA
ENDBRANCH  71  74
ENDBRANCH  53  67
BRANCH  54  78
ATOM     78  C   UNL     1     -11.425  12.989  -4.613  1.00  0.00     0.023 A 
ATOM     79  C   UNL     1     -12.593  13.772  -4.492  1.00  0.00     0.012 A 
ATOM     80  C   UNL     1     -11.137  12.421  -5.874  1.00  0.00     0.148 A 
ATOM     81  C   UNL     1     -13.417  14.022  -5.596  1.00  0.00     0.002 A 
ATOM     82  C   UNL     1     -11.959  12.674  -6.970  1.00  0.00     0.091 A 
ATOM     83  F   UNL     1     -10.011  11.713  -6.023  1.00  0.00    -0.205 F 
ATOM     84  C   UNL     1     -13.093  13.485  -6.838  1.00  0.00     0.022 A 
BRANCH  82  85
ATOM     85  S   UNL     1     -11.583  12.060  -8.620  1.00  0.00     0.127 S 
ATOM     86  O   UNL     1     -12.845  11.424  -8.999  1.00  0.00    -0.237 OA
ATOM     87  O   UNL     1     -11.280  13.295  -9.338  1.00  0.00    -0.237 OA
ATOM     88  O   UNL     1     -10.468  11.136  -8.458  1.00  0.00    -0.744 OA
ENDBRANCH  82  85
ENDBRANCH  54  78
BRANCH  66  89
ATOM     89  C   UNL     1      -8.814  14.071   0.992  1.00  0.00     0.023 A 
ATOM     90  C   UNL     1      -8.888  12.678   0.776  1.00  0.00     0.012 A 
ATOM     91  C   UNL     1      -8.990  14.565   2.296  1.00  0.00     0.148 A 
ATOM     92  C   UNL     1      -9.129  11.800   1.838  1.00  0.00     0.002 A 
ATOM     93  C   UNL     1      -9.170  13.687   3.356  1.00  0.00     0.091 A 
ATOM     94  F   UNL     1      -8.921  15.892   2.481  1.00  0.00    -0.205 F 
ATOM     95  C   UNL     1      -9.249  12.303   3.132  1.00  0.00     0.022 A 
BRANCH  93  96
ATOM     96  S   UNL     1      -9.169  14.257   5.058  1.00  0.00     0.127 S 
ATOM     97  O   UNL     1     -10.560  14.043   5.453  1.00  0.00    -0.237 OA
ATOM     98  O   UNL     1      -8.207  13.351   5.688  1.00  0.00    -0.237 OA
ATOM     99  O   UNL     1      -8.739  15.649   5.018  1.00  0.00    -0.744 OA
ENDBRANCH  93  96
ENDBRANCH  66  89
ENDBRANCH  40  41
ENDBRANCH  33  35
ENDBRANCH  32  33
ENDBRANCH  31  32
ENDBRANCH  30  31
ENDBRANCH  29  30
ENDBRANCH   1  29
TORSDOF 22
