REMARK SMILES O=C(OCCOCCOCCOC(=O)c1cc(NC(=S)NC(=O)c2ccccc2F)ccc1Cl)c1ccc(-c2c3nc(c(-c4cccc(S(=O)(=O)[O-])c4F)c4ccc([nH]4)c(-c4cccc(S(=O)(=O)[O-])c4F)c4nc(c(-c5cccc(S(=O)(=O)[O-])c5F)c5ccc2[nH]5)C=C4)C=C3)cc1
REMARK SMILES IDX 8 1 7 2 6 3 5 4 4 5 3 6 2 7 1 8 35 9 36 10 97 11 37 12 96 13
REMARK SMILES IDX 38 14 39 15 40 16 90 17 41 18 95 19 89 20 91 21 42 22 94 23
REMARK SMILES IDX 88 24 87 25 43 27 75 28 55 29 74 30 56 31 59 32 73 33 92 34
REMARK SMILES IDX 57 35 58 36 72 38 93 39 60 40 44 41 45 42 53 43 46 44 48 45
REMARK SMILES IDX 54 46 47 47 49 48 50 49 51 50 52 51 76 52 77 53 85 54 78 55
REMARK SMILES IDX 80 56 86 57 79 58 81 59 82 60 83 61 84 62 61 63 62 64 70 65
REMARK SMILES IDX 63 66 65 67 71 68 64 69 66 70 67 71 68 72 69 73 9 74 10 75
REMARK SMILES IDX 11 76 12 77 13 78 14 79 15 80 16 81 33 82 17 83 32 84 34 85
REMARK SMILES IDX 31 86 18 87 19 89 20 90 21 91 22 92 23 94 24 95 25 96 29 97
REMARK SMILES IDX 26 98 28 99 30 100 27 101
REMARK H PARENT 91 26 59 37 18 88 21 93
REMARK Flexibility Score: inf
ROOT
ATOM      1  C   UNL     1       2.461   2.203  -2.415  1.00  0.00     0.188 C 
ENDROOT
BRANCH   1   2
ATOM      2  C   UNL     1       2.988   0.922  -1.770  1.00  0.00     0.188 C 
BRANCH   2   3
ATOM      3  O   UNL     1       4.300   1.052  -1.227  1.00  0.00    -0.376 OA
BRANCH   3   4
ATOM      4  C   UNL     1       5.154  -0.078  -1.428  1.00  0.00     0.202 C 
BRANCH   4   5
ATOM      5  C   UNL     1       4.691  -1.424  -0.830  1.00  0.00     0.261 C 
BRANCH   5   6
ATOM      6  O   UNL     1       3.295  -1.502  -0.481  1.00  0.00    -0.460 OA
BRANCH   6   7
ATOM      7  C   UNL     1       2.690  -1.282   0.715  1.00  0.00     0.338 C 
ATOM      8  O   UNL     1       1.525  -1.645   0.865  1.00  0.00    -0.246 OA
BRANCH   7   9
ATOM      9  C   UNL     1       3.368  -0.598   1.854  1.00  0.00     0.060 A 
ATOM     10  C   UNL     1       4.474   0.232   1.709  1.00  0.00     0.016 A 
ATOM     11  C   UNL     1       2.813  -0.719   3.137  1.00  0.00     0.016 A 
ATOM     12  C   UNL     1       5.108   0.822   2.783  1.00  0.00     0.010 A 
ATOM     13  C   UNL     1       3.392  -0.053   4.227  1.00  0.00     0.010 A 
ATOM     14  C   UNL     1       4.575   0.683   4.053  1.00  0.00    -0.014 A 
BRANCH  14  15
ATOM     15  C   UNL     1       5.398   1.153   5.181  1.00  0.00     0.031 A 
ATOM     16  C   UNL     1       6.017   0.106   6.047  1.00  0.00     0.074 A 
ATOM     17  C   UNL     1       5.729   2.452   5.319  1.00  0.00     0.049 A 
ATOM     18  N   UNL     1       6.787   0.259   7.085  1.00  0.00    -0.248 NA
ATOM     19  C   UNL     1       5.778  -1.303   5.674  1.00  0.00     0.031 C 
ATOM     20  C   UNL     1       5.350   3.519   4.393  1.00  0.00     0.029 A 
ATOM     21  N   UNL     1       6.473   3.101   6.270  1.00  0.00    -0.354 N 
ATOM     22  C   UNL     1       7.092  -1.024   7.506  1.00  0.00     0.074 A 
ATOM     23  C   UNL     1       6.420  -1.951   6.630  1.00  0.00     0.031 C 
ATOM     24  C   UNL     1       5.818   4.690   4.850  1.00  0.00     0.029 A 
ATOM     25  C   UNL     1       6.484   4.468   6.118  1.00  0.00     0.049 A 
ATOM     26  H   UNL     1       6.952   2.634   6.992  1.00  0.00     0.167 HD
ATOM     27  C   UNL     1       7.886  -1.387   8.531  1.00  0.00     0.034 A 
ATOM     28  C   UNL     1       6.951   5.442   6.920  1.00  0.00     0.034 A 
ATOM     29  C   UNL     1       8.562  -0.443   9.369  1.00  0.00     0.049 A 
ATOM     30  C   UNL     1       7.715   5.015   8.133  1.00  0.00     0.074 A 
ATOM     31  C   UNL     1       9.378  -0.697  10.452  1.00  0.00     0.029 A 
ATOM     32  N   UNL     1       8.483   0.934   9.227  1.00  0.00    -0.354 N 
ATOM     33  N   UNL     1       8.002   3.796   8.518  1.00  0.00    -0.248 NA
ATOM     34  C   UNL     1       8.265   6.072   8.988  1.00  0.00     0.031 C 
ATOM     35  C   UNL     1       9.744   0.531  11.004  1.00  0.00     0.029 A 
ATOM     36  C   UNL     1       9.210   1.548  10.226  1.00  0.00     0.049 A 
ATOM     37  H   UNL     1       7.983   1.403   8.521  1.00  0.00     0.167 HD
ATOM     38  C   UNL     1       8.805   3.934   9.636  1.00  0.00     0.074 A 
ATOM     39  C   UNL     1       8.961   5.359   9.863  1.00  0.00     0.031 C 
ATOM     40  C   UNL     1       9.364   2.969  10.402  1.00  0.00     0.034 A 
BRANCH  27  41
ATOM     41  C   UNL     1       8.018  -2.849   8.823  1.00  0.00     0.023 A 
ATOM     42  C   UNL     1       8.786  -3.684   7.989  1.00  0.00     0.012 A 
ATOM     43  C   UNL     1       7.404  -3.380   9.971  1.00  0.00     0.148 A 
ATOM     44  C   UNL     1       8.932  -5.037   8.292  1.00  0.00     0.002 A 
ATOM     45  C   UNL     1       7.600  -4.712  10.297  1.00  0.00     0.091 A 
ATOM     46  F   UNL     1       6.641  -2.569  10.718  1.00  0.00    -0.205 F 
ATOM     47  C   UNL     1       8.354  -5.546   9.454  1.00  0.00     0.022 A 
BRANCH  45  48
ATOM     48  S   UNL     1       6.969  -5.433  11.813  1.00  0.00     0.127 S 
ATOM     49  O   UNL     1       6.086  -6.479  11.298  1.00  0.00    -0.237 OA
ATOM     50  O   UNL     1       8.194  -5.922  12.444  1.00  0.00    -0.237 OA
ATOM     51  O   UNL     1       6.297  -4.356  12.526  1.00  0.00    -0.744 OA
ENDBRANCH  45  48
ENDBRANCH  27  41
BRANCH  28  52
ATOM     52  C   UNL     1       6.706   6.879   6.605  1.00  0.00     0.023 A 
ATOM     53  C   UNL     1       7.765   7.714   6.204  1.00  0.00     0.012 A 
ATOM     54  C   UNL     1       5.404   7.417   6.681  1.00  0.00     0.148 A 
ATOM     55  C   UNL     1       7.535   9.061   5.907  1.00  0.00     0.002 A 
ATOM     56  C   UNL     1       5.175   8.747   6.341  1.00  0.00     0.091 A 
ATOM     57  F   UNL     1       4.404   6.602   7.044  1.00  0.00    -0.205 F 
ATOM     58  C   UNL     1       6.242   9.575   5.967  1.00  0.00     0.022 A 
BRANCH  56  59
ATOM     59  S   UNL     1       3.523   9.458   6.262  1.00  0.00     0.127 S 
ATOM     60  O   UNL     1       3.614  10.551   7.226  1.00  0.00    -0.237 OA
ATOM     61  O   UNL     1       3.448   9.867   4.860  1.00  0.00    -0.237 OA
ATOM     62  O   UNL     1       2.612   8.380   6.623  1.00  0.00    -0.744 OA
ENDBRANCH  56  59
ENDBRANCH  28  52
BRANCH  40  63
ATOM     63  C   UNL     1      10.223   3.410  11.547  1.00  0.00     0.023 A 
ATOM     64  C   UNL     1       9.627   3.948  12.702  1.00  0.00     0.012 A 
ATOM     65  C   UNL     1      11.605   3.146  11.523  1.00  0.00     0.148 A 
ATOM     66  C   UNL     1      10.403   4.228  13.822  1.00  0.00     0.002 A 
ATOM     67  C   UNL     1      12.359   3.366  12.664  1.00  0.00     0.091 A 
ATOM     68  F   UNL     1      12.142   2.651  10.399  1.00  0.00    -0.205 F 
ATOM     69  C   UNL     1      11.763   3.918  13.810  1.00  0.00     0.022 A 
BRANCH  67  70
ATOM     70  S   UNL     1      14.081   2.879  12.782  1.00  0.00     0.127 S 
ATOM     71  O   UNL     1      14.747   4.175  12.911  1.00  0.00    -0.237 OA
ATOM     72  O   UNL     1      14.085   2.065  13.997  1.00  0.00    -0.237 OA
ATOM     73  O   UNL     1      14.383   2.149  11.558  1.00  0.00    -0.744 OA
ENDBRANCH  67  70
ENDBRANCH  40  63
ENDBRANCH  14  15
ENDBRANCH   7   9
ENDBRANCH   6   7
ENDBRANCH   5   6
ENDBRANCH   4   5
ENDBRANCH   3   4
ENDBRANCH   2   3
ENDBRANCH   1   2
BRANCH   1  74
ATOM     74  O   UNL     1       3.264   2.800  -3.422  1.00  0.00    -0.376 OA
BRANCH  74  75
ATOM     75  C   UNL     1       4.581   3.162  -3.023  1.00  0.00     0.202 C 
BRANCH  75  76
ATOM     76  C   UNL     1       4.807   4.146  -1.845  1.00  0.00     0.261 C 
BRANCH  76  77
ATOM     77  O   UNL     1       3.971   4.044  -0.663  1.00  0.00    -0.460 OA
BRANCH  77  78
ATOM     78  C   UNL     1       3.247   5.170  -0.382  1.00  0.00     0.339 C 
ATOM     79  O   UNL     1       3.205   6.163  -1.096  1.00  0.00    -0.246 OA
BRANCH  78  80
ATOM     80  C   UNL     1       2.580   5.142   1.015  1.00  0.00     0.080 A 
ATOM     81  C   UNL     1       0.753   4.758   1.800  1.00  0.00     0.043 A 
ATOM     82  C   UNL     1       3.699   6.062   2.107  1.00  0.00     0.055 A 
ATOM     83  C   UNL     1       0.343   5.106   3.420  1.00  0.00     0.041 A 
ATOM     84  C   UNL     1       3.112   6.499   3.736  1.00  0.00     0.023 A 
ATOM     85  Cl  UNL     1       5.271   6.555   1.612  1.00  0.00    -0.083 Cl
ATOM     86  C   UNL     1       1.493   6.025   4.367  1.00  0.00     0.028 A 
BRANCH  83  87
ATOM     87  N   UNL     1      -0.543   4.118   3.902  1.00  0.00    -0.332 N 
ATOM     88  H   UNL     1      -0.879   4.281   4.813  1.00  0.00     0.169 HD
BRANCH  87  89
ATOM     89  C   UNL     1      -1.019   2.962   3.315  1.00  0.00     0.177 C 
ATOM     90  S   UNL     1      -2.156   2.093   4.207  1.00  0.00    -0.040 S 
BRANCH  89  91
ATOM     91  N   UNL     1      -0.683   2.380   2.046  1.00  0.00    -0.299 N 
ATOM     92  C   UNL     1       0.065   2.306   0.755  1.00  0.00     0.260 C 
ATOM     93  H   UNL     1      -1.273   1.592   2.003  1.00  0.00     0.172 HD
ATOM     94  O   UNL     1      -0.319   1.564  -0.146  1.00  0.00    -0.269 OA
BRANCH  92  95
ATOM     95  C   UNL     1       1.247   3.206   0.473  1.00  0.00     0.075 A 
ATOM     96  C   UNL     1       0.731   4.733  -0.343  1.00  0.00     0.017 A 
ATOM     97  C   UNL     1       2.141   3.156   1.948  1.00  0.00     0.135 A 
ATOM     98  C   UNL     1       0.859   6.336   0.448  1.00  0.00     0.001 A 
ATOM     99  C   UNL     1       2.334   4.649   2.844  1.00  0.00     0.040 A 
ATOM    100  F   UNL     1       2.178   2.026   2.660  1.00  0.00    -0.206 F 
ATOM    101  C   UNL     1       1.607   6.388   2.098  1.00  0.00     0.003 A 
ENDBRANCH  92  95
ENDBRANCH  89  91
ENDBRANCH  87  89
ENDBRANCH  83  87
ENDBRANCH  78  80
ENDBRANCH  77  78
ENDBRANCH  76  77
ENDBRANCH  75  76
ENDBRANCH  74  75
ENDBRANCH   1  74
TORSDOF 24
