REMARK SMILES O=C(OCCOCCOCCOC(=O)c1cc(-c2ccc(C(F)(F)F)cc2)cc([N+](=O)[O-])c1)c1ccc(-c2c3nc(c(-c4cccc(S(=O)(=O)[O-])c4F)c4ccc([nH]4)c(-c4cccc(S(=O)(=O)[O-])c4F)c4nc(c(-c5cccc(S(=O)(=O)[O-])c5F)c5ccc2[nH]5)C=C4)C=C3)cc1
REMARK SMILES IDX 7 1 6 2 5 3 4 4 3 5 2 6 1 7 34 8 35 9 96 10 36 11 95 12
REMARK SMILES IDX 37 13 38 14 39 15 89 16 40 17 94 18 88 19 90 20 41 21 93 22
REMARK SMILES IDX 87 23 86 24 42 26 74 27 54 28 73 29 55 30 58 31 72 32 91 33
REMARK SMILES IDX 56 34 57 35 71 37 92 38 59 39 43 40 44 41 52 42 45 43 47 44
REMARK SMILES IDX 53 45 46 46 48 47 49 48 50 49 51 50 75 51 76 52 84 53 77 54
REMARK SMILES IDX 79 55 85 56 78 57 80 58 81 59 82 60 83 61 60 62 61 63 69 64
REMARK SMILES IDX 62 65 64 66 70 67 63 68 65 69 66 70 67 71 68 72 8 73 9 74
REMARK SMILES IDX 10 75 11 76 12 77 13 78 14 79 15 80 16 81 33 82 17 83 29 84
REMARK SMILES IDX 28 85 18 86 19 87 27 88 20 89 26 90 21 91 22 92 23 93 24 94
REMARK SMILES IDX 25 95 30 96 31 97 32 98
REMARK H PARENT 90 25 58 36
REMARK Flexibility Score: inf
ROOT
ATOM      1  C   UNL     1       2.622  -2.178  -0.090  1.00  0.00     0.188 C 
ENDROOT
BRANCH   1   2
ATOM      2  O   UNL     1       3.855  -1.525  -0.423  1.00  0.00    -0.376 OA
BRANCH   2   3
ATOM      3  C   UNL     1       4.777  -1.441   0.668  1.00  0.00     0.202 C 
BRANCH   3   4
ATOM      4  C   UNL     1       4.619  -0.180   1.524  1.00  0.00     0.261 C 
BRANCH   4   5
ATOM      5  O   UNL     1       3.237   0.165   1.702  1.00  0.00    -0.460 OA
BRANCH   5   6
ATOM      6  C   UNL     1       2.504   1.034   0.962  1.00  0.00     0.338 C 
ATOM      7  O   UNL     1       1.304   1.152   1.210  1.00  0.00    -0.246 OA
BRANCH   6   8
ATOM      8  C   UNL     1       3.088   1.915  -0.095  1.00  0.00     0.060 A 
ATOM      9  C   UNL     1       4.143   1.573  -0.947  1.00  0.00     0.016 A 
ATOM     10  C   UNL     1       2.478   3.167  -0.268  1.00  0.00     0.016 A 
ATOM     11  C   UNL     1       4.679   2.501  -1.840  1.00  0.00     0.010 A 
ATOM     12  C   UNL     1       2.965   4.076  -1.210  1.00  0.00     0.010 A 
ATOM     13  C   UNL     1       4.108   3.767  -1.957  1.00  0.00    -0.014 A 
BRANCH  13  14
ATOM     14  C   UNL     1       4.782   4.821  -2.744  1.00  0.00     0.031 A 
ATOM     15  C   UNL     1       5.435   5.950  -2.004  1.00  0.00     0.074 A 
ATOM     16  C   UNL     1       4.808   4.772  -4.087  1.00  0.00     0.049 A 
ATOM     17  N   UNL     1       5.965   7.047  -2.471  1.00  0.00    -0.248 NA
ATOM     18  C   UNL     1       5.497   5.826  -0.537  1.00  0.00     0.031 C 
ATOM     19  C   UNL     1       4.252   3.694  -4.901  1.00  0.00     0.029 A 
ATOM     20  N   UNL     1       5.299   5.667  -5.003  1.00  0.00    -0.354 N 
ATOM     21  C   UNL     1       6.372   7.768  -1.356  1.00  0.00     0.074 A 
ATOM     22  C   UNL     1       6.034   6.984  -0.190  1.00  0.00     0.031 C 
ATOM     23  C   UNL     1       4.396   4.013  -6.197  1.00  0.00     0.029 A 
ATOM     24  C   UNL     1       5.017   5.324  -6.303  1.00  0.00     0.049 A 
ATOM     25  H   UNL     1       5.804   6.475  -4.754  1.00  0.00     0.167 HD
ATOM     26  C   UNL     1       6.981   8.974  -1.311  1.00  0.00     0.034 A 
ATOM     27  C   UNL     1       5.204   6.002  -7.452  1.00  0.00     0.034 A 
ATOM     28  C   UNL     1       7.333   9.728  -2.480  1.00  0.00     0.049 A 
ATOM     29  C   UNL     1       5.875   7.342  -7.384  1.00  0.00     0.074 A 
ATOM     30  C   UNL     1       7.952  10.961  -2.559  1.00  0.00     0.029 A 
ATOM     31  N   UNL     1       7.091   9.312  -3.782  1.00  0.00    -0.354 N 
ATOM     32  N   UNL     1       6.300   7.991  -6.326  1.00  0.00    -0.248 NA
ATOM     33  C   UNL     1       6.127   8.028  -8.658  1.00  0.00     0.031 C 
ATOM     34  C   UNL     1       8.076  11.294  -3.913  1.00  0.00     0.029 A 
ATOM     35  C   UNL     1       7.550  10.261  -4.675  1.00  0.00     0.049 A 
ATOM     36  H   UNL     1       6.656   8.465  -4.033  1.00  0.00     0.167 HD
ATOM     37  C   UNL     1       6.895   9.150  -6.805  1.00  0.00     0.074 A 
ATOM     38  C   UNL     1       6.784   9.108  -8.251  1.00  0.00     0.031 C 
ATOM     39  C   UNL     1       7.472  10.161  -6.111  1.00  0.00     0.034 A 
BRANCH  26  40
ATOM     40  C   UNL     1       7.291   9.527   0.051  1.00  0.00     0.023 A 
ATOM     41  C   UNL     1       8.357   8.986   0.800  1.00  0.00     0.012 A 
ATOM     42  C   UNL     1       6.503  10.551   0.609  1.00  0.00     0.148 A 
ATOM     43  C   UNL     1       8.606   9.427   2.099  1.00  0.00     0.002 A 
ATOM     44  C   UNL     1       6.779  11.009   1.892  1.00  0.00     0.091 A 
ATOM     45  F   UNL     1       5.471  11.026  -0.102  1.00  0.00    -0.205 F 
ATOM     46  C   UNL     1       7.822  10.441   2.643  1.00  0.00     0.022 A 
BRANCH  44  47
ATOM     47  S   UNL     1       5.845  12.343   2.648  1.00  0.00     0.127 S 
ATOM     48  O   UNL     1       4.924  11.606   3.511  1.00  0.00    -0.237 OA
ATOM     49  O   UNL     1       6.884  13.088   3.362  1.00  0.00    -0.237 OA
ATOM     50  O   UNL     1       5.237  13.071   1.543  1.00  0.00    -0.744 OA
ENDBRANCH  44  47
ENDBRANCH  26  40
BRANCH  27  51
ATOM     51  C   UNL     1       4.772   5.404  -8.746  1.00  0.00     0.023 A 
ATOM     52  C   UNL     1       5.732   4.836  -9.603  1.00  0.00     0.012 A 
ATOM     53  C   UNL     1       3.410   5.345  -9.107  1.00  0.00     0.148 A 
ATOM     54  C   UNL     1       5.345   4.226 -10.798  1.00  0.00     0.002 A 
ATOM     55  C   UNL     1       3.028   4.716 -10.289  1.00  0.00     0.091 A 
ATOM     56  F   UNL     1       2.507   5.900  -8.285  1.00  0.00    -0.205 F 
ATOM     57  C   UNL     1       3.994   4.157 -11.138  1.00  0.00     0.022 A 
BRANCH  55  58
ATOM     58  S   UNL     1       1.291   4.545 -10.728  1.00  0.00     0.127 S 
ATOM     59  O   UNL     1       1.047   5.785 -11.461  1.00  0.00    -0.237 OA
ATOM     60  O   UNL     1       1.269   3.340 -11.559  1.00  0.00    -0.237 OA
ATOM     61  O   UNL     1       0.591   4.409  -9.454  1.00  0.00    -0.744 OA
ENDBRANCH  55  58
ENDBRANCH  27  51
BRANCH  39  62
ATOM     62  C   UNL     1       8.062  11.294  -6.899  1.00  0.00     0.023 A 
ATOM     63  C   UNL     1       7.218  12.283  -7.436  1.00  0.00     0.012 A 
ATOM     64  C   UNL     1       9.459  11.437  -6.997  1.00  0.00     0.148 A 
ATOM     65  C   UNL     1       7.758  13.400  -8.070  1.00  0.00     0.002 A 
ATOM     66  C   UNL     1       9.991  12.573  -7.591  1.00  0.00     0.091 A 
ATOM     67  F   UNL     1      10.238  10.467  -6.496  1.00  0.00    -0.205 F 
ATOM     68  C   UNL     1       9.143  13.553  -8.133  1.00  0.00     0.022 A 
BRANCH  66  69
ATOM     69  S   UNL     1      11.757  12.896  -7.627  1.00  0.00     0.127 S 
ATOM     70  O   UNL     1      12.077  12.648  -9.031  1.00  0.00    -0.237 OA
ATOM     71  O   UNL     1      11.825  14.301  -7.223  1.00  0.00    -0.237 OA
ATOM     72  O   UNL     1      12.353  11.967  -6.676  1.00  0.00    -0.744 OA
ENDBRANCH  66  69
ENDBRANCH  39  62
ENDBRANCH  13  14
ENDBRANCH   6   8
ENDBRANCH   5   6
ENDBRANCH   4   5
ENDBRANCH   3   4
ENDBRANCH   2   3
ENDBRANCH   1   2
BRANCH   1  73
ATOM     73  C   UNL     1       2.065  -2.928  -1.302  1.00  0.00     0.188 C 
BRANCH  73  74
ATOM     74  O   UNL     1       2.773  -4.118  -1.657  1.00  0.00    -0.376 OA
BRANCH  74  75
ATOM     75  C   UNL     1       4.142  -3.974  -2.022  1.00  0.00     0.202 C 
BRANCH  75  76
ATOM     76  C   UNL     1       4.436  -3.411  -3.417  1.00  0.00     0.261 C 
BRANCH  76  77
ATOM     77  O   UNL     1       3.889  -2.110  -3.684  1.00  0.00    -0.460 OA
BRANCH  77  78
ATOM     78  C   UNL     1       2.796  -2.127  -4.481  1.00  0.00     0.338 C 
ATOM     79  O   UNL     1       2.169  -3.104  -4.868  1.00  0.00    -0.246 OA
BRANCH  78  80
ATOM     80  C   UNL     1       2.479  -0.777  -4.952  1.00  0.00     0.067 A 
ATOM     81  C   UNL     1       1.464  -0.020  -4.353  1.00  0.00     0.025 A 
ATOM     82  C   UNL     1       3.045  -0.391  -6.162  1.00  0.00     0.101 A 
ATOM     83  C   UNL     1       0.972   1.141  -4.984  1.00  0.00    -0.011 A 
ATOM     84  C   UNL     1       2.565   0.756  -6.793  1.00  0.00     0.270 A 
ATOM     85  C   UNL     1       1.538   1.524  -6.217  1.00  0.00     0.094 A 
BRANCH  83  86
ATOM     86  C   UNL     1      -0.184   1.862  -4.420  1.00  0.00    -0.018 A 
ATOM     87  C   UNL     1      -0.164   2.401  -3.125  1.00  0.00     0.009 A 
ATOM     88  C   UNL     1      -1.369   1.991  -5.163  1.00  0.00     0.009 A 
ATOM     89  C   UNL     1      -1.294   3.035  -2.586  1.00  0.00     0.014 A 
ATOM     90  C   UNL     1      -2.501   2.614  -4.627  1.00  0.00     0.014 A 
ATOM     91  C   UNL     1      -2.479   3.137  -3.328  1.00  0.00     0.056 A 
BRANCH  91  92
ATOM     92  C   UNL     1      -3.701   3.793  -2.734  1.00  0.00     0.416 C 
ATOM     93  F   UNL     1      -4.081   3.215  -1.557  1.00  0.00    -0.166 F 
ATOM     94  F   UNL     1      -3.518   5.112  -2.454  1.00  0.00    -0.166 F 
ATOM     95  F   UNL     1      -4.803   3.732  -3.536  1.00  0.00    -0.166 F 
ENDBRANCH  91  92
ENDBRANCH  83  86
BRANCH  84  96
ATOM     96  N   UNL     1       3.122   1.106  -8.102  1.00  0.00     0.062 N 
ATOM     97  O   UNL     1       2.540   1.963  -8.763  1.00  0.00    -0.258 OA
ATOM     98  O   UNL     1       4.158   0.520  -8.454  1.00  0.00    -0.258 OA
ENDBRANCH  84  96
ENDBRANCH  78  80
ENDBRANCH  77  78
ENDBRANCH  76  77
ENDBRANCH  75  76
ENDBRANCH  74  75
ENDBRANCH  73  74
ENDBRANCH   1  73
TORSDOF 23
