REMARK SMILES CN(C)c1nccnc1N1CCC(Oc2ccc3ccccc3c2)(C(=O)OCCOCCOCCOC(=O)c2ccc(-c3c4nc(c(-c5cccc(S(=O)(=O)[O-])c5F)c5ccc([nH]5)c(-c5cccc(S(=O)(=O)[O-])c5F)c5nc(c(-c6cccc(S(=O)(=O)[O-])c6F)c6ccc3[nH]6)C=C5)C=C4)cc2)CC1
REMARK SMILES IDX 32 1 31 2 30 3 29 4 28 5 27 6 25 7 26 8 13 9 10 10 11 11
REMARK SMILES IDX 103 12 12 13 102 14 9 15 4 16 5 17 6 18 8 19 7 20 2 21 1 22
REMARK SMILES IDX 3 23 14 24 15 25 16 26 24 27 17 28 23 29 18 30 22 31 19 32
REMARK SMILES IDX 21 33 20 34 33 35 34 36 35 37 36 38 37 39 38 40 39 41 40 42
REMARK SMILES IDX 101 43 41 44 100 45 42 46 43 47 44 48 94 49 45 50 99 51
REMARK SMILES IDX 93 52 95 53 46 54 98 55 92 56 91 57 47 59 79 60 59 61 78 62
REMARK SMILES IDX 60 63 63 64 77 65 96 66 61 67 62 68 76 70 97 71 64 72 48 73
REMARK SMILES IDX 49 74 57 75 50 76 52 77 58 78 51 79 53 80 54 81 55 82 56 83
REMARK SMILES IDX 80 84 81 85 89 86 82 87 84 88 90 89 83 90 85 91 86 92 87 93
REMARK SMILES IDX 88 94 65 95 66 96 74 97 67 98 69 99 75 100 68 101 70 102
REMARK SMILES IDX 71 103 72 104 73 105
REMARK H PARENT 95 58 63 69
REMARK Flexibility Score: inf
ROOT
ATOM      1  C   UNL     1      -3.367  -3.266  -1.964  1.00  0.00     0.188 C 
ENDROOT
BRANCH   1   2
ATOM      2  C   UNL     1      -4.236  -3.084  -0.712  1.00  0.00     0.188 C 
BRANCH   2   3
ATOM      3  O   UNL     1      -5.457  -3.808  -0.649  1.00  0.00    -0.376 OA
BRANCH   3   4
ATOM      4  C   UNL     1      -6.302  -3.815  -1.795  1.00  0.00     0.202 C 
BRANCH   4   5
ATOM      5  C   UNL     1      -6.770  -2.446  -2.289  1.00  0.00     0.261 C 
BRANCH   5   6
ATOM      6  O   UNL     1      -5.867  -1.895  -3.274  1.00  0.00    -0.460 OA
BRANCH   6   7
ATOM      7  C   UNL     1      -5.294  -0.683  -2.998  1.00  0.00     0.350 C 
ATOM      8  O   UNL     1      -5.439  -0.107  -1.925  1.00  0.00    -0.247 OA
BRANCH   7   9
ATOM      9  C   UNL     1      -4.509  -0.099  -4.204  1.00  0.00     0.209 C 
ATOM     10  N   UNL     1      -1.636   0.017  -4.112  1.00  0.00    -0.353 N 
ATOM     11  C   UNL     1      -2.152  -1.214  -4.649  1.00  0.00     0.123 C 
ATOM     12  C   UNL     1      -2.371   0.722  -3.086  1.00  0.00     0.123 C 
ATOM     13  C   UNL     1      -3.650  -1.153  -4.949  1.00  0.00     0.082 C 
ATOM     14  C   UNL     1      -3.708   1.130  -3.701  1.00  0.00     0.082 C 
BRANCH  10  15
ATOM     15  C   UNL     1      -0.425   0.499  -4.580  1.00  0.00     0.171 A 
ATOM     16  C   UNL     1       0.707   0.742  -3.740  1.00  0.00     0.171 A 
ATOM     17  N   UNL     1       1.865   1.254  -4.239  1.00  0.00    -0.234 NA
ATOM     18  C   UNL     1       1.892   1.516  -5.554  1.00  0.00     0.134 A 
ATOM     19  N   UNL     1      -0.352   0.745  -5.916  1.00  0.00    -0.234 NA
ATOM     20  C   UNL     1       0.810   1.266  -6.371  1.00  0.00     0.134 A 
BRANCH  16  21
ATOM     21  N   UNL     1       0.735   0.336  -2.388  1.00  0.00    -0.360 N 
ATOM     22  C   UNL     1       1.496   1.258  -1.547  1.00  0.00     0.145 C 
ATOM     23  C   UNL     1       1.127  -1.069  -2.309  1.00  0.00     0.145 C 
ENDBRANCH  16  21
ENDBRANCH  10  15
BRANCH   9  24
ATOM     24  O   UNL     1      -5.686   0.226  -5.022  1.00  0.00    -0.475 OA
BRANCH  24  25
ATOM     25  C   UNL     1      -5.556   1.248  -5.915  1.00  0.00     0.121 A 
ATOM     26  C   UNL     1      -4.933   1.069  -7.144  1.00  0.00     0.047 A 
ATOM     27  C   UNL     1      -6.168   2.462  -5.609  1.00  0.00     0.055 A 
ATOM     28  C   UNL     1      -4.839   2.131  -8.041  1.00  0.00     0.012 A 
ATOM     29  C   UNL     1      -6.103   3.534  -6.512  1.00  0.00    -0.015 A 
ATOM     30  C   UNL     1      -5.417   3.369  -7.738  1.00  0.00    -0.018 A 
ATOM     31  C   UNL     1      -6.706   4.769  -6.229  1.00  0.00     0.009 A 
ATOM     32  C   UNL     1      -5.338   4.439  -8.638  1.00  0.00     0.009 A 
ATOM     33  C   UNL     1      -6.628   5.824  -7.140  1.00  0.00     0.001 A 
ATOM     34  C   UNL     1      -5.941   5.660  -8.341  1.00  0.00     0.001 A 
ENDBRANCH  24  25
ENDBRANCH   9  24
ENDBRANCH   7   9
ENDBRANCH   6   7
ENDBRANCH   5   6
ENDBRANCH   4   5
ENDBRANCH   3   4
ENDBRANCH   2   3
ENDBRANCH   1   2
BRANCH   1  35
ATOM     35  O   UNL     1      -3.448  -4.485  -2.688  1.00  0.00    -0.376 OA
BRANCH  35  36
ATOM     36  C   UNL     1      -3.229  -5.668  -1.925  1.00  0.00     0.202 C 
BRANCH  36  37
ATOM     37  C   UNL     1      -1.830  -5.774  -1.323  1.00  0.00     0.261 C 
BRANCH  37  38
ATOM     38  O   UNL     1      -1.625  -4.761  -0.318  1.00  0.00    -0.460 OA
BRANCH  38  39
ATOM     39  C   UNL     1      -0.325  -4.489  -0.075  1.00  0.00     0.338 C 
ATOM     40  O   UNL     1       0.633  -5.107  -0.529  1.00  0.00    -0.246 OA
BRANCH  39  41
ATOM     41  C   UNL     1      -0.152  -3.292   0.776  1.00  0.00     0.060 A 
ATOM     42  C   UNL     1      -0.717  -2.066   0.422  1.00  0.00     0.016 A 
ATOM     43  C   UNL     1       0.807  -3.336   1.788  1.00  0.00     0.016 A 
ATOM     44  C   UNL     1      -0.207  -0.881   0.957  1.00  0.00     0.010 A 
ATOM     45  C   UNL     1       1.274  -2.149   2.367  1.00  0.00     0.010 A 
ATOM     46  C   UNL     1       0.848  -0.902   1.881  1.00  0.00    -0.014 A 
BRANCH  46  47
ATOM     47  C   UNL     1       1.648   0.335   2.155  1.00  0.00     0.031 A 
ATOM     48  C   UNL     1       3.130   0.350   1.831  1.00  0.00     0.074 A 
ATOM     49  C   UNL     1       1.081   1.493   2.546  1.00  0.00     0.049 A 
ATOM     50  N   UNL     1       4.038   1.243   2.137  1.00  0.00    -0.248 NA
ATOM     51  C   UNL     1       3.655  -0.778   1.040  1.00  0.00     0.031 C 
ATOM     52  C   UNL     1      -0.348   1.712   2.755  1.00  0.00     0.029 A 
ATOM     53  N   UNL     1       1.646   2.720   2.812  1.00  0.00    -0.354 N 
ATOM     54  C   UNL     1       5.244   0.744   1.657  1.00  0.00     0.074 A 
ATOM     55  C   UNL     1       4.953  -0.515   1.008  1.00  0.00     0.031 C 
ATOM     56  C   UNL     1      -0.554   3.001   3.069  1.00  0.00     0.029 A 
ATOM     57  C   UNL     1       0.735   3.675   3.200  1.00  0.00     0.049 A 
ATOM     58  H   UNL     1       2.611   2.897   2.731  1.00  0.00     0.167 HD
ATOM     59  C   UNL     1       6.485   1.280   1.739  1.00  0.00     0.034 A 
ATOM     60  C   UNL     1       0.911   4.930   3.663  1.00  0.00     0.034 A 
ATOM     61  C   UNL     1       6.784   2.567   2.303  1.00  0.00     0.049 A 
ATOM     62  C   UNL     1       2.305   5.472   3.836  1.00  0.00     0.074 A 
ATOM     63  C   UNL     1       8.021   3.163   2.480  1.00  0.00     0.029 A 
ATOM     64  N   UNL     1       5.838   3.472   2.750  1.00  0.00    -0.354 N 
ATOM     65  N   UNL     1       3.448   4.951   3.465  1.00  0.00    -0.248 NA
ATOM     66  C   UNL     1       2.430   6.774   4.510  1.00  0.00     0.031 C 
ATOM     67  C   UNL     1       7.822   4.431   3.037  1.00  0.00     0.029 A 
ATOM     68  C   UNL     1       6.460   4.625   3.198  1.00  0.00     0.049 A 
ATOM     69  H   UNL     1       4.865   3.319   2.749  1.00  0.00     0.167 HD
ATOM     70  C   UNL     1       4.425   5.864   3.848  1.00  0.00     0.074 A 
ATOM     71  C   UNL     1       3.738   6.988   4.449  1.00  0.00     0.031 C 
ATOM     72  C   UNL     1       5.772   5.765   3.741  1.00  0.00     0.034 A 
BRANCH  59  73
ATOM     73  C   UNL     1       7.634   0.468   1.208  1.00  0.00     0.023 A 
ATOM     74  C   UNL     1       7.905   0.451  -0.173  1.00  0.00     0.012 A 
ATOM     75  C   UNL     1       8.485  -0.222   2.093  1.00  0.00     0.148 A 
ATOM     76  C   UNL     1       9.004  -0.252  -0.667  1.00  0.00     0.002 A 
ATOM     77  C   UNL     1       9.597  -0.891   1.597  1.00  0.00     0.091 A 
ATOM     78  F   UNL     1       8.187  -0.218   3.401  1.00  0.00    -0.205 F 
ATOM     79  C   UNL     1       9.855  -0.911   0.218  1.00  0.00     0.022 A 
BRANCH  77  80
ATOM     80  S   UNL     1      10.781  -1.705   2.676  1.00  0.00     0.127 S 
ATOM     81  O   UNL     1      10.410  -3.110   2.515  1.00  0.00    -0.237 OA
ATOM     82  O   UNL     1      12.062  -1.339   2.068  1.00  0.00    -0.237 OA
ATOM     83  O   UNL     1      10.561  -1.142   4.001  1.00  0.00    -0.744 OA
ENDBRANCH  77  80
ENDBRANCH  59  73
BRANCH  60  84
ATOM     84  C   UNL     1      -0.272   5.758   4.039  1.00  0.00     0.023 A 
ATOM     85  C   UNL     1      -0.555   6.937   3.324  1.00  0.00     0.012 A 
ATOM     86  C   UNL     1      -1.129   5.372   5.087  1.00  0.00     0.148 A 
ATOM     87  C   UNL     1      -1.665   7.718   3.653  1.00  0.00     0.002 A 
ATOM     88  C   UNL     1      -2.273   6.112   5.358  1.00  0.00     0.091 A 
ATOM     89  F   UNL     1      -0.819   4.278   5.798  1.00  0.00    -0.205 F 
ATOM     90  C   UNL     1      -2.535   7.296   4.656  1.00  0.00     0.022 A 
BRANCH  88  91
ATOM     91  S   UNL     1      -3.513   5.514   6.512  1.00  0.00     0.127 S 
ATOM     92  O   UNL     1      -3.157   6.227   7.735  1.00  0.00    -0.237 OA
ATOM     93  O   UNL     1      -4.761   5.951   5.885  1.00  0.00    -0.237 OA
ATOM     94  O   UNL     1      -3.338   4.067   6.534  1.00  0.00    -0.744 OA
ENDBRANCH  88  91
ENDBRANCH  60  84
BRANCH  72  95
ATOM     95  C   UNL     1       6.606   6.903   4.268  1.00  0.00     0.023 A 
ATOM     96  C   UNL     1       6.767   7.055   5.659  1.00  0.00     0.012 A 
ATOM     97  C   UNL     1       7.286   7.773   3.393  1.00  0.00     0.148 A 
ATOM     98  C   UNL     1       7.570   8.073   6.173  1.00  0.00     0.002 A 
ATOM     99  C   UNL     1       8.117   8.761   3.912  1.00  0.00     0.091 A 
ATOM    100  F   UNL     1       7.105   7.627   2.073  1.00  0.00    -0.205 F 
ATOM    101  C   UNL     1       8.253   8.918   5.301  1.00  0.00     0.022 A 
BRANCH  99 102
ATOM    102  S   UNL     1       9.097   9.834   2.856  1.00  0.00     0.127 S 
ATOM    103  O   UNL     1       8.304  11.062   2.859  1.00  0.00    -0.237 OA
ATOM    104  O   UNL     1      10.363   9.926   3.586  1.00  0.00    -0.237 OA
ATOM    105  O   UNL     1       9.193   9.146   1.576  1.00  0.00    -0.744 OA
ENDBRANCH  99 102
ENDBRANCH  72  95
ENDBRANCH  46  47
ENDBRANCH  39  41
ENDBRANCH  38  39
ENDBRANCH  37  38
ENDBRANCH  36  37
ENDBRANCH  35  36
ENDBRANCH   1  35
TORSDOF 24
