REMARK SMILES CC(C)C[C@@H]([NH2+][C@H]1CCOC2(CCOCC2)C1)C(=O)OCCOCCOCCOC(=O)c1ccc(-c2c3nc(c(-c4cccc(S(=O)(=O)[O-])c4F)c4ccc([nH]4)c(-c4cccc(S(=O)(=O)[O-])c4F)c4nc(c(-c5cccc(S(=O)(=O)[O-])c5F)c5ccc2[nH]5)C=C4)C=C3)cc1
REMARK SMILES IDX 25 1 24 2 23 3 22 4 21 5 20 6 18 7 19 8 5 9 4 10 2 11 1 12
REMARK SMILES IDX 3 13 6 14 7 17 8 18 17 19 9 20 11 21 10 22 12 23 16 24 13 25
REMARK SMILES IDX 15 26 14 27 26 28 27 29 28 30 29 31 30 32 31 33 32 34 33 35
REMARK SMILES IDX 94 36 34 37 93 38 35 39 36 40 37 41 87 42 38 43 92 44 86 45
REMARK SMILES IDX 88 46 39 47 91 48 85 49 84 50 40 52 72 53 52 54 71 55 53 56
REMARK SMILES IDX 56 57 70 58 89 59 54 60 55 61 69 63 90 64 57 65 41 66 42 67
REMARK SMILES IDX 50 68 43 69 45 70 51 71 44 72 46 73 47 74 48 75 49 76 73 77
REMARK SMILES IDX 74 78 82 79 75 80 77 81 83 82 76 83 78 84 79 85 80 86 81 87
REMARK SMILES IDX 58 88 59 89 67 90 60 91 62 92 68 93 61 94 63 95 64 96 65 97
REMARK SMILES IDX 66 98
REMARK H PARENT 6 15 6 16 88 51 56 62
REMARK Flexibility Score: inf
ROOT
ATOM      1  C   UNL     1       2.986   5.846   0.215  1.00  0.00     0.188 C 
ENDROOT
BRANCH   1   2
ATOM      2  C   UNL     1       2.860   4.413   0.731  1.00  0.00     0.188 C 
BRANCH   2   3
ATOM      3  O   UNL     1       3.888   3.522   0.386  1.00  0.00    -0.376 OA
BRANCH   3   4
ATOM      4  C   UNL     1       3.919   2.960  -0.912  1.00  0.00     0.202 C 
BRANCH   4   5
ATOM      5  C   UNL     1       2.759   3.013  -1.932  1.00  0.00     0.261 C 
BRANCH   5   6
ATOM      6  O   UNL     1       1.879   4.160  -1.905  1.00  0.00    -0.459 OA
BRANCH   6   7
ATOM      7  C   UNL     1       0.613   3.870  -1.491  1.00  0.00     0.364 C 
ATOM      8  O   UNL     1       0.308   2.708  -1.232  1.00  0.00    -0.245 OA
BRANCH   7   9
ATOM      9  C   UNL     1      -0.286   5.122  -1.124  1.00  0.00     0.293 C 
BRANCH   9  10
ATOM     10  C   UNL     1      -0.038   6.421  -1.923  1.00  0.00     0.080 C 
BRANCH  10  11
ATOM     11  C   UNL     1      -0.935   7.640  -1.535  1.00  0.00    -0.011 C 
ATOM     12  C   UNL     1      -1.101   7.879  -0.027  1.00  0.00     0.007 C 
ATOM     13  C   UNL     1      -0.405   8.934  -2.164  1.00  0.00     0.007 C 
ENDBRANCH  10  11
ENDBRANCH   9  10
BRANCH   9  14
ATOM     14  N   UNL     1      -1.749   4.775  -1.144  1.00  0.00    -0.332 N 
ATOM     15  H   UNL     1      -2.015   4.548  -2.102  1.00  0.00     0.347 HD
ATOM     16  H   UNL     1      -2.257   5.585  -0.788  1.00  0.00     0.347 HD
BRANCH  14  17
ATOM     17  C   UNL     1      -2.086   3.632  -0.281  1.00  0.00     0.188 C 
ATOM     18  C   UNL     1      -1.628   3.754   1.178  1.00  0.00     0.093 C 
ATOM     19  C   UNL     1      -3.570   3.261  -0.306  1.00  0.00     0.100 C 
ATOM     20  C   UNL     1      -1.894   2.450   1.910  1.00  0.00     0.167 C 
ATOM     21  C   UNL     1      -3.748   1.916   0.443  1.00  0.00     0.078 C 
ATOM     22  O   UNL     1      -3.256   2.060   1.787  1.00  0.00    -0.374 OA
ATOM     23  C   UNL     1      -3.068   0.732  -0.292  1.00  0.00     0.064 C 
ATOM     24  C   UNL     1      -5.241   1.590   0.582  1.00  0.00     0.064 C 
ATOM     25  C   UNL     1      -3.380  -0.592   0.388  1.00  0.00     0.163 C 
ATOM     26  C   UNL     1      -5.423   0.222   1.233  1.00  0.00     0.163 C 
ATOM     27  O   UNL     1      -4.791  -0.792   0.448  1.00  0.00    -0.381 OA
ENDBRANCH  14  17
ENDBRANCH   9  14
ENDBRANCH   7   9
ENDBRANCH   6   7
ENDBRANCH   5   6
ENDBRANCH   4   5
ENDBRANCH   3   4
ENDBRANCH   2   3
ENDBRANCH   1   2
BRANCH   1  28
ATOM     28  O   UNL     1       3.446   6.176  -1.079  1.00  0.00    -0.376 OA
BRANCH  28  29
ATOM     29  C   UNL     1       4.824   6.169  -1.416  1.00  0.00     0.202 C 
BRANCH  29  30
ATOM     30  C   UNL     1       5.955   6.681  -0.495  1.00  0.00     0.261 C 
BRANCH  30  31
ATOM     31  O   UNL     1       5.640   6.941   0.871  1.00  0.00    -0.460 OA
BRANCH  31  32
ATOM     32  C   UNL     1       5.059   8.145   1.113  1.00  0.00     0.338 C 
ATOM     33  O   UNL     1       4.892   9.047   0.308  1.00  0.00    -0.246 OA
BRANCH  32  34
ATOM     34  C   UNL     1       4.404   8.076   2.443  1.00  0.00     0.060 A 
ATOM     35  C   UNL     1       3.030   8.361   2.513  1.00  0.00     0.016 A 
ATOM     36  C   UNL     1       5.091   7.647   3.580  1.00  0.00     0.016 A 
ATOM     37  C   UNL     1       2.349   8.260   3.727  1.00  0.00     0.010 A 
ATOM     38  C   UNL     1       4.415   7.577   4.803  1.00  0.00     0.010 A 
ATOM     39  C   UNL     1       3.052   7.920   4.889  1.00  0.00    -0.014 A 
BRANCH  39  40
ATOM     40  C   UNL     1       2.433   8.152   6.218  1.00  0.00     0.031 A 
ATOM     41  C   UNL     1       2.772   9.432   6.934  1.00  0.00     0.074 A 
ATOM     42  C   UNL     1       1.599   7.263   6.788  1.00  0.00     0.049 A 
ATOM     43  N   UNL     1       2.423   9.836   8.126  1.00  0.00    -0.248 NA
ATOM     44  C   UNL     1       3.627  10.383   6.202  1.00  0.00     0.031 C 
ATOM     45  C   UNL     1       1.170   5.998   6.197  1.00  0.00     0.029 A 
ATOM     46  N   UNL     1       0.988   7.286   8.019  1.00  0.00    -0.354 N 
ATOM     47  C   UNL     1       3.044  11.066   8.303  1.00  0.00     0.074 A 
ATOM     48  C   UNL     1       3.797  11.341   7.100  1.00  0.00     0.031 C 
ATOM     49  C   UNL     1       0.393   5.347   7.082  1.00  0.00     0.029 A 
ATOM     50  C   UNL     1       0.295   6.134   8.311  1.00  0.00     0.049 A 
ATOM     51  H   UNL     1       1.041   8.053   8.633  1.00  0.00     0.167 HD
ATOM     52  C   UNL     1       2.988  11.901   9.367  1.00  0.00     0.034 A 
ATOM     53  C   UNL     1      -0.318   5.748   9.450  1.00  0.00     0.034 A 
ATOM     54  C   UNL     1       2.232  11.638  10.560  1.00  0.00     0.049 A 
ATOM     55  C   UNL     1      -0.332   6.678  10.639  1.00  0.00     0.074 A 
ATOM     56  C   UNL     1       2.080  12.444  11.674  1.00  0.00     0.029 A 
ATOM     57  N   UNL     1       1.516  10.477  10.804  1.00  0.00    -0.354 N 
ATOM     58  N   UNL     1       0.172   7.883  10.755  1.00  0.00    -0.248 NA
ATOM     59  C   UNL     1      -1.026   6.205  11.847  1.00  0.00     0.031 C 
ATOM     60  C   UNL     1       1.304  11.753  12.610  1.00  0.00     0.029 A 
ATOM     61  C   UNL     1       0.933  10.537  12.058  1.00  0.00     0.049 A 
ATOM     62  H   UNL     1       1.435   9.722  10.178  1.00  0.00     0.167 HD
ATOM     63  C   UNL     1      -0.179   8.326  12.027  1.00  0.00     0.074 A 
ATOM     64  C   UNL     1      -0.954   7.266  12.638  1.00  0.00     0.031 C 
ATOM     65  C   UNL     1       0.119   9.500  12.638  1.00  0.00     0.034 A 
BRANCH  52  66
ATOM     66  C   UNL     1       3.767  13.187   9.284  1.00  0.00     0.023 A 
ATOM     67  C   UNL     1       3.334  14.217   8.425  1.00  0.00     0.012 A 
ATOM     68  C   UNL     1       4.901  13.390  10.094  1.00  0.00     0.148 A 
ATOM     69  C   UNL     1       4.038  15.418   8.348  1.00  0.00     0.002 A 
ATOM     70  C   UNL     1       5.569  14.608  10.047  1.00  0.00     0.091 A 
ATOM     71  F   UNL     1       5.311  12.388  10.885  1.00  0.00    -0.205 F 
ATOM     72  C   UNL     1       5.147  15.617   9.166  1.00  0.00     0.022 A 
BRANCH  70  73
ATOM     73  S   UNL     1       6.957  14.992  11.119  1.00  0.00     0.127 S 
ATOM     74  O   UNL     1       8.063  15.037  10.164  1.00  0.00    -0.237 OA
ATOM     75  O   UNL     1       6.570  16.292  11.666  1.00  0.00    -0.237 OA
ATOM     76  O   UNL     1       7.021  13.915  12.097  1.00  0.00    -0.744 OA
ENDBRANCH  70  73
ENDBRANCH  52  66
BRANCH  53  77
ATOM     77  C   UNL     1      -0.986   4.417   9.528  1.00  0.00     0.023 A 
ATOM     78  C   UNL     1      -2.388   4.345   9.644  1.00  0.00     0.012 A 
ATOM     79  C   UNL     1      -0.238   3.224   9.497  1.00  0.00     0.148 A 
ATOM     80  C   UNL     1      -3.029   3.111   9.762  1.00  0.00     0.002 A 
ATOM     81  C   UNL     1      -0.887   1.997   9.558  1.00  0.00     0.091 A 
ATOM     82  F   UNL     1       1.097   3.315   9.406  1.00  0.00    -0.205 F 
ATOM     83  C   UNL     1      -2.281   1.938   9.710  1.00  0.00     0.022 A 
BRANCH  81  84
ATOM     84  S   UNL     1      -0.019   0.435   9.378  1.00  0.00     0.127 S 
ATOM     85  O   UNL     1      -0.169  -0.146  10.709  1.00  0.00    -0.237 OA
ATOM     86  O   UNL     1      -0.797  -0.219   8.326  1.00  0.00    -0.237 OA
ATOM     87  O   UNL     1       1.342   0.783   8.992  1.00  0.00    -0.744 OA
ENDBRANCH  81  84
ENDBRANCH  53  77
BRANCH  65  88
ATOM     88  C   UNL     1      -0.434   9.740  14.021  1.00  0.00     0.023 A 
ATOM     89  C   UNL     1       0.080   9.030  15.124  1.00  0.00     0.012 A 
ATOM     90  C   UNL     1      -1.412  10.733  14.236  1.00  0.00     0.148 A 
ATOM     91  C   UNL     1      -0.396   9.277  16.412  1.00  0.00     0.002 A 
ATOM     92  C   UNL     1      -1.843  11.011  15.528  1.00  0.00     0.091 A 
ATOM     93  F   UNL     1      -1.900  11.389  13.174  1.00  0.00    -0.205 F 
ATOM     94  C   UNL     1      -1.347  10.275  16.615  1.00  0.00     0.022 A 
BRANCH  92  95
ATOM     95  S   UNL     1      -2.989  12.345  15.897  1.00  0.00     0.127 S 
ATOM     96  O   UNL     1      -4.192  11.606  16.277  1.00  0.00    -0.237 OA
ATOM     97  O   UNL     1      -2.320  13.031  17.002  1.00  0.00    -0.237 OA
ATOM     98  O   UNL     1      -3.100  13.130  14.675  1.00  0.00    -0.744 OA
ENDBRANCH  92  95
ENDBRANCH  65  88
ENDBRANCH  39  40
ENDBRANCH  32  34
ENDBRANCH  31  32
ENDBRANCH  30  31
ENDBRANCH  29  30
ENDBRANCH  28  29
ENDBRANCH   1  28
TORSDOF 24
