REMARK SMILES O=C(COc1ccccc1/C=N\N1CC[NH+](Cc2ccc(Cl)cc2)CC1)OCCOCCOCCOC(=O)c1ccc(-c2c3nc(c(-c4cccc(S(=O)(=O)[O-])c4F)c4ccc([nH]4)c(-c4cccc(S(=O)(=O)[O-])c4F)c4nc(c(-c5cccc(S(=O)(=O)[O-])c5F)c5ccc2[nH]5)C=C4)C=C3)cc1
REMARK SMILES IDX 30 1 29 2 28 3 27 4 2 5 1 6 3 7 4 8 5 9 6 10 10 11 7 12 9 13
REMARK SMILES IDX 8 14 11 15 12 16 13 17 14 18 26 19 15 20 25 21 16 22 17 24
REMARK SMILES IDX 18 25 19 26 24 27 20 28 23 29 21 30 22 31 31 32 32 33 33 34
REMARK SMILES IDX 34 35 35 36 36 37 37 38 38 39 39 40 40 41 101 42 41 43
REMARK SMILES IDX 100 44 42 45 43 46 44 47 94 48 45 49 99 50 93 51 95 52 46 53
REMARK SMILES IDX 98 54 92 55 91 56 47 58 79 59 59 60 78 61 60 62 63 63 77 64
REMARK SMILES IDX 96 65 61 66 62 67 76 69 97 70 64 71 48 72 49 73 57 74 50 75
REMARK SMILES IDX 52 76 58 77 51 78 53 79 54 80 55 81 56 82 80 83 81 84 89 85
REMARK SMILES IDX 82 86 84 87 90 88 83 89 85 90 86 91 87 92 88 93 65 94 66 95
REMARK SMILES IDX 74 96 67 97 69 98 75 99 68 100 70 101 71 102 72 103 73 104
REMARK H PARENT 16 23 95 57 63 68
REMARK Flexibility Score: inf
ROOT
ATOM      1  O   UNL     1       4.887   0.981  -1.495  1.00  0.00    -0.376 OA
ENDROOT
BRANCH   1   2
ATOM      2  C   UNL     1       5.270   0.489  -0.225  1.00  0.00     0.202 C 
BRANCH   2   3
ATOM      3  C   UNL     1       4.464  -0.754   0.133  1.00  0.00     0.261 C 
BRANCH   3   4
ATOM      4  O   UNL     1       3.035  -0.604   0.024  1.00  0.00    -0.461 OA
BRANCH   4   5
ATOM      5  C   UNL     1       2.261   0.325   0.617  1.00  0.00     0.344 C 
ATOM      6  O   UNL     1       1.162   0.600   0.132  1.00  0.00    -0.248 OA
BRANCH   5   7
ATOM      7  C   UNL     1       2.751   1.076   1.865  1.00  0.00     0.352 C 
BRANCH   7   8
ATOM      8  O   UNL     1       3.648   0.582   2.821  1.00  0.00    -0.481 OA
BRANCH   8   9
ATOM      9  C   UNL     1       3.382  -0.496   3.614  1.00  0.00     0.129 A 
ATOM     10  C   UNL     1       4.229  -0.533   4.732  1.00  0.00     0.047 A 
ATOM     11  C   UNL     1       2.562  -1.598   3.354  1.00  0.00     0.037 A 
ATOM     12  C   UNL     1       4.357  -1.683   5.506  1.00  0.00     0.004 A 
ATOM     13  C   UNL     1       2.864  -2.800   4.007  1.00  0.00     0.013 A 
ATOM     14  C   UNL     1       3.731  -2.844   5.094  1.00  0.00     0.001 A 
BRANCH  11  15
ATOM     15  C   UNL     1       1.355  -1.454   2.504  1.00  0.00     0.145 C 
ATOM     16  N   UNL     1       0.613  -2.298   1.851  1.00  0.00    -0.185 NA
BRANCH  16  17
ATOM     17  N   UNL     1       0.707  -3.576   2.229  1.00  0.00    -0.286 NA
ATOM     18  C   UNL     1       0.472  -4.578   1.182  1.00  0.00     0.200 C 
ATOM     19  C   UNL     1      -0.176  -3.830   3.387  1.00  0.00     0.200 C 
ATOM     20  C   UNL     1       0.525  -6.025   1.730  1.00  0.00     0.286 C 
ATOM     21  C   UNL     1      -0.011  -5.237   3.954  1.00  0.00     0.286 C 
ATOM     22  N   UNL     1      -0.207  -6.313   2.978  1.00  0.00    -0.328 N 
ATOM     23  H   UNL     1       0.220  -7.163   3.347  1.00  0.00     0.348 HD
BRANCH  22  24
ATOM     24  C   UNL     1      -1.608  -6.731   2.832  1.00  0.00     0.299 C 
BRANCH  24  25
ATOM     25  C   UNL     1      -2.591  -5.715   2.292  1.00  0.00     0.006 A 
ATOM     26  C   UNL     1      -3.297  -4.860   3.157  1.00  0.00     0.011 A 
ATOM     27  C   UNL     1      -2.739  -5.545   0.908  1.00  0.00     0.011 A 
ATOM     28  C   UNL     1      -4.033  -3.785   2.648  1.00  0.00     0.021 A 
ATOM     29  C   UNL     1      -3.476  -4.473   0.400  1.00  0.00     0.021 A 
ATOM     30  C   UNL     1      -4.100  -3.585   1.272  1.00  0.00     0.041 A 
ATOM     31  Cl  UNL     1      -4.939  -2.222   0.643  1.00  0.00    -0.084 Cl
ENDBRANCH  24  25
ENDBRANCH  22  24
ENDBRANCH  16  17
ENDBRANCH  11  15
ENDBRANCH   8   9
ENDBRANCH   7   8
ENDBRANCH   5   7
ENDBRANCH   4   5
ENDBRANCH   3   4
ENDBRANCH   2   3
ENDBRANCH   1   2
BRANCH   1  32
ATOM     32  C   UNL     1       3.773   1.864  -1.508  1.00  0.00     0.188 C 
BRANCH  32  33
ATOM     33  C   UNL     1       2.742   1.467  -2.579  1.00  0.00     0.188 C 
BRANCH  33  34
ATOM     34  O   UNL     1       3.196   1.139  -3.888  1.00  0.00    -0.376 OA
BRANCH  34  35
ATOM     35  C   UNL     1       4.466   1.616  -4.291  1.00  0.00     0.202 C 
BRANCH  35  36
ATOM     36  C   UNL     1       4.602   3.134  -4.511  1.00  0.00     0.261 C 
BRANCH  36  37
ATOM     37  O   UNL     1       4.206   3.986  -3.408  1.00  0.00    -0.460 OA
BRANCH  37  38
ATOM     38  C   UNL     1       2.990   4.575  -3.494  1.00  0.00     0.338 C 
ATOM     39  O   UNL     1       2.241   4.532  -4.471  1.00  0.00    -0.246 OA
BRANCH  38  40
ATOM     40  C   UNL     1       2.552   5.181  -2.203  1.00  0.00     0.060 A 
ATOM     41  C   UNL     1       1.295   4.818  -1.694  1.00  0.00     0.016 A 
ATOM     42  C   UNL     1       3.277   6.186  -1.556  1.00  0.00     0.016 A 
ATOM     43  C   UNL     1       0.731   5.497  -0.605  1.00  0.00     0.010 A 
ATOM     44  C   UNL     1       2.700   6.880  -0.470  1.00  0.00     0.010 A 
ATOM     45  C   UNL     1       1.399   6.580  -0.019  1.00  0.00    -0.014 A 
BRANCH  45  46
ATOM     46  C   UNL     1       0.654   7.494   0.905  1.00  0.00     0.031 A 
ATOM     47  C   UNL     1       0.143   8.819   0.379  1.00  0.00     0.074 A 
ATOM     48  C   UNL     1       0.379   7.161   2.183  1.00  0.00     0.049 A 
ATOM     49  N   UNL     1      -0.534   9.757   0.995  1.00  0.00    -0.248 NA
ATOM     50  C   UNL     1       0.435   9.123  -1.031  1.00  0.00     0.031 C 
ATOM     51  C   UNL     1       0.791   5.925   2.844  1.00  0.00     0.029 A 
ATOM     52  N   UNL     1      -0.299   7.853   3.163  1.00  0.00    -0.354 N 
ATOM     53  C   UNL     1      -0.734  10.766   0.057  1.00  0.00     0.074 A 
ATOM     54  C   UNL     1      -0.082  10.336  -1.162  1.00  0.00     0.031 C 
ATOM     55  C   UNL     1       0.387   5.959   4.127  1.00  0.00     0.029 A 
ATOM     56  C   UNL     1      -0.300   7.225   4.388  1.00  0.00     0.049 A 
ATOM     57  H   UNL     1      -0.743   8.717   3.002  1.00  0.00     0.167 HD
ATOM     58  C   UNL     1      -1.413  11.934   0.179  1.00  0.00     0.034 A 
ATOM     59  C   UNL     1      -0.778   7.625   5.587  1.00  0.00     0.034 A 
ATOM     60  C   UNL     1      -2.080  12.375   1.377  1.00  0.00     0.049 A 
ATOM     61  C   UNL     1      -1.509   8.941   5.706  1.00  0.00     0.074 A 
ATOM     62  C   UNL     1      -2.816  13.532   1.575  1.00  0.00     0.029 A 
ATOM     63  N   UNL     1      -2.089  11.690   2.580  1.00  0.00    -0.354 N 
ATOM     64  N   UNL     1      -1.779   9.828   4.779  1.00  0.00    -0.248 NA
ATOM     65  C   UNL     1      -2.039   9.292   7.035  1.00  0.00     0.031 C 
ATOM     66  C   UNL     1      -3.244  13.560   2.907  1.00  0.00     0.029 A 
ATOM     67  C   UNL     1      -2.809  12.402   3.527  1.00  0.00     0.049 A 
ATOM     68  H   UNL     1      -1.649  10.824   2.740  1.00  0.00     0.167 HD
ATOM     69  C   UNL     1      -2.534  10.819   5.402  1.00  0.00     0.074 A 
ATOM     70  C   UNL     1      -2.709  10.407   6.778  1.00  0.00     0.031 C 
ATOM     71  C   UNL     1      -3.022  11.975   4.886  1.00  0.00     0.034 A 
BRANCH  58  72
ATOM     72  C   UNL     1      -1.505  12.821  -1.040  1.00  0.00     0.023 A 
ATOM     73  C   UNL     1      -2.325  12.435  -2.120  1.00  0.00     0.012 A 
ATOM     74  C   UNL     1      -0.843  14.064  -1.086  1.00  0.00     0.148 A 
ATOM     75  C   UNL     1      -2.460  13.256  -3.239  1.00  0.00     0.002 A 
ATOM     76  C   UNL     1      -1.019  14.898  -2.185  1.00  0.00     0.091 A 
ATOM     77  F   UNL     1      -0.057  14.409  -0.056  1.00  0.00    -0.205 F 
ATOM     78  C   UNL     1      -1.817  14.490  -3.267  1.00  0.00     0.022 A 
BRANCH  76  79
ATOM     79  S   UNL     1      -0.301  16.542  -2.285  1.00  0.00     0.127 S 
ATOM     80  O   UNL     1       0.665  16.376  -3.370  1.00  0.00    -0.237 OA
ATOM     81  O   UNL     1      -1.463  17.364  -2.624  1.00  0.00    -0.237 OA
ATOM     82  O   UNL     1       0.277  16.811  -0.976  1.00  0.00    -0.744 OA
ENDBRANCH  76  79
ENDBRANCH  58  72
BRANCH  59  83
ATOM     83  C   UNL     1      -0.593   6.764   6.794  1.00  0.00     0.023 A 
ATOM     84  C   UNL     1      -1.710   6.179   7.423  1.00  0.00     0.012 A 
ATOM     85  C   UNL     1       0.689   6.543   7.334  1.00  0.00     0.148 A 
ATOM     86  C   UNL     1      -1.558   5.427   8.590  1.00  0.00     0.002 A 
ATOM     87  C   UNL     1       0.840   5.738   8.457  1.00  0.00     0.091 A 
ATOM     88  F   UNL     1       1.738   7.126   6.738  1.00  0.00    -0.205 F 
ATOM     89  C   UNL     1      -0.284   5.198   9.101  1.00  0.00     0.022 A 
BRANCH  87  90
ATOM     90  S   UNL     1       2.453   5.275   9.097  1.00  0.00     0.127 S 
ATOM     91  O   UNL     1       2.502   6.014  10.355  1.00  0.00    -0.237 OA
ATOM     92  O   UNL     1       2.316   3.825   9.237  1.00  0.00    -0.237 OA
ATOM     93  O   UNL     1       3.412   5.688   8.081  1.00  0.00    -0.744 OA
ENDBRANCH  87  90
ENDBRANCH  59  83
BRANCH  71  94
ATOM     94  C   UNL     1      -3.828  12.869   5.800  1.00  0.00     0.023 A 
ATOM     95  C   UNL     1      -3.195  13.546   6.863  1.00  0.00     0.012 A 
ATOM     96  C   UNL     1      -5.208  13.066   5.588  1.00  0.00     0.148 A 
ATOM     97  C   UNL     1      -3.928  14.357   7.730  1.00  0.00     0.002 A 
ATOM     98  C   UNL     1      -5.922  13.918   6.425  1.00  0.00     0.091 A 
ATOM     99  F   UNL     1      -5.802  12.407   4.583  1.00  0.00    -0.205 F 
ATOM    100  C   UNL     1      -5.288  14.550   7.506  1.00  0.00     0.022 A 
BRANCH  98 101
ATOM    101  S   UNL     1      -7.658  14.300   6.158  1.00  0.00     0.127 S 
ATOM    102  O   UNL     1      -8.299  13.542   7.232  1.00  0.00    -0.237 OA
ATOM    103  O   UNL     1      -7.688  15.752   6.336  1.00  0.00    -0.237 OA
ATOM    104  O   UNL     1      -7.963  13.852   4.806  1.00  0.00    -0.744 OA
ENDBRANCH  98 101
ENDBRANCH  71  94
ENDBRANCH  45  46
ENDBRANCH  38  40
ENDBRANCH  37  38
ENDBRANCH  36  37
ENDBRANCH  35  36
ENDBRANCH  34  35
ENDBRANCH  33  34
ENDBRANCH  32  33
ENDBRANCH   1  32
TORSDOF 26
