REMARK SMILES O=C(OCCOCCOCCOC(=O)c1cc(S[C@H]2CCO[C@@]3(CCOC3)C2)cs1)c1ccc(-c2c3nc(c(-c4cccc(S(=O)(=O)[O-])c4F)c4ccc([nH]4)c(-c4cccc(S(=O)(=O)[O-])c4F)c4nc(c(-c5cccc(S(=O)(=O)[O-])c5F)c5ccc2[nH]5)C=C4)C=C3)cc1
REMARK SMILES IDX 7 1 6 2 5 3 4 4 3 5 2 6 1 7 31 8 32 9 93 10 33 11 92 12
REMARK SMILES IDX 34 13 35 14 36 15 86 16 37 17 91 18 85 19 87 20 38 21 90 22
REMARK SMILES IDX 84 23 83 24 39 26 71 27 51 28 70 29 52 30 55 31 69 32 88 33
REMARK SMILES IDX 53 34 54 35 68 37 89 38 56 39 40 40 41 41 49 42 42 43 44 44
REMARK SMILES IDX 50 45 43 46 45 47 46 48 47 49 48 50 72 51 73 52 81 53 74 54
REMARK SMILES IDX 76 55 82 56 75 57 77 58 78 59 79 60 80 61 57 62 58 63 66 64
REMARK SMILES IDX 59 65 61 66 67 67 60 68 62 69 63 70 64 71 65 72 8 73 9 74
REMARK SMILES IDX 10 75 11 76 12 77 13 78 14 79 15 80 16 81 30 82 17 83 29 84
REMARK SMILES IDX 18 85 19 86 20 87 28 88 21 89 23 90 22 91 24 92 27 93 25 94
REMARK SMILES IDX 26 95
REMARK H PARENT 87 25 55 36
REMARK Flexibility Score: inf
ROOT
ATOM      1  C   UNL     1      -2.430   0.600  15.105  1.00  0.00     0.188 C 
ENDROOT
BRANCH   1   2
ATOM      2  O   UNL     1      -2.673  -0.464  14.171  1.00  0.00    -0.376 OA
BRANCH   2   3
ATOM      3  C   UNL     1      -3.746  -1.321  14.558  1.00  0.00     0.202 C 
BRANCH   3   4
ATOM      4  C   UNL     1      -3.268  -2.609  15.234  1.00  0.00     0.261 C 
BRANCH   4   5
ATOM      5  O   UNL     1      -2.272  -2.315  16.231  1.00  0.00    -0.460 OA
BRANCH   5   6
ATOM      6  C   UNL     1      -0.928  -2.476  16.129  1.00  0.00     0.338 C 
ATOM      7  O   UNL     1      -0.204  -2.067  17.034  1.00  0.00    -0.246 OA
BRANCH   6   8
ATOM      8  C   UNL     1      -0.305  -3.243  15.014  1.00  0.00     0.060 A 
ATOM      9  C   UNL     1      -0.632  -3.075  13.667  1.00  0.00     0.016 A 
ATOM     10  C   UNL     1       0.723  -4.138  15.348  1.00  0.00     0.016 A 
ATOM     11  C   UNL     1      -0.059  -3.898  12.691  1.00  0.00     0.010 A 
ATOM     12  C   UNL     1       1.352  -4.909  14.361  1.00  0.00     0.010 A 
ATOM     13  C   UNL     1       0.926  -4.838  13.029  1.00  0.00    -0.014 A 
BRANCH  13  14
ATOM     14  C   UNL     1       1.473  -5.748  11.986  1.00  0.00     0.031 A 
ATOM     15  C   UNL     1       1.202  -7.231  12.040  1.00  0.00     0.074 A 
ATOM     16  C   UNL     1       2.214  -5.251  10.976  1.00  0.00     0.049 A 
ATOM     17  N   UNL     1       1.515  -8.158  11.169  1.00  0.00    -0.248 NA
ATOM     18  C   UNL     1       0.498  -7.744  13.227  1.00  0.00     0.031 C 
ATOM     19  C   UNL     1       2.648  -3.859  10.842  1.00  0.00     0.029 A 
ATOM     20  N   UNL     1       2.753  -5.874   9.877  1.00  0.00    -0.354 N 
ATOM     21  C   UNL     1       1.076  -9.360  11.712  1.00  0.00     0.074 A 
ATOM     22  C   UNL     1       0.485  -9.049  12.996  1.00  0.00     0.031 C 
ATOM     23  C   UNL     1       3.402  -3.743   9.735  1.00  0.00     0.029 A 
ATOM     24  C   UNL     1       3.499  -5.040   9.079  1.00  0.00     0.049 A 
ATOM     25  H   UNL     1       2.618  -6.829   9.680  1.00  0.00     0.167 HD
ATOM     26  C   UNL     1       1.129 -10.607  11.187  1.00  0.00     0.034 A 
ATOM     27  C   UNL     1       4.181  -5.293   7.946  1.00  0.00     0.034 A 
ATOM     28  C   UNL     1       1.666 -10.932   9.894  1.00  0.00     0.049 A 
ATOM     29  C   UNL     1       4.121  -6.668   7.334  1.00  0.00     0.074 A 
ATOM     30  C   UNL     1       1.703 -12.162   9.258  1.00  0.00     0.029 A 
ATOM     31  N   UNL     1       2.263 -10.024   9.040  1.00  0.00    -0.354 N 
ATOM     32  N   UNL     1       3.480  -7.731   7.751  1.00  0.00    -0.248 NA
ATOM     33  C   UNL     1       4.838  -6.861   6.062  1.00  0.00     0.031 C 
ATOM     34  C   UNL     1       2.316 -11.994   8.010  1.00  0.00     0.029 A 
ATOM     35  C   UNL     1       2.674 -10.663   7.883  1.00  0.00     0.049 A 
ATOM     36  H   UNL     1       2.379  -9.064   9.226  1.00  0.00     0.167 HD
ATOM     37  C   UNL     1       3.712  -8.709   6.791  1.00  0.00     0.074 A 
ATOM     38  C   UNL     1       4.488  -8.095   5.737  1.00  0.00     0.031 C 
ATOM     39  C   UNL     1       3.368 -10.019   6.805  1.00  0.00     0.034 A 
BRANCH  26  40
ATOM     40  C   UNL     1       0.510 -11.716  11.988  1.00  0.00     0.023 A 
ATOM     41  C   UNL     1      -0.882 -11.914  11.904  1.00  0.00     0.012 A 
ATOM     42  C   UNL     1       1.291 -12.576  12.781  1.00  0.00     0.148 A 
ATOM     43  C   UNL     1      -1.493 -12.948  12.611  1.00  0.00     0.002 A 
ATOM     44  C   UNL     1       0.677 -13.617  13.468  1.00  0.00     0.091 A 
ATOM     45  F   UNL     1       2.609 -12.347  12.870  1.00  0.00    -0.205 F 
ATOM     46  C   UNL     1      -0.713 -13.803  13.386  1.00  0.00     0.022 A 
BRANCH  44  47
ATOM     47  S   UNL     1       1.607 -14.788  14.462  1.00  0.00     0.127 S 
ATOM     48  O   UNL     1       1.366 -14.284  15.813  1.00  0.00    -0.237 OA
ATOM     49  O   UNL     1       0.943 -16.057  14.158  1.00  0.00    -0.237 OA
ATOM     50  O   UNL     1       2.982 -14.700  13.990  1.00  0.00    -0.744 OA
ENDBRANCH  44  47
ENDBRANCH  26  40
BRANCH  27  51
ATOM     51  C   UNL     1       4.966  -4.231   7.261  1.00  0.00     0.023 A 
ATOM     52  C   UNL     1       4.545  -3.782   5.994  1.00  0.00     0.012 A 
ATOM     53  C   UNL     1       6.182  -3.764   7.790  1.00  0.00     0.148 A 
ATOM     54  C   UNL     1       5.378  -2.982   5.217  1.00  0.00     0.002 A 
ATOM     55  C   UNL     1       6.972  -2.904   7.038  1.00  0.00     0.091 A 
ATOM     56  F   UNL     1       6.573  -4.205   8.994  1.00  0.00    -0.205 F 
ATOM     57  C   UNL     1       6.594  -2.546   5.736  1.00  0.00     0.022 A 
BRANCH  55  58
ATOM     58  S   UNL     1       8.453  -2.155   7.721  1.00  0.00     0.127 S 
ATOM     59  O   UNL     1       9.487  -3.097   7.308  1.00  0.00    -0.237 OA
ATOM     60  O   UNL     1       8.488  -0.861   7.034  1.00  0.00    -0.237 OA
ATOM     61  O   UNL     1       8.194  -2.060   9.151  1.00  0.00    -0.744 OA
ENDBRANCH  55  58
ENDBRANCH  27  51
BRANCH  39  62
ATOM     62  C   UNL     1       3.842 -10.854   5.650  1.00  0.00     0.023 A 
ATOM     63  C   UNL     1       5.196 -11.243   5.605  1.00  0.00     0.012 A 
ATOM     64  C   UNL     1       2.973 -11.250   4.619  1.00  0.00     0.148 A 
ATOM     65  C   UNL     1       5.686 -11.986   4.532  1.00  0.00     0.002 A 
ATOM     66  C   UNL     1       3.462 -12.019   3.567  1.00  0.00     0.091 A 
ATOM     67  F   UNL     1       1.695 -10.844   4.657  1.00  0.00    -0.205 F 
ATOM     68  C   UNL     1       4.818 -12.381   3.517  1.00  0.00     0.022 A 
BRANCH  66  69
ATOM     69  S   UNL     1       2.372 -12.605   2.267  1.00  0.00     0.127 S 
ATOM     70  O   UNL     1       2.407 -11.497   1.316  1.00  0.00    -0.237 OA
ATOM     71  O   UNL     1       3.039 -13.824   1.805  1.00  0.00    -0.237 OA
ATOM     72  O   UNL     1       1.095 -12.843   2.929  1.00  0.00    -0.744 OA
ENDBRANCH  66  69
ENDBRANCH  39  62
ENDBRANCH  13  14
ENDBRANCH   6   8
ENDBRANCH   5   6
ENDBRANCH   4   5
ENDBRANCH   3   4
ENDBRANCH   2   3
ENDBRANCH   1   2
BRANCH   1  73
ATOM     73  C   UNL     1      -1.512   1.640  14.464  1.00  0.00     0.188 C 
BRANCH  73  74
ATOM     74  O   UNL     1      -2.223   2.542  13.606  1.00  0.00    -0.376 OA
BRANCH  74  75
ATOM     75  C   UNL     1      -2.620   2.015  12.342  1.00  0.00     0.202 C 
BRANCH  75  76
ATOM     76  C   UNL     1      -1.625   2.292  11.214  1.00  0.00     0.261 C 
BRANCH  76  77
ATOM     77  O   UNL     1      -0.423   1.510  11.308  1.00  0.00    -0.459 OA
BRANCH  77  78
ATOM     78  C   UNL     1       0.603   2.103  11.983  1.00  0.00     0.348 C 
ATOM     79  O   UNL     1       0.528   3.190  12.551  1.00  0.00    -0.245 OA
BRANCH  78  80
ATOM     80  C   UNL     1       1.794   1.298  11.889  1.00  0.00     0.113 A 
ATOM     81  C   UNL     1       2.287   0.601  10.800  1.00  0.00     0.042 A 
ATOM     82  S   UNL     1       2.863   1.216  13.223  1.00  0.00    -0.136 S 
ATOM     83  C   UNL     1       3.677   0.350  10.959  1.00  0.00     0.019 A 
ATOM     84  C   UNL     1       4.082   0.495  12.266  1.00  0.00     0.080 A 
BRANCH  83  85
ATOM     85  S   UNL     1       4.804  -0.046   9.679  1.00  0.00    -0.122 SA
BRANCH  85  86
ATOM     86  C   UNL     1       4.106   0.717   8.175  1.00  0.00     0.057 C 
ATOM     87  C   UNL     1       3.720   2.191   8.312  1.00  0.00     0.043 C 
ATOM     88  C   UNL     1       5.145   0.624   7.054  1.00  0.00     0.053 C 
ATOM     89  C   UNL     1       3.141   2.659   6.987  1.00  0.00     0.162 C 
ATOM     90  C   UNL     1       4.612   1.202   5.733  1.00  0.00     0.095 C 
ATOM     91  O   UNL     1       4.087   2.530   5.934  1.00  0.00    -0.372 OA
ATOM     92  C   UNL     1       5.719   1.342   4.687  1.00  0.00     0.066 C 
ATOM     93  C   UNL     1       3.585   0.285   5.049  1.00  0.00     0.195 C 
ATOM     94  C   UNL     1       5.303   0.452   3.539  1.00  0.00     0.163 C 
ATOM     95  O   UNL     1       3.892   0.269   3.647  1.00  0.00    -0.378 OA
ENDBRANCH  85  86
ENDBRANCH  83  85
ENDBRANCH  78  80
ENDBRANCH  77  78
ENDBRANCH  76  77
ENDBRANCH  75  76
ENDBRANCH  74  75
ENDBRANCH  73  74
ENDBRANCH   1  73
TORSDOF 22
