REMARK SMILES C[C@@H]1CC[C@@H](C(=O)OCCOCCOCCOC(=O)c2ccc(-c3c4nc(c(-c5cccc(S(=O)(=O)[O-])c5F)c5ccc([nH]5)c(-c5cccc(S(=O)(=O)[O-])c5F)c5nc(c(-c6cccc(S(=O)(=O)[O-])c6F)c6ccc3[nH]6)C=C5)C=C4)cc2)[C@H](SCC[NH+](C)C)C1
REMARK SMILES IDX 12 1 11 2 10 3 9 4 8 5 6 6 7 7 5 8 1 9 2 10 3 11 90 12 4 13
REMARK SMILES IDX 83 14 84 15 85 16 86 17 87 18 88 19 89 20 13 22 14 23 15 24
REMARK SMILES IDX 16 25 17 26 18 27 19 28 20 29 21 30 82 31 22 32 81 33 23 34
REMARK SMILES IDX 24 35 25 36 75 37 26 38 80 39 74 40 76 41 27 42 79 43 73 44
REMARK SMILES IDX 72 45 28 47 60 48 40 49 59 50 41 51 44 52 58 53 77 54 42 55
REMARK SMILES IDX 43 56 57 58 78 59 45 60 29 61 30 62 38 63 31 64 33 65 39 66
REMARK SMILES IDX 32 67 34 68 35 69 36 70 37 71 61 72 62 73 70 74 63 75 65 76
REMARK SMILES IDX 71 77 64 78 66 79 67 80 68 81 69 82 46 83 47 84 55 85 48 86
REMARK SMILES IDX 50 87 56 88 49 89 51 90 52 91 53 92 54 93
REMARK H PARENT 87 21 76 46 44 57
REMARK Flexibility Score: inf
ROOT
ATOM      1  C   UNL     1      -0.751   1.081  -3.910  1.00  0.00     0.188 C 
ENDROOT
BRANCH   1   2
ATOM      2  O   UNL     1      -1.465   0.797  -5.092  1.00  0.00    -0.376 OA
BRANCH   2   3
ATOM      3  C   UNL     1      -2.819   0.388  -4.881  1.00  0.00     0.202 C 
BRANCH   3   4
ATOM      4  C   UNL     1      -3.130  -0.726  -3.833  1.00  0.00     0.261 C 
BRANCH   4   5
ATOM      5  O   UNL     1      -2.928  -0.334  -2.442  1.00  0.00    -0.463 OA
BRANCH   5   6
ATOM      6  C   UNL     1      -2.652  -1.333  -1.525  1.00  0.00     0.310 C 
ATOM      7  O   UNL     1      -2.839  -2.519  -1.761  1.00  0.00    -0.252 OA
BRANCH   6   8
ATOM      8  C   UNL     1      -2.068  -0.766  -0.175  1.00  0.00     0.112 C 
ATOM      9  C   UNL     1       2.141  -1.843   0.181  1.00  0.00     0.007 C 
ATOM     10  C   UNL     1       0.780  -1.765  -0.531  1.00  0.00    -0.013 C 
ATOM     11  C   UNL     1       0.364  -0.360  -0.996  1.00  0.00     0.004 C 
ATOM     12  C   UNL     1      -0.295  -2.596   0.170  1.00  0.00     0.018 C 
ATOM     13  C   UNL     1      -0.999   0.223  -0.578  1.00  0.00     0.017 C 
ATOM     14  C   UNL     1      -1.496  -1.848   0.790  1.00  0.00     0.061 C 
BRANCH  14  15
ATOM     15  S   UNL     1      -1.266  -1.843   2.728  1.00  0.00    -0.152 SA
BRANCH  15  16
ATOM     16  C   UNL     1      -0.990  -0.197   3.601  1.00  0.00     0.131 C 
BRANCH  16  17
ATOM     17  C   UNL     1       0.475   0.274   4.039  1.00  0.00     0.272 C 
BRANCH  17  18
ATOM     18  N   UNL     1       1.205   1.163   3.110  1.00  0.00    -0.339 N 
ATOM     19  C   UNL     1       2.664   1.095   3.186  1.00  0.00     0.332 C 
ATOM     20  C   UNL     1       0.809   0.819   1.784  1.00  0.00     0.332 C 
ATOM     21  H   UNL     1       0.962   2.116   3.377  1.00  0.00     0.347 HD
ENDBRANCH  17  18
ENDBRANCH  16  17
ENDBRANCH  15  16
ENDBRANCH  14  15
ENDBRANCH   6   8
ENDBRANCH   5   6
ENDBRANCH   4   5
ENDBRANCH   3   4
ENDBRANCH   2   3
ENDBRANCH   1   2
BRANCH   1  22
ATOM     22  C   UNL     1      -0.966   2.454  -3.292  1.00  0.00     0.188 C 
BRANCH  22  23
ATOM     23  O   UNL     1      -2.273   2.972  -3.158  1.00  0.00    -0.376 OA
BRANCH  23  24
ATOM     24  C   UNL     1      -2.666   4.002  -4.062  1.00  0.00     0.202 C 
BRANCH  24  25
ATOM     25  C   UNL     1      -1.709   5.140  -4.531  1.00  0.00     0.261 C 
BRANCH  25  26
ATOM     26  O   UNL     1      -0.326   5.108  -4.133  1.00  0.00    -0.460 OA
BRANCH  26  27
ATOM     27  C   UNL     1      -0.058   5.410  -2.841  1.00  0.00     0.338 C 
ATOM     28  O   UNL     1      -0.845   5.934  -2.060  1.00  0.00    -0.246 OA
BRANCH  27  29
ATOM     29  C   UNL     1       1.250   4.807  -2.425  1.00  0.00     0.060 A 
ATOM     30  C   UNL     1       1.323   4.239  -1.144  1.00  0.00     0.016 A 
ATOM     31  C   UNL     1       2.377   4.743  -3.254  1.00  0.00     0.016 A 
ATOM     32  C   UNL     1       2.513   3.663  -0.674  1.00  0.00     0.010 A 
ATOM     33  C   UNL     1       3.579   4.181  -2.772  1.00  0.00     0.010 A 
ATOM     34  C   UNL     1       3.668   3.662  -1.466  1.00  0.00    -0.014 A 
BRANCH  34  35
ATOM     35  C   UNL     1       4.993   3.321  -0.860  1.00  0.00     0.031 A 
ATOM     36  C   UNL     1       5.817   4.435  -0.260  1.00  0.00     0.074 A 
ATOM     37  C   UNL     1       5.483   2.065  -0.810  1.00  0.00     0.049 A 
ATOM     38  N   UNL     1       7.010   4.396   0.277  1.00  0.00    -0.248 NA
ATOM     39  C   UNL     1       5.205   5.773  -0.269  1.00  0.00     0.031 C 
ATOM     40  C   UNL     1       4.807   0.871  -1.304  1.00  0.00     0.029 A 
ATOM     41  N   UNL     1       6.686   1.593  -0.328  1.00  0.00    -0.354 N 
ATOM     42  C   UNL     1       7.307   5.704   0.641  1.00  0.00     0.074 A 
ATOM     43  C   UNL     1       6.164   6.512   0.268  1.00  0.00     0.031 C 
ATOM     44  C   UNL     1       5.609  -0.195  -1.117  1.00  0.00     0.029 A 
ATOM     45  C   UNL     1       6.874   0.242  -0.522  1.00  0.00     0.049 A 
ATOM     46  H   UNL     1       7.350   2.169   0.115  1.00  0.00     0.167 HD
ATOM     47  C   UNL     1       8.423   6.201   1.228  1.00  0.00     0.034 A 
ATOM     48  C   UNL     1       7.945  -0.547  -0.278  1.00  0.00     0.034 A 
ATOM     49  C   UNL     1       9.575   5.424   1.598  1.00  0.00     0.049 A 
ATOM     50  C   UNL     1       9.205   0.042   0.317  1.00  0.00     0.074 A 
ATOM     51  C   UNL     1      10.744   5.858   2.201  1.00  0.00     0.029 A 
ATOM     52  N   UNL     1       9.721   4.064   1.386  1.00  0.00    -0.354 N 
ATOM     53  N   UNL     1       9.437   1.265   0.726  1.00  0.00    -0.248 NA
ATOM     54  C   UNL     1      10.350  -0.869   0.500  1.00  0.00     0.031 C 
ATOM     55  C   UNL     1      11.612   4.768   2.317  1.00  0.00     0.029 A 
ATOM     56  C   UNL     1      10.964   3.645   1.832  1.00  0.00     0.049 A 
ATOM     57  H   UNL     1       9.041   3.480   0.978  1.00  0.00     0.167 HD
ATOM     58  C   UNL     1      10.731   1.260   1.245  1.00  0.00     0.074 A 
ATOM     59  C   UNL     1      11.227  -0.092   1.121  1.00  0.00     0.031 C 
ATOM     60  C   UNL     1      11.445   2.289   1.765  1.00  0.00     0.034 A 
BRANCH  47  61
ATOM     61  C   UNL     1       8.458   7.683   1.499  1.00  0.00     0.023 A 
ATOM     62  C   UNL     1       7.668   8.227   2.532  1.00  0.00     0.012 A 
ATOM     63  C   UNL     1       9.308   8.527   0.757  1.00  0.00     0.148 A 
ATOM     64  C   UNL     1       7.694   9.595   2.796  1.00  0.00     0.002 A 
ATOM     65  C   UNL     1       9.364   9.882   1.059  1.00  0.00     0.091 A 
ATOM     66  F   UNL     1      10.037   7.991  -0.231  1.00  0.00    -0.205 F 
ATOM     67  C   UNL     1       8.548  10.420   2.067  1.00  0.00     0.022 A 
BRANCH  65  68
ATOM     68  S   UNL     1      10.487  11.012   0.231  1.00  0.00     0.127 S 
ATOM     69  O   UNL     1       9.559  11.838  -0.539  1.00  0.00    -0.237 OA
ATOM     70  O   UNL     1      11.120  11.695   1.359  1.00  0.00    -0.237 OA
ATOM     71  O   UNL     1      11.385  10.182  -0.559  1.00  0.00    -0.744 OA
ENDBRANCH  65  68
ENDBRANCH  47  61
BRANCH  48  72
ATOM     72  C   UNL     1       7.899  -2.009  -0.592  1.00  0.00     0.023 A 
ATOM     73  C   UNL     1       7.980  -2.951   0.454  1.00  0.00     0.012 A 
ATOM     74  C   UNL     1       7.822  -2.470  -1.920  1.00  0.00     0.148 A 
ATOM     75  C   UNL     1       8.023  -4.320   0.182  1.00  0.00     0.002 A 
ATOM     76  C   UNL     1       7.803  -3.836  -2.181  1.00  0.00     0.091 A 
ATOM     77  F   UNL     1       7.774  -1.562  -2.905  1.00  0.00    -0.205 F 
ATOM     78  C   UNL     1       7.925  -4.763  -1.134  1.00  0.00     0.022 A 
BRANCH  76  79
ATOM     79  S   UNL     1       7.559  -4.501  -3.832  1.00  0.00     0.127 S 
ATOM     80  O   UNL     1       8.845  -5.145  -4.089  1.00  0.00    -0.237 OA
ATOM     81  O   UNL     1       6.440  -5.419  -3.619  1.00  0.00    -0.237 OA
ATOM     82  O   UNL     1       7.248  -3.356  -4.676  1.00  0.00    -0.744 OA
ENDBRANCH  76  79
ENDBRANCH  48  72
BRANCH  60  83
ATOM     83  C   UNL     1      12.831   2.007   2.300  1.00  0.00     0.023 A 
ATOM     84  C   UNL     1      13.888   1.712   1.416  1.00  0.00     0.012 A 
ATOM     85  C   UNL     1      13.102   2.119   3.680  1.00  0.00     0.148 A 
ATOM     86  C   UNL     1      15.182   1.503   1.898  1.00  0.00     0.002 A 
ATOM     87  C   UNL     1      14.402   1.959   4.147  1.00  0.00     0.091 A 
ATOM     88  F   UNL     1      12.084   2.385   4.511  1.00  0.00    -0.205 F 
ATOM     89  C   UNL     1      15.441   1.638   3.260  1.00  0.00     0.022 A 
BRANCH  87  90
ATOM     90  S   UNL     1      14.849   2.209   5.870  1.00  0.00     0.127 S 
ATOM     91  O   UNL     1      15.164   0.847   6.297  1.00  0.00    -0.237 OA
ATOM     92  O   UNL     1      16.007   3.097   5.764  1.00  0.00    -0.237 OA
ATOM     93  O   UNL     1      13.684   2.807   6.507  1.00  0.00    -0.744 OA
ENDBRANCH  87  90
ENDBRANCH  60  83
ENDBRANCH  34  35
ENDBRANCH  27  29
ENDBRANCH  26  27
ENDBRANCH  25  26
ENDBRANCH  24  25
ENDBRANCH  23  24
ENDBRANCH  22  23
ENDBRANCH   1  22
TORSDOF 24
