REMARK SMILES CCCCCNC(=O)Oc1cccc(-c2ccc([C@@H](C)C(=O)OCCOCCOCCOC(=O)c3ccc(-c4c5nc(c(-c6cccc(S(=O)(=O)[O-])c6F)c6ccc([nH]6)c(-c6cccc(S(=O)(=O)[O-])c6F)c6nc(c(-c7cccc(S(=O)(=O)[O-])c7F)c7ccc4[nH]7)C=C6)C=C5)cc3)cc2F)c1
REMARK SMILES IDX 25 1 24 2 23 3 21 4 22 5 19 6 20 7 18 8 15 9 16 10 99 11
REMARK SMILES IDX 17 12 98 13 100 14 14 15 10 16 11 17 101 18 12 19 13 20 9 21
REMARK SMILES IDX 7 22 6 23 8 25 5 26 4 27 3 28 2 29 1 30 26 31 27 32 28 33
REMARK SMILES IDX 29 34 30 35 31 36 32 37 33 38 34 39 35 40 36 41 97 42 37 43
REMARK SMILES IDX 96 44 38 45 39 46 40 47 90 48 41 49 95 50 89 51 91 52 42 53
REMARK SMILES IDX 94 54 88 55 87 56 43 58 75 59 55 60 74 61 56 62 59 63 73 64
REMARK SMILES IDX 92 65 57 66 58 67 72 69 93 70 60 71 44 72 45 73 53 74 46 75
REMARK SMILES IDX 48 76 54 77 47 78 49 79 50 80 51 81 52 82 76 83 77 84 85 85
REMARK SMILES IDX 78 86 80 87 86 88 79 89 81 90 82 91 83 92 84 93 61 94 62 95
REMARK SMILES IDX 70 96 63 97 65 98 71 99 64 100 66 101 67 102 68 103 69 104
REMARK H PARENT 6 24 91 57 59 68
REMARK Flexibility Score: inf
ROOT
ATOM      1  C   UNL     1      -3.449 -14.292   2.319  1.00  0.00     0.202 C 
ENDROOT
BRANCH   1   2
ATOM      2  C   UNL     1      -3.853 -14.592   3.769  1.00  0.00     0.261 C 
BRANCH   2   3
ATOM      3  O   UNL     1      -3.612 -13.514   4.702  1.00  0.00    -0.463 OA
BRANCH   3   4
ATOM      4  C   UNL     1      -2.934 -13.841   5.831  1.00  0.00     0.313 C 
ATOM      5  O   UNL     1      -2.618 -14.995   6.112  1.00  0.00    -0.252 OA
BRANCH   4   6
ATOM      6  C   UNL     1      -2.549 -12.680   6.754  1.00  0.00     0.126 C 
ATOM      7  C   UNL     1      -3.019 -13.018   8.169  1.00  0.00     0.025 C 
BRANCH   6   8
ATOM      8  C   UNL     1      -2.915 -11.233   6.421  1.00  0.00    -0.031 A 
ATOM      9  C   UNL     1      -3.476  -8.473   5.846  1.00  0.00     0.018 A 
ATOM     10  C   UNL     1      -4.484  -9.457   5.819  1.00  0.00     0.012 A 
ATOM     11  C   UNL     1      -2.187  -8.906   6.174  1.00  0.00     0.131 A 
ATOM     12  C   UNL     1      -4.213 -10.810   6.110  1.00  0.00     0.005 A 
ATOM     13  C   UNL     1      -1.908 -10.248   6.464  1.00  0.00     0.044 A 
ATOM     14  F   UNL     1      -1.175  -8.027   6.244  1.00  0.00    -0.206 F 
BRANCH   9  15
ATOM     15  C   UNL     1      -3.778  -7.048   5.591  1.00  0.00    -0.012 A 
ATOM     16  C   UNL     1      -3.361  -4.933   4.456  1.00  0.00     0.133 A 
ATOM     17  C   UNL     1      -4.330  -4.293   5.225  1.00  0.00     0.047 A 
ATOM     18  C   UNL     1      -3.075  -6.293   4.632  1.00  0.00     0.056 A 
ATOM     19  C   UNL     1      -5.039  -5.025   6.172  1.00  0.00     0.004 A 
ATOM     20  C   UNL     1      -4.763  -6.386   6.352  1.00  0.00     0.009 A 
BRANCH  16  21
ATOM     21  O   UNL     1      -2.585  -4.114   3.614  1.00  0.00    -0.410 OA
BRANCH  21  22
ATOM     22  C   UNL     1      -2.527  -4.418   2.264  1.00  0.00     0.412 C 
ATOM     23  N   UNL     1      -1.713  -3.580   1.552  1.00  0.00    -0.321 N 
ATOM     24  H   UNL     1      -1.549  -3.820   0.612  1.00  0.00     0.167 HD
ATOM     25  O   UNL     1      -3.156  -5.317   1.704  1.00  0.00    -0.224 OA
BRANCH  23  26
ATOM     26  C   UNL     1      -1.066  -2.375   2.038  1.00  0.00     0.119 C 
BRANCH  26  27
ATOM     27  C   UNL     1       0.457  -2.421   1.923  1.00  0.00     0.021 C 
BRANCH  27  28
ATOM     28  C   UNL     1       1.007  -2.521   0.494  1.00  0.00     0.002 C 
BRANCH  28  29
ATOM     29  C   UNL     1       0.585  -1.407  -0.467  1.00  0.00    -0.003 C 
ATOM     30  C   UNL     1       1.028  -0.019  -0.031  1.00  0.00     0.004 C 
ENDBRANCH  28  29
ENDBRANCH  27  28
ENDBRANCH  26  27
ENDBRANCH  23  26
ENDBRANCH  21  22
ENDBRANCH  16  21
ENDBRANCH   9  15
ENDBRANCH   6   8
ENDBRANCH   4   6
ENDBRANCH   3   4
ENDBRANCH   2   3
ENDBRANCH   1   2
BRANCH   1  31
ATOM     31  O   UNL     1      -2.095 -13.942   2.066  1.00  0.00    -0.376 OA
BRANCH  31  32
ATOM     32  C   UNL     1      -1.519 -12.838   2.755  1.00  0.00     0.188 C 
BRANCH  32  33
ATOM     33  C   UNL     1      -2.374 -11.588   3.005  1.00  0.00     0.188 C 
BRANCH  33  34
ATOM     34  O   UNL     1      -3.583 -11.545   2.271  1.00  0.00    -0.376 OA
BRANCH  34  35
ATOM     35  C   UNL     1      -3.792 -10.385   1.487  1.00  0.00     0.202 C 
BRANCH  35  36
ATOM     36  C   UNL     1      -2.887 -10.307   0.251  1.00  0.00     0.261 C 
BRANCH  36  37
ATOM     37  O   UNL     1      -1.473 -10.380   0.512  1.00  0.00    -0.460 OA
BRANCH  37  38
ATOM     38  C   UNL     1      -0.914  -9.343   1.171  1.00  0.00     0.338 C 
ATOM     39  O   UNL     1      -1.480  -8.325   1.554  1.00  0.00    -0.246 OA
BRANCH  38  40
ATOM     40  C   UNL     1       0.454  -9.729   1.569  1.00  0.00     0.060 A 
ATOM     41  C   UNL     1       0.810  -9.677   2.926  1.00  0.00     0.016 A 
ATOM     42  C   UNL     1       1.380 -10.149   0.613  1.00  0.00     0.016 A 
ATOM     43  C   UNL     1       2.105 -10.016   3.324  1.00  0.00     0.010 A 
ATOM     44  C   UNL     1       2.681 -10.469   1.011  1.00  0.00     0.010 A 
ATOM     45  C   UNL     1       3.059 -10.374   2.363  1.00  0.00    -0.014 A 
BRANCH  45  46
ATOM     46  C   UNL     1       4.494 -10.474   2.728  1.00  0.00     0.031 A 
ATOM     47  C   UNL     1       5.387  -9.297   2.438  1.00  0.00     0.074 A 
ATOM     48  C   UNL     1       5.008 -11.594   3.268  1.00  0.00     0.049 A 
ATOM     49  N   UNL     1       6.680  -9.178   2.589  1.00  0.00    -0.248 NA
ATOM     50  C   UNL     1       4.732  -8.094   1.897  1.00  0.00     0.031 C 
ATOM     51  C   UNL     1       4.252 -12.798   3.604  1.00  0.00     0.029 A 
ATOM     52  N   UNL     1       6.305 -11.908   3.597  1.00  0.00    -0.354 N 
ATOM     53  C   UNL     1       7.000  -7.909   2.123  1.00  0.00     0.074 A 
ATOM     54  C   UNL     1       5.767  -7.294   1.685  1.00  0.00     0.031 C 
ATOM     55  C   UNL     1       5.103 -13.733   4.064  1.00  0.00     0.029 A 
ATOM     56  C   UNL     1       6.466 -13.205   4.024  1.00  0.00     0.049 A 
ATOM     57  H   UNL     1       7.048 -11.265   3.533  1.00  0.00     0.167 HD
ATOM     58  C   UNL     1       8.211  -7.307   2.068  1.00  0.00     0.034 A 
ATOM     59  C   UNL     1       7.588 -13.893   4.320  1.00  0.00     0.034 A 
ATOM     60  C   UNL     1       9.434  -7.908   2.526  1.00  0.00     0.049 A 
ATOM     61  C   UNL     1       8.928 -13.203   4.225  1.00  0.00     0.074 A 
ATOM     62  C   UNL     1      10.698  -7.349   2.574  1.00  0.00     0.029 A 
ATOM     63  N   UNL     1       9.551  -9.206   2.994  1.00  0.00    -0.354 N 
ATOM     64  N   UNL     1       9.199 -11.960   3.909  1.00  0.00    -0.248 NA
ATOM     65  C   UNL     1      10.116 -14.006   4.557  1.00  0.00     0.031 C 
ATOM     66  C   UNL     1      11.588  -8.323   3.036  1.00  0.00     0.029 A 
ATOM     67  C   UNL     1      10.870  -9.475   3.314  1.00  0.00     0.049 A 
ATOM     68  H   UNL     1       8.806  -9.843   3.086  1.00  0.00     0.167 HD
ATOM     69  C   UNL     1      10.577 -11.821   4.048  1.00  0.00     0.074 A 
ATOM     70  C   UNL     1      11.083 -13.102   4.492  1.00  0.00     0.031 C 
ATOM     71  C   UNL     1      11.355 -10.734   3.817  1.00  0.00     0.034 A 
BRANCH  58  72
ATOM     72  C   UNL     1       8.278  -5.915   1.499  1.00  0.00     0.023 A 
ATOM     73  C   UNL     1       7.779  -4.826   2.242  1.00  0.00     0.012 A 
ATOM     74  C   UNL     1       8.898  -5.680   0.256  1.00  0.00     0.148 A 
ATOM     75  C   UNL     1       7.873  -3.527   1.744  1.00  0.00     0.002 A 
ATOM     76  C   UNL     1       9.030  -4.379  -0.212  1.00  0.00     0.091 A 
ATOM     77  F   UNL     1       9.344  -6.733  -0.444  1.00  0.00    -0.205 F 
ATOM     78  C   UNL     1       8.508  -3.303   0.525  1.00  0.00     0.022 A 
BRANCH  76  79
ATOM     79  S   UNL     1       9.902  -3.979  -1.730  1.00  0.00     0.127 S 
ATOM     80  O   UNL     1       8.806  -3.531  -2.589  1.00  0.00    -0.237 OA
ATOM     81  O   UNL     1      10.806  -2.915  -1.292  1.00  0.00    -0.237 OA
ATOM     82  O   UNL     1      10.563  -5.205  -2.151  1.00  0.00    -0.744 OA
ENDBRANCH  76  79
ENDBRANCH  58  72
BRANCH  59  83
ATOM     83  C   UNL     1       7.509 -15.316   4.762  1.00  0.00     0.023 A 
ATOM     84  C   UNL     1       7.869 -15.652   6.083  1.00  0.00     0.012 A 
ATOM     85  C   UNL     1       7.105 -16.338   3.881  1.00  0.00     0.148 A 
ATOM     86  C   UNL     1       7.867 -16.982   6.506  1.00  0.00     0.002 A 
ATOM     87  C   UNL     1       7.052 -17.654   4.326  1.00  0.00     0.091 A 
ATOM     88  F   UNL     1       6.786 -16.003   2.623  1.00  0.00    -0.205 F 
ATOM     89  C   UNL     1       7.450 -17.981   5.631  1.00  0.00     0.022 A 
BRANCH  87  90
ATOM     90  S   UNL     1       6.421 -18.992   3.306  1.00  0.00     0.127 S 
ATOM     91  O   UNL     1       7.636 -19.752   3.025  1.00  0.00    -0.237 OA
ATOM     92  O   UNL     1       5.482 -19.647   4.217  1.00  0.00    -0.237 OA
ATOM     93  O   UNL     1       5.796 -18.349   2.159  1.00  0.00    -0.744 OA
ENDBRANCH  87  90
ENDBRANCH  59  83
BRANCH  71  94
ATOM     94  C   UNL     1      12.834 -10.850   4.093  1.00  0.00     0.023 A 
ATOM     95  C   UNL     1      13.654 -11.618   3.244  1.00  0.00     0.012 A 
ATOM     96  C   UNL     1      13.421 -10.127   5.152  1.00  0.00     0.148 A 
ATOM     97  C   UNL     1      15.029 -11.694   3.465  1.00  0.00     0.002 A 
ATOM     98  C   UNL     1      14.799 -10.165   5.333  1.00  0.00     0.091 A 
ATOM     99  F   UNL     1      12.623  -9.413   5.959  1.00  0.00    -0.205 F 
ATOM    100  C   UNL     1      15.602 -10.958   4.500  1.00  0.00     0.022 A 
BRANCH  98 101
ATOM    101  S   UNL     1      15.635  -9.171   6.575  1.00  0.00     0.127 S 
ATOM    102  O   UNL     1      16.044 -10.186   7.544  1.00  0.00    -0.237 OA
ATOM    103  O   UNL     1      16.733  -8.579   5.810  1.00  0.00    -0.237 OA
ATOM    104  O   UNL     1      14.648  -8.212   7.054  1.00  0.00    -0.744 OA
ENDBRANCH  98 101
ENDBRANCH  71  94
ENDBRANCH  45  46
ENDBRANCH  38  40
ENDBRANCH  37  38
ENDBRANCH  36  37
ENDBRANCH  35  36
ENDBRANCH  34  35
ENDBRANCH  33  34
ENDBRANCH  32  33
ENDBRANCH  31  32
ENDBRANCH   1  31
TORSDOF 28
