REMARK SMILES Cc1cc(F)c([C@@](C)(C(=O)OCCOCCOCCOC(=O)c2ccc(-c3c4nc(c(-c5cccc(S(=O)(=O)[O-])c5F)c5ccc([nH]5)c(-c5cccc(S(=O)(=O)[O-])c5F)c5nc(c(-c6cccc(S(=O)(=O)[O-])c6F)c6ccc3[nH]6)C=C5)C=C4)cc2)[NH+]2CC[NH2+]CC2)cc1F
REMARK SMILES IDX 16 1 15 2 14 3 13 4 12 5 11 6 9 7 10 8 7 9 8 10 6 11 1 12
REMARK SMILES IDX 2 13 3 14 93 15 4 16 92 17 94 18 5 19 86 20 87 21 91 22
REMARK SMILES IDX 88 24 90 25 89 26 17 29 18 30 19 31 20 32 21 33 22 34 23 35
REMARK SMILES IDX 24 36 85 37 25 38 84 39 26 40 27 41 28 42 78 43 29 44 83 45
REMARK SMILES IDX 77 46 79 47 30 48 82 49 76 50 75 51 31 53 63 54 43 55 62 56
REMARK SMILES IDX 44 57 47 58 61 59 80 60 45 61 46 62 60 64 81 65 48 66 32 67
REMARK SMILES IDX 33 68 41 69 34 70 36 71 42 72 35 73 37 74 38 75 39 76 40 77
REMARK SMILES IDX 64 78 65 79 73 80 66 81 68 82 74 83 67 84 69 85 70 86 71 87
REMARK SMILES IDX 72 88 49 89 50 90 58 91 51 92 53 93 59 94 52 95 54 96 55 97
REMARK SMILES IDX 56 98 57 99
REMARK H PARENT 86 23 89 27 89 28 79 52 47 63
REMARK Flexibility Score: inf
ROOT
ATOM      1  C   UNL     1      -3.098   1.028  -4.377  1.00  0.00     0.188 C 
ENDROOT
BRANCH   1   2
ATOM      2  C   UNL     1      -3.708   1.592  -5.668  1.00  0.00     0.188 C 
BRANCH   2   3
ATOM      3  O   UNL     1      -4.399   0.702  -6.532  1.00  0.00    -0.376 OA
BRANCH   3   4
ATOM      4  C   UNL     1      -3.799  -0.546  -6.863  1.00  0.00     0.202 C 
BRANCH   4   5
ATOM      5  C   UNL     1      -2.337  -0.578  -7.335  1.00  0.00     0.261 C 
BRANCH   5   6
ATOM      6  O   UNL     1      -1.348  -0.261  -6.326  1.00  0.00    -0.458 OA
BRANCH   6   7
ATOM      7  C   UNL     1      -0.565   0.832  -6.575  1.00  0.00     0.372 C 
ATOM      8  O   UNL     1      -0.729   1.541  -7.568  1.00  0.00    -0.244 OA
BRANCH   7   9
ATOM      9  C   UNL     1       0.617   1.053  -5.551  1.00  0.00     0.221 C 
ATOM     10  C   UNL     1       1.774   0.300  -6.273  1.00  0.00     0.098 C 
BRANCH   9  11
ATOM     11  C   UNL     1       0.433   0.460  -4.121  1.00  0.00     0.062 A 
ATOM     12  C   UNL     1       0.880  -0.930  -0.010  1.00  0.00     0.047 C 
ATOM     13  C   UNL     1       0.584  -0.507  -1.415  1.00  0.00    -0.012 A 
ATOM     14  C   UNL     1       0.728  -1.374  -2.500  1.00  0.00     0.046 A 
ATOM     15  C   UNL     1       0.252   0.808  -1.690  1.00  0.00     0.126 A 
ATOM     16  C   UNL     1       0.636  -0.897  -3.821  1.00  0.00     0.133 A 
ATOM     17  C   UNL     1       0.152   1.267  -3.003  1.00  0.00     0.053 A 
ATOM     18  F   UNL     1       0.076   1.682  -0.688  1.00  0.00    -0.207 F 
ATOM     19  F   UNL     1       0.802  -1.796  -4.801  1.00  0.00    -0.206 F 
ENDBRANCH   9  11
BRANCH   9  20
ATOM     20  N   UNL     1       0.963   2.516  -5.555  1.00  0.00    -0.308 N 
ATOM     21  C   UNL     1      -0.047   3.545  -5.316  1.00  0.00     0.325 C 
ATOM     22  C   UNL     1       2.305   3.003  -5.287  1.00  0.00     0.325 C 
ATOM     23  H   UNL     1       0.955   2.327  -6.558  1.00  0.00     0.349 HD
ATOM     24  C   UNL     1       0.228   4.539  -4.141  1.00  0.00     0.322 C 
ATOM     25  C   UNL     1       2.472   3.518  -3.854  1.00  0.00     0.322 C 
ATOM     26  N   UNL     1       1.516   4.542  -3.436  1.00  0.00    -0.337 N 
ATOM     27  H   UNL     1       1.330   4.409  -2.442  1.00  0.00     0.346 HD
ATOM     28  H   UNL     1       1.953   5.436  -3.661  1.00  0.00     0.346 HD
ENDBRANCH   9  20
ENDBRANCH   7   9
ENDBRANCH   6   7
ENDBRANCH   5   6
ENDBRANCH   4   5
ENDBRANCH   3   4
ENDBRANCH   2   3
ENDBRANCH   1   2
BRANCH   1  29
ATOM     29  O   UNL     1      -3.376  -0.320  -4.105  1.00  0.00    -0.376 OA
BRANCH  29  30
ATOM     30  C   UNL     1      -4.441  -0.675  -3.249  1.00  0.00     0.202 C 
BRANCH  30  31
ATOM     31  C   UNL     1      -5.619   0.242  -2.860  1.00  0.00     0.261 C 
BRANCH  31  32
ATOM     32  O   UNL     1      -5.538   1.633  -3.183  1.00  0.00    -0.460 OA
BRANCH  32  33
ATOM     33  C   UNL     1      -5.063   2.457  -2.213  1.00  0.00     0.338 C 
ATOM     34  O   UNL     1      -4.680   2.137  -1.105  1.00  0.00    -0.246 OA
BRANCH  33  35
ATOM     35  C   UNL     1      -4.884   3.794  -2.823  1.00  0.00     0.060 A 
ATOM     36  C   UNL     1      -5.986   4.549  -3.224  1.00  0.00     0.016 A 
ATOM     37  C   UNL     1      -3.586   4.282  -3.015  1.00  0.00     0.016 A 
ATOM     38  C   UNL     1      -5.781   5.801  -3.815  1.00  0.00     0.010 A 
ATOM     39  C   UNL     1      -3.385   5.521  -3.625  1.00  0.00     0.010 A 
ATOM     40  C   UNL     1      -4.479   6.299  -4.019  1.00  0.00    -0.014 A 
BRANCH  40  41
ATOM     41  C   UNL     1      -4.269   7.709  -4.434  1.00  0.00     0.031 A 
ATOM     42  C   UNL     1      -3.786   8.096  -5.800  1.00  0.00     0.074 A 
ATOM     43  C   UNL     1      -4.450   8.662  -3.500  1.00  0.00     0.049 A 
ATOM     44  N   UNL     1      -3.694   9.294  -6.320  1.00  0.00    -0.248 NA
ATOM     45  C   UNL     1      -3.325   7.020  -6.688  1.00  0.00     0.031 C 
ATOM     46  C   UNL     1      -4.774   8.403  -2.095  1.00  0.00     0.029 A 
ATOM     47  N   UNL     1      -4.378  10.029  -3.582  1.00  0.00    -0.354 N 
ATOM     48  C   UNL     1      -3.165   9.124  -7.593  1.00  0.00     0.074 A 
ATOM     49  C   UNL     1      -2.927   7.704  -7.756  1.00  0.00     0.031 C 
ATOM     50  C   UNL     1      -4.904   9.573  -1.454  1.00  0.00     0.029 A 
ATOM     51  C   UNL     1      -4.677  10.662  -2.400  1.00  0.00     0.049 A 
ATOM     52  H   UNL     1      -4.137  10.509  -4.407  1.00  0.00     0.167 HD
ATOM     53  C   UNL     1      -2.930  10.064  -8.541  1.00  0.00     0.034 A 
ATOM     54  C   UNL     1      -4.790  11.972  -2.109  1.00  0.00     0.034 A 
ATOM     55  C   UNL     1      -3.188  11.471  -8.371  1.00  0.00     0.049 A 
ATOM     56  C   UNL     1      -4.611  12.989  -3.195  1.00  0.00     0.074 A 
ATOM     57  C   UNL     1      -3.100  12.480  -9.317  1.00  0.00     0.029 A 
ATOM     58  N   UNL     1      -3.561  12.075  -7.181  1.00  0.00    -0.354 N 
ATOM     59  N   UNL     1      -4.319  12.794  -4.457  1.00  0.00    -0.248 NA
ATOM     60  C   UNL     1      -4.813  14.399  -2.832  1.00  0.00     0.031 C 
ATOM     61  C   UNL     1      -3.398  13.695  -8.692  1.00  0.00     0.029 A 
ATOM     62  C   UNL     1      -3.693  13.441  -7.363  1.00  0.00     0.049 A 
ATOM     63  H   UNL     1      -3.711  11.601  -6.331  1.00  0.00     0.167 HD
ATOM     64  C   UNL     1      -4.320  14.052  -5.046  1.00  0.00     0.074 A 
ATOM     65  C   UNL     1      -4.654  15.003  -4.005  1.00  0.00     0.031 C 
ATOM     66  C   UNL     1      -4.056  14.382  -6.334  1.00  0.00     0.034 A 
BRANCH  53  67
ATOM     67  C   UNL     1      -2.446   9.610  -9.894  1.00  0.00     0.023 A 
ATOM     68  C   UNL     1      -3.364   9.003 -10.775  1.00  0.00     0.012 A 
ATOM     69  C   UNL     1      -1.144   9.903 -10.346  1.00  0.00     0.148 A 
ATOM     70  C   UNL     1      -2.991   8.682 -12.080  1.00  0.00     0.002 A 
ATOM     71  C   UNL     1      -0.788   9.606 -11.658  1.00  0.00     0.091 A 
ATOM     72  F   UNL     1      -0.286  10.479  -9.492  1.00  0.00    -0.205 F 
ATOM     73  C   UNL     1      -1.709   8.992 -12.523  1.00  0.00     0.022 A 
BRANCH  71  74
ATOM     74  S   UNL     1       0.818  10.016 -12.352  1.00  0.00     0.127 S 
ATOM     75  O   UNL     1       1.387   8.689 -12.584  1.00  0.00    -0.237 OA
ATOM     76  O   UNL     1       0.451  10.742 -13.568  1.00  0.00    -0.237 OA
ATOM     77  O   UNL     1       1.502  10.815 -11.345  1.00  0.00    -0.744 OA
ENDBRANCH  71  74
ENDBRANCH  53  67
BRANCH  54  78
ATOM     78  C   UNL     1      -5.218  12.356  -0.739  1.00  0.00     0.023 A 
ATOM     79  C   UNL     1      -6.567  12.687  -0.514  1.00  0.00     0.012 A 
ATOM     80  C   UNL     1      -4.332  12.263   0.351  1.00  0.00     0.148 A 
ATOM     81  C   UNL     1      -7.031  12.919   0.780  1.00  0.00     0.002 A 
ATOM     82  C   UNL     1      -4.809  12.459   1.641  1.00  0.00     0.091 A 
ATOM     83  F   UNL     1      -3.058  11.932   0.103  1.00  0.00    -0.205 F 
ATOM     84  C   UNL     1      -6.156  12.794   1.857  1.00  0.00     0.022 A 
BRANCH  82  85
ATOM     85  S   UNL     1      -3.791  12.218   3.099  1.00  0.00     0.127 S 
ATOM     86  O   UNL     1      -3.824  13.546   3.708  1.00  0.00    -0.237 OA
ATOM     87  O   UNL     1      -4.543  11.191   3.819  1.00  0.00    -0.237 OA
ATOM     88  O   UNL     1      -2.488  11.791   2.610  1.00  0.00    -0.744 OA
ENDBRANCH  82  85
ENDBRANCH  54  78
BRANCH  66  89
ATOM     89  C   UNL     1      -4.112  15.835  -6.720  1.00  0.00     0.023 A 
ATOM     90  C   UNL     1      -3.035  16.680  -6.389  1.00  0.00     0.012 A 
ATOM     91  C   UNL     1      -5.165  16.329  -7.515  1.00  0.00     0.148 A 
ATOM     92  C   UNL     1      -3.007  17.998  -6.842  1.00  0.00     0.002 A 
ATOM     93  C   UNL     1      -5.114  17.634  -7.991  1.00  0.00     0.091 A 
ATOM     94  F   UNL     1      -6.182  15.506  -7.809  1.00  0.00    -0.205 F 
ATOM     95  C   UNL     1      -4.037  18.471  -7.652  1.00  0.00     0.022 A 
BRANCH  93  96
ATOM     96  S   UNL     1      -6.356  18.314  -9.096  1.00  0.00     0.127 S 
ATOM     97  O   UNL     1      -6.947  19.366  -8.268  1.00  0.00    -0.237 OA
ATOM     98  O   UNL     1      -5.544  18.800 -10.211  1.00  0.00    -0.237 OA
ATOM     99  O   UNL     1      -7.252  17.214  -9.427  1.00  0.00    -0.744 OA
ENDBRANCH  93  96
ENDBRANCH  66  89
ENDBRANCH  40  41
ENDBRANCH  33  35
ENDBRANCH  32  33
ENDBRANCH  31  32
ENDBRANCH  30  31
ENDBRANCH  29  30
ENDBRANCH   1  29
TORSDOF 22
