REMARK SMILES COC[C@H](C)n1c(SCC(=O)OCCOCCOCCOC(=O)c2ccc(-c3c4nc(c(-c5cccc(S(=O)(=O)[O-])c5F)c5ccc([nH]5)c(-c5cccc(S(=O)(=O)[O-])c5F)c5nc(c(-c6cccc(S(=O)(=O)[O-])c6F)c6ccc3[nH]6)C=C5)C=C4)cc2)nc2cc(C)cnc21
REMARK SMILES IDX 16 1 15 2 14 3 13 4 12 5 10 6 11 7 9 8 8 9 7 10 6 11 94 12
REMARK SMILES IDX 87 13 88 14 93 15 89 16 92 17 90 18 91 19 4 20 5 21 3 22
REMARK SMILES IDX 2 23 1 24 17 25 18 26 19 27 20 28 21 29 22 30 23 31 24 32
REMARK SMILES IDX 25 33 86 34 26 35 85 36 27 37 28 38 29 39 79 40 30 41 84 42
REMARK SMILES IDX 78 43 80 44 31 45 83 46 77 47 76 48 32 50 64 51 44 52 63 53
REMARK SMILES IDX 45 54 48 55 62 56 81 57 46 58 47 59 61 61 82 62 49 63 33 64
REMARK SMILES IDX 34 65 42 66 35 67 37 68 43 69 36 70 38 71 39 72 40 73 41 74
REMARK SMILES IDX 65 75 66 76 74 77 67 78 69 79 75 80 68 81 70 82 71 83 72 84
REMARK SMILES IDX 73 85 50 86 51 87 59 88 52 89 54 90 60 91 53 92 55 93 56 94
REMARK SMILES IDX 57 95 58 96
REMARK H PARENT 80 49 48 60
REMARK Flexibility Score: inf
ROOT
ATOM      1  C   UNL     1      -1.988   1.300  -2.697  1.00  0.00     0.188 C 
ENDROOT
BRANCH   1   2
ATOM      2  O   UNL     1      -3.325   0.846  -2.628  1.00  0.00    -0.376 OA
BRANCH   2   3
ATOM      3  C   UNL     1      -4.341   1.755  -2.234  1.00  0.00     0.202 C 
BRANCH   3   4
ATOM      4  C   UNL     1      -4.192   2.438  -0.878  1.00  0.00     0.261 C 
BRANCH   4   5
ATOM      5  O   UNL     1      -3.228   3.516  -0.860  1.00  0.00    -0.463 OA
BRANCH   5   6
ATOM      6  C   UNL     1      -2.258   3.418   0.084  1.00  0.00     0.316 C 
ATOM      7  O   UNL     1      -2.119   2.436   0.809  1.00  0.00    -0.251 OA
BRANCH   6   8
ATOM      8  C   UNL     1      -1.434   4.660   0.313  1.00  0.00     0.200 C 
BRANCH   8   9
ATOM      9  S   UNL     1      -0.943   5.642  -1.070  1.00  0.00    -0.076 SA
BRANCH   9  10
ATOM     10  C   UNL     1       0.443   5.090  -1.958  1.00  0.00     0.171 A 
ATOM     11  N   UNL     1       1.282   3.979  -1.862  1.00  0.00    -0.298 N 
ATOM     12  C   UNL     1       2.113   4.037  -2.985  1.00  0.00     0.161 A 
ATOM     13  N   UNL     1       0.722   5.813  -3.023  1.00  0.00    -0.221 NA
ATOM     14  C   UNL     1       1.655   5.121  -3.720  1.00  0.00     0.109 A 
ATOM     15  N   UNL     1       3.091   3.188  -3.368  1.00  0.00    -0.236 NA
ATOM     16  C   UNL     1       2.131   5.317  -5.022  1.00  0.00     0.037 A 
ATOM     17  C   UNL     1       3.502   3.405  -4.659  1.00  0.00     0.117 A 
ATOM     18  C   UNL     1       3.019   4.375  -5.537  1.00  0.00    -0.030 A 
ATOM     19  C   UNL     1       3.407   4.403  -6.986  1.00  0.00     0.046 C 
BRANCH  11  20
ATOM     20  C   UNL     1       1.202   2.850  -0.929  1.00  0.00     0.114 C 
ATOM     21  C   UNL     1       1.597   1.474  -1.489  1.00  0.00     0.034 C 
BRANCH  20  22
ATOM     22  C   UNL     1       1.939   3.103   0.398  1.00  0.00     0.185 C 
BRANCH  22  23
ATOM     23  O   UNL     1       1.870   2.018   1.337  1.00  0.00    -0.383 OA
ATOM     24  C   UNL     1       0.566   1.686   1.797  1.00  0.00     0.194 C 
ENDBRANCH  22  23
ENDBRANCH  20  22
ENDBRANCH  11  20
ENDBRANCH   9  10
ENDBRANCH   8   9
ENDBRANCH   6   8
ENDBRANCH   5   6
ENDBRANCH   4   5
ENDBRANCH   3   4
ENDBRANCH   2   3
ENDBRANCH   1   2
BRANCH   1  25
ATOM     25  C   UNL     1      -1.676   2.645  -3.369  1.00  0.00     0.188 C 
BRANCH  25  26
ATOM     26  O   UNL     1      -2.577   3.270  -4.262  1.00  0.00    -0.376 OA
BRANCH  26  27
ATOM     27  C   UNL     1      -3.183   2.541  -5.316  1.00  0.00     0.202 C 
BRANCH  27  28
ATOM     28  C   UNL     1      -2.294   1.909  -6.368  1.00  0.00     0.261 C 
BRANCH  28  29
ATOM     29  O   UNL     1      -1.505   0.862  -5.815  1.00  0.00    -0.460 OA
BRANCH  29  30
ATOM     30  C   UNL     1      -0.211   1.212  -5.699  1.00  0.00     0.338 C 
ATOM     31  O   UNL     1       0.271   2.321  -5.863  1.00  0.00    -0.246 OA
BRANCH  30  32
ATOM     32  C   UNL     1       0.612   0.028  -5.435  1.00  0.00     0.060 A 
ATOM     33  C   UNL     1       1.853   0.344  -4.891  1.00  0.00     0.016 A 
ATOM     34  C   UNL     1       0.441  -1.029  -6.330  1.00  0.00     0.016 A 
ATOM     35  C   UNL     1       2.968  -0.086  -5.553  1.00  0.00     0.010 A 
ATOM     36  C   UNL     1       1.564  -1.478  -6.987  1.00  0.00     0.010 A 
ATOM     37  C   UNL     1       2.781  -0.857  -6.697  1.00  0.00    -0.014 A 
BRANCH  37  38
ATOM     38  C   UNL     1       3.893  -0.867  -7.631  1.00  0.00     0.031 A 
ATOM     39  C   UNL     1       5.150  -1.423  -7.078  1.00  0.00     0.074 A 
ATOM     40  C   UNL     1       3.727  -0.402  -8.886  1.00  0.00     0.049 A 
ATOM     41  N   UNL     1       6.346  -0.931  -7.145  1.00  0.00    -0.248 NA
ATOM     42  C   UNL     1       5.020  -2.599  -6.200  1.00  0.00     0.031 C 
ATOM     43  C   UNL     1       2.479   0.048  -9.516  1.00  0.00     0.029 A 
ATOM     44  N   UNL     1       4.602  -0.435  -9.930  1.00  0.00    -0.354 N 
ATOM     45  C   UNL     1       7.146  -1.858  -6.486  1.00  0.00     0.074 A 
ATOM     46  C   UNL     1       6.269  -2.748  -5.772  1.00  0.00     0.031 C 
ATOM     47  C   UNL     1       2.590  -0.106 -10.850  1.00  0.00     0.029 A 
ATOM     48  C   UNL     1       3.936  -0.558 -11.148  1.00  0.00     0.049 A 
ATOM     49  H   UNL     1       5.581  -0.380  -9.836  1.00  0.00     0.167 HD
ATOM     50  C   UNL     1       8.466  -2.011  -6.764  1.00  0.00     0.034 A 
ATOM     51  C   UNL     1       4.411  -1.158 -12.265  1.00  0.00     0.034 A 
ATOM     52  C   UNL     1       9.049  -0.854  -7.373  1.00  0.00     0.049 A 
ATOM     53  C   UNL     1       5.884  -1.245 -12.140  1.00  0.00     0.074 A 
ATOM     54  C   UNL     1       9.225   0.458  -6.982  1.00  0.00     0.029 A 
ATOM     55  N   UNL     1       9.271  -0.882  -8.727  1.00  0.00    -0.354 N 
ATOM     56  N   UNL     1       6.676  -0.210 -12.177  1.00  0.00    -0.248 NA
ATOM     57  C   UNL     1       6.456  -2.446 -11.549  1.00  0.00     0.031 C 
ATOM     58  C   UNL     1       9.104   1.222  -8.176  1.00  0.00     0.029 A 
ATOM     59  C   UNL     1       8.877   0.332  -9.228  1.00  0.00     0.049 A 
ATOM     60  H   UNL     1       9.642  -1.634  -9.243  1.00  0.00     0.167 HD
ATOM     61  C   UNL     1       7.657  -0.486 -11.233  1.00  0.00     0.074 A 
ATOM     62  C   UNL     1       7.543  -1.920 -10.976  1.00  0.00     0.031 C 
ATOM     63  C   UNL     1       8.261   0.515 -10.524  1.00  0.00     0.034 A 
BRANCH  50  64
ATOM     64  C   UNL     1       9.130  -3.358  -6.740  1.00  0.00     0.023 A 
ATOM     65  C   UNL     1      10.534  -3.422  -6.700  1.00  0.00     0.012 A 
ATOM     66  C   UNL     1       8.432  -4.567  -6.971  1.00  0.00     0.148 A 
ATOM     67  C   UNL     1      11.207  -4.638  -6.867  1.00  0.00     0.002 A 
ATOM     68  C   UNL     1       9.097  -5.782  -7.028  1.00  0.00     0.091 A 
ATOM     69  F   UNL     1       7.127  -4.544  -7.270  1.00  0.00    -0.205 F 
ATOM     70  C   UNL     1      10.489  -5.823  -7.003  1.00  0.00     0.022 A 
BRANCH  68  71
ATOM     71  S   UNL     1       8.168  -7.317  -7.091  1.00  0.00     0.127 S 
ATOM     72  O   UNL     1       8.113  -7.576  -8.526  1.00  0.00    -0.237 OA
ATOM     73  O   UNL     1       9.023  -8.229  -6.329  1.00  0.00    -0.237 OA
ATOM     74  O   UNL     1       6.902  -7.010  -6.435  1.00  0.00    -0.744 OA
ENDBRANCH  68  71
ENDBRANCH  50  64
BRANCH  51  75
ATOM     75  C   UNL     1       3.647  -1.915 -13.286  1.00  0.00     0.023 A 
ATOM     76  C   UNL     1       4.207  -2.113 -14.561  1.00  0.00     0.012 A 
ATOM     77  C   UNL     1       2.472  -2.632 -12.958  1.00  0.00     0.148 A 
ATOM     78  C   UNL     1       3.620  -2.997 -15.476  1.00  0.00     0.002 A 
ATOM     79  C   UNL     1       1.876  -3.487 -13.880  1.00  0.00     0.091 A 
ATOM     80  F   UNL     1       1.986  -2.555 -11.712  1.00  0.00    -0.205 F 
ATOM     81  C   UNL     1       2.454  -3.681 -15.138  1.00  0.00     0.022 A 
BRANCH  79  82
ATOM     82  S   UNL     1       0.366  -4.388 -13.501  1.00  0.00     0.127 S 
ATOM     83  O   UNL     1      -0.409  -4.219 -14.732  1.00  0.00    -0.237 OA
ATOM     84  O   UNL     1       0.868  -5.739 -13.274  1.00  0.00    -0.237 OA
ATOM     85  O   UNL     1      -0.211  -3.720 -12.340  1.00  0.00    -0.744 OA
ENDBRANCH  79  82
ENDBRANCH  51  75
BRANCH  63  86
ATOM     86  C   UNL     1       7.979   1.945 -10.931  1.00  0.00     0.023 A 
ATOM     87  C   UNL     1       6.668   2.469 -10.905  1.00  0.00     0.012 A 
ATOM     88  C   UNL     1       9.051   2.830 -11.144  1.00  0.00     0.148 A 
ATOM     89  C   UNL     1       6.426   3.828 -11.116  1.00  0.00     0.002 A 
ATOM     90  C   UNL     1       8.810   4.192 -11.303  1.00  0.00     0.091 A 
ATOM     91  F   UNL     1      10.297   2.331 -11.155  1.00  0.00    -0.205 F 
ATOM     92  C   UNL     1       7.499   4.693 -11.302  1.00  0.00     0.022 A 
BRANCH  90  93
ATOM     93  S   UNL     1      10.156   5.377 -11.394  1.00  0.00     0.127 S 
ATOM     94  O   UNL     1      10.255   5.620 -12.831  1.00  0.00    -0.237 OA
ATOM     95  O   UNL     1       9.642   6.506 -10.617  1.00  0.00    -0.237 OA
ATOM     96  O   UNL     1      11.303   4.715 -10.784  1.00  0.00    -0.744 OA
ENDBRANCH  90  93
ENDBRANCH  63  86
ENDBRANCH  37  38
ENDBRANCH  30  32
ENDBRANCH  29  30
ENDBRANCH  28  29
ENDBRANCH  27  28
ENDBRANCH  26  27
ENDBRANCH  25  26
ENDBRANCH   1  25
TORSDOF 25
