REMARK SMILES COCCNC(=O)N[C@H]1CCCCC[C@@H]1C(=O)OCCOCCOCCOC(=O)c1ccc(-c2c3nc(c(-c4cccc(S(=O)(=O)[O-])c4F)c4ccc([nH]4)c(-c4cccc(S(=O)(=O)[O-])c4F)c4nc(c(-c5cccc(S(=O)(=O)[O-])c5F)c5ccc2[nH]5)C=C4)C=C3)cc1
REMARK SMILES IDX 22 1 21 2 20 3 19 4 18 5 16 6 17 7 15 8 9 9 8 10 5 11 6 12
REMARK SMILES IDX 7 14 4 16 3 17 2 18 1 19 10 20 11 21 14 23 13 24 12 25 23 27
REMARK SMILES IDX 24 28 25 29 26 30 27 31 28 32 29 33 30 34 31 35 92 36 32 37
REMARK SMILES IDX 91 38 33 39 34 40 35 41 85 42 36 43 90 44 84 45 86 46 37 47
REMARK SMILES IDX 89 48 83 49 82 50 38 52 70 53 50 54 69 55 51 56 54 57 68 58
REMARK SMILES IDX 87 59 52 60 53 61 67 63 88 64 55 65 39 66 40 67 48 68 41 69
REMARK SMILES IDX 43 70 49 71 42 72 44 73 45 74 46 75 47 76 71 77 72 78 80 79
REMARK SMILES IDX 73 80 75 81 81 82 74 83 76 84 77 85 78 86 79 87 56 88 57 89
REMARK SMILES IDX 65 90 58 91 60 92 66 93 59 94 61 95 62 96 63 97 64 98
REMARK H PARENT 5 13 8 15 86 51 54 62
REMARK Flexibility Score: 90.00
ROOT
ATOM      1  C   UNL     1       3.413  -5.450   4.257  1.00  0.00     0.188 C 
ENDROOT
BRANCH   1   2
ATOM      2  O   UNL     1       3.807  -6.411   5.233  1.00  0.00    -0.376 OA
BRANCH   2   3
ATOM      3  C   UNL     1       3.804  -5.954   6.581  1.00  0.00     0.202 C 
BRANCH   3   4
ATOM      4  C   UNL     1       2.422  -5.502   7.060  1.00  0.00     0.261 C 
BRANCH   4   5
ATOM      5  O   UNL     1       2.103  -4.182   6.553  1.00  0.00    -0.463 OA
BRANCH   5   6
ATOM      6  C   UNL     1       2.768  -3.178   7.165  1.00  0.00     0.311 C 
ATOM      7  O   UNL     1       3.463  -3.358   8.161  1.00  0.00    -0.252 OA
BRANCH   6   8
ATOM      8  C   UNL     1       2.513  -1.795   6.566  1.00  0.00     0.121 C 
BRANCH   8   9
ATOM      9  C   UNL     1       1.907  -1.671   5.121  1.00  0.00     0.098 C 
BRANCH   9  10
ATOM     10  N   UNL     1       0.490  -2.092   5.087  1.00  0.00    -0.335 N 
ATOM     11  N   UNL     1      -0.389  -1.976   2.869  1.00  0.00    -0.336 N 
ATOM     12  C   UNL     1      -0.489  -2.208   4.181  1.00  0.00     0.315 C 
ATOM     13  H   UNL     1      -1.253  -2.084   2.410  1.00  0.00     0.165 HD
ATOM     14  O   UNL     1      -1.597  -2.554   4.602  1.00  0.00    -0.249 OA
ATOM     15  H   UNL     1       0.179  -2.363   5.981  1.00  0.00     0.165 HD
BRANCH  11  16
ATOM     16  C   UNL     1       0.675  -1.604   1.946  1.00  0.00     0.146 C 
BRANCH  16  17
ATOM     17  C   UNL     1       0.523  -2.252   0.559  1.00  0.00     0.181 C 
BRANCH  17  18
ATOM     18  O   UNL     1      -0.187  -1.427  -0.364  1.00  0.00    -0.383 OA
ATOM     19  C   UNL     1      -1.583  -1.654  -0.401  1.00  0.00     0.194 C 
ENDBRANCH  17  18
ENDBRANCH  16  17
ENDBRANCH  11  16
ENDBRANCH   9  10
BRANCH   9  20
ATOM     20  C   UNL     1       2.030  -0.220   4.588  1.00  0.00     0.026 C 
BRANCH  20  21
ATOM     21  C   UNL     1       1.739   0.891   5.601  1.00  0.00     0.002 CG0
ATOM     22  G   UNL     1       2.991   1.382   6.322  1.00  0.00     0.000 G0
ENDBRANCH  20  21
ENDBRANCH   9  20
ENDBRANCH   8   9
BRANCH   8  23
ATOM     23  C   UNL     1       3.842  -1.002   6.698  1.00  0.00     0.017 C 
BRANCH  23  24
ATOM     24  C   UNL     1       3.609   0.384   7.291  1.00  0.00     0.001 C 
BRANCH  24  25
ATOM     25  C   UNL     1       2.991   1.382   6.322  1.00  0.00     0.000 CG0
ATOM     26  G   UNL     1       1.739   0.891   5.601  1.00  0.00     0.000 G0
ENDBRANCH  24  25
ENDBRANCH  23  24
ENDBRANCH   8  23
ENDBRANCH   6   8
ENDBRANCH   5   6
ENDBRANCH   4   5
ENDBRANCH   3   4
ENDBRANCH   2   3
ENDBRANCH   1   2
BRANCH   1  27
ATOM     27  C   UNL     1       1.931  -5.591   3.846  1.00  0.00     0.188 C 
BRANCH  27  28
ATOM     28  O   UNL     1       1.402  -6.916   3.833  1.00  0.00    -0.376 OA
BRANCH  28  29
ATOM     29  C   UNL     1       2.166  -7.902   3.138  1.00  0.00     0.202 C 
BRANCH  29  30
ATOM     30  C   UNL     1       2.333  -7.632   1.643  1.00  0.00     0.261 C 
BRANCH  30  31
ATOM     31  O   UNL     1       3.239  -6.532   1.427  1.00  0.00    -0.460 OA
BRANCH  31  32
ATOM     32  C   UNL     1       3.035  -5.837   0.292  1.00  0.00     0.338 C 
ATOM     33  O   UNL     1       2.227  -6.100  -0.592  1.00  0.00    -0.246 OA
BRANCH  32  34
ATOM     34  C   UNL     1       3.891  -4.636   0.250  1.00  0.00     0.060 A 
ATOM     35  C   UNL     1       3.661  -3.578   1.133  1.00  0.00     0.016 A 
ATOM     36  C   UNL     1       4.770  -4.468  -0.817  1.00  0.00     0.016 A 
ATOM     37  C   UNL     1       4.198  -2.315   0.872  1.00  0.00     0.010 A 
ATOM     38  C   UNL     1       5.358  -3.217  -1.040  1.00  0.00     0.010 A 
ATOM     39  C   UNL     1       5.015  -2.108  -0.246  1.00  0.00    -0.014 A 
BRANCH  39  40
ATOM     40  C   UNL     1       5.385  -0.729  -0.680  1.00  0.00     0.031 A 
ATOM     41  C   UNL     1       4.946  -0.238  -2.040  1.00  0.00     0.074 A 
ATOM     42  C   UNL     1       6.079   0.104   0.120  1.00  0.00     0.049 A 
ATOM     43  N   UNL     1       5.344   0.812  -2.711  1.00  0.00    -0.248 NA
ATOM     44  C   UNL     1       3.932  -1.045  -2.741  1.00  0.00     0.031 C 
ATOM     45  C   UNL     1       6.511  -0.193   1.484  1.00  0.00     0.029 A 
ATOM     46  N   UNL     1       6.559   1.371  -0.114  1.00  0.00    -0.354 N 
ATOM     47  C   UNL     1       4.701   0.743  -3.943  1.00  0.00     0.074 A 
ATOM     48  C   UNL     1       3.868  -0.439  -3.919  1.00  0.00     0.031 C 
ATOM     49  C   UNL     1       7.190   0.860   1.968  1.00  0.00     0.029 A 
ATOM     50  C   UNL     1       7.314   1.871   0.922  1.00  0.00     0.049 A 
ATOM     51  H   UNL     1       6.379   1.873  -0.942  1.00  0.00     0.167 HD
ATOM     52  C   UNL     1       4.791   1.589  -4.997  1.00  0.00     0.034 A 
ATOM     53  C   UNL     1       8.068   2.986   1.005  1.00  0.00     0.034 A 
ATOM     54  C   UNL     1       5.538   2.817  -4.988  1.00  0.00     0.049 A 
ATOM     55  C   UNL     1       8.159   3.910  -0.180  1.00  0.00     0.074 A 
ATOM     56  C   UNL     1       5.668   3.752  -6.001  1.00  0.00     0.029 A 
ATOM     57  N   UNL     1       6.259   3.297  -3.908  1.00  0.00    -0.354 N 
ATOM     58  N   UNL     1       7.552   3.828  -1.339  1.00  0.00    -0.248 NA
ATOM     59  C   UNL     1       9.037   5.083  -0.044  1.00  0.00     0.031 C 
ATOM     60  C   UNL     1       6.471   4.798  -5.532  1.00  0.00     0.029 A 
ATOM     61  C   UNL     1       6.833   4.516  -4.225  1.00  0.00     0.049 A 
ATOM     62  H   UNL     1       6.350   2.839  -3.041  1.00  0.00     0.167 HD
ATOM     63  C   UNL     1       7.962   4.942  -2.063  1.00  0.00     0.074 A 
ATOM     64  C   UNL     1       8.843   5.702  -1.201  1.00  0.00     0.031 C 
ATOM     65  C   UNL     1       7.660   5.291  -3.338  1.00  0.00     0.034 A 
BRANCH  52  66
ATOM     66  C   UNL     1       4.047   1.229  -6.255  1.00  0.00     0.023 A 
ATOM     67  C   UNL     1       2.655   1.428  -6.330  1.00  0.00     0.012 A 
ATOM     68  C   UNL     1       4.744   0.764  -7.389  1.00  0.00     0.148 A 
ATOM     69  C   UNL     1       1.964   1.149  -7.509  1.00  0.00     0.002 A 
ATOM     70  C   UNL     1       4.054   0.527  -8.572  1.00  0.00     0.091 A 
ATOM     71  F   UNL     1       6.064   0.557  -7.288  1.00  0.00    -0.205 F 
ATOM     72  C   UNL     1       2.663   0.711  -8.632  1.00  0.00     0.022 A 
BRANCH  70  73
ATOM     73  S   UNL     1       4.884   0.035 -10.088  1.00  0.00     0.127 S 
ATOM     74  O   UNL     1       4.536  -1.383 -10.169  1.00  0.00    -0.237 OA
ATOM     75  O   UNL     1       4.232   0.880 -11.089  1.00  0.00    -0.237 OA
ATOM     76  O   UNL     1       6.296   0.325  -9.881  1.00  0.00    -0.744 OA
ENDBRANCH  70  73
ENDBRANCH  52  66
BRANCH  53  77
ATOM     77  C   UNL     1       8.810   3.284   2.263  1.00  0.00     0.023 A 
ATOM     78  C   UNL     1       8.428   4.386   3.052  1.00  0.00     0.012 A 
ATOM     79  C   UNL     1       9.862   2.459   2.704  1.00  0.00     0.148 A 
ATOM     80  C   UNL     1       9.089   4.666   4.249  1.00  0.00     0.002 A 
ATOM     81  C   UNL     1      10.469   2.703   3.930  1.00  0.00     0.091 A 
ATOM     82  F   UNL     1      10.241   1.435   1.924  1.00  0.00    -0.205 F 
ATOM     83  C   UNL     1      10.097   3.815   4.697  1.00  0.00     0.022 A 
BRANCH  81  84
ATOM     84  S   UNL     1      11.648   1.548   4.641  1.00  0.00     0.127 S 
ATOM     85  O   UNL     1      12.923   2.181   4.319  1.00  0.00    -0.237 OA
ATOM     86  O   UNL     1      11.286   1.570   6.059  1.00  0.00    -0.237 OA
ATOM     87  O   UNL     1      11.375   0.276   3.982  1.00  0.00    -0.744 OA
ENDBRANCH  81  84
ENDBRANCH  53  77
BRANCH  65  88
ATOM     88  C   UNL     1       8.267   6.558  -3.879  1.00  0.00     0.023 A 
ATOM     89  C   UNL     1       9.623   6.568  -4.259  1.00  0.00     0.012 A 
ATOM     90  C   UNL     1       7.482   7.710  -4.079  1.00  0.00     0.148 A 
ATOM     91  C   UNL     1      10.197   7.714  -4.807  1.00  0.00     0.002 A 
ATOM     92  C   UNL     1       8.052   8.837  -4.662  1.00  0.00     0.091 A 
ATOM     93  F   UNL     1       6.199   7.688  -3.691  1.00  0.00    -0.205 F 
ATOM     94  C   UNL     1       9.410   8.844  -5.019  1.00  0.00     0.022 A 
BRANCH  92  95
ATOM     95  S   UNL     1       7.088  10.306  -5.043  1.00  0.00     0.127 S 
ATOM     96  O   UNL     1       7.465  11.201  -3.951  1.00  0.00    -0.237 OA
ATOM     97  O   UNL     1       7.608  10.692  -6.356  1.00  0.00    -0.237 OA
ATOM     98  O   UNL     1       5.697   9.874  -5.052  1.00  0.00    -0.744 OA
ENDBRANCH  92  95
ENDBRANCH  65  88
ENDBRANCH  39  40
ENDBRANCH  32  34
ENDBRANCH  31  32
ENDBRANCH  30  31
ENDBRANCH  29  30
ENDBRANCH  28  29
ENDBRANCH  27  28
ENDBRANCH   1  27
TORSDOF 24
