REMARK SMILES Cc1ccc(C)c(N2C(=O)S[C@H](CC(=O)Nc3ccc(C(=O)OCCOCCOCCOC(=O)c4ccc(-c5c6nc(c(-c7cccc(S(=O)(=O)[O-])c7F)c7ccc([nH]7)c(-c7cccc(S(=O)(=O)[O-])c7F)c7nc(c(-c8cccc(S(=O)(=O)[O-])c8F)c8ccc5[nH]8)C=C7)C=C6)cc4)c(O)c3)C2=O)c1
REMARK SMILES IDX 27 1 26 2 25 3 24 4 23 5 21 6 22 7 20 8 17 9 18 10 100 11
REMARK SMILES IDX 19 12 98 13 16 14 14 15 15 16 13 18 12 19 8 20 9 21 101 22
REMARK SMILES IDX 10 23 11 24 102 25 7 26 1 27 2 28 3 29 103 30 4 31 5 32 6 33
REMARK SMILES IDX 99 34 28 36 29 37 30 38 31 39 32 40 33 41 34 42 35 43 36 44
REMARK SMILES IDX 97 45 37 46 96 47 38 48 39 49 40 50 90 51 41 52 95 53 89 54
REMARK SMILES IDX 91 55 42 56 94 57 88 58 87 59 43 61 75 62 55 63 74 64 56 65
REMARK SMILES IDX 59 66 73 67 92 68 57 69 58 70 72 72 93 73 60 74 44 75 45 76
REMARK SMILES IDX 53 77 46 78 48 79 54 80 47 81 49 82 50 83 51 84 52 85 76 86
REMARK SMILES IDX 77 87 85 88 78 89 80 90 86 91 79 92 81 93 82 94 83 95 84 96
REMARK SMILES IDX 61 97 62 98 70 99 63 100 65 101 71 102 64 103 66 104 67 105
REMARK SMILES IDX 68 106 69 107
REMARK H PARENT 16 17 99 35 91 60 59 71
REMARK Flexibility Score: inf
ROOT
ATOM      1  C   UNL     1       1.972   1.986  -2.954  1.00  0.00     0.188 C 
ENDROOT
BRANCH   1   2
ATOM      2  O   UNL     1       1.971   1.744  -4.363  1.00  0.00    -0.376 OA
BRANCH   2   3
ATOM      3  C   UNL     1       2.285   2.880  -5.179  1.00  0.00     0.202 C 
BRANCH   3   4
ATOM      4  C   UNL     1       1.101   3.813  -5.497  1.00  0.00     0.261 C 
BRANCH   4   5
ATOM      5  O   UNL     1       0.521   4.453  -4.338  1.00  0.00    -0.460 OA
BRANCH   5   6
ATOM      6  C   UNL     1      -0.677   5.051  -4.571  1.00  0.00     0.341 C 
ATOM      7  O   UNL     1      -1.348   4.952  -5.585  1.00  0.00    -0.246 OA
BRANCH   6   8
ATOM      8  C   UNL     1      -1.204   5.729  -3.362  1.00  0.00     0.101 A 
ATOM      9  C   UNL     1      -2.286   6.700  -0.952  1.00  0.00     0.044 A 
ATOM     10  C   UNL     1      -2.996   5.806  -1.744  1.00  0.00     0.027 A 
ATOM     11  C   UNL     1      -1.138   7.277  -1.468  1.00  0.00     0.073 A 
ATOM     12  C   UNL     1      -2.445   5.284  -2.915  1.00  0.00     0.022 A 
ATOM     13  C   UNL     1      -0.620   6.806  -2.688  1.00  0.00     0.132 A 
BRANCH   9  14
ATOM     14  N   UNL     1      -2.771   7.045   0.319  1.00  0.00    -0.326 N 
ATOM     15  C   UNL     1      -3.202   6.148   1.276  1.00  0.00     0.226 C 
ATOM     16  O   UNL     1      -4.070   6.452   2.093  1.00  0.00    -0.275 OA
ATOM     17  H   UNL     1      -2.807   8.002   0.546  1.00  0.00     0.169 HD
BRANCH  15  18
ATOM     18  C   UNL     1      -2.389   4.864   1.429  1.00  0.00     0.125 C 
BRANCH  18  19
ATOM     19  C   UNL     1      -3.159   3.550   1.366  1.00  0.00     0.156 C 
ATOM     20  N   UNL     1      -1.601   1.929   0.535  1.00  0.00    -0.240 N 
ATOM     21  C   UNL     1      -2.134   2.373  -0.652  1.00  0.00     0.293 C 
ATOM     22  C   UNL     1      -2.215   2.392   1.690  1.00  0.00     0.248 C 
ATOM     23  O   UNL     1      -1.685   2.272  -1.772  1.00  0.00    -0.261 OA
ATOM     24  S   UNL     1      -3.693   3.111  -0.311  1.00  0.00    -0.050 SA
ATOM     25  O   UNL     1      -2.069   1.953   2.826  1.00  0.00    -0.273 OA
BRANCH  20  26
ATOM     26  C   UNL     1      -0.814   0.756   0.508  1.00  0.00     0.056 A 
ATOM     27  C   UNL     1       2.873  -0.242   0.289  1.00  0.00     0.044 C 
ATOM     28  C   UNL     1       1.375  -0.296   0.329  1.00  0.00    -0.049 A 
ATOM     29  C   UNL     1       0.748  -1.533   0.146  1.00  0.00     0.004 A 
ATOM     30  C   UNL     1       0.587   0.854   0.508  1.00  0.00     0.030 A 
ATOM     31  C   UNL     1      -0.640  -1.632   0.152  1.00  0.00     0.006 A 
ATOM     32  C   UNL     1      -1.439  -0.496   0.328  1.00  0.00    -0.027 A 
ATOM     33  C   UNL     1      -2.930  -0.692   0.282  1.00  0.00     0.046 C 
ENDBRANCH  20  26
ENDBRANCH  18  19
ENDBRANCH  15  18
ENDBRANCH   9  14
BRANCH  13  34
ATOM     34  O   UNL     1       0.434   7.523  -3.156  1.00  0.00    -0.507 OA
ATOM     35  H   UNL     1       0.843   7.281  -3.964  1.00  0.00     0.293 HD
ENDBRANCH  13  34
ENDBRANCH   6   8
ENDBRANCH   5   6
ENDBRANCH   4   5
ENDBRANCH   3   4
ENDBRANCH   2   3
ENDBRANCH   1   2
BRANCH   1  36
ATOM     36  C   UNL     1       3.380   2.016  -2.331  1.00  0.00     0.188 C 
BRANCH  36  37
ATOM     37  O   UNL     1       4.066   3.190  -2.718  1.00  0.00    -0.376 OA
BRANCH  37  38
ATOM     38  C   UNL     1       5.454   3.237  -2.461  1.00  0.00     0.202 C 
BRANCH  38  39
ATOM     39  C   UNL     1       5.904   3.238  -0.993  1.00  0.00     0.261 C 
BRANCH  39  40
ATOM     40  O   UNL     1       5.016   3.664   0.075  1.00  0.00    -0.460 OA
BRANCH  40  41
ATOM     41  C   UNL     1       4.263   4.782   0.202  1.00  0.00     0.338 C 
ATOM     42  O   UNL     1       3.555   4.977   1.183  1.00  0.00    -0.246 OA
BRANCH  41  43
ATOM     43  C   UNL     1       4.155   5.642  -0.974  1.00  0.00     0.060 A 
ATOM     44  C   UNL     1       2.942   5.556  -1.637  1.00  0.00     0.016 A 
ATOM     45  C   UNL     1       5.243   6.338  -1.522  1.00  0.00     0.016 A 
ATOM     46  C   UNL     1       2.911   5.968  -2.948  1.00  0.00     0.010 A 
ATOM     47  C   UNL     1       5.168   6.795  -2.844  1.00  0.00     0.010 A 
ATOM     48  C   UNL     1       4.016   6.535  -3.582  1.00  0.00    -0.014 A 
BRANCH  48  49
ATOM     49  C   UNL     1       3.762   6.923  -4.973  1.00  0.00     0.031 A 
ATOM     50  C   UNL     1       2.811   8.057  -5.107  1.00  0.00     0.074 A 
ATOM     51  C   UNL     1       4.231   6.282  -6.063  1.00  0.00     0.049 A 
ATOM     52  N   UNL     1       1.641   8.056  -5.677  1.00  0.00    -0.248 NA
ATOM     53  C   UNL     1       3.129   9.280  -4.358  1.00  0.00     0.031 C 
ATOM     54  C   UNL     1       5.258   5.244  -6.098  1.00  0.00     0.029 A 
ATOM     55  N   UNL     1       3.959   6.506  -7.392  1.00  0.00    -0.354 N 
ATOM     56  C   UNL     1       1.214   9.377  -5.585  1.00  0.00     0.074 A 
ATOM     57  C   UNL     1       2.054  10.023  -4.606  1.00  0.00     0.031 C 
ATOM     58  C   UNL     1       5.699   5.107  -7.367  1.00  0.00     0.029 A 
ATOM     59  C   UNL     1       4.941   5.994  -8.235  1.00  0.00     0.049 A 
ATOM     60  H   UNL     1       3.156   6.978  -7.713  1.00  0.00     0.167 HD
ATOM     61  C   UNL     1       0.382   9.957  -6.487  1.00  0.00     0.034 A 
ATOM     62  C   UNL     1       5.212   6.373  -9.509  1.00  0.00     0.034 A 
ATOM     63  C   UNL     1      -0.391   9.043  -7.262  1.00  0.00     0.049 A 
ATOM     64  C   UNL     1       4.017   7.033 -10.074  1.00  0.00     0.074 A 
ATOM     65  C   UNL     1      -1.327   8.065  -6.997  1.00  0.00     0.029 A 
ATOM     66  N   UNL     1      -0.057   8.899  -8.583  1.00  0.00    -0.354 N 
ATOM     67  N   UNL     1       2.933   6.412 -10.442  1.00  0.00    -0.248 NA
ATOM     68  C   UNL     1       3.902   8.476  -9.940  1.00  0.00     0.031 C 
ATOM     69  C   UNL     1      -1.198   7.120  -8.053  1.00  0.00     0.029 A 
ATOM     70  C   UNL     1      -0.195   7.577  -8.907  1.00  0.00     0.049 A 
ATOM     71  H   UNL     1       0.232   9.618  -9.190  1.00  0.00     0.167 HD
ATOM     72  C   UNL     1       1.913   7.312 -10.170  1.00  0.00     0.074 A 
ATOM     73  C   UNL     1       2.575   8.595  -9.977  1.00  0.00     0.031 C 
ATOM     74  C   UNL     1       0.661   6.881  -9.841  1.00  0.00     0.034 A 
BRANCH  61  75
ATOM     75  C   UNL     1       0.574  11.396  -6.856  1.00  0.00     0.023 A 
ATOM     76  C   UNL     1      -0.489  12.151  -7.371  1.00  0.00     0.012 A 
ATOM     77  C   UNL     1       1.856  11.989  -6.853  1.00  0.00     0.148 A 
ATOM     78  C   UNL     1      -0.287  13.473  -7.789  1.00  0.00     0.002 A 
ATOM     79  C   UNL     1       2.023  13.333  -7.128  1.00  0.00     0.091 A 
ATOM     80  F   UNL     1       2.944  11.223  -6.679  1.00  0.00    -0.205 F 
ATOM     81  C   UNL     1       0.957  14.081  -7.622  1.00  0.00     0.022 A 
BRANCH  79  82
ATOM     82  S   UNL     1       3.571  14.131  -6.702  1.00  0.00     0.127 S 
ATOM     83  O   UNL     1       4.310  14.047  -7.955  1.00  0.00    -0.237 OA
ATOM     84  O   UNL     1       3.133  15.475  -6.323  1.00  0.00    -0.237 OA
ATOM     85  O   UNL     1       4.084  13.343  -5.584  1.00  0.00    -0.744 OA
ENDBRANCH  79  82
ENDBRANCH  61  75
BRANCH  62  86
ATOM     86  C   UNL     1       6.532   6.451 -10.188  1.00  0.00     0.023 A 
ATOM     87  C   UNL     1       6.602   6.566 -11.591  1.00  0.00     0.012 A 
ATOM     88  C   UNL     1       7.716   6.675  -9.451  1.00  0.00     0.148 A 
ATOM     89  C   UNL     1       7.803   6.904 -12.231  1.00  0.00     0.002 A 
ATOM     90  C   UNL     1       8.913   6.977 -10.091  1.00  0.00     0.091 A 
ATOM     91  F   UNL     1       7.659   6.700  -8.114  1.00  0.00    -0.205 F 
ATOM     92  C   UNL     1       8.960   7.107 -11.482  1.00  0.00     0.022 A 
BRANCH  90  93
ATOM     93  S   UNL     1      10.427   7.236  -9.158  1.00  0.00     0.127 S 
ATOM     94  O   UNL     1      11.418   6.540  -9.980  1.00  0.00    -0.237 OA
ATOM     95  O   UNL     1      10.541   8.691  -9.161  1.00  0.00    -0.237 OA
ATOM     96  O   UNL     1      10.197   6.615  -7.859  1.00  0.00    -0.744 OA
ENDBRANCH  90  93
ENDBRANCH  62  86
BRANCH  74  97
ATOM     97  C   UNL     1       0.258   5.480 -10.209  1.00  0.00     0.023 A 
ATOM     98  C   UNL     1       0.912   4.342  -9.701  1.00  0.00     0.012 A 
ATOM     99  C   UNL     1      -0.914   5.313 -10.971  1.00  0.00     0.148 A 
ATOM    100  C   UNL     1       0.418   3.061  -9.964  1.00  0.00     0.002 A 
ATOM    101  C   UNL     1      -1.425   4.042 -11.195  1.00  0.00     0.091 A 
ATOM    102  F   UNL     1      -1.519   6.411 -11.452  1.00  0.00    -0.205 F 
ATOM    103  C   UNL     1      -0.757   2.912 -10.699  1.00  0.00     0.022 A 
BRANCH 101 104
ATOM    104  S   UNL     1      -2.986   3.790 -12.046  1.00  0.00     0.127 S 
ATOM    105  O   UNL     1      -2.546   3.280 -13.344  1.00  0.00    -0.237 OA
ATOM    106  O   UNL     1      -3.654   2.803 -11.197  1.00  0.00    -0.237 OA
ATOM    107  O   UNL     1      -3.642   5.091 -12.078  1.00  0.00    -0.744 OA
ENDBRANCH 101 104
ENDBRANCH  74  97
ENDBRANCH  48  49
ENDBRANCH  41  43
ENDBRANCH  40  41
ENDBRANCH  39  40
ENDBRANCH  38  39
ENDBRANCH  37  38
ENDBRANCH  36  37
ENDBRANCH   1  36
TORSDOF 25
