REMARK SMILES CC(C)(C)[C@H]1CCC[C@H]([NH+]2CCC(CC(=O)OCCOCCOCCOC(=O)c3ccc(-c4c5nc(c(-c6cccc(S(=O)(=O)[O-])c6F)c6ccc([nH]6)c(-c6cccc(S(=O)(=O)[O-])c6F)c6nc(c(-c7cccc(S(=O)(=O)[O-])c7F)c7ccc4[nH]7)C=C6)C=C5)cc3)CC2)CC1
REMARK SMILES IDX 20 1 19 2 18 3 17 4 15 5 16 6 14 7 13 8 10 9 11 10 93 11
REMARK SMILES IDX 12 13 92 14 9 15 94 16 95 17 5 18 2 19 1 20 3 21 4 22 6 23
REMARK SMILES IDX 8 25 7 26 21 28 22 29 23 30 24 31 25 32 26 33 27 34 28 35
REMARK SMILES IDX 29 36 30 37 91 38 31 39 90 40 32 41 33 42 34 43 84 44 35 45
REMARK SMILES IDX 89 46 83 47 85 48 36 49 88 50 82 51 81 52 37 54 69 55 49 56
REMARK SMILES IDX 68 57 50 58 53 59 67 60 86 61 51 62 52 63 66 65 87 66 54 67
REMARK SMILES IDX 38 68 39 69 47 70 40 71 42 72 48 73 41 74 43 75 44 76 45 77
REMARK SMILES IDX 46 78 70 79 71 80 79 81 72 82 74 83 80 84 73 85 75 86 76 87
REMARK SMILES IDX 77 88 78 89 55 90 56 91 64 92 57 93 59 94 65 95 58 96 60 97
REMARK SMILES IDX 61 98 62 99 63 100
REMARK H PARENT 10 12 85 53 53 64
REMARK Flexibility Score: 90.00
ROOT
ATOM      1  O   UNL     1      -8.027  -8.106   1.845  1.00  0.00    -0.376 OA
ENDROOT
BRANCH   1   2
ATOM      2  C   UNL     1      -8.336  -6.713   1.852  1.00  0.00     0.202 C 
BRANCH   2   3
ATOM      3  C   UNL     1      -8.124  -5.989   3.187  1.00  0.00     0.261 C 
BRANCH   3   4
ATOM      4  O   UNL     1      -6.786  -6.140   3.699  1.00  0.00    -0.463 OA
BRANCH   4   5
ATOM      5  C   UNL     1      -6.677  -6.484   5.007  1.00  0.00     0.306 C 
ATOM      6  O   UNL     1      -7.619  -6.557   5.788  1.00  0.00    -0.252 OA
BRANCH   5   7
ATOM      7  C   UNL     1      -5.266  -6.858   5.429  1.00  0.00     0.126 C 
BRANCH   7   8
ATOM      8  C   UNL     1      -4.075  -6.430   4.556  1.00  0.00     0.011 C 
ATOM      9  N   UNL     1      -1.643  -4.797   4.227  1.00  0.00    -0.332 N 
ATOM     10  C   UNL     1      -2.845  -4.558   3.423  1.00  0.00     0.262 C 
ATOM     11  C   UNL     1      -1.515  -6.229   4.543  1.00  0.00     0.262 C 
ATOM     12  H   UNL     1      -1.763  -4.295   5.106  1.00  0.00     0.348 HD
ATOM     13  C   UNL     1      -4.089  -4.939   4.215  1.00  0.00     0.066 C 
ATOM     14  C   UNL     1      -2.752  -6.756   5.285  1.00  0.00     0.066 C 
BRANCH   9  15
ATOM     15  C   UNL     1      -0.404  -4.207   3.650  1.00  0.00     0.184 C 
BRANCH  15  16
ATOM     16  C   UNL     1      -0.557  -2.659   3.609  1.00  0.00     0.065 C 
BRANCH  16  17
ATOM     17  C   UNL     1       0.764  -1.896   3.480  1.00  0.00     0.010 C 
BRANCH  17  18
ATOM     18  C   UNL     1       1.312  -1.718   2.043  1.00  0.00    -0.005 C 
BRANCH  18  19
ATOM     19  C   UNL     1       2.858  -1.345   2.007  1.00  0.00    -0.035 C 
ATOM     20  C   UNL     1       3.511  -1.667   0.646  1.00  0.00     0.011 C 
ATOM     21  C   UNL     1       3.703  -2.037   3.099  1.00  0.00     0.011 C 
ATOM     22  C   UNL     1       2.998   0.180   2.229  1.00  0.00     0.011 C 
ENDBRANCH  18  19
BRANCH  18  23
ATOM     23  C   UNL     1       0.867  -2.839   1.083  1.00  0.00     0.004 CG0
ATOM     24  G   UNL     1       1.175  -4.247   1.562  1.00  0.00     0.000 G0
ENDBRANCH  18  23
ENDBRANCH  17  18
ENDBRANCH  16  17
ENDBRANCH  15  16
BRANCH  15  25
ATOM     25  C   UNL     1       0.012  -4.875   2.321  1.00  0.00     0.065 C 
BRANCH  25  26
ATOM     26  C   UNL     1       1.175  -4.247   1.562  1.00  0.00     0.006 CG0
ATOM     27  G   UNL     1       0.867  -2.839   1.083  1.00  0.00     0.000 G0
ENDBRANCH  25  26
ENDBRANCH  15  25
ENDBRANCH   9  15
ENDBRANCH   7   8
ENDBRANCH   5   7
ENDBRANCH   4   5
ENDBRANCH   3   4
ENDBRANCH   2   3
ENDBRANCH   1   2
BRANCH   1  28
ATOM     28  C   UNL     1      -6.668  -8.463   2.074  1.00  0.00     0.188 C 
BRANCH  28  29
ATOM     29  C   UNL     1      -5.662  -7.944   1.046  1.00  0.00     0.188 C 
BRANCH  29  30
ATOM     30  O   UNL     1      -5.721  -6.551   0.759  1.00  0.00    -0.376 OA
BRANCH  30  31
ATOM     31  C   UNL     1      -4.793  -6.085  -0.229  1.00  0.00     0.202 C 
BRANCH  31  32
ATOM     32  C   UNL     1      -4.799  -6.820  -1.587  1.00  0.00     0.261 C 
BRANCH  32  33
ATOM     33  O   UNL     1      -4.439  -8.219  -1.542  1.00  0.00    -0.460 OA
BRANCH  33  34
ATOM     34  C   UNL     1      -3.291  -8.556  -0.910  1.00  0.00     0.338 C 
ATOM     35  O   UNL     1      -2.392  -7.794  -0.595  1.00  0.00    -0.246 OA
BRANCH  34  36
ATOM     36  C   UNL     1      -3.412  -9.956  -0.415  1.00  0.00     0.060 A 
ATOM     37  C   UNL     1      -2.884 -10.255   0.850  1.00  0.00     0.016 A 
ATOM     38  C   UNL     1      -4.092 -10.947  -1.131  1.00  0.00     0.016 A 
ATOM     39  C   UNL     1      -2.989 -11.546   1.375  1.00  0.00     0.010 A 
ATOM     40  C   UNL     1      -4.190 -12.243  -0.607  1.00  0.00     0.010 A 
ATOM     41  C   UNL     1      -3.606 -12.561   0.633  1.00  0.00    -0.014 A 
BRANCH  41  42
ATOM     42  C   UNL     1      -3.469 -13.979   1.062  1.00  0.00     0.031 A 
ATOM     43  C   UNL     1      -2.405 -14.825   0.411  1.00  0.00     0.074 A 
ATOM     44  C   UNL     1      -4.250 -14.516   2.018  1.00  0.00     0.049 A 
ATOM     45  N   UNL     1      -2.090 -16.076   0.628  1.00  0.00    -0.248 NA
ATOM     46  C   UNL     1      -1.588 -14.170  -0.624  1.00  0.00     0.031 C 
ATOM     47  C   UNL     1      -5.318 -13.821   2.733  1.00  0.00     0.029 A 
ATOM     48  N   UNL     1      -4.272 -15.790   2.537  1.00  0.00    -0.354 N 
ATOM     49  C   UNL     1      -1.058 -16.365  -0.256  1.00  0.00     0.074 A 
ATOM     50  C   UNL     1      -0.810 -15.164  -1.024  1.00  0.00     0.031 C 
ATOM     51  C   UNL     1      -5.908 -14.684   3.581  1.00  0.00     0.029 A 
ATOM     52  C   UNL     1      -5.273 -15.996   3.458  1.00  0.00     0.049 A 
ATOM     53  H   UNL     1      -3.631 -16.489   2.273  1.00  0.00     0.167 HD
ATOM     54  C   UNL     1      -0.361 -17.516  -0.408  1.00  0.00     0.034 A 
ATOM     55  C   UNL     1      -5.644 -17.116   4.114  1.00  0.00     0.034 A 
ATOM     56  C   UNL     1      -0.588 -18.711   0.358  1.00  0.00     0.049 A 
ATOM     57  C   UNL     1      -4.868 -18.395   3.908  1.00  0.00     0.074 A 
ATOM     58  C   UNL     1       0.101 -19.910   0.301  1.00  0.00     0.029 A 
ATOM     59  N   UNL     1      -1.585 -18.868   1.306  1.00  0.00    -0.354 N 
ATOM     60  N   UNL     1      -3.812 -18.613   3.163  1.00  0.00    -0.248 NA
ATOM     61  C   UNL     1      -5.317 -19.575   4.666  1.00  0.00     0.031 C 
ATOM     62  C   UNL     1      -0.499 -20.803   1.196  1.00  0.00     0.029 A 
ATOM     63  C   UNL     1      -1.539 -20.148   1.834  1.00  0.00     0.049 A 
ATOM     64  H   UNL     1      -2.231 -18.173   1.567  1.00  0.00     0.167 HD
ATOM     65  C   UNL     1      -3.448 -19.938   3.392  1.00  0.00     0.074 A 
ATOM     66  C   UNL     1      -4.384 -20.467   4.361  1.00  0.00     0.031 C 
ATOM     67  C   UNL     1      -2.436 -20.654   2.840  1.00  0.00     0.034 A 
BRANCH  54  68
ATOM     68  C   UNL     1       0.739 -17.531  -1.435  1.00  0.00     0.023 A 
ATOM     69  C   UNL     1       1.938 -16.832  -1.184  1.00  0.00     0.012 A 
ATOM     70  C   UNL     1       0.608 -18.277  -2.623  1.00  0.00     0.148 A 
ATOM     71  C   UNL     1       2.977 -16.849  -2.113  1.00  0.00     0.002 A 
ATOM     72  C   UNL     1       1.666 -18.326  -3.522  1.00  0.00     0.091 A 
ATOM     73  F   UNL     1      -0.548 -18.914  -2.853  1.00  0.00    -0.205 F 
ATOM     74  C   UNL     1       2.845 -17.604  -3.275  1.00  0.00     0.022 A 
BRANCH  72  75
ATOM     75  S   UNL     1       1.624 -19.332  -5.010  1.00  0.00     0.127 S 
ATOM     76  O   UNL     1       1.526 -18.311  -6.052  1.00  0.00    -0.237 OA
ATOM     77  O   UNL     1       2.913 -20.022  -4.950  1.00  0.00    -0.237 OA
ATOM     78  O   UNL     1       0.463 -20.201  -4.874  1.00  0.00    -0.744 OA
ENDBRANCH  72  75
ENDBRANCH  54  68
BRANCH  55  79
ATOM     79  C   UNL     1      -6.795 -17.083   5.062  1.00  0.00     0.023 A 
ATOM     80  C   UNL     1      -6.566 -17.243   6.443  1.00  0.00     0.012 A 
ATOM     81  C   UNL     1      -8.114 -16.906   4.602  1.00  0.00     0.148 A 
ATOM     82  C   UNL     1      -7.632 -17.262   7.344  1.00  0.00     0.002 A 
ATOM     83  C   UNL     1      -9.166 -16.871   5.509  1.00  0.00     0.091 A 
ATOM     84  F   UNL     1      -8.313 -16.779   3.282  1.00  0.00    -0.205 F 
ATOM     85  C   UNL     1      -8.930 -17.066   6.879  1.00  0.00     0.022 A 
BRANCH  83  86
ATOM     86  S   UNL     1     -10.854 -16.509   5.015  1.00  0.00     0.127 S 
ATOM     87  O   UNL     1     -11.510 -17.797   5.227  1.00  0.00    -0.237 OA
ATOM     88  O   UNL     1     -11.228 -15.463   5.967  1.00  0.00    -0.237 OA
ATOM     89  O   UNL     1     -10.772 -16.063   3.631  1.00  0.00    -0.744 OA
ENDBRANCH  83  86
ENDBRANCH  55  79
BRANCH  67  90
ATOM     90  C   UNL     1      -2.246 -22.080   3.297  1.00  0.00     0.023 A 
ATOM     91  C   UNL     1      -3.169 -23.073   2.914  1.00  0.00     0.012 A 
ATOM     92  C   UNL     1      -1.111 -22.449   4.048  1.00  0.00     0.148 A 
ATOM     93  C   UNL     1      -2.987 -24.401   3.302  1.00  0.00     0.002 A 
ATOM     94  C   UNL     1      -0.910 -23.782   4.389  1.00  0.00     0.091 A 
ATOM     95  F   UNL     1      -0.250 -21.490   4.419  1.00  0.00    -0.205 F 
ATOM     96  C   UNL     1      -1.853 -24.757   4.029  1.00  0.00     0.022 A 
BRANCH  94  97
ATOM     97  S   UNL     1       0.570 -24.345   5.239  1.00  0.00     0.127 S 
ATOM     98  O   UNL     1       0.061 -24.605   6.584  1.00  0.00    -0.237 OA
ATOM     99  O   UNL     1       0.929 -25.544   4.481  1.00  0.00    -0.237 OA
ATOM    100  O   UNL     1       1.532 -23.255   5.132  1.00  0.00    -0.744 OA
ENDBRANCH  94  97
ENDBRANCH  67  90
ENDBRANCH  41  42
ENDBRANCH  34  36
ENDBRANCH  33  34
ENDBRANCH  32  33
ENDBRANCH  31  32
ENDBRANCH  30  31
ENDBRANCH  29  30
ENDBRANCH  28  29
ENDBRANCH   1  28
TORSDOF 23
