REMARK SMILES CCOc1cc2c(cc1/C=C1/C(=O)N(c3cccc(C(=O)OCCOCCOCCOC(=O)c4ccc(-c5c6nc(c(-c7cccc(S(=O)(=O)[O-])c7F)c7ccc([nH]7)c(-c7cccc(S(=O)(=O)[O-])c7F)c7nc(c(-c8cccc(S(=O)(=O)[O-])c8F)c8ccc5[nH]8)C=C7)C=C6)cc4)c3)C(=S)N=C1O)OCO2
REMARK SMILES IDX 26 1 25 2 24 3 23 4 22 5 20 6 21 7 19 8 15 9 16 10 97 11
REMARK SMILES IDX 17 12 18 13 14 14 10 15 11 16 12 17 101 18 13 19 100 20
REMARK SMILES IDX 98 21 99 22 9 23 4 24 5 25 6 26 8 27 7 28 105 29 103 30
REMARK SMILES IDX 104 31 3 32 2 33 1 34 102 35 27 37 28 38 29 39 30 40 31 41
REMARK SMILES IDX 32 42 33 43 34 44 35 45 96 46 36 47 95 48 37 49 38 50 39 51
REMARK SMILES IDX 89 52 40 53 94 54 88 55 90 56 41 57 93 58 87 59 86 60 42 62
REMARK SMILES IDX 74 63 54 64 73 65 55 66 58 67 72 68 91 69 56 70 57 71 71 73
REMARK SMILES IDX 92 74 59 75 43 76 44 77 52 78 45 79 47 80 53 81 46 82 48 83
REMARK SMILES IDX 49 84 50 85 51 86 75 87 76 88 84 89 77 90 79 91 85 92 78 93
REMARK SMILES IDX 80 94 81 95 82 96 83 97 60 98 61 99 69 100 62 101 64 102
REMARK SMILES IDX 70 103 63 104 65 105 66 106 67 107 68 108
REMARK H PARENT 102 36 90 61 58 72
REMARK Flexibility Score: inf
ROOT
ATOM      1  C   UNL     1      -1.388  -0.422  12.905  1.00  0.00     0.188 C 
ENDROOT
BRANCH   1   2
ATOM      2  O   UNL     1      -2.347  -1.467  12.913  1.00  0.00    -0.376 OA
BRANCH   2   3
ATOM      3  C   UNL     1      -2.733  -2.096  11.701  1.00  0.00     0.202 C 
BRANCH   3   4
ATOM      4  C   UNL     1      -3.044  -1.287  10.432  1.00  0.00     0.261 C 
BRANCH   4   5
ATOM      5  O   UNL     1      -2.089  -0.267  10.117  1.00  0.00    -0.460 OA
BRANCH   5   6
ATOM      6  C   UNL     1      -2.583   1.002  10.095  1.00  0.00     0.338 C 
ATOM      7  O   UNL     1      -3.734   1.343  10.232  1.00  0.00    -0.246 OA
BRANCH   6   8
ATOM      8  C   UNL     1      -1.451   1.956  10.040  1.00  0.00     0.062 A 
ATOM      9  C   UNL     1       0.700   2.668   9.146  1.00  0.00     0.052 A 
ATOM     10  C   UNL     1       0.664   3.766  10.020  1.00  0.00     0.027 A 
ATOM     11  C   UNL     1      -0.377   1.764   9.166  1.00  0.00     0.042 A 
ATOM     12  C   UNL     1      -0.399   3.942  10.913  1.00  0.00     0.003 A 
ATOM     13  C   UNL     1      -1.462   3.042  10.918  1.00  0.00     0.016 A 
BRANCH   9  14
ATOM     14  N   UNL     1       1.789   2.452   8.218  1.00  0.00    -0.251 N 
ATOM     15  C   UNL     1       2.222   2.065   4.592  1.00  0.00     0.031 C 
ATOM     16  C   UNL     1       2.521   1.995   5.912  1.00  0.00     0.103 C 
ATOM     17  C   UNL     1       1.406   2.245   6.876  1.00  0.00     0.270 C 
ATOM     18  C   UNL     1       3.796   1.726   6.557  1.00  0.00     0.226 C 
ATOM     19  O   UNL     1       0.245   2.289   6.464  1.00  0.00    -0.268 OA
ATOM     20  N   UNL     1       4.096   1.933   7.778  1.00  0.00    -0.184 NA
ATOM     21  C   UNL     1       3.138   2.389   8.655  1.00  0.00     0.210 C 
ATOM     22  S   UNL     1       3.699   2.685  10.232  1.00  0.00    -0.038 S 
BRANCH  15  23
ATOM     23  C   UNL     1       3.063   1.904   3.377  1.00  0.00     0.021 A 
ATOM     24  C   UNL     1       2.517   1.352   2.178  1.00  0.00     0.130 A 
ATOM     25  C   UNL     1       3.325   1.138   1.053  1.00  0.00     0.097 A 
ATOM     26  C   UNL     1       4.661   1.450   1.147  1.00  0.00     0.169 A 
ATOM     27  C   UNL     1       4.399   2.335   3.362  1.00  0.00     0.062 A 
ATOM     28  C   UNL     1       5.180   2.046   2.265  1.00  0.00     0.166 A 
ATOM     29  O   UNL     1       5.596   1.256   0.179  1.00  0.00    -0.453 OA
ATOM     30  O   UNL     1       6.511   2.301   2.146  1.00  0.00    -0.454 OA
ATOM     31  C   UNL     1       6.787   1.676   0.877  1.00  0.00     0.468 C 
BRANCH  24  32
ATOM     32  O   UNL     1       1.155   1.180   2.097  1.00  0.00    -0.493 OA
BRANCH  32  33
ATOM     33  C   UNL     1       0.698  -0.101   1.651  1.00  0.00     0.226 C 
ATOM     34  C   UNL     1       0.475  -0.165   0.145  1.00  0.00     0.049 C 
ENDBRANCH  32  33
ENDBRANCH  24  32
ENDBRANCH  15  23
BRANCH  18  35
ATOM     35  O   UNL     1       4.748   1.142   5.829  1.00  0.00    -0.493 OA
ATOM     36  H   UNL     1       4.598   0.959   4.922  1.00  0.00     0.295 HD
ENDBRANCH  18  35
ENDBRANCH   9  14
ENDBRANCH   6   8
ENDBRANCH   5   6
ENDBRANCH   4   5
ENDBRANCH   3   4
ENDBRANCH   2   3
ENDBRANCH   1   2
BRANCH   1  37
ATOM     37  C   UNL     1      -0.013  -0.643  12.242  1.00  0.00     0.188 C 
BRANCH  37  38
ATOM     38  O   UNL     1       0.179  -1.864  11.567  1.00  0.00    -0.376 OA
BRANCH  38  39
ATOM     39  C   UNL     1       0.564  -3.032  12.271  1.00  0.00     0.202 C 
BRANCH  39  40
ATOM     40  C   UNL     1       0.712  -3.185  13.799  1.00  0.00     0.261 C 
BRANCH  40  41
ATOM     41  O   UNL     1       0.400  -2.073  14.634  1.00  0.00    -0.460 OA
BRANCH  41  42
ATOM     42  C   UNL     1       1.462  -1.367  15.089  1.00  0.00     0.338 C 
ATOM     43  O   UNL     1       2.636  -1.546  14.816  1.00  0.00    -0.246 OA
BRANCH  42  44
ATOM     44  C   UNL     1       0.965  -0.209  15.854  1.00  0.00     0.060 A 
ATOM     45  C   UNL     1       1.258   1.076  15.382  1.00  0.00     0.016 A 
ATOM     46  C   UNL     1       0.260  -0.389  17.047  1.00  0.00     0.016 A 
ATOM     47  C   UNL     1       0.884   2.191  16.131  1.00  0.00     0.010 A 
ATOM     48  C   UNL     1      -0.102   0.731  17.802  1.00  0.00     0.010 A 
ATOM     49  C   UNL     1       0.245   2.023  17.366  1.00  0.00    -0.014 A 
BRANCH  49  50
ATOM     50  C   UNL     1       0.113   3.182  18.282  1.00  0.00     0.031 A 
ATOM     51  C   UNL     1       1.136   3.359  19.371  1.00  0.00     0.074 A 
ATOM     52  C   UNL     1      -0.887   4.070  18.142  1.00  0.00     0.049 A 
ATOM     53  N   UNL     1       1.231   4.299  20.275  1.00  0.00    -0.248 NA
ATOM     54  C   UNL     1       2.194   2.338  19.452  1.00  0.00     0.031 C 
ATOM     55  C   UNL     1      -1.940   4.007  17.131  1.00  0.00     0.029 A 
ATOM     56  N   UNL     1      -1.187   5.192  18.874  1.00  0.00    -0.354 N 
ATOM     57  C   UNL     1       2.341   3.973  21.044  1.00  0.00     0.074 A 
ATOM     58  C   UNL     1       2.878   2.739  20.514  1.00  0.00     0.031 C 
ATOM     59  C   UNL     1      -2.787   5.035  17.320  1.00  0.00     0.029 A 
ATOM     60  C   UNL     1      -2.345   5.817  18.474  1.00  0.00     0.049 A 
ATOM     61  H   UNL     1      -0.627   5.519  19.615  1.00  0.00     0.167 HD
ATOM     62  C   UNL     1       2.880   4.649  22.086  1.00  0.00     0.034 A 
ATOM     63  C   UNL     1      -2.979   6.889  18.991  1.00  0.00     0.034 A 
ATOM     64  C   UNL     1       2.357   5.883  22.604  1.00  0.00     0.049 A 
ATOM     65  C   UNL     1      -2.370   7.613  20.165  1.00  0.00     0.074 A 
ATOM     66  C   UNL     1       2.857   6.667  23.628  1.00  0.00     0.029 A 
ATOM     67  N   UNL     1       1.208   6.508  22.146  1.00  0.00    -0.354 N 
ATOM     68  N   UNL     1      -1.250   7.365  20.800  1.00  0.00    -0.248 NA
ATOM     69  C   UNL     1      -3.095   8.789  20.671  1.00  0.00     0.031 C 
ATOM     70  C   UNL     1       1.996   7.754  23.807  1.00  0.00     0.029 A 
ATOM     71  C   UNL     1       0.976   7.663  22.873  1.00  0.00     0.049 A 
ATOM     72  H   UNL     1       0.640   6.179  21.412  1.00  0.00     0.167 HD
ATOM     73  C   UNL     1      -1.115   8.374  21.749  1.00  0.00     0.074 A 
ATOM     74  C   UNL     1      -2.261   9.246  21.596  1.00  0.00     0.031 C 
ATOM     75  C   UNL     1      -0.136   8.556  22.671  1.00  0.00     0.034 A 
BRANCH  62  76
ATOM     76  C   UNL     1       4.121   4.077  22.718  1.00  0.00     0.023 A 
ATOM     77  C   UNL     1       5.348   4.143  22.027  1.00  0.00     0.012 A 
ATOM     78  C   UNL     1       4.084   3.517  24.010  1.00  0.00     0.148 A 
ATOM     79  C   UNL     1       6.513   3.631  22.597  1.00  0.00     0.002 A 
ATOM     80  C   UNL     1       5.258   3.048  24.590  1.00  0.00     0.091 A 
ATOM     81  F   UNL     1       2.904   3.440  24.641  1.00  0.00    -0.205 F 
ATOM     82  C   UNL     1       6.470   3.094  23.881  1.00  0.00     0.022 A 
BRANCH  80  83
ATOM     83  S   UNL     1       5.318   2.409  26.267  1.00  0.00     0.127 S 
ATOM     84  O   UNL     1       5.500   0.977  26.031  1.00  0.00    -0.237 OA
ATOM     85  O   UNL     1       6.491   3.090  26.815  1.00  0.00    -0.237 OA
ATOM     86  O   UNL     1       4.055   2.786  26.886  1.00  0.00    -0.744 OA
ENDBRANCH  80  83
ENDBRANCH  62  76
BRANCH  63  87
ATOM     87  C   UNL     1      -4.243   7.377  18.370  1.00  0.00     0.023 A 
ATOM     88  C   UNL     1      -4.249   8.606  17.680  1.00  0.00     0.012 A 
ATOM     89  C   UNL     1      -5.433   6.628  18.449  1.00  0.00     0.148 A 
ATOM     90  C   UNL     1      -5.424   9.093  17.107  1.00  0.00     0.002 A 
ATOM     91  C   UNL     1      -6.587   7.094  17.831  1.00  0.00     0.091 A 
ATOM     92  F   UNL     1      -5.410   5.471  19.126  1.00  0.00    -0.205 F 
ATOM     93  C   UNL     1      -6.589   8.334  17.173  1.00  0.00     0.022 A 
BRANCH  91  94
ATOM     94  S   UNL     1      -8.101   6.130  17.763  1.00  0.00     0.127 S 
ATOM     95  O   UNL     1      -8.981   6.894  18.645  1.00  0.00    -0.237 OA
ATOM     96  O   UNL     1      -8.440   6.203  16.342  1.00  0.00    -0.237 OA
ATOM     97  O   UNL     1      -7.741   4.798  18.228  1.00  0.00    -0.744 OA
ENDBRANCH  91  94
ENDBRANCH  63  87
BRANCH  75  98
ATOM     98  C   UNL     1      -0.224   9.768  23.563  1.00  0.00     0.023 A 
ATOM     99  C   UNL     1      -1.183   9.815  24.594  1.00  0.00     0.012 A 
ATOM    100  C   UNL     1       0.702  10.822  23.432  1.00  0.00     0.148 A 
ATOM    101  C   UNL     1      -1.239  10.906  25.461  1.00  0.00     0.002 A 
ATOM    102  C   UNL     1       0.671  11.883  24.330  1.00  0.00     0.091 A 
ATOM    103  F   UNL     1       1.596  10.769  22.434  1.00  0.00    -0.205 F 
ATOM    104  C   UNL     1      -0.305  11.932  25.337  1.00  0.00     0.022 A 
BRANCH 102 105
ATOM    105  S   UNL     1       1.895  13.199  24.307  1.00  0.00     0.127 S 
ATOM    106  O   UNL     1       1.122  14.316  23.766  1.00  0.00    -0.237 OA
ATOM    107  O   UNL     1       2.242  13.327  25.723  1.00  0.00    -0.237 OA
ATOM    108  O   UNL     1       2.981  12.721  23.461  1.00  0.00    -0.744 OA
ENDBRANCH 102 105
ENDBRANCH  75  98
ENDBRANCH  49  50
ENDBRANCH  42  44
ENDBRANCH  41  42
ENDBRANCH  40  41
ENDBRANCH  39  40
ENDBRANCH  38  39
ENDBRANCH  37  38
ENDBRANCH   1  37
TORSDOF 25
