REMARK SMILES Cc1cc(N(C)[C@H](C)C(=O)OCCOCCOCCOC(=O)c2ccc(-c3c4nc(c(-c5cccc(S(=O)(=O)[O-])c5F)c5ccc([nH]5)c(-c5cccc(S(=O)(=O)[O-])c5F)c5nc(c(-c6cccc(S(=O)(=O)[O-])c6F)c6ccc3[nH]6)C=C5)C=C4)cc2)ncc1[N+](=O)[O-]
REMARK SMILES IDX 15 1 14 2 13 3 12 4 11 5 9 6 10 7 7 8 8 9 5 10 6 11 4 12
REMARK SMILES IDX 1 13 2 14 3 15 88 16 87 17 86 18 89 19 90 20 91 21 16 22
REMARK SMILES IDX 17 23 18 24 19 25 20 26 21 27 22 28 23 29 24 30 85 31 25 32
REMARK SMILES IDX 84 33 26 34 27 35 28 36 78 37 29 38 83 39 77 40 79 41 30 42
REMARK SMILES IDX 82 43 76 44 75 45 31 47 63 48 43 49 62 50 44 51 47 52 61 53
REMARK SMILES IDX 80 54 45 55 46 56 60 58 81 59 48 60 32 61 33 62 41 63 34 64
REMARK SMILES IDX 36 65 42 66 35 67 37 68 38 69 39 70 40 71 64 72 65 73 73 74
REMARK SMILES IDX 66 75 68 76 74 77 67 78 69 79 70 80 71 81 72 82 49 83 50 84
REMARK SMILES IDX 58 85 51 86 53 87 59 88 52 89 54 90 55 91 56 92 57 93
REMARK H PARENT 79 46 47 57
REMARK Flexibility Score: inf
ROOT
ATOM      1  C   UNL     1       3.600   2.537  -3.501  1.00  0.00     0.188 C 
ENDROOT
BRANCH   1   2
ATOM      2  O   UNL     1       4.307   1.564  -4.256  1.00  0.00    -0.376 OA
BRANCH   2   3
ATOM      3  C   UNL     1       4.295   0.204  -3.842  1.00  0.00     0.202 C 
BRANCH   3   4
ATOM      4  C   UNL     1       4.622  -0.159  -2.382  1.00  0.00     0.261 C 
BRANCH   4   5
ATOM      5  O   UNL     1       3.798   0.461  -1.370  1.00  0.00    -0.462 OA
BRANCH   5   6
ATOM      6  C   UNL     1       4.442   1.306  -0.517  1.00  0.00     0.328 C 
ATOM      7  O   UNL     1       5.653   1.508  -0.558  1.00  0.00    -0.250 OA
BRANCH   6   8
ATOM      8  C   UNL     1       3.538   1.936   0.577  1.00  0.00     0.190 C 
ATOM      9  C   UNL     1       2.014   2.009   0.428  1.00  0.00     0.044 C 
BRANCH   8  10
ATOM     10  N   UNL     1       3.814   1.267   1.863  1.00  0.00    -0.346 N 
ATOM     11  C   UNL     1       3.589  -0.166   1.935  1.00  0.00     0.146 C 
BRANCH  10  12
ATOM     12  C   UNL     1       4.424   2.019   2.839  1.00  0.00     0.129 A 
ATOM     13  C   UNL     1       5.872   1.512   6.278  1.00  0.00     0.052 C 
ATOM     14  C   UNL     1       5.459   2.259   5.045  1.00  0.00     0.032 A 
ATOM     15  C   UNL     1       4.894   1.466   4.024  1.00  0.00     0.057 A 
ATOM     16  C   UNL     1       5.542   3.639   4.818  1.00  0.00     0.290 A 
ATOM     17  C   UNL     1       5.085   4.128   3.605  1.00  0.00     0.199 A 
ATOM     18  N   UNL     1       4.526   3.350   2.649  1.00  0.00    -0.232 NA
BRANCH  16  19
ATOM     19  N   UNL     1       6.044   4.618   5.778  1.00  0.00     0.064 N 
ATOM     20  O   UNL     1       6.357   5.737   5.347  1.00  0.00    -0.258 OA
ATOM     21  O   UNL     1       6.098   4.301   6.973  1.00  0.00    -0.258 OA
ENDBRANCH  16  19
ENDBRANCH  10  12
ENDBRANCH   8  10
ENDBRANCH   6   8
ENDBRANCH   5   6
ENDBRANCH   4   5
ENDBRANCH   3   4
ENDBRANCH   2   3
ENDBRANCH   1   2
BRANCH   1  22
ATOM     22  C   UNL     1       2.203   2.185  -2.971  1.00  0.00     0.188 C 
BRANCH  22  23
ATOM     23  O   UNL     1       1.726   0.911  -3.328  1.00  0.00    -0.376 OA
BRANCH  23  24
ATOM     24  C   UNL     1       0.683   0.827  -4.280  1.00  0.00     0.202 C 
BRANCH  24  25
ATOM     25  C   UNL     1       0.684   1.706  -5.545  1.00  0.00     0.261 C 
BRANCH  25  26
ATOM     26  O   UNL     1       1.195   3.043  -5.431  1.00  0.00    -0.460 OA
BRANCH  26  27
ATOM     27  C   UNL     1       0.388   3.983  -4.887  1.00  0.00     0.338 C 
ATOM     28  O   UNL     1      -0.749   3.812  -4.470  1.00  0.00    -0.246 OA
BRANCH  27  29
ATOM     29  C   UNL     1       1.203   5.199  -4.653  1.00  0.00     0.060 A 
ATOM     30  C   UNL     1       1.389   5.658  -3.339  1.00  0.00     0.016 A 
ATOM     31  C   UNL     1       1.806   5.868  -5.719  1.00  0.00     0.016 A 
ATOM     32  C   UNL     1       2.156   6.800  -3.092  1.00  0.00     0.010 A 
ATOM     33  C   UNL     1       2.552   7.026  -5.472  1.00  0.00     0.010 A 
ATOM     34  C   UNL     1       2.707   7.516  -4.162  1.00  0.00    -0.014 A 
BRANCH  34  35
ATOM     35  C   UNL     1       3.280   8.869  -3.944  1.00  0.00     0.031 A 
ATOM     36  C   UNL     1       2.424  10.066  -4.263  1.00  0.00     0.074 A 
ATOM     37  C   UNL     1       4.536   9.044  -3.496  1.00  0.00     0.049 A 
ATOM     38  N   UNL     1       2.728  11.337  -4.237  1.00  0.00    -0.248 NA
ATOM     39  C   UNL     1       1.037   9.787  -4.673  1.00  0.00     0.031 C 
ATOM     40  C   UNL     1       5.464   7.976  -3.132  1.00  0.00     0.029 A 
ATOM     41  N   UNL     1       5.258  10.198  -3.302  1.00  0.00    -0.354 N 
ATOM     42  C   UNL     1       1.587  12.008  -4.661  1.00  0.00     0.074 A 
ATOM     43  C   UNL     1       0.586  11.002  -4.946  1.00  0.00     0.031 C 
ATOM     44  C   UNL     1       6.646   8.522  -2.794  1.00  0.00     0.029 A 
ATOM     45  C   UNL     1       6.568   9.974  -2.947  1.00  0.00     0.049 A 
ATOM     46  H   UNL     1       4.874  11.098  -3.408  1.00  0.00     0.167 HD
ATOM     47  C   UNL     1       1.383  13.340  -4.794  1.00  0.00     0.034 A 
ATOM     48  C   UNL     1       7.592  10.838  -2.795  1.00  0.00     0.034 A 
ATOM     49  C   UNL     1       2.372  14.341  -4.502  1.00  0.00     0.049 A 
ATOM     50  C   UNL     1       7.353  12.316  -2.991  1.00  0.00     0.074 A 
ATOM     51  C   UNL     1       2.245  15.717  -4.564  1.00  0.00     0.029 A 
ATOM     52  N   UNL     1       3.675  14.077  -4.111  1.00  0.00    -0.354 N 
ATOM     53  N   UNL     1       6.240  12.943  -3.288  1.00  0.00    -0.248 NA
ATOM     54  C   UNL     1       8.507  13.209  -2.801  1.00  0.00     0.031 C 
ATOM     55  C   UNL     1       3.484  16.285  -4.250  1.00  0.00     0.029 A 
ATOM     56  C   UNL     1       4.369  15.264  -3.946  1.00  0.00     0.049 A 
ATOM     57  H   UNL     1       4.052  13.178  -3.971  1.00  0.00     0.167 HD
ATOM     58  C   UNL     1       6.550  14.300  -3.280  1.00  0.00     0.074 A 
ATOM     59  C   UNL     1       7.951  14.406  -2.931  1.00  0.00     0.031 C 
ATOM     60  C   UNL     1       5.750  15.363  -3.548  1.00  0.00     0.034 A 
BRANCH  47  61
ATOM     61  C   UNL     1       0.029  13.795  -5.272  1.00  0.00     0.023 A 
ATOM     62  C   UNL     1      -1.090  13.684  -4.421  1.00  0.00     0.012 A 
ATOM     63  C   UNL     1      -0.125  14.381  -6.544  1.00  0.00     0.148 A 
ATOM     64  C   UNL     1      -2.347  14.116  -4.842  1.00  0.00     0.002 A 
ATOM     65  C   UNL     1      -1.371  14.853  -6.937  1.00  0.00     0.091 A 
ATOM     66  F   UNL     1       0.946  14.458  -7.346  1.00  0.00    -0.205 F 
ATOM     67  C   UNL     1      -2.485  14.710  -6.094  1.00  0.00     0.022 A 
BRANCH  65  68
ATOM     68  S   UNL     1      -1.637  15.706  -8.495  1.00  0.00     0.127 S 
ATOM     69  O   UNL     1      -2.458  14.740  -9.223  1.00  0.00    -0.237 OA
ATOM     70  O   UNL     1      -2.349  16.910  -8.066  1.00  0.00    -0.237 OA
ATOM     71  O   UNL     1      -0.314  15.947  -9.054  1.00  0.00    -0.744 OA
ENDBRANCH  65  68
ENDBRANCH  47  61
BRANCH  48  72
ATOM     72  C   UNL     1       8.948  10.339  -2.423  1.00  0.00     0.023 A 
ATOM     73  C   UNL     1       9.486  10.661  -1.161  1.00  0.00     0.012 A 
ATOM     74  C   UNL     1       9.711   9.560  -3.315  1.00  0.00     0.148 A 
ATOM     75  C   UNL     1      10.772  10.246  -0.809  1.00  0.00     0.002 A 
ATOM     76  C   UNL     1      10.968   9.104  -2.936  1.00  0.00     0.091 A 
ATOM     77  F   UNL     1       9.190   9.281  -4.518  1.00  0.00    -0.205 F 
ATOM     78  C   UNL     1      11.508   9.461  -1.691  1.00  0.00     0.022 A 
BRANCH  76  79
ATOM     79  S   UNL     1      11.943   7.995  -3.960  1.00  0.00     0.127 S 
ATOM     80  O   UNL     1      13.070   8.847  -4.333  1.00  0.00    -0.237 OA
ATOM     81  O   UNL     1      12.267   6.924  -3.017  1.00  0.00    -0.237 OA
ATOM     82  O   UNL     1      11.068   7.594  -5.052  1.00  0.00    -0.744 OA
ENDBRANCH  76  79
ENDBRANCH  48  72
BRANCH  60  83
ATOM     83  C   UNL     1       6.345  16.744  -3.428  1.00  0.00     0.023 A 
ATOM     84  C   UNL     1       7.284  17.197  -4.376  1.00  0.00     0.012 A 
ATOM     85  C   UNL     1       5.911  17.624  -2.414  1.00  0.00     0.148 A 
ATOM     86  C   UNL     1       7.809  18.487  -4.295  1.00  0.00     0.002 A 
ATOM     87  C   UNL     1       6.398  18.925  -2.372  1.00  0.00     0.091 A 
ATOM     88  F   UNL     1       5.027  17.173  -1.512  1.00  0.00    -0.205 F 
ATOM     89  C   UNL     1       7.358  19.353  -3.302  1.00  0.00     0.022 A 
BRANCH  87  90
ATOM     90  S   UNL     1       5.803  20.142  -1.192  1.00  0.00     0.127 S 
ATOM     91  O   UNL     1       6.968  20.313  -0.326  1.00  0.00    -0.237 OA
ATOM     92  O   UNL     1       5.509  21.288  -2.053  1.00  0.00    -0.237 OA
ATOM     93  O   UNL     1       4.635  19.549  -0.554  1.00  0.00    -0.744 OA
ENDBRANCH  87  90
ENDBRANCH  60  83
ENDBRANCH  34  35
ENDBRANCH  27  29
ENDBRANCH  26  27
ENDBRANCH  25  26
ENDBRANCH  24  25
ENDBRANCH  23  24
ENDBRANCH  22  23
ENDBRANCH   1  22
TORSDOF 23
