REMARK SMILES CC(C)(C)OC(=O)N1CCC[C@]1(Cc1ccccc1)C(=O)OCCOCCOCCOC(=O)c1ccc(-c2c3nc(c(-c4cccc(S(=O)(=O)[O-])c4F)c4ccc([nH]4)c(-c4cccc(S(=O)(=O)[O-])c4F)c4nc(c(-c5cccc(S(=O)(=O)[O-])c5F)c5ccc2[nH]5)C=C4)C=C3)cc1
REMARK SMILES IDX 26 1 25 2 24 3 23 4 22 5 20 6 21 7 12 8 8 9 9 10 10 11 11 12
REMARK SMILES IDX 6 13 7 14 5 15 2 16 1 17 3 18 4 19 13 20 14 21 15 22 19 23
REMARK SMILES IDX 16 24 18 25 17 26 27 27 28 28 29 29 30 30 31 31 32 32 33 33
REMARK SMILES IDX 34 34 35 35 96 36 36 37 95 38 37 39 38 40 39 41 89 42 40 43
REMARK SMILES IDX 94 44 88 45 90 46 41 47 93 48 87 49 86 50 42 52 74 53 54 54
REMARK SMILES IDX 73 55 55 56 58 57 72 58 91 59 56 60 57 61 71 63 92 64 59 65
REMARK SMILES IDX 43 66 44 67 52 68 45 69 47 70 53 71 46 72 48 73 49 74 50 75
REMARK SMILES IDX 51 76 75 77 76 78 84 79 77 80 79 81 85 82 78 83 80 84 81 85
REMARK SMILES IDX 82 86 83 87 60 88 61 89 69 90 62 91 64 92 70 93 63 94 65 95
REMARK SMILES IDX 66 96 67 97 68 98
REMARK H PARENT 90 51 58 62
REMARK Flexibility Score: inf
ROOT
ATOM      1  C   UNL     1      -3.111  -7.036   1.634  1.00  0.00     0.188 C 
ENDROOT
BRANCH   1   2
ATOM      2  O   UNL     1      -4.049  -6.369   0.807  1.00  0.00    -0.376 OA
BRANCH   2   3
ATOM      3  C   UNL     1      -3.620  -5.631  -0.328  1.00  0.00     0.202 C 
BRANCH   3   4
ATOM      4  C   UNL     1      -2.461  -4.622  -0.246  1.00  0.00     0.261 C 
BRANCH   4   5
ATOM      5  O   UNL     1      -1.186  -5.118   0.218  1.00  0.00    -0.461 OA
BRANCH   5   6
ATOM      6  C   UNL     1      -0.832  -4.687   1.460  1.00  0.00     0.332 C 
ATOM      7  O   UNL     1      -1.569  -3.968   2.129  1.00  0.00    -0.249 OA
BRANCH   6   8
ATOM      8  C   UNL     1       0.604  -5.107   1.936  1.00  0.00     0.147 C 
ATOM      9  N   UNL     1       1.459  -3.940   1.667  1.00  0.00    -0.291 N 
ATOM     10  C   UNL     1       2.638  -4.266   0.899  1.00  0.00     0.124 C 
ATOM     11  C   UNL     1       2.313  -5.570   0.215  1.00  0.00     0.025 C 
ATOM     12  C   UNL     1       1.291  -6.241   1.127  1.00  0.00     0.043 C 
BRANCH   9  13
ATOM     13  C   UNL     1       1.156  -2.690   2.130  1.00  0.00     0.411 C 
ATOM     14  O   UNL     1       0.533  -2.471   3.158  1.00  0.00    -0.224 OA
BRANCH  13  15
ATOM     15  O   UNL     1       1.496  -1.748   1.219  1.00  0.00    -0.444 OA
BRANCH  15  16
ATOM     16  C   UNL     1       0.805  -0.475   1.267  1.00  0.00     0.106 C 
ATOM     17  C   UNL     1       1.274   0.265   0.007  1.00  0.00     0.056 C 
ATOM     18  C   UNL     1       1.219   0.321   2.506  1.00  0.00     0.056 C 
ATOM     19  C   UNL     1      -0.721  -0.651   1.171  1.00  0.00     0.056 C 
ENDBRANCH  15  16
ENDBRANCH  13  15
ENDBRANCH   9  13
BRANCH   8  20
ATOM     20  C   UNL     1       0.433  -5.506   3.438  1.00  0.00     0.076 C 
BRANCH  20  21
ATOM     21  C   UNL     1       1.671  -5.826   4.252  1.00  0.00    -0.045 A 
ATOM     22  C   UNL     1       1.829  -7.091   4.836  1.00  0.00     0.004 A 
ATOM     23  C   UNL     1       2.627  -4.842   4.531  1.00  0.00     0.004 A 
ATOM     24  C   UNL     1       2.932  -7.368   5.647  1.00  0.00     0.000 A 
ATOM     25  C   UNL     1       3.739  -5.122   5.325  1.00  0.00     0.000 A 
ATOM     26  C   UNL     1       3.893  -6.387   5.882  1.00  0.00     0.000 A 
ENDBRANCH  20  21
ENDBRANCH   8  20
ENDBRANCH   6   8
ENDBRANCH   5   6
ENDBRANCH   4   5
ENDBRANCH   3   4
ENDBRANCH   2   3
ENDBRANCH   1   2
BRANCH   1  27
ATOM     27  C   UNL     1      -1.954  -7.799   0.982  1.00  0.00     0.188 C 
BRANCH  27  28
ATOM     28  O   UNL     1      -1.937  -7.795  -0.424  1.00  0.00    -0.376 OA
BRANCH  28  29
ATOM     29  C   UNL     1      -2.420  -8.926  -1.131  1.00  0.00     0.202 C 
BRANCH  29  30
ATOM     30  C   UNL     1      -3.549  -9.835  -0.606  1.00  0.00     0.261 C 
BRANCH  30  31
ATOM     31  O   UNL     1      -3.630 -10.056   0.807  1.00  0.00    -0.460 OA
BRANCH  31  32
ATOM     32  C   UNL     1      -2.729 -10.900   1.364  1.00  0.00     0.338 C 
ATOM     33  O   UNL     1      -1.851 -11.515   0.786  1.00  0.00    -0.246 OA
BRANCH  32  34
ATOM     34  C   UNL     1      -2.828 -10.725   2.835  1.00  0.00     0.060 A 
ATOM     35  C   UNL     1      -1.692 -10.307   3.545  1.00  0.00     0.016 A 
ATOM     36  C   UNL     1      -4.044 -10.912   3.496  1.00  0.00     0.016 A 
ATOM     37  C   UNL     1      -1.764 -10.098   4.924  1.00  0.00     0.010 A 
ATOM     38  C   UNL     1      -4.106 -10.732   4.880  1.00  0.00     0.010 A 
ATOM     39  C   UNL     1      -2.961 -10.355   5.603  1.00  0.00    -0.014 A 
BRANCH  39  40
ATOM     40  C   UNL     1      -2.965 -10.456   7.082  1.00  0.00     0.031 A 
ATOM     41  C   UNL     1      -2.810 -11.824   7.691  1.00  0.00     0.074 A 
ATOM     42  C   UNL     1      -3.126  -9.379   7.870  1.00  0.00     0.049 A 
ATOM     43  N   UNL     1      -2.863 -12.187   8.944  1.00  0.00    -0.248 NA
ATOM     44  C   UNL     1      -2.565 -12.933   6.752  1.00  0.00     0.031 C 
ATOM     45  C   UNL     1      -3.266  -8.000   7.406  1.00  0.00     0.029 A 
ATOM     46  N   UNL     1      -3.230  -9.288   9.237  1.00  0.00    -0.354 N 
ATOM     47  C   UNL     1      -2.692 -13.566   8.944  1.00  0.00     0.074 A 
ATOM     48  C   UNL     1      -2.538 -13.976   7.566  1.00  0.00     0.031 C 
ATOM     49  C   UNL     1      -3.477  -7.203   8.470  1.00  0.00     0.029 A 
ATOM     50  C   UNL     1      -3.514  -8.018   9.683  1.00  0.00     0.049 A 
ATOM     51  H   UNL     1      -3.113 -10.058   9.839  1.00  0.00     0.167 HD
ATOM     52  C   UNL     1      -2.654 -14.416   9.996  1.00  0.00     0.034 A 
ATOM     53  C   UNL     1      -3.800  -7.576  10.925  1.00  0.00     0.034 A 
ATOM     54  C   UNL     1      -2.799 -14.009  11.365  1.00  0.00     0.049 A 
ATOM     55  C   UNL     1      -3.793  -8.551  12.077  1.00  0.00     0.074 A 
ATOM     56  C   UNL     1      -2.742 -14.791  12.505  1.00  0.00     0.029 A 
ATOM     57  N   UNL     1      -3.044 -12.710  11.781  1.00  0.00    -0.354 N 
ATOM     58  N   UNL     1      -3.523  -9.834  12.076  1.00  0.00    -0.248 NA
ATOM     59  C   UNL     1      -4.103  -8.009  13.410  1.00  0.00     0.031 C 
ATOM     60  C   UNL     1      -2.982 -13.968  13.610  1.00  0.00     0.029 A 
ATOM     61  C   UNL     1      -3.152 -12.668  13.160  1.00  0.00     0.049 A 
ATOM     62  H   UNL     1      -3.128 -11.931  11.184  1.00  0.00     0.167 HD
ATOM     63  C   UNL     1      -3.589 -10.242  13.405  1.00  0.00     0.074 A 
ATOM     64  C   UNL     1      -3.910  -9.066  14.187  1.00  0.00     0.031 C 
ATOM     65  C   UNL     1      -3.412 -11.480  13.931  1.00  0.00     0.034 A 
BRANCH  52  66
ATOM     66  C   UNL     1      -2.435 -15.875   9.701  1.00  0.00     0.023 A 
ATOM     67  C   UNL     1      -1.163 -16.320   9.286  1.00  0.00     0.012 A 
ATOM     68  C   UNL     1      -3.474 -16.809   9.873  1.00  0.00     0.148 A 
ATOM     69  C   UNL     1      -0.938 -17.669   9.017  1.00  0.00     0.002 A 
ATOM     70  C   UNL     1      -3.229 -18.158   9.647  1.00  0.00     0.091 A 
ATOM     71  F   UNL     1      -4.683 -16.361  10.241  1.00  0.00    -0.205 F 
ATOM     72  C   UNL     1      -1.966 -18.588   9.208  1.00  0.00     0.022 A 
BRANCH  70  73
ATOM     73  S   UNL     1      -4.466 -19.427   9.937  1.00  0.00     0.127 S 
ATOM     74  O   UNL     1      -4.780 -19.849   8.573  1.00  0.00    -0.237 OA
ATOM     75  O   UNL     1      -3.718 -20.410  10.723  1.00  0.00    -0.237 OA
ATOM     76  O   UNL     1      -5.552 -18.774  10.655  1.00  0.00    -0.744 OA
ENDBRANCH  70  73
ENDBRANCH  52  66
BRANCH  53  77
ATOM     77  C   UNL     1      -4.098  -6.133  11.158  1.00  0.00     0.023 A 
ATOM     78  C   UNL     1      -3.188  -5.346  11.890  1.00  0.00     0.012 A 
ATOM     79  C   UNL     1      -5.278  -5.541  10.668  1.00  0.00     0.148 A 
ATOM     80  C   UNL     1      -3.463  -4.004  12.158  1.00  0.00     0.002 A 
ATOM     81  C   UNL     1      -5.521  -4.191  10.893  1.00  0.00     0.091 A 
ATOM     82  F   UNL     1      -6.141  -6.312   9.992  1.00  0.00    -0.205 F 
ATOM     83  C   UNL     1      -4.623  -3.425  11.652  1.00  0.00     0.022 A 
BRANCH  81  84
ATOM     84  S   UNL     1      -6.936  -3.334  10.193  1.00  0.00     0.127 S 
ATOM     85  O   UNL     1      -7.742  -3.066  11.381  1.00  0.00    -0.237 OA
ATOM     86  O   UNL     1      -6.310  -2.155   9.595  1.00  0.00    -0.237 OA
ATOM     87  O   UNL     1      -7.520  -4.260   9.231  1.00  0.00    -0.744 OA
ENDBRANCH  81  84
ENDBRANCH  53  77
BRANCH  65  88
ATOM     88  C   UNL     1      -3.507 -11.633  15.428  1.00  0.00     0.023 A 
ATOM     89  C   UNL     1      -4.760 -11.554  16.067  1.00  0.00     0.012 A 
ATOM     90  C   UNL     1      -2.362 -11.945  16.190  1.00  0.00     0.148 A 
ATOM     91  C   UNL     1      -4.867 -11.751  17.444  1.00  0.00     0.002 A 
ATOM     92  C   UNL     1      -2.484 -12.190  17.552  1.00  0.00     0.091 A 
ATOM     93  F   UNL     1      -1.176 -12.001  15.566  1.00  0.00    -0.205 F 
ATOM     94  C   UNL     1      -3.733 -12.081  18.183  1.00  0.00     0.022 A 
BRANCH  92  95
ATOM     95  S   UNL     1      -1.097 -12.719  18.564  1.00  0.00     0.127 S 
ATOM     96  O   UNL     1      -0.837 -11.523  19.363  1.00  0.00    -0.237 OA
ATOM     97  O   UNL     1      -1.668 -13.840  19.312  1.00  0.00    -0.237 OA
ATOM     98  O   UNL     1      -0.039 -13.091  17.634  1.00  0.00    -0.744 OA
ENDBRANCH  92  95
ENDBRANCH  65  88
ENDBRANCH  39  40
ENDBRANCH  32  34
ENDBRANCH  31  32
ENDBRANCH  30  31
ENDBRANCH  29  30
ENDBRANCH  28  29
ENDBRANCH  27  28
ENDBRANCH   1  27
TORSDOF 25
