REMARK SMILES Cc1ccc(Cl)c(NC(=O)C[N@@H+]2CCC[C@H]2C(=O)OCCOCCOCCOC(=O)c2ccc(-c3c4nc(c(-c5cccc(S(=O)(=O)[O-])c5F)c5ccc([nH]5)c(-c5cccc(S(=O)(=O)[O-])c5F)c5nc(c(-c6cccc(S(=O)(=O)[O-])c6F)c6ccc3[nH]6)C=C5)C=C4)cc2)c1Cl
REMARK SMILES IDX 23 1 22 2 21 3 20 4 19 5 17 6 18 7 16 8 12 9 13 10 14 12
REMARK SMILES IDX 15 13 11 14 9 15 8 16 10 18 7 19 1 20 2 21 3 22 94 23 4 24
REMARK SMILES IDX 95 25 5 26 6 27 24 28 25 29 26 30 27 31 28 32 29 33 30 34
REMARK SMILES IDX 31 35 32 36 93 37 33 38 92 39 34 40 35 41 36 42 86 43 37 44
REMARK SMILES IDX 91 45 85 46 87 47 38 48 90 49 84 50 83 51 39 53 71 54 51 55
REMARK SMILES IDX 70 56 52 57 55 58 69 59 88 60 53 61 54 62 68 64 89 65 56 66
REMARK SMILES IDX 40 67 41 68 49 69 42 70 44 71 50 72 43 73 45 74 46 75 47 76
REMARK SMILES IDX 48 77 72 78 73 79 81 80 74 81 76 82 82 83 75 84 77 85 78 86
REMARK SMILES IDX 79 87 80 88 57 89 58 90 66 91 59 92 61 93 67 94 60 95 62 96
REMARK SMILES IDX 63 97 64 98 65 99
REMARK H PARENT 12 11 8 17 87 52 55 63
REMARK Flexibility Score: inf
ROOT
ATOM      1  C   UNL     1       0.438   2.247  -3.120  1.00  0.00     0.188 C 
ENDROOT
BRANCH   1   2
ATOM      2  O   UNL     1       0.005   2.214  -4.473  1.00  0.00    -0.376 OA
BRANCH   2   3
ATOM      3  C   UNL     1      -0.786   1.133  -4.944  1.00  0.00     0.202 C 
BRANCH   3   4
ATOM      4  C   UNL     1      -0.200  -0.280  -4.858  1.00  0.00     0.261 C 
BRANCH   4   5
ATOM      5  O   UNL     1       0.264  -0.622  -3.545  1.00  0.00    -0.459 OA
BRANCH   5   6
ATOM      6  C   UNL     1       1.573  -1.001  -3.440  1.00  0.00     0.365 C 
ATOM      7  O   UNL     1       2.344  -1.139  -4.380  1.00  0.00    -0.245 OA
BRANCH   6   8
ATOM      8  C   UNL     1       1.955  -1.143  -1.954  1.00  0.00     0.295 C 
ATOM      9  N   UNL     1       2.451  -2.514  -1.675  1.00  0.00    -0.315 N 
ATOM     10  C   UNL     1       3.916  -2.396  -1.868  1.00  0.00     0.263 C 
ATOM     11  H   UNL     1       2.000  -3.203  -2.276  1.00  0.00     0.349 HD
ATOM     12  C   UNL     1       4.290  -1.039  -1.293  1.00  0.00     0.068 C 
ATOM     13  C   UNL     1       3.085  -0.167  -1.603  1.00  0.00     0.083 C 
BRANCH   9  14
ATOM     14  C   UNL     1       2.174  -2.946  -0.282  1.00  0.00     0.364 C 
BRANCH  14  15
ATOM     15  C   UNL     1       0.695  -3.187   0.021  1.00  0.00     0.279 C 
ATOM     16  N   UNL     1      -0.135  -2.299   0.642  1.00  0.00    -0.319 N 
ATOM     17  H   UNL     1      -1.043  -2.667   0.745  1.00  0.00     0.170 HD
ATOM     18  O   UNL     1       0.156  -4.238  -0.357  1.00  0.00    -0.268 OA
BRANCH  16  19
ATOM     19  C   UNL     1      -0.043  -0.989   1.180  1.00  0.00     0.079 A 
ATOM     20  C   UNL     1       2.398   1.797   2.172  1.00  0.00     0.046 C 
ATOM     21  C   UNL     1       1.118   1.036   1.937  1.00  0.00    -0.030 A 
ATOM     22  C   UNL     1      -0.073   1.763   1.826  1.00  0.00     0.006 A 
ATOM     23  C   UNL     1       1.091  -0.363   1.726  1.00  0.00     0.069 A 
ATOM     24  C   UNL     1      -1.256   1.120   1.494  1.00  0.00     0.023 A 
ATOM     25  Cl  UNL     1       2.308  -1.300   2.544  1.00  0.00    -0.082 Cl
ATOM     26  C   UNL     1      -1.235  -0.230   1.143  1.00  0.00     0.066 A 
ATOM     27  Cl  UNL     1      -2.734  -0.930   0.618  1.00  0.00    -0.082 Cl
ENDBRANCH  16  19
ENDBRANCH  14  15
ENDBRANCH   9  14
ENDBRANCH   6   8
ENDBRANCH   5   6
ENDBRANCH   4   5
ENDBRANCH   3   4
ENDBRANCH   2   3
ENDBRANCH   1   2
BRANCH   1  28
ATOM     28  C   UNL     1      -0.492   1.757  -1.994  1.00  0.00     0.188 C 
BRANCH  28  29
ATOM     29  O   UNL     1      -1.841   1.572  -2.377  1.00  0.00    -0.376 OA
BRANCH  29  30
ATOM     30  C   UNL     1      -2.790   2.411  -1.739  1.00  0.00     0.202 C 
BRANCH  30  31
ATOM     31  C   UNL     1      -2.711   3.894  -2.122  1.00  0.00     0.261 C 
BRANCH  31  32
ATOM     32  O   UNL     1      -1.433   4.519  -1.898  1.00  0.00    -0.460 OA
BRANCH  32  33
ATOM     33  C   UNL     1      -1.107   4.830  -0.626  1.00  0.00     0.338 C 
ATOM     34  O   UNL     1      -1.765   4.600   0.379  1.00  0.00    -0.246 OA
BRANCH  33  35
ATOM     35  C   UNL     1       0.272   5.358  -0.616  1.00  0.00     0.060 A 
ATOM     36  C   UNL     1       1.321   4.513  -0.240  1.00  0.00     0.016 A 
ATOM     37  C   UNL     1       0.531   6.686  -0.951  1.00  0.00     0.016 A 
ATOM     38  C   UNL     1       2.628   4.994  -0.169  1.00  0.00     0.010 A 
ATOM     39  C   UNL     1       1.847   7.164  -0.895  1.00  0.00     0.010 A 
ATOM     40  C   UNL     1       2.903   6.328  -0.486  1.00  0.00    -0.014 A 
BRANCH  40  41
ATOM     41  C   UNL     1       4.277   6.871  -0.323  1.00  0.00     0.031 A 
ATOM     42  C   UNL     1       4.548   7.875   0.764  1.00  0.00     0.074 A 
ATOM     43  C   UNL     1       5.277   6.482  -1.138  1.00  0.00     0.049 A 
ATOM     44  N   UNL     1       5.617   8.596   0.979  1.00  0.00    -0.248 NA
ATOM     45  C   UNL     1       3.468   8.095   1.739  1.00  0.00     0.031 C 
ATOM     46  C   UNL     1       5.166   5.477  -2.194  1.00  0.00     0.029 A 
ATOM     47  N   UNL     1       6.579   6.913  -1.221  1.00  0.00    -0.354 N 
ATOM     48  C   UNL     1       5.321   9.397   2.074  1.00  0.00     0.074 A 
ATOM     49  C   UNL     1       3.975   9.062   2.490  1.00  0.00     0.031 C 
ATOM     50  C   UNL     1       6.341   5.387  -2.838  1.00  0.00     0.029 A 
ATOM     51  C   UNL     1       7.267   6.371  -2.283  1.00  0.00     0.049 A 
ATOM     52  H   UNL     1       6.981   7.547  -0.584  1.00  0.00     0.167 HD
ATOM     53  C   UNL     1       6.098  10.327   2.679  1.00  0.00     0.034 A 
ATOM     54  C   UNL     1       8.481   6.672  -2.787  1.00  0.00     0.034 A 
ATOM     55  C   UNL     1       7.445  10.635   2.283  1.00  0.00     0.049 A 
ATOM     56  C   UNL     1       9.303   7.753  -2.134  1.00  0.00     0.074 A 
ATOM     57  C   UNL     1       8.322  11.544   2.851  1.00  0.00     0.029 A 
ATOM     58  N   UNL     1       8.111  10.053   1.215  1.00  0.00    -0.354 N 
ATOM     59  N   UNL     1       9.033   8.466  -1.068  1.00  0.00    -0.248 NA
ATOM     60  C   UNL     1      10.603   8.063  -2.748  1.00  0.00     0.031 C 
ATOM     61  C   UNL     1       9.506  11.533   2.106  1.00  0.00     0.029 A 
ATOM     62  C   UNL     1       9.380  10.592   1.098  1.00  0.00     0.049 A 
ATOM     63  H   UNL     1       7.735   9.359   0.627  1.00  0.00     0.167 HD
ATOM     64  C   UNL     1      10.139   9.284  -0.865  1.00  0.00     0.074 A 
ATOM     65  C   UNL     1      11.093   8.964  -1.906  1.00  0.00     0.031 C 
ATOM     66  C   UNL     1      10.342  10.226   0.089  1.00  0.00     0.034 A 
BRANCH  53  67
ATOM     67  C   UNL     1       5.506  11.086   3.838  1.00  0.00     0.023 A 
ATOM     68  C   UNL     1       5.326  10.448   5.081  1.00  0.00     0.012 A 
ATOM     69  C   UNL     1       5.177  12.450   3.705  1.00  0.00     0.148 A 
ATOM     70  C   UNL     1       4.795  11.147   6.166  1.00  0.00     0.002 A 
ATOM     71  C   UNL     1       4.691  13.150   4.802  1.00  0.00     0.091 A 
ATOM     72  F   UNL     1       5.336  13.032   2.508  1.00  0.00    -0.205 F 
ATOM     73  C   UNL     1       4.488  12.498   6.029  1.00  0.00     0.022 A 
BRANCH  71  74
ATOM     74  S   UNL     1       4.338  14.911   4.748  1.00  0.00     0.127 S 
ATOM     75  O   UNL     1       2.878  14.920   4.829  1.00  0.00    -0.237 OA
ATOM     76  O   UNL     1       5.020  15.398   5.947  1.00  0.00    -0.237 OA
ATOM     77  O   UNL     1       4.896  15.394   3.493  1.00  0.00    -0.744 OA
ENDBRANCH  71  74
ENDBRANCH  53  67
BRANCH  54  78
ATOM     78  C   UNL     1       8.995   5.950  -3.987  1.00  0.00     0.023 A 
ATOM     79  C   UNL     1      10.107   5.096  -3.863  1.00  0.00     0.012 A 
ATOM     80  C   UNL     1       8.384   6.104  -5.248  1.00  0.00     0.148 A 
ATOM     81  C   UNL     1      10.618   4.428  -4.978  1.00  0.00     0.002 A 
ATOM     82  C   UNL     1       8.862   5.391  -6.341  1.00  0.00     0.091 A 
ATOM     83  F   UNL     1       7.341   6.939  -5.350  1.00  0.00    -0.205 F 
ATOM     84  C   UNL     1       9.990   4.566  -6.212  1.00  0.00     0.022 A 
BRANCH  82  85
ATOM     85  S   UNL     1       8.041   5.412  -7.939  1.00  0.00     0.127 S 
ATOM     86  O   UNL     1       9.007   6.138  -8.760  1.00  0.00    -0.237 OA
ATOM     87  O   UNL     1       7.928   3.984  -8.236  1.00  0.00    -0.237 OA
ATOM     88  O   UNL     1       6.769   6.085  -7.717  1.00  0.00    -0.744 OA
ENDBRANCH  82  85
ENDBRANCH  54  78
BRANCH  66  89
ATOM     89  C   UNL     1      11.662  10.955   0.090  1.00  0.00     0.023 A 
ATOM     90  C   UNL     1      11.933  11.921  -0.899  1.00  0.00     0.012 A 
ATOM     91  C   UNL     1      12.596  10.740   1.123  1.00  0.00     0.148 A 
ATOM     92  C   UNL     1      13.127  12.642  -0.876  1.00  0.00     0.002 A 
ATOM     93  C   UNL     1      13.761  11.497   1.168  1.00  0.00     0.091 A 
ATOM     94  F   UNL     1      12.326   9.805   2.044  1.00  0.00    -0.205 F 
ATOM     95  C   UNL     1      14.034  12.439   0.163  1.00  0.00     0.022 A 
BRANCH  93  96
ATOM     96  S   UNL     1      14.939  11.377   2.518  1.00  0.00     0.127 S 
ATOM     97  O   UNL     1      16.085  10.753   1.859  1.00  0.00    -0.237 OA
ATOM     98  O   UNL     1      15.134  12.780   2.884  1.00  0.00    -0.237 OA
ATOM     99  O   UNL     1      14.296  10.567   3.544  1.00  0.00    -0.744 OA
ENDBRANCH  93  96
ENDBRANCH  66  89
ENDBRANCH  40  41
ENDBRANCH  33  35
ENDBRANCH  32  33
ENDBRANCH  31  32
ENDBRANCH  30  31
ENDBRANCH  29  30
ENDBRANCH  28  29
ENDBRANCH   1  28
TORSDOF 23
