REMARK SMILES Cc1ccc(NC(=O)c2ccccc2NC(=O)[C@H]2CCCC[C@H]2C(=O)OCCOCCOCCOC(=O)c2ccc(-c3c4nc(c(-c5cccc(S(=O)(=O)[O-])c5F)c5ccc([nH]5)c(-c5cccc(S(=O)(=O)[O-])c5F)c5nc(c(-c6cccc(S(=O)(=O)[O-])c6F)c6ccc3[nH]6)C=C5)C=C4)cc2)cc1
REMARK SMILES IDX 30 1 29 2 28 3 27 4 26 5 24 6 25 7 23 8 18 9 19 10 20 11
REMARK SMILES IDX 22 12 21 13 16 14 15 15 17 17 14 18 9 19 10 20 11 21 13 22
REMARK SMILES IDX 12 23 7 24 6 25 8 27 5 28 1 29 2 30 3 31 102 32 4 33 101 34
REMARK SMILES IDX 31 35 32 36 33 37 34 38 35 39 36 40 37 41 38 42 39 43 100 44
REMARK SMILES IDX 40 45 99 46 41 47 42 48 43 49 93 50 44 51 98 52 92 53 94 54
REMARK SMILES IDX 45 55 97 56 91 57 90 58 46 60 78 61 58 62 77 63 59 64 62 65
REMARK SMILES IDX 76 66 95 67 60 68 61 69 75 71 96 72 63 73 47 74 48 75 56 76
REMARK SMILES IDX 49 77 51 78 57 79 50 80 52 81 53 82 54 83 55 84 79 85 80 86
REMARK SMILES IDX 88 87 81 88 83 89 89 90 82 91 84 92 85 93 86 94 87 95 64 96
REMARK SMILES IDX 65 97 73 98 66 99 68 100 74 101 67 102 69 103 70 104 71 105
REMARK SMILES IDX 72 106
REMARK H PARENT 15 16 6 26 94 59 62 70
REMARK Flexibility Score: inf
ROOT
ATOM      1  C   UNL     1      -0.206   4.454   5.388  1.00  0.00     0.188 C 
ENDROOT
BRANCH   1   2
ATOM      2  O   UNL     1      -0.685   3.814   6.551  1.00  0.00    -0.376 OA
BRANCH   2   3
ATOM      3  C   UNL     1      -1.932   3.080   6.366  1.00  0.00     0.202 C 
BRANCH   3   4
ATOM      4  C   UNL     1      -1.769   1.865   5.364  1.00  0.00     0.261 C 
BRANCH   4   5
ATOM      5  O   UNL     1      -2.636   0.529   4.872  1.00  0.00    -0.463 OA
BRANCH   5   6
ATOM      6  C   UNL     1      -2.757  -0.888   5.080  1.00  0.00     0.309 C 
ATOM      7  O   UNL     1      -3.604  -1.191   5.936  1.00  0.00    -0.252 OA
BRANCH   6   8
ATOM      8  C   UNL     1      -2.036  -2.262   4.357  1.00  0.00     0.111 C 
ATOM      9  C   UNL     1      -0.963  -2.598   3.130  1.00  0.00     0.093 C 
ATOM     10  C   UNL     1      -1.138  -4.112   2.731  1.00  0.00     0.014 C 
ATOM     11  C   UNL     1      -1.059  -5.111   3.897  1.00  0.00     0.001 C 
ATOM     12  C   UNL     1      -1.880  -3.348   5.476  1.00  0.00     0.016 C 
ATOM     13  C   UNL     1      -2.068  -4.777   4.977  1.00  0.00     0.001 C 
BRANCH   9  14
ATOM     14  C   UNL     1       0.614  -2.474   3.301  1.00  0.00     0.228 C 
ATOM     15  N   UNL     1       1.521  -1.670   2.631  1.00  0.00    -0.325 N 
ATOM     16  H   UNL     1       2.403  -1.716   3.066  1.00  0.00     0.169 HD
ATOM     17  O   UNL     1       1.167  -3.192   4.147  1.00  0.00    -0.274 OA
BRANCH  15  18
ATOM     18  C   UNL     1       1.569  -0.795   1.506  1.00  0.00     0.054 A 
ATOM     19  C   UNL     1       2.580   0.228   1.300  1.00  0.00     0.063 A 
ATOM     20  C   UNL     1       2.379   1.151   0.236  1.00  0.00     0.016 A 
ATOM     21  C   UNL     1       1.256   1.114  -0.581  1.00  0.00     0.001 A 
ATOM     22  C   UNL     1       0.514  -0.866   0.581  1.00  0.00     0.027 A 
ATOM     23  C   UNL     1       0.332   0.100  -0.414  1.00  0.00     0.002 A 
BRANCH  19  24
ATOM     24  C   UNL     1       3.724   0.746   2.186  1.00  0.00     0.257 C 
ATOM     25  N   UNL     1       4.387   0.041   3.153  1.00  0.00    -0.322 N 
ATOM     26  H   UNL     1       4.734   0.579   3.901  1.00  0.00     0.170 HD
ATOM     27  O   UNL     1       4.029   1.948   2.126  1.00  0.00    -0.269 OA
BRANCH  25  28
ATOM     28  C   UNL     1       4.642  -1.315   3.235  1.00  0.00     0.041 A 
ATOM     29  C   UNL     1       4.156  -5.495   3.656  1.00  0.00     0.044 C 
ATOM     30  C   UNL     1       4.530  -4.053   3.505  1.00  0.00    -0.051 A 
ATOM     31  C   UNL     1       4.551  -3.480   2.230  1.00  0.00     0.005 A 
ATOM     32  C   UNL     1       4.715  -3.252   4.639  1.00  0.00     0.005 A 
ATOM     33  C   UNL     1       4.631  -2.106   2.093  1.00  0.00     0.026 A 
ATOM     34  C   UNL     1       4.797  -1.871   4.504  1.00  0.00     0.026 A 
ENDBRANCH  25  28
ENDBRANCH  19  24
ENDBRANCH  15  18
ENDBRANCH   9  14
ENDBRANCH   6   8
ENDBRANCH   5   6
ENDBRANCH   4   5
ENDBRANCH   3   4
ENDBRANCH   2   3
ENDBRANCH   1   2
BRANCH   1  35
ATOM     35  C   UNL     1       1.319   4.334   5.357  1.00  0.00     0.188 C 
BRANCH  35  36
ATOM     36  O   UNL     1       2.059   5.528   5.271  1.00  0.00    -0.376 OA
BRANCH  36  37
ATOM     37  C   UNL     1       1.555   6.398   4.282  1.00  0.00     0.202 C 
BRANCH  37  38
ATOM     38  C   UNL     1       1.009   5.900   2.917  1.00  0.00     0.261 C 
BRANCH  38  39
ATOM     39  O   UNL     1       0.742   4.496   2.497  1.00  0.00    -0.460 OA
BRANCH  39  40
ATOM     40  C   UNL     1       0.511   3.224   2.199  1.00  0.00     0.338 C 
ATOM     41  O   UNL     1      -0.109   3.022   1.154  1.00  0.00    -0.246 OA
BRANCH  40  42
ATOM     42  C   UNL     1       0.731   2.040   3.131  1.00  0.00     0.060 A 
ATOM     43  C   UNL     1      -0.221   1.072   3.021  1.00  0.00     0.016 A 
ATOM     44  C   UNL     1       1.703   1.732   4.104  1.00  0.00     0.016 A 
ATOM     45  C   UNL     1      -0.315   0.070   4.014  1.00  0.00     0.010 A 
ATOM     46  C   UNL     1       1.534   0.744   5.150  1.00  0.00     0.010 A 
ATOM     47  C   UNL     1       0.395  -0.044   5.233  1.00  0.00    -0.014 A 
BRANCH  47  48
ATOM     48  C   UNL     1      -0.104  -0.538   6.684  1.00  0.00     0.031 A 
ATOM     49  C   UNL     1       0.553  -1.700   7.344  1.00  0.00     0.074 A 
ATOM     50  C   UNL     1      -1.052   0.003   7.555  1.00  0.00     0.049 A 
ATOM     51  N   UNL     1       0.039  -2.363   8.337  1.00  0.00    -0.248 NA
ATOM     52  C   UNL     1       1.762  -2.304   6.819  1.00  0.00     0.031 C 
ATOM     53  C   UNL     1      -0.937   0.227   9.010  1.00  0.00     0.029 A 
ATOM     54  N   UNL     1      -2.314   0.545   7.347  1.00  0.00    -0.354 N 
ATOM     55  C   UNL     1       0.989  -3.269   8.747  1.00  0.00     0.074 A 
ATOM     56  C   UNL     1       1.897  -3.352   7.633  1.00  0.00     0.031 C 
ATOM     57  C   UNL     1      -2.032   0.871   9.489  1.00  0.00     0.029 A 
ATOM     58  C   UNL     1      -3.029   1.006   8.431  1.00  0.00     0.049 A 
ATOM     59  H   UNL     1      -2.693   0.599   6.440  1.00  0.00     0.167 HD
ATOM     60  C   UNL     1       1.058  -3.651  10.056  1.00  0.00     0.034 A 
ATOM     61  C   UNL     1      -4.404   1.026   8.411  1.00  0.00     0.034 A 
ATOM     62  C   UNL     1      -0.043  -3.057  10.850  1.00  0.00     0.049 A 
ATOM     63  C   UNL     1      -4.806  -0.056   9.365  1.00  0.00     0.074 A 
ATOM     64  C   UNL     1      -0.094  -1.950  11.687  1.00  0.00     0.029 A 
ATOM     65  N   UNL     1      -1.375  -3.423  10.628  1.00  0.00    -0.354 N 
ATOM     66  N   UNL     1      -3.905  -0.812   9.922  1.00  0.00    -0.248 NA
ATOM     67  C   UNL     1      -6.153  -0.389   9.802  1.00  0.00     0.031 C 
ATOM     68  C   UNL     1      -1.458  -1.616  11.909  1.00  0.00     0.029 A 
ATOM     69  C   UNL     1      -2.256  -2.542  11.255  1.00  0.00     0.049 A 
ATOM     70  H   UNL     1      -1.655  -4.204  10.097  1.00  0.00     0.167 HD
ATOM     71  C   UNL     1      -4.480  -1.757  10.687  1.00  0.00     0.074 A 
ATOM     72  C   UNL     1      -5.898  -1.422  10.630  1.00  0.00     0.031 C 
ATOM     73  C   UNL     1      -3.714  -2.744  11.231  1.00  0.00     0.034 A 
BRANCH  60  74
ATOM     74  C   UNL     1       2.364  -4.186  10.667  1.00  0.00     0.023 A 
ATOM     75  C   UNL     1       2.602  -3.960  12.041  1.00  0.00     0.012 A 
ATOM     76  C   UNL     1       3.418  -4.836   9.973  1.00  0.00     0.148 A 
ATOM     77  C   UNL     1       3.832  -4.248  12.655  1.00  0.00     0.002 A 
ATOM     78  C   UNL     1       4.673  -5.048  10.559  1.00  0.00     0.091 A 
ATOM     79  F   UNL     1       3.195  -5.363   8.767  1.00  0.00    -0.205 F 
ATOM     80  C   UNL     1       4.885  -4.754  11.905  1.00  0.00     0.022 A 
BRANCH  78  81
ATOM     81  S   UNL     1       6.092  -5.632   9.607  1.00  0.00     0.127 S 
ATOM     82  O   UNL     1       7.151  -4.708  10.021  1.00  0.00    -0.237 OA
ATOM     83  O   UNL     1       6.257  -7.000  10.092  1.00  0.00    -0.237 OA
ATOM     84  O   UNL     1       5.714  -5.499   8.203  1.00  0.00    -0.744 OA
ENDBRANCH  78  81
ENDBRANCH  60  74
BRANCH  61  85
ATOM     85  C   UNL     1      -5.107   1.421   7.093  1.00  0.00     0.023 A 
ATOM     86  C   UNL     1      -4.901   2.751   6.653  1.00  0.00     0.012 A 
ATOM     87  C   UNL     1      -5.643   0.534   6.129  1.00  0.00     0.148 A 
ATOM     88  C   UNL     1      -4.947   3.112   5.289  1.00  0.00     0.002 A 
ATOM     89  C   UNL     1      -5.622   0.876   4.754  1.00  0.00     0.091 A 
ATOM     90  F   UNL     1      -6.083  -0.662   6.540  1.00  0.00    -0.205 F 
ATOM     91  C   UNL     1      -5.229   2.153   4.334  1.00  0.00     0.022 A 
BRANCH  89  92
ATOM     92  S   UNL     1      -5.871  -0.311   3.402  1.00  0.00     0.127 S 
ATOM     93  O   UNL     1      -6.735   0.442   2.491  1.00  0.00    -0.237 OA
ATOM     94  O   UNL     1      -4.514  -0.517   2.886  1.00  0.00    -0.237 OA
ATOM     95  O   UNL     1      -6.501  -1.475   4.005  1.00  0.00    -0.744 OA
ENDBRANCH  89  92
ENDBRANCH  61  85
BRANCH  73  96
ATOM     96  C   UNL     1      -4.313  -3.981  11.820  1.00  0.00     0.023 A 
ATOM     97  C   UNL     1      -5.571  -4.462  11.410  1.00  0.00     0.012 A 
ATOM     98  C   UNL     1      -3.549  -4.794  12.680  1.00  0.00     0.148 A 
ATOM     99  C   UNL     1      -6.083  -5.667  11.886  1.00  0.00     0.002 A 
ATOM    100  C   UNL     1      -4.001  -6.055  13.032  1.00  0.00     0.091 A 
ATOM    101  F   UNL     1      -2.381  -4.350  13.167  1.00  0.00    -0.205 F 
ATOM    102  C   UNL     1      -5.284  -6.480  12.675  1.00  0.00     0.022 A 
BRANCH 100 103
ATOM    103  S   UNL     1      -2.867  -7.237  13.761  1.00  0.00     0.127 S 
ATOM    104  O   UNL     1      -3.071  -7.016  15.190  1.00  0.00    -0.237 OA
ATOM    105  O   UNL     1      -3.379  -8.514  13.259  1.00  0.00    -0.237 OA
ATOM    106  O   UNL     1      -1.560  -6.873  13.229  1.00  0.00    -0.744 OA
ENDBRANCH 100 103
ENDBRANCH  73  96
ENDBRANCH  47  48
ENDBRANCH  40  42
ENDBRANCH  39  40
ENDBRANCH  38  39
ENDBRANCH  37  38
ENDBRANCH  36  37
ENDBRANCH  35  36
ENDBRANCH   1  35
TORSDOF 24
