REMARK SMILES Cc1nn(C)c(C)c1CNC(=O)N[C@H]1CC[C@@H](C(=O)OCCOCCOCCOC(=O)c2ccc(-c3c4nc(c(-c5cccc(S(=O)(=O)[O-])c5F)c5ccc([nH]5)c(-c5cccc(S(=O)(=O)[O-])c5F)c5nc(c(-c6cccc(S(=O)(=O)[O-])c6F)c6ccc3[nH]6)C=C5)C=C4)cc2)C1
REMARK SMILES IDX 24 1 23 2 22 3 21 4 20 5 18 6 19 7 17 8 14 9 15 10 95 11
REMARK SMILES IDX 16 12 13 13 10 14 11 15 12 17 9 19 8 20 1 21 2 22 3 23 4 24
REMARK SMILES IDX 6 25 5 26 7 27 25 28 26 29 27 30 28 31 29 32 30 33 31 34
REMARK SMILES IDX 32 35 33 36 94 37 34 38 93 39 35 40 36 41 37 42 87 43 38 44
REMARK SMILES IDX 92 45 86 46 88 47 39 48 91 49 85 50 84 51 40 53 72 54 52 55
REMARK SMILES IDX 71 56 53 57 56 58 70 59 89 60 54 61 55 62 69 64 90 65 57 66
REMARK SMILES IDX 41 67 42 68 50 69 43 70 45 71 51 72 44 73 46 74 47 75 48 76
REMARK SMILES IDX 49 77 73 78 74 79 82 80 75 81 77 82 83 83 76 84 78 85 79 86
REMARK SMILES IDX 80 87 81 88 58 89 59 90 67 91 60 92 62 93 68 94 61 95 63 96
REMARK SMILES IDX 64 97 65 98 66 99
REMARK H PARENT 10 16 13 18 88 52 56 63
REMARK Flexibility Score: inf
ROOT
ATOM      1  C   UNL     1      -0.619   5.405  -6.367  1.00  0.00     0.188 C 
ENDROOT
BRANCH   1   2
ATOM      2  O   UNL     1      -1.996   5.503  -6.681  1.00  0.00    -0.376 OA
BRANCH   2   3
ATOM      3  C   UNL     1      -2.966   5.286  -5.662  1.00  0.00     0.202 C 
BRANCH   3   4
ATOM      4  C   UNL     1      -2.786   4.192  -4.592  1.00  0.00     0.261 C 
BRANCH   4   5
ATOM      5  O   UNL     1      -1.518   4.216  -3.911  1.00  0.00    -0.463 OA
BRANCH   5   6
ATOM      6  C   UNL     1      -0.829   3.047  -3.879  1.00  0.00     0.309 C 
ATOM      7  O   UNL     1      -1.268   1.975  -4.275  1.00  0.00    -0.252 OA
BRANCH   6   8
ATOM      8  C   UNL     1       0.608   3.221  -3.395  1.00  0.00     0.101 C 
ATOM      9  C   UNL     1       0.617   4.045  -1.121  1.00  0.00     0.084 C 
ATOM     10  C   UNL     1       0.993   2.569  -1.054  1.00  0.00     0.026 C 
ATOM     11  C   UNL     1       0.940   4.445  -2.544  1.00  0.00     0.040 C 
ATOM     12  C   UNL     1       1.018   2.051  -2.497  1.00  0.00     0.017 C 
BRANCH   9  13
ATOM     13  N   UNL     1      -0.794   4.269  -0.843  1.00  0.00    -0.335 N 
ATOM     14  N   UNL     1      -0.891   4.928   1.417  1.00  0.00    -0.334 N 
ATOM     15  C   UNL     1      -1.465   4.687   0.236  1.00  0.00     0.315 C 
ATOM     16  H   UNL     1      -1.505   5.334   2.070  1.00  0.00     0.165 HD
ATOM     17  O   UNL     1      -2.676   4.891   0.127  1.00  0.00    -0.249 OA
ATOM     18  H   UNL     1      -1.378   4.071  -1.610  1.00  0.00     0.165 HD
BRANCH  14  19
ATOM     19  C   UNL     1       0.434   4.722   1.940  1.00  0.00     0.157 C 
BRANCH  19  20
ATOM     20  C   UNL     1       1.173   6.011   2.114  1.00  0.00     0.015 A 
ATOM     21  C   UNL     1       2.852   5.207   3.963  1.00  0.00     0.069 C 
ATOM     22  C   UNL     1       2.226   6.204   3.058  1.00  0.00     0.065 A 
ATOM     23  N   UNL     1       2.658   7.466   3.082  1.00  0.00    -0.178 NA
ATOM     24  N   UNL     1       1.933   8.081   2.135  1.00  0.00    -0.272 N 
ATOM     25  C   UNL     1       1.093   7.235   1.452  1.00  0.00     0.040 A 
ATOM     26  C   UNL     1       2.098   9.508   1.976  1.00  0.00     0.174 C 
ATOM     27  C   UNL     1       0.317   7.701   0.270  1.00  0.00     0.067 C 
ENDBRANCH  19  20
ENDBRANCH  14  19
ENDBRANCH   9  13
ENDBRANCH   6   8
ENDBRANCH   5   6
ENDBRANCH   4   5
ENDBRANCH   3   4
ENDBRANCH   2   3
ENDBRANCH   1   2
BRANCH   1  28
ATOM     28  C   UNL     1      -0.053   6.308  -5.266  1.00  0.00     0.188 C 
BRANCH  28  29
ATOM     29  O   UNL     1      -0.990   6.922  -4.417  1.00  0.00    -0.376 OA
BRANCH  29  30
ATOM     30  C   UNL     1      -1.414   8.250  -4.696  1.00  0.00     0.202 C 
BRANCH  30  31
ATOM     31  C   UNL     1      -1.226   8.992  -6.042  1.00  0.00     0.261 C 
BRANCH  31  32
ATOM     32  O   UNL     1      -0.301   8.469  -7.002  1.00  0.00    -0.460 OA
BRANCH  32  33
ATOM     33  C   UNL     1       0.989   8.872  -6.899  1.00  0.00     0.338 C 
ATOM     34  O   UNL     1       1.449   9.646  -6.070  1.00  0.00    -0.246 OA
BRANCH  33  35
ATOM     35  C   UNL     1       1.806   8.011  -7.784  1.00  0.00     0.060 A 
ATOM     36  C   UNL     1       2.747   7.142  -7.208  1.00  0.00     0.016 A 
ATOM     37  C   UNL     1       1.627   8.039  -9.167  1.00  0.00     0.016 A 
ATOM     38  C   UNL     1       3.522   6.308  -8.015  1.00  0.00     0.010 A 
ATOM     39  C   UNL     1       2.429   7.227  -9.976  1.00  0.00     0.010 A 
ATOM     40  C   UNL     1       3.397   6.378  -9.407  1.00  0.00    -0.014 A 
BRANCH  40  41
ATOM     41  C   UNL     1       4.400   5.718 -10.278  1.00  0.00     0.031 A 
ATOM     42  C   UNL     1       5.518   6.555 -10.837  1.00  0.00     0.074 A 
ATOM     43  C   UNL     1       4.314   4.411 -10.588  1.00  0.00     0.049 A 
ATOM     44  N   UNL     1       6.453   6.230 -11.689  1.00  0.00    -0.248 NA
ATOM     45  C   UNL     1       5.583   7.952 -10.374  1.00  0.00     0.031 C 
ATOM     46  C   UNL     1       3.296   3.488 -10.093  1.00  0.00     0.029 A 
ATOM     47  N   UNL     1       5.088   3.645 -11.425  1.00  0.00    -0.354 N 
ATOM     48  C   UNL     1       7.195   7.387 -11.895  1.00  0.00     0.074 A 
ATOM     49  C   UNL     1       6.598   8.424 -11.082  1.00  0.00     0.031 C 
ATOM     50  C   UNL     1       3.485   2.285 -10.665  1.00  0.00     0.029 A 
ATOM     51  C   UNL     1       4.615   2.364 -11.590  1.00  0.00     0.049 A 
ATOM     52  H   UNL     1       5.902   3.980 -11.865  1.00  0.00     0.167 HD
ATOM     53  C   UNL     1       8.280   7.569 -12.682  1.00  0.00     0.034 A 
ATOM     54  C   UNL     1       5.026   1.382 -12.418  1.00  0.00     0.034 A 
ATOM     55  C   UNL     1       8.877   6.536 -13.484  1.00  0.00     0.049 A 
ATOM     56  C   UNL     1       6.209   1.625 -13.323  1.00  0.00     0.074 A 
ATOM     57  C   UNL     1      10.001   6.614 -14.287  1.00  0.00     0.029 A 
ATOM     58  N   UNL     1       8.390   5.244 -13.601  1.00  0.00    -0.354 N 
ATOM     59  N   UNL     1       6.962   2.693 -13.434  1.00  0.00    -0.248 NA
ATOM     60  C   UNL     1       6.616   0.515 -14.199  1.00  0.00     0.031 C 
ATOM     61  C   UNL     1      10.171   5.378 -14.919  1.00  0.00     0.029 A 
ATOM     62  C   UNL     1       9.181   4.518 -14.474  1.00  0.00     0.049 A 
ATOM     63  H   UNL     1       7.598   4.895 -13.132  1.00  0.00     0.167 HD
ATOM     64  C   UNL     1       7.954   2.369 -14.355  1.00  0.00     0.074 A 
ATOM     65  C   UNL     1       7.715   1.000 -14.761  1.00  0.00     0.031 C 
ATOM     66  C   UNL     1       8.965   3.138 -14.830  1.00  0.00     0.034 A 
BRANCH  53  67
ATOM     67  C   UNL     1       8.899   8.942 -12.710  1.00  0.00     0.023 A 
ATOM     68  C   UNL     1       9.605   9.417 -11.586  1.00  0.00     0.012 A 
ATOM     69  C   UNL     1       8.825   9.741 -13.868  1.00  0.00     0.148 A 
ATOM     70  C   UNL     1      10.197  10.679 -11.601  1.00  0.00     0.002 A 
ATOM     71  C   UNL     1       9.460  10.976 -13.893  1.00  0.00     0.091 A 
ATOM     72  F   UNL     1       8.131   9.280 -14.919  1.00  0.00    -0.205 F 
ATOM     73  C   UNL     1      10.134  11.453 -12.757  1.00  0.00     0.022 A 
BRANCH  71  74
ATOM     74  S   UNL     1       9.506  12.013 -15.359  1.00  0.00     0.127 S 
ATOM     75  O   UNL     1       8.672  13.141 -14.948  1.00  0.00    -0.237 OA
ATOM     76  O   UNL     1      10.932  12.319 -15.472  1.00  0.00    -0.237 OA
ATOM     77  O   UNL     1       8.969  11.203 -16.443  1.00  0.00    -0.744 OA
ENDBRANCH  71  74
ENDBRANCH  53  67
BRANCH  54  78
ATOM     78  C   UNL     1       4.329   0.064 -12.425  1.00  0.00     0.023 A 
ATOM     79  C   UNL     1       5.003  -1.081 -11.956  1.00  0.00     0.012 A 
ATOM     80  C   UNL     1       3.009  -0.063 -12.899  1.00  0.00     0.148 A 
ATOM     81  C   UNL     1       4.387  -2.333 -11.990  1.00  0.00     0.002 A 
ATOM     82  C   UNL     1       2.382  -1.303 -12.878  1.00  0.00     0.091 A 
ATOM     83  F   UNL     1       2.391   1.035 -13.357  1.00  0.00    -0.205 F 
ATOM     84  C   UNL     1       3.075  -2.443 -12.442  1.00  0.00     0.022 A 
BRANCH  82  85
ATOM     85  S   UNL     1       0.657  -1.523 -13.331  1.00  0.00     0.127 S 
ATOM     86  O   UNL     1       0.767  -2.324 -14.548  1.00  0.00    -0.237 OA
ATOM     87  O   UNL     1       0.133  -2.238 -12.167  1.00  0.00    -0.237 OA
ATOM     88  O   UNL     1       0.121  -0.180 -13.507  1.00  0.00    -0.744 OA
ENDBRANCH  82  85
ENDBRANCH  54  78
BRANCH  66  89
ATOM     89  C   UNL     1       9.935   2.511 -15.801  1.00  0.00     0.023 A 
ATOM     90  C   UNL     1       9.530   2.220 -17.119  1.00  0.00     0.012 A 
ATOM     91  C   UNL     1      11.274   2.284 -15.424  1.00  0.00     0.148 A 
ATOM     92  C   UNL     1      10.434   1.679 -18.034  1.00  0.00     0.002 A 
ATOM     93  C   UNL     1      12.182   1.796 -16.356  1.00  0.00     0.091 A 
ATOM     94  F   UNL     1      11.637   2.554 -14.161  1.00  0.00    -0.205 F 
ATOM     95  C   UNL     1      11.760   1.480 -17.658  1.00  0.00     0.022 A 
BRANCH  93  96
ATOM     96  S   UNL     1      13.930   1.601 -15.992  1.00  0.00     0.127 S 
ATOM     97  O   UNL     1      14.071   0.146 -15.979  1.00  0.00    -0.237 OA
ATOM     98  O   UNL     1      14.559   2.264 -17.135  1.00  0.00    -0.237 OA
ATOM     99  O   UNL     1      14.152   2.259 -14.712  1.00  0.00    -0.744 OA
ENDBRANCH  93  96
ENDBRANCH  66  89
ENDBRANCH  40  41
ENDBRANCH  33  35
ENDBRANCH  32  33
ENDBRANCH  31  32
ENDBRANCH  30  31
ENDBRANCH  29  30
ENDBRANCH  28  29
ENDBRANCH   1  28
TORSDOF 23
