REMARK SMILES O=C(OCCOCCOCCOC(=O)c1ccccc1/C=C1/SC(=S)N(C2CCCCC2)C1=O)c1ccc(-c2c3nc(c(-c4cccc(S(=O)(=O)[O-])c4F)c4ccc([nH]4)c(-c4cccc(S(=O)(=O)[O-])c4F)c4nc(c(-c5cccc(S(=O)(=O)[O-])c5F)c5ccc2[nH]5)C=C4)C=C3)cc1
REMARK SMILES IDX 7 1 6 2 5 3 4 4 3 5 2 6 1 7 35 8 36 9 97 10 37 11 96 12
REMARK SMILES IDX 38 13 39 14 40 15 90 16 41 17 95 18 89 19 91 20 42 21 94 22
REMARK SMILES IDX 88 23 87 24 43 26 75 27 55 28 74 29 56 30 59 31 73 32 92 33
REMARK SMILES IDX 57 34 58 35 72 37 93 38 60 39 44 40 45 41 53 42 46 43 48 44
REMARK SMILES IDX 54 45 47 46 49 47 50 48 51 49 52 50 76 51 77 52 85 53 78 54
REMARK SMILES IDX 80 55 86 56 79 57 81 58 82 59 83 60 84 61 61 62 62 63 70 64
REMARK SMILES IDX 63 65 65 66 71 67 64 68 66 69 67 70 68 71 69 72 8 73 9 74
REMARK SMILES IDX 10 75 11 76 12 77 13 78 14 79 15 80 16 81 20 82 17 83 19 84
REMARK SMILES IDX 18 85 21 86 22 87 23 88 33 89 24 90 26 91 34 92 25 93 27 94
REMARK SMILES IDX 28 95 32 96 29 97 31 98 30 99
REMARK H PARENT 91 25 59 36
REMARK Flexibility Score: inf
ROOT
ATOM      1  C   UNL     1       2.907  -1.895  -0.283  1.00  0.00     0.188 C 
ENDROOT
BRANCH   1   2
ATOM      2  O   UNL     1       3.856  -2.262   0.728  1.00  0.00    -0.376 OA
BRANCH   2   3
ATOM      3  C   UNL     1       4.959  -1.353   0.805  1.00  0.00     0.202 C 
BRANCH   3   4
ATOM      4  C   UNL     1       4.684  -0.066   1.601  1.00  0.00     0.261 C 
BRANCH   4   5
ATOM      5  O   UNL     1       3.306   0.354   1.565  1.00  0.00    -0.460 OA
BRANCH   5   6
ATOM      6  C   UNL     1       2.643   1.282   0.845  1.00  0.00     0.338 C 
ATOM      7  O   UNL     1       1.492   1.558   1.180  1.00  0.00    -0.246 OA
BRANCH   6   8
ATOM      8  C   UNL     1       3.200   1.961  -0.362  1.00  0.00     0.060 A 
ATOM      9  C   UNL     1       4.334   1.559  -1.070  1.00  0.00     0.016 A 
ATOM     10  C   UNL     1       2.484   3.072  -0.844  1.00  0.00     0.016 A 
ATOM     11  C   UNL     1       4.808   2.292  -2.159  1.00  0.00     0.010 A 
ATOM     12  C   UNL     1       2.934   3.796  -1.950  1.00  0.00     0.010 A 
ATOM     13  C   UNL     1       4.132   3.437  -2.576  1.00  0.00    -0.014 A 
BRANCH  13  14
ATOM     14  C   UNL     1       4.775   4.368  -3.525  1.00  0.00     0.031 A 
ATOM     15  C   UNL     1       5.396   5.614  -2.971  1.00  0.00     0.074 A 
ATOM     16  C   UNL     1       4.823   4.103  -4.840  1.00  0.00     0.049 A 
ATOM     17  N   UNL     1       5.918   6.627  -3.604  1.00  0.00    -0.248 NA
ATOM     18  C   UNL     1       5.444   5.724  -1.502  1.00  0.00     0.031 C 
ATOM     19  C   UNL     1       4.323   2.885  -5.466  1.00  0.00     0.029 A 
ATOM     20  N   UNL     1       5.288   4.858  -5.886  1.00  0.00    -0.354 N 
ATOM     21  C   UNL     1       6.326   7.511  -2.615  1.00  0.00     0.074 A 
ATOM     22  C   UNL     1       5.990   6.918  -1.340  1.00  0.00     0.031 C 
ATOM     23  C   UNL     1       4.455   2.997  -6.798  1.00  0.00     0.029 A 
ATOM     24  C   UNL     1       5.002   4.311  -7.114  1.00  0.00     0.049 A 
ATOM     25  H   UNL     1       5.777   5.705  -5.770  1.00  0.00     0.167 HD
ATOM     26  C   UNL     1       6.938   8.707  -2.758  1.00  0.00     0.034 A 
ATOM     27  C   UNL     1       5.119   4.830  -8.352  1.00  0.00     0.034 A 
ATOM     28  C   UNL     1       7.267   9.281  -4.030  1.00  0.00     0.049 A 
ATOM     29  C   UNL     1       5.727   6.196  -8.497  1.00  0.00     0.074 A 
ATOM     30  C   UNL     1       7.885  10.487  -4.300  1.00  0.00     0.029 A 
ATOM     31  N   UNL     1       6.989   8.685  -5.252  1.00  0.00    -0.354 N 
ATOM     32  N   UNL     1       6.168   6.998  -7.558  1.00  0.00    -0.248 NA
ATOM     33  C   UNL     1       5.891   6.717  -9.860  1.00  0.00     0.031 C 
ATOM     34  C   UNL     1       7.966  10.627  -5.690  1.00  0.00     0.029 A 
ATOM     35  C   UNL     1       7.415   9.500  -6.283  1.00  0.00     0.049 A 
ATOM     36  H   UNL     1       6.552   7.811  -5.368  1.00  0.00     0.167 HD
ATOM     37  C   UNL     1       6.700   8.099  -8.213  1.00  0.00     0.074 A 
ATOM     38  C   UNL     1       6.524   7.862  -9.633  1.00  0.00     0.031 C 
ATOM     39  C   UNL     1       7.280   9.206  -7.688  1.00  0.00     0.034 A 
BRANCH  26  40
ATOM     40  C   UNL     1       7.270   9.450  -1.496  1.00  0.00     0.023 A 
ATOM     41  C   UNL     1       8.346   9.018  -0.694  1.00  0.00     0.012 A 
ATOM     42  C   UNL     1       6.489  10.543  -1.078  1.00  0.00     0.148 A 
ATOM     43  C   UNL     1       8.613   9.637   0.527  1.00  0.00     0.002 A 
ATOM     44  C   UNL     1       6.782  11.177   0.123  1.00  0.00     0.091 A 
ATOM     45  F   UNL     1       5.445  10.912  -1.835  1.00  0.00    -0.205 F 
ATOM     46  C   UNL     1       7.835  10.719   0.932  1.00  0.00     0.022 A 
BRANCH  44  47
ATOM     47  S   UNL     1       5.857  12.605   0.694  1.00  0.00     0.127 S 
ATOM     48  O   UNL     1       4.944  11.998   1.662  1.00  0.00    -0.237 OA
ATOM     49  O   UNL     1       6.903  13.441   1.285  1.00  0.00    -0.237 OA
ATOM     50  O   UNL     1       5.237  13.171  -0.496  1.00  0.00    -0.744 OA
ENDBRANCH  44  47
ENDBRANCH  26  40
BRANCH  27  51
ATOM     51  C   UNL     1       4.648   4.042  -9.524  1.00  0.00     0.023 A 
ATOM     52  C   UNL     1       5.579   3.479 -10.417  1.00  0.00     0.012 A 
ATOM     53  C   UNL     1       3.276   3.775  -9.706  1.00  0.00     0.148 A 
ATOM     54  C   UNL     1       5.151   2.672 -11.473  1.00  0.00     0.002 A 
ATOM     55  C   UNL     1       2.862   2.926 -10.725  1.00  0.00     0.091 A 
ATOM     56  F   UNL     1       2.402   4.333  -8.856  1.00  0.00    -0.205 F 
ATOM     57  C   UNL     1       3.796   2.383 -11.619  1.00  0.00     0.022 A 
BRANCH  55  58
ATOM     58  S   UNL     1       1.159   2.375 -10.875  1.00  0.00     0.127 S 
ATOM     59  O   UNL     1       0.706   3.116 -12.049  1.00  0.00    -0.237 OA
ATOM     60  O   UNL     1       1.329   0.936 -11.076  1.00  0.00    -0.237 OA
ATOM     61  O   UNL     1       0.526   2.730  -9.611  1.00  0.00    -0.744 OA
ENDBRANCH  55  58
ENDBRANCH  27  51
BRANCH  39  62
ATOM     62  C   UNL     1       7.820  10.230  -8.643  1.00  0.00     0.023 A 
ATOM     63  C   UNL     1       6.943  11.135  -9.269  1.00  0.00     0.012 A 
ATOM     64  C   UNL     1       9.211  10.374  -8.810  1.00  0.00     0.148 A 
ATOM     65  C   UNL     1       7.445  12.170 -10.055  1.00  0.00     0.002 A 
ATOM     66  C   UNL     1       9.705  11.433  -9.559  1.00  0.00     0.091 A 
ATOM     67  F   UNL     1      10.021   9.482  -8.220  1.00  0.00    -0.205 F 
ATOM     68  C   UNL     1       8.824  12.329 -10.187  1.00  0.00     0.022 A 
BRANCH  66  69
ATOM     69  S   UNL     1      11.463  11.770  -9.696  1.00  0.00     0.127 S 
ATOM     70  O   UNL     1      11.733  11.384 -11.080  1.00  0.00    -0.237 OA
ATOM     71  O   UNL     1      11.524  13.210  -9.440  1.00  0.00    -0.237 OA
ATOM     72  O   UNL     1      12.110  10.949  -8.681  1.00  0.00    -0.744 OA
ENDBRANCH  66  69
ENDBRANCH  39  62
ENDBRANCH  13  14
ENDBRANCH   6   8
ENDBRANCH   5   6
ENDBRANCH   4   5
ENDBRANCH   3   4
ENDBRANCH   2   3
ENDBRANCH   1   2
BRANCH   1  73
ATOM     73  C   UNL     1       2.113  -3.084  -0.821  1.00  0.00     0.188 C 
BRANCH  73  74
ATOM     74  O   UNL     1       2.799  -4.202  -1.385  1.00  0.00    -0.376 OA
BRANCH  74  75
ATOM     75  C   UNL     1       4.160  -4.070  -1.750  1.00  0.00     0.202 C 
BRANCH  75  76
ATOM     76  C   UNL     1       4.466  -3.470  -3.127  1.00  0.00     0.261 C 
BRANCH  76  77
ATOM     77  O   UNL     1       3.893  -2.191  -3.427  1.00  0.00    -0.460 OA
BRANCH  77  78
ATOM     78  C   UNL     1       2.687  -2.274  -4.040  1.00  0.00     0.338 C 
ATOM     79  O   UNL     1       1.962  -3.272  -4.063  1.00  0.00    -0.246 OA
BRANCH  78  80
ATOM     80  C   UNL     1       2.365  -1.057  -4.797  1.00  0.00     0.067 A 
ATOM     81  C   UNL     1       1.416  -0.189  -4.250  1.00  0.00     0.016 A 
ATOM     82  C   UNL     1       2.849  -0.873  -6.109  1.00  0.00    -0.010 A 
ATOM     83  C   UNL     1       0.928   0.869  -5.019  1.00  0.00     0.001 A 
ATOM     84  C   UNL     1       2.317   0.168  -6.878  1.00  0.00     0.009 A 
ATOM     85  C   UNL     1       1.362   1.033  -6.335  1.00  0.00     0.001 A 
BRANCH  82  86
ATOM     86  C   UNL     1       3.894  -1.716  -6.716  1.00  0.00     0.030 C 
ATOM     87  C   UNL     1       3.734  -3.008  -7.027  1.00  0.00     0.081 C 
ATOM     88  S   UNL     1       5.019  -4.079  -7.414  1.00  0.00    -0.054 SA
ATOM     89  C   UNL     1       2.487  -3.787  -6.880  1.00  0.00     0.266 C 
ATOM     90  C   UNL     1       4.069  -5.494  -6.928  1.00  0.00     0.148 C 
ATOM     91  N   UNL     1       2.790  -5.106  -6.591  1.00  0.00    -0.290 N 
ATOM     92  O   UNL     1       1.361  -3.318  -7.037  1.00  0.00    -0.268 OA
ATOM     93  S   UNL     1       4.765  -7.012  -6.916  1.00  0.00    -0.052 S 
BRANCH  91  94
ATOM     94  C   UNL     1       1.686  -5.920  -6.053  1.00  0.00     0.092 C 
ATOM     95  C   UNL     1       1.043  -6.812  -7.119  1.00  0.00     0.025 C 
ATOM     96  C   UNL     1       2.024  -6.687  -4.763  1.00  0.00     0.025 C 
ATOM     97  C   UNL     1      -0.173  -7.542  -6.553  1.00  0.00     0.002 C 
ATOM     98  C   UNL     1       0.800  -7.426  -4.224  1.00  0.00     0.002 C 
ATOM     99  C   UNL     1       0.179  -8.325  -5.291  1.00  0.00     0.000 C 
ENDBRANCH  91  94
ENDBRANCH  82  86
ENDBRANCH  78  80
ENDBRANCH  77  78
ENDBRANCH  76  77
ENDBRANCH  75  76
ENDBRANCH  74  75
ENDBRANCH  73  74
ENDBRANCH   1  73
TORSDOF 22
