REMARK SMILES C=C(C)C[N@H+]1CC[C@H](C(=O)OCCOCCOCCOC(=O)c2ccc(-c3c4nc(c(-c5cccc(S(=O)(=O)[O-])c5F)c5ccc([nH]5)c(-c5cccc(S(=O)(=O)[O-])c5F)c5nc(c(-c6cccc(S(=O)(=O)[O-])c6F)c6ccc3[nH]6)C=C5)C=C4)cc2)[C@H]1C
REMARK SMILES IDX 16 1 15 2 14 3 13 4 12 5 11 6 9 7 10 8 8 9 5 10 6 11 86 12
REMARK SMILES IDX 7 14 87 15 4 16 2 17 1 18 3 19 17 20 18 21 19 22 20 23 21 24
REMARK SMILES IDX 22 25 23 26 24 27 85 28 25 29 84 30 26 31 27 32 28 33 78 34
REMARK SMILES IDX 29 35 83 36 77 37 79 38 30 39 82 40 76 41 75 42 31 44 63 45
REMARK SMILES IDX 43 46 62 47 44 48 47 49 61 50 80 51 45 52 46 53 60 55 81 56
REMARK SMILES IDX 48 57 32 58 33 59 41 60 34 61 36 62 42 63 35 64 37 65 38 66
REMARK SMILES IDX 39 67 40 68 64 69 65 70 73 71 66 72 68 73 74 74 67 75 69 76
REMARK SMILES IDX 70 77 71 78 72 79 49 80 50 81 58 82 51 83 53 84 59 85 52 86
REMARK SMILES IDX 54 87 55 88 56 89 57 90
REMARK H PARENT 5 13 79 43 47 54
REMARK Flexibility Score: inf
ROOT
ATOM      1  C   UNL     1       3.113  -5.760  -4.167  1.00  0.00     0.188 C 
ENDROOT
BRANCH   1   2
ATOM      2  C   UNL     1       2.511  -4.555  -4.928  1.00  0.00     0.188 C 
BRANCH   2   3
ATOM      3  O   UNL     1       3.178  -4.287  -6.147  1.00  0.00    -0.376 OA
BRANCH   3   4
ATOM      4  C   UNL     1       3.999  -3.131  -6.171  1.00  0.00     0.202 C 
BRANCH   4   5
ATOM      5  C   UNL     1       5.135  -3.018  -5.139  1.00  0.00     0.261 C 
BRANCH   5   6
ATOM      6  O   UNL     1       4.836  -3.511  -3.822  1.00  0.00    -0.463 OA
BRANCH   6   7
ATOM      7  C   UNL     1       4.371  -2.637  -2.887  1.00  0.00     0.315 C 
ATOM      8  O   UNL     1       4.221  -1.442  -3.089  1.00  0.00    -0.252 OA
BRANCH   7   9
ATOM      9  C   UNL     1       4.115  -3.377  -1.569  1.00  0.00     0.162 C 
ATOM     10  N   UNL     1       2.234  -2.311  -0.640  1.00  0.00    -0.329 N 
ATOM     11  C   UNL     1       3.405  -1.675  -0.042  1.00  0.00     0.263 C 
ATOM     12  C   UNL     1       2.627  -3.584  -1.252  1.00  0.00     0.195 C 
ATOM     13  H   UNL     1       1.909  -1.709  -1.396  1.00  0.00     0.348 HD
ATOM     14  C   UNL     1       4.598  -2.557  -0.388  1.00  0.00     0.083 C 
ATOM     15  C   UNL     1       2.413  -4.820  -0.357  1.00  0.00     0.076 C 
BRANCH  10  16
ATOM     16  C   UNL     1       1.006  -2.296   0.146  1.00  0.00     0.293 C 
BRANCH  16  17
ATOM     17  C   UNL     1       0.221  -0.997   0.146  1.00  0.00    -0.026 C 
ATOM     18  C   UNL     1       0.736   0.243   0.080  1.00  0.00     0.013 C 
ATOM     19  C   UNL     1      -1.276  -1.175   0.188  1.00  0.00     0.045 C 
ENDBRANCH  16  17
ENDBRANCH  10  16
ENDBRANCH   7   9
ENDBRANCH   6   7
ENDBRANCH   5   6
ENDBRANCH   4   5
ENDBRANCH   3   4
ENDBRANCH   2   3
ENDBRANCH   1   2
BRANCH   1  20
ATOM     20  O   UNL     1       4.169  -6.522  -4.735  1.00  0.00    -0.376 OA
BRANCH  20  21
ATOM     21  C   UNL     1       4.101  -6.864  -6.111  1.00  0.00     0.202 C 
BRANCH  21  22
ATOM     22  C   UNL     1       2.835  -7.532  -6.683  1.00  0.00     0.261 C 
BRANCH  22  23
ATOM     23  O   UNL     1       1.571  -7.006  -6.244  1.00  0.00    -0.460 OA
BRANCH  23  24
ATOM     24  C   UNL     1       0.895  -7.753  -5.337  1.00  0.00     0.338 C 
ATOM     25  O   UNL     1       1.244  -8.827  -4.861  1.00  0.00    -0.246 OA
BRANCH  24  26
ATOM     26  C   UNL     1      -0.269  -6.992  -4.835  1.00  0.00     0.060 A 
ATOM     27  C   UNL     1      -0.312  -6.625  -3.479  1.00  0.00     0.016 A 
ATOM     28  C   UNL     1      -1.329  -6.675  -5.682  1.00  0.00     0.016 A 
ATOM     29  C   UNL     1      -1.416  -5.942  -2.967  1.00  0.00     0.010 A 
ATOM     30  C   UNL     1      -2.451  -6.024  -5.159  1.00  0.00     0.010 A 
ATOM     31  C   UNL     1      -2.511  -5.676  -3.796  1.00  0.00    -0.014 A 
BRANCH  31  32
ATOM     32  C   UNL     1      -3.792  -5.199  -3.220  1.00  0.00     0.031 A 
ATOM     33  C   UNL     1      -4.877  -6.207  -2.962  1.00  0.00     0.074 A 
ATOM     34  C   UNL     1      -4.008  -3.895  -2.976  1.00  0.00     0.049 A 
ATOM     35  N   UNL     1      -6.118  -6.016  -2.600  1.00  0.00    -0.248 NA
ATOM     36  C   UNL     1      -4.514  -7.622  -3.149  1.00  0.00     0.031 C 
ATOM     37  C   UNL     1      -3.030  -2.826  -3.163  1.00  0.00     0.029 A 
ATOM     38  N   UNL     1      -5.144  -3.246  -2.557  1.00  0.00    -0.354 N 
ATOM     39  C   UNL     1      -6.698  -7.278  -2.562  1.00  0.00     0.074 A 
ATOM     40  C   UNL     1      -5.671  -8.229  -2.931  1.00  0.00     0.031 C 
ATOM     41  C   UNL     1      -3.621  -1.647  -2.902  1.00  0.00     0.029 A 
ATOM     42  C   UNL     1      -5.026  -1.875  -2.567  1.00  0.00     0.049 A 
ATOM     43  H   UNL     1      -5.963  -3.715  -2.277  1.00  0.00     0.167 HD
ATOM     44  C   UNL     1      -7.971  -7.616  -2.250  1.00  0.00     0.034 A 
ATOM     45  C   UNL     1      -5.954  -0.917  -2.369  1.00  0.00     0.034 A 
ATOM     46  C   UNL     1      -8.987  -6.670  -1.878  1.00  0.00     0.049 A 
ATOM     47  C   UNL     1      -7.377  -1.317  -2.063  1.00  0.00     0.074 A 
ATOM     48  C   UNL     1     -10.295  -6.918  -1.504  1.00  0.00     0.029 A 
ATOM     49  N   UNL     1      -8.817  -5.295  -1.854  1.00  0.00    -0.354 N 
ATOM     50  N   UNL     1      -7.889  -2.517  -1.933  1.00  0.00    -0.248 NA
ATOM     51  C   UNL     1      -8.345  -0.230  -1.854  1.00  0.00     0.031 C 
ATOM     52  C   UNL     1     -10.929  -5.690  -1.294  1.00  0.00     0.029 A 
ATOM     53  C   UNL     1     -10.001  -4.679  -1.489  1.00  0.00     0.049 A 
ATOM     54  H   UNL     1      -7.978  -4.825  -2.067  1.00  0.00     0.167 HD
ATOM     55  C   UNL     1      -9.225  -2.329  -1.589  1.00  0.00     0.074 A 
ATOM     56  C   UNL     1      -9.440  -0.899  -1.517  1.00  0.00     0.031 C 
ATOM     57  C   UNL     1     -10.188  -3.256  -1.363  1.00  0.00     0.034 A 
BRANCH  44  58
ATOM     58  C   UNL     1      -8.340  -9.075  -2.300  1.00  0.00     0.023 A 
ATOM     59  C   UNL     1      -7.845  -9.961  -1.322  1.00  0.00     0.012 A 
ATOM     60  C   UNL     1      -9.221  -9.557  -3.288  1.00  0.00     0.148 A 
ATOM     61  C   UNL     1      -8.193 -11.311  -1.347  1.00  0.00     0.002 A 
ATOM     62  C   UNL     1      -9.602 -10.893  -3.278  1.00  0.00     0.091 A 
ATOM     63  F   UNL     1      -9.664  -8.703  -4.222  1.00  0.00    -0.205 F 
ATOM     64  C   UNL     1      -9.079 -11.774  -2.317  1.00  0.00     0.022 A 
BRANCH  62  65
ATOM     65  S   UNL     1     -10.800 -11.568  -4.432  1.00  0.00     0.127 S 
ATOM     66  O   UNL     1      -9.962 -12.450  -5.245  1.00  0.00    -0.237 OA
ATOM     67  O   UNL     1     -11.728 -12.262  -3.539  1.00  0.00    -0.237 OA
ATOM     68  O   UNL     1     -11.370 -10.428  -5.136  1.00  0.00    -0.744 OA
ENDBRANCH  62  65
ENDBRANCH  44  58
BRANCH  45  69
ATOM     69  C   UNL     1      -5.574   0.523  -2.449  1.00  0.00     0.023 A 
ATOM     70  C   UNL     1      -5.606   1.315  -1.285  1.00  0.00     0.012 A 
ATOM     71  C   UNL     1      -5.187   1.110  -3.670  1.00  0.00     0.148 A 
ATOM     72  C   UNL     1      -5.291   2.674  -1.341  1.00  0.00     0.002 A 
ATOM     73  C   UNL     1      -4.821   2.450  -3.708  1.00  0.00     0.091 A 
ATOM     74  F   UNL     1      -5.182   0.344  -4.769  1.00  0.00    -0.205 F 
ATOM     75  C   UNL     1      -4.890   3.239  -2.549  1.00  0.00     0.022 A 
BRANCH  73  76
ATOM     76  S   UNL     1      -4.183   3.236  -5.191  1.00  0.00     0.127 S 
ATOM     77  O   UNL     1      -5.252   4.179  -5.513  1.00  0.00    -0.237 OA
ATOM     78  O   UNL     1      -2.949   3.849  -4.699  1.00  0.00    -0.237 OA
ATOM     79  O   UNL     1      -3.982   2.161  -6.153  1.00  0.00    -0.744 OA
ENDBRANCH  73  76
ENDBRANCH  45  69
BRANCH  57  80
ATOM     80  C   UNL     1     -11.557  -2.774  -0.952  1.00  0.00     0.023 A 
ATOM     81  C   UNL     1     -12.403  -2.154  -1.892  1.00  0.00     0.012 A 
ATOM     82  C   UNL     1     -12.039  -3.032   0.347  1.00  0.00     0.148 A 
ATOM     83  C   UNL     1     -13.698  -1.774  -1.537  1.00  0.00     0.002 A 
ATOM     84  C   UNL     1     -13.347  -2.700   0.678  1.00  0.00     0.091 A 
ATOM     85  F   UNL     1     -11.214  -3.611   1.231  1.00  0.00    -0.205 F 
ATOM     86  C   UNL     1     -14.174  -2.059  -0.259  1.00  0.00     0.022 A 
BRANCH  84  87
ATOM     87  S   UNL     1     -14.080  -3.118   2.264  1.00  0.00     0.127 S 
ATOM     88  O   UNL     1     -14.261  -1.798   2.866  1.00  0.00    -0.237 OA
ATOM     89  O   UNL     1     -15.321  -3.782   1.864  1.00  0.00    -0.237 OA
ATOM     90  O   UNL     1     -13.120  -3.982   2.938  1.00  0.00    -0.744 OA
ENDBRANCH  84  87
ENDBRANCH  57  80
ENDBRANCH  31  32
ENDBRANCH  24  26
ENDBRANCH  23  24
ENDBRANCH  22  23
ENDBRANCH  21  22
ENDBRANCH  20  21
ENDBRANCH   1  20
TORSDOF 22
