REMARK SMILES O=C(OCCOCCOCCOC(=O)C1(Cc2ccccc2Cl)CCN(c2ncnc3[nH]ccc23)CC1)c1ccc(-c2c3nc(c(-c4cccc(S(=O)(=O)[O-])c4F)c4ccc([nH]4)c(-c4cccc(S(=O)(=O)[O-])c4F)c4nc(c(-c5cccc(S(=O)(=O)[O-])c5F)c5ccc2[nH]5)C=C4)C=C3)cc1
REMARK SMILES IDX 7 1 6 2 5 3 4 4 3 5 2 6 1 7 38 8 39 9 100 10 40 11 99 12
REMARK SMILES IDX 41 13 42 14 43 15 93 16 44 17 98 18 92 19 94 20 45 21 97 22
REMARK SMILES IDX 91 23 90 24 46 26 78 27 58 28 77 29 59 30 62 31 76 32 95 33
REMARK SMILES IDX 60 34 61 35 75 37 96 38 63 39 47 40 48 41 56 42 49 43 51 44
REMARK SMILES IDX 57 45 50 46 52 47 53 48 54 49 55 50 79 51 80 52 88 53 81 54
REMARK SMILES IDX 83 55 89 56 82 57 84 58 85 59 86 60 87 61 64 62 65 63 73 64
REMARK SMILES IDX 66 65 68 66 74 67 67 68 69 69 70 70 71 71 72 72 8 73 9 74
REMARK SMILES IDX 10 75 11 76 12 77 13 78 14 79 15 80 24 81 37 82 25 83 36 84
REMARK SMILES IDX 26 85 16 86 17 87 18 88 22 89 19 90 21 91 23 92 20 93 27 94
REMARK SMILES IDX 28 95 35 96 29 97 31 98 34 99 30 100 32 101 33 102
REMARK H PARENT 94 25 62 36 32 103
REMARK Flexibility Score: inf
ROOT
ATOM      1  C   UNL     1       3.014   1.689   0.106  1.00  0.00     0.188 C 
ENDROOT
BRANCH   1   2
ATOM      2  O   UNL     1       4.404   1.520  -0.117  1.00  0.00    -0.376 OA
BRANCH   2   3
ATOM      3  C   UNL     1       4.840   1.125  -1.407  1.00  0.00     0.202 C 
BRANCH   3   4
ATOM      4  C   UNL     1       4.629  -0.351  -1.770  1.00  0.00     0.261 C 
BRANCH   4   5
ATOM      5  O   UNL     1       3.285  -0.799  -1.549  1.00  0.00    -0.460 OA
BRANCH   5   6
ATOM      6  C   UNL     1       2.812  -1.597  -0.556  1.00  0.00     0.338 C 
ATOM      7  O   UNL     1       1.715  -2.126  -0.731  1.00  0.00    -0.246 OA
BRANCH   6   8
ATOM      8  C   UNL     1       3.493  -1.806   0.774  1.00  0.00     0.060 A 
ATOM      9  C   UNL     1       4.672  -1.193   1.203  1.00  0.00     0.016 A 
ATOM     10  C   UNL     1       2.853  -2.667   1.688  1.00  0.00     0.016 A 
ATOM     11  C   UNL     1       5.241  -1.478   2.444  1.00  0.00     0.010 A 
ATOM     12  C   UNL     1       3.411  -2.956   2.943  1.00  0.00     0.010 A 
ATOM     13  C   UNL     1       4.638  -2.394   3.304  1.00  0.00    -0.014 A 
BRANCH  13  14
ATOM     14  C   UNL     1       5.433  -2.865   4.460  1.00  0.00     0.031 A 
ATOM     15  C   UNL     1       6.183  -4.145   4.320  1.00  0.00     0.074 A 
ATOM     16  C   UNL     1       5.577  -2.116   5.567  1.00  0.00     0.049 A 
ATOM     17  N   UNL     1       7.058  -4.667   5.132  1.00  0.00    -0.248 NA
ATOM     18  C   UNL     1       5.901  -4.950   3.121  1.00  0.00     0.031 C 
ATOM     19  C   UNL     1       4.815  -0.910   5.822  1.00  0.00     0.029 A 
ATOM     20  N   UNL     1       6.380  -2.237   6.674  1.00  0.00    -0.354 N 
ATOM     21  C   UNL     1       7.394  -5.887   4.572  1.00  0.00     0.074 A 
ATOM     22  C   UNL     1       6.640  -6.024   3.346  1.00  0.00     0.031 C 
ATOM     23  C   UNL     1       5.190  -0.388   6.995  1.00  0.00     0.029 A 
ATOM     24  C   UNL     1       6.266  -1.183   7.557  1.00  0.00     0.049 A 
ATOM     25  H   UNL     1       6.981  -3.003   6.823  1.00  0.00     0.167 HD
ATOM     26  C   UNL     1       8.251  -6.814   5.051  1.00  0.00     0.034 A 
ATOM     27  C   UNL     1       6.964  -0.881   8.671  1.00  0.00     0.034 A 
ATOM     28  C   UNL     1       8.962  -6.673   6.290  1.00  0.00     0.049 A 
ATOM     29  C   UNL     1       7.994  -1.879   9.118  1.00  0.00     0.074 A 
ATOM     30  C   UNL     1       9.805  -7.577   6.906  1.00  0.00     0.029 A 
ATOM     31  N   UNL     1       8.898  -5.556   7.112  1.00  0.00    -0.354 N 
ATOM     32  N   UNL     1       8.353  -2.997   8.536  1.00  0.00    -0.248 NA
ATOM     33  C   UNL     1       8.704  -1.593  10.371  1.00  0.00     0.031 C 
ATOM     34  C   UNL     1      10.236  -7.014   8.112  1.00  0.00     0.029 A 
ATOM     35  C   UNL     1       9.696  -5.742   8.226  1.00  0.00     0.049 A 
ATOM     36  H   UNL     1       8.364  -4.750   6.928  1.00  0.00     0.167 HD
ATOM     37  C   UNL     1       9.311  -3.562   9.361  1.00  0.00     0.074 A 
ATOM     38  C   UNL     1       9.538  -2.621  10.441  1.00  0.00     0.031 C 
ATOM     39  C   UNL     1       9.912  -4.773   9.268  1.00  0.00     0.034 A 
BRANCH  26  40
ATOM     40  C   UNL     1       8.403  -8.064   4.237  1.00  0.00     0.023 A 
ATOM     41  C   UNL     1       9.085  -8.022   3.004  1.00  0.00     0.012 A 
ATOM     42  C   UNL     1       7.827  -9.270   4.674  1.00  0.00     0.148 A 
ATOM     43  C   UNL     1       9.153  -9.156   2.196  1.00  0.00     0.002 A 
ATOM     44  C   UNL     1       7.941 -10.407   3.888  1.00  0.00     0.091 A 
ATOM     45  F   UNL     1       7.154  -9.273   5.834  1.00  0.00    -0.205 F 
ATOM     46  C   UNL     1       8.588 -10.349   2.642  1.00  0.00     0.022 A 
BRANCH  44  47
ATOM     47  S   UNL     1       7.302 -12.005   4.394  1.00  0.00     0.127 S 
ATOM     48  O   UNL     1       6.290 -12.258   3.372  1.00  0.00    -0.237 OA
ATOM     49  O   UNL     1       8.491 -12.847   4.304  1.00  0.00    -0.237 OA
ATOM     50  O   UNL     1       6.781 -11.820   5.747  1.00  0.00    -0.744 OA
ENDBRANCH  44  47
ENDBRANCH  26  40
BRANCH  27  51
ATOM     51  C   UNL     1       6.776   0.415   9.402  1.00  0.00     0.023 A 
ATOM     52  C   UNL     1       7.860   1.312   9.531  1.00  0.00     0.012 A 
ATOM     53  C   UNL     1       5.539   0.786   9.959  1.00  0.00     0.148 A 
ATOM     54  C   UNL     1       7.723   2.522  10.220  1.00  0.00     0.002 A 
ATOM     55  C   UNL     1       5.386   2.029  10.569  1.00  0.00     0.091 A 
ATOM     56  F   UNL     1       4.518  -0.080   9.881  1.00  0.00    -0.205 F 
ATOM     57  C   UNL     1       6.481   2.888  10.725  1.00  0.00     0.022 A 
BRANCH  55  58
ATOM     58  S   UNL     1       3.766   2.633  11.055  1.00  0.00     0.127 S 
ATOM     59  O   UNL     1       3.744   2.326  12.481  1.00  0.00    -0.237 OA
ATOM     60  O   UNL     1       3.853   4.057  10.728  1.00  0.00    -0.237 OA
ATOM     61  O   UNL     1       2.831   1.893  10.216  1.00  0.00    -0.744 OA
ENDBRANCH  55  58
ENDBRANCH  27  51
BRANCH  39  62
ATOM     62  C   UNL     1      10.866  -5.136  10.369  1.00  0.00     0.023 A 
ATOM     63  C   UNL     1      10.375  -5.428  11.657  1.00  0.00     0.012 A 
ATOM     64  C   UNL     1      12.244  -5.232  10.109  1.00  0.00     0.148 A 
ATOM     65  C   UNL     1      11.250  -5.771  12.684  1.00  0.00     0.002 A 
ATOM     66  C   UNL     1      13.104  -5.631  11.122  1.00  0.00     0.091 A 
ATOM     67  F   UNL     1      12.687  -4.925   8.881  1.00  0.00    -0.205 F 
ATOM     68  C   UNL     1      12.612  -5.885  12.414  1.00  0.00     0.022 A 
BRANCH  66  69
ATOM     69  S   UNL     1      14.854  -5.901  10.837  1.00  0.00     0.127 S 
ATOM     70  O   UNL     1      15.447  -4.768  11.546  1.00  0.00    -0.237 OA
ATOM     71  O   UNL     1      15.071  -7.202  11.470  1.00  0.00    -0.237 OA
ATOM     72  O   UNL     1      15.031  -5.894   9.391  1.00  0.00    -0.744 OA
ENDBRANCH  66  69
ENDBRANCH  39  62
ENDBRANCH  13  14
ENDBRANCH   6   8
ENDBRANCH   5   6
ENDBRANCH   4   5
ENDBRANCH   3   4
ENDBRANCH   2   3
ENDBRANCH   1   2
BRANCH   1  73
ATOM     73  C   UNL     1       2.251   2.875  -0.488  1.00  0.00     0.188 C 
BRANCH  73  74
ATOM     74  O   UNL     1       2.892   4.089  -0.832  1.00  0.00    -0.376 OA
BRANCH  74  75
ATOM     75  C   UNL     1       4.160   4.382  -0.291  1.00  0.00     0.202 C 
BRANCH  75  76
ATOM     76  C   UNL     1       4.262   4.648   1.207  1.00  0.00     0.261 C 
BRANCH  76  77
ATOM     77  O   UNL     1       3.808   3.629   2.123  1.00  0.00    -0.463 OA
BRANCH  77  78
ATOM     78  C   UNL     1       2.650   3.907   2.787  1.00  0.00     0.312 C 
ATOM     79  O   UNL     1       1.878   4.794   2.434  1.00  0.00    -0.252 OA
BRANCH  78  80
ATOM     80  C   UNL     1       2.450   3.095   4.082  1.00  0.00     0.075 C 
ATOM     81  C   UNL     1       2.940   1.621   4.060  1.00  0.00     0.040 C 
ATOM     82  C   UNL     1       0.914   3.099   4.393  1.00  0.00     0.040 C 
ATOM     83  C   UNL     1       2.009   0.542   3.483  1.00  0.00     0.119 C 
ATOM     84  C   UNL     1       0.120   2.100   3.538  1.00  0.00     0.119 C 
ATOM     85  N   UNL     1       0.633   0.786   3.860  1.00  0.00    -0.356 N 
BRANCH  80  86
ATOM     86  C   UNL     1       3.192   3.898   5.238  1.00  0.00     0.056 C 
BRANCH  86  87
ATOM     87  C   UNL     1       4.715   3.805   5.272  1.00  0.00    -0.028 A 
ATOM     88  C   UNL     1       5.319   2.878   6.129  1.00  0.00     0.005 A 
ATOM     89  C   UNL     1       5.577   4.564   4.476  1.00  0.00     0.044 A 
ATOM     90  C   UNL     1       6.672   2.542   6.009  1.00  0.00     0.000 A 
ATOM     91  C   UNL     1       6.911   4.175   4.281  1.00  0.00     0.021 A 
ATOM     92  Cl  UNL     1       5.104   6.114   3.877  1.00  0.00    -0.084 Cl
ATOM     93  C   UNL     1       7.450   3.131   5.024  1.00  0.00     0.002 A 
ENDBRANCH  86  87
ENDBRANCH  80  86
BRANCH  85  94
ATOM     94  C   UNL     1      -0.218  -0.309   3.829  1.00  0.00     0.141 A 
ATOM     95  N   UNL     1      -1.206  -0.394   2.899  1.00  0.00    -0.219 NA
ATOM     96  C   UNL     1      -0.128  -1.353   4.777  1.00  0.00     0.061 A 
ATOM     97  C   UNL     1      -2.015  -1.477   2.913  1.00  0.00     0.226 A 
ATOM     98  C   UNL     1      -1.052  -2.383   4.685  1.00  0.00     0.142 A 
ATOM     99  C   UNL     1       0.685  -1.644   5.912  1.00  0.00     0.033 A 
ATOM    100  N   UNL     1      -2.022  -2.516   3.768  1.00  0.00    -0.218 NA
ATOM    101  N   UNL     1      -0.826  -3.257   5.714  1.00  0.00    -0.346 N 
ATOM    102  C   UNL     1       0.232  -2.822   6.468  1.00  0.00     0.085 A 
ATOM    103  H   UNL     1      -1.345  -4.076   5.887  1.00  0.00     0.167 HD
ENDBRANCH  85  94
ENDBRANCH  78  80
ENDBRANCH  77  78
ENDBRANCH  76  77
ENDBRANCH  75  76
ENDBRANCH  74  75
ENDBRANCH  73  74
ENDBRANCH   1  73
TORSDOF 23
