REMARK SMILES CN(C)C(=O)Nc1cccc(/C=C/C(=O)OCCOCCOCCOC(=O)c2ccc(-c3c4nc(c(-c5cccc(S(=O)(=O)[O-])c5F)c5ccc([nH]5)c(-c5cccc(S(=O)(=O)[O-])c5F)c5nc(c(-c6cccc(S(=O)(=O)[O-])c6F)c6ccc3[nH]6)C=C5)C=C4)cc2)n1
REMARK SMILES IDX 21 1 20 2 19 3 18 4 17 5 16 6 14 7 15 8 13 9 12 10 11 11
REMARK SMILES IDX 7 12 8 13 91 14 9 15 10 16 6 17 1 18 2 19 3 20 4 21 5 22
REMARK SMILES IDX 22 24 23 25 24 26 25 27 26 28 27 29 28 30 29 31 90 32 30 33
REMARK SMILES IDX 89 34 31 35 32 36 33 37 83 38 34 39 88 40 82 41 84 42 35 43
REMARK SMILES IDX 87 44 81 45 80 46 36 48 68 49 48 50 67 51 49 52 52 53 66 54
REMARK SMILES IDX 85 55 50 56 51 57 65 59 86 60 53 61 37 62 38 63 46 64 39 65
REMARK SMILES IDX 41 66 47 67 40 68 42 69 43 70 44 71 45 72 69 73 70 74 78 75
REMARK SMILES IDX 71 76 73 77 79 78 72 79 74 80 75 81 76 82 77 83 54 84 55 85
REMARK SMILES IDX 63 86 56 87 58 88 64 89 57 90 59 91 60 92 61 93 62 94
REMARK H PARENT 6 23 84 47 52 58
REMARK Flexibility Score: inf
ROOT
ATOM      1  C   UNL     1      -0.672   0.947  10.309  1.00  0.00     0.188 C 
ENDROOT
BRANCH   1   2
ATOM      2  C   UNL     1       0.773   1.087  10.823  1.00  0.00     0.188 C 
BRANCH   2   3
ATOM      3  O   UNL     1       0.999   1.858  11.983  1.00  0.00    -0.376 OA
BRANCH   3   4
ATOM      4  C   UNL     1       0.894   3.270  11.954  1.00  0.00     0.202 C 
BRANCH   4   5
ATOM      5  C   UNL     1       0.948   4.139  10.685  1.00  0.00     0.261 C 
BRANCH   5   6
ATOM      6  O   UNL     1       0.460   3.553   9.476  1.00  0.00    -0.460 OA
BRANCH   6   7
ATOM      7  C   UNL     1       1.381   3.408   8.490  1.00  0.00     0.330 C 
ATOM      8  O   UNL     1       2.547   3.769   8.527  1.00  0.00    -0.247 OA
BRANCH   7   9
ATOM      9  C   UNL     1       0.845   2.635   7.355  1.00  0.00     0.095 C 
ATOM     10  C   UNL     1      -0.448   2.619   6.997  1.00  0.00     0.036 C 
BRANCH  10  11
ATOM     11  C   UNL     1      -0.941   1.834   5.858  1.00  0.00     0.066 A 
ATOM     12  C   UNL     1      -0.456   0.304   4.193  1.00  0.00     0.134 A 
ATOM     13  C   UNL     1      -1.706   0.466   3.614  1.00  0.00     0.047 A 
ATOM     14  N   UNL     1      -0.092   0.925   5.331  1.00  0.00    -0.231 NA
ATOM     15  C   UNL     1      -2.597   1.361   4.199  1.00  0.00     0.006 A 
ATOM     16  C   UNL     1      -2.204   2.071   5.330  1.00  0.00     0.028 A 
BRANCH  12  17
ATOM     17  N   UNL     1       0.527  -0.493   3.625  1.00  0.00    -0.292 N 
ATOM     18  C   UNL     1       0.945  -0.279  -0.019  1.00  0.00     0.148 C 
ATOM     19  N   UNL     1       0.564   0.114   1.327  1.00  0.00    -0.331 N 
ATOM     20  C   UNL     1       0.295   1.535   1.505  1.00  0.00     0.148 C 
ATOM     21  C   UNL     1       0.803  -0.803   2.335  1.00  0.00     0.322 C 
ATOM     22  O   UNL     1       1.377  -1.871   2.106  1.00  0.00    -0.248 OA
ATOM     23  H   UNL     1       1.135  -0.909   4.278  1.00  0.00     0.173 HD
ENDBRANCH  12  17
ENDBRANCH  10  11
ENDBRANCH   7   9
ENDBRANCH   6   7
ENDBRANCH   5   6
ENDBRANCH   4   5
ENDBRANCH   3   4
ENDBRANCH   2   3
ENDBRANCH   1   2
BRANCH   1  24
ATOM     24  O   UNL     1      -1.696   1.759  10.843  1.00  0.00    -0.376 OA
BRANCH  24  25
ATOM     25  C   UNL     1      -2.083   1.617  12.201  1.00  0.00     0.202 C 
BRANCH  25  26
ATOM     26  C   UNL     1      -1.936   0.332  13.041  1.00  0.00     0.261 C 
BRANCH  26  27
ATOM     27  O   UNL     1      -0.891  -0.577  12.693  1.00  0.00    -0.460 OA
BRANCH  27  28
ATOM     28  C   UNL     1      -1.294  -1.727  12.104  1.00  0.00     0.338 C 
ATOM     29  O   UNL     1      -2.441  -2.049  11.815  1.00  0.00    -0.246 OA
BRANCH  28  30
ATOM     30  C   UNL     1      -0.109  -2.493  11.687  1.00  0.00     0.060 A 
ATOM     31  C   UNL     1       0.154  -2.634  10.318  1.00  0.00     0.016 A 
ATOM     32  C   UNL     1       0.717  -3.094  12.637  1.00  0.00     0.016 A 
ATOM     33  C   UNL     1       1.244  -3.389   9.892  1.00  0.00     0.010 A 
ATOM     34  C   UNL     1       1.797  -3.869  12.206  1.00  0.00     0.010 A 
ATOM     35  C   UNL     1       2.052  -4.040  10.833  1.00  0.00    -0.014 A 
BRANCH  35  36
ATOM     36  C   UNL     1       3.077  -5.010  10.382  1.00  0.00     0.031 A 
ATOM     37  C   UNL     1       2.760  -6.478  10.437  1.00  0.00     0.074 A 
ATOM     38  C   UNL     1       4.279  -4.591   9.946  1.00  0.00     0.049 A 
ATOM     39  N   UNL     1       3.521  -7.501  10.147  1.00  0.00    -0.248 NA
ATOM     40  C   UNL     1       1.405  -6.842  10.883  1.00  0.00     0.031 C 
ATOM     41  C   UNL     1       4.701  -3.196   9.842  1.00  0.00     0.029 A 
ATOM     42  N   UNL     1       5.376  -5.309   9.540  1.00  0.00    -0.354 N 
ATOM     43  C   UNL     1       2.752  -8.629  10.405  1.00  0.00     0.074 A 
ATOM     44  C   UNL     1       1.467  -8.165  10.883  1.00  0.00     0.031 C 
ATOM     45  C   UNL     1       5.981  -3.159   9.433  1.00  0.00     0.029 A 
ATOM     46  C   UNL     1       6.474  -4.527   9.275  1.00  0.00     0.049 A 
ATOM     47  H   UNL     1       5.376  -6.289   9.446  1.00  0.00     0.167 HD
ATOM     48  C   UNL     1       3.082  -9.932  10.250  1.00  0.00     0.034 A 
ATOM     49  C   UNL     1       7.740  -4.876   8.969  1.00  0.00     0.034 A 
ATOM     50  C   UNL     1       4.355 -10.390   9.763  1.00  0.00     0.049 A 
ATOM     51  C   UNL     1       8.091  -6.335   8.831  1.00  0.00     0.074 A 
ATOM     52  C   UNL     1       4.766 -11.689   9.520  1.00  0.00     0.029 A 
ATOM     53  N   UNL     1       5.431  -9.569   9.464  1.00  0.00    -0.354 N 
ATOM     54  N   UNL     1       7.319  -7.388   8.960  1.00  0.00    -0.248 NA
ATOM     55  C   UNL     1       9.481  -6.655   8.473  1.00  0.00     0.031 C 
ATOM     56  C   UNL     1       6.103 -11.655   9.111  1.00  0.00     0.029 A 
ATOM     57  C   UNL     1       6.512 -10.333   9.059  1.00  0.00     0.049 A 
ATOM     58  H   UNL     1       5.427  -8.586   9.529  1.00  0.00     0.167 HD
ATOM     59  C   UNL     1       8.119  -8.488   8.665  1.00  0.00     0.074 A 
ATOM     60  C   UNL     1       9.430  -7.972   8.330  1.00  0.00     0.031 C 
ATOM     61  C   UNL     1       7.800  -9.807   8.682  1.00  0.00     0.034 A 
BRANCH  48  62
ATOM     62  C   UNL     1       2.041 -10.963  10.601  1.00  0.00     0.023 A 
ATOM     63  C   UNL     1       0.914 -11.133   9.771  1.00  0.00     0.012 A 
ATOM     64  C   UNL     1       2.208 -11.800  11.722  1.00  0.00     0.148 A 
ATOM     65  C   UNL     1      -0.048 -12.097  10.070  1.00  0.00     0.002 A 
ATOM     66  C   UNL     1       1.269 -12.789  11.987  1.00  0.00     0.091 A 
ATOM     67  F   UNL     1       3.274 -11.607  12.511  1.00  0.00    -0.205 F 
ATOM     68  C   UNL     1       0.135 -12.931  11.170  1.00  0.00     0.022 A 
BRANCH  66  69
ATOM     69  S   UNL     1       1.454 -13.964  13.332  1.00  0.00     0.127 S 
ATOM     70  O   UNL     1       0.389 -13.542  14.242  1.00  0.00    -0.237 OA
ATOM     71  O   UNL     1       1.210 -15.241  12.660  1.00  0.00    -0.237 OA
ATOM     72  O   UNL     1       2.809 -13.791  13.836  1.00  0.00    -0.744 OA
ENDBRANCH  66  69
ENDBRANCH  48  62
BRANCH  49  73
ATOM     73  C   UNL     1       8.773  -3.822   8.754  1.00  0.00     0.023 A 
ATOM     74  C   UNL     1       9.302  -3.618   7.465  1.00  0.00     0.012 A 
ATOM     75  C   UNL     1       9.227  -3.019   9.818  1.00  0.00     0.148 A 
ATOM     76  C   UNL     1      10.289  -2.656   7.246  1.00  0.00     0.002 A 
ATOM     77  C   UNL     1      10.169  -2.025   9.583  1.00  0.00     0.091 A 
ATOM     78  F   UNL     1       8.723  -3.240  11.040  1.00  0.00    -0.205 F 
ATOM     79  C   UNL     1      10.714  -1.853   8.301  1.00  0.00     0.022 A 
BRANCH  77  80
ATOM     80  S   UNL     1      10.689  -0.867  10.853  1.00  0.00     0.127 S 
ATOM     81  O   UNL     1      12.079  -1.262  11.067  1.00  0.00    -0.237 OA
ATOM     82  O   UNL     1      10.512   0.419  10.178  1.00  0.00    -0.237 OA
ATOM     83  O   UNL     1       9.792  -1.085  11.979  1.00  0.00    -0.744 OA
ENDBRANCH  77  80
ENDBRANCH  49  73
BRANCH  61  84
ATOM     84  C   UNL     1       8.870 -10.795   8.291  1.00  0.00     0.023 A 
ATOM     85  C   UNL     1       9.957 -11.036   9.155  1.00  0.00     0.012 A 
ATOM     86  C   UNL     1       8.758 -11.541   7.100  1.00  0.00     0.148 A 
ATOM     87  C   UNL     1      10.933 -11.976   8.824  1.00  0.00     0.002 A 
ATOM     88  C   UNL     1       9.706 -12.513   6.802  1.00  0.00     0.091 A 
ATOM     89  F   UNL     1       7.726 -11.289   6.282  1.00  0.00    -0.205 F 
ATOM     90  C   UNL     1      10.801 -12.722   7.655  1.00  0.00     0.022 A 
BRANCH  88  91
ATOM     91  S   UNL     1       9.568 -13.591   5.371  1.00  0.00     0.127 S 
ATOM     92  O   UNL     1      10.651 -13.098   4.521  1.00  0.00    -0.237 OA
ATOM     93  O   UNL     1       9.804 -14.912   5.954  1.00  0.00    -0.237 OA
ATOM     94  O   UNL     1       8.224 -13.394   4.846  1.00  0.00    -0.744 OA
ENDBRANCH  88  91
ENDBRANCH  61  84
ENDBRANCH  35  36
ENDBRANCH  28  30
ENDBRANCH  27  28
ENDBRANCH  26  27
ENDBRANCH  25  26
ENDBRANCH  24  25
ENDBRANCH   1  24
TORSDOF 22
