REMARK SMILES O=C(OCCOCCOCCOC(=O)[C@H](CO)Nc1ccc(C(F)(F)F)cc1[N+](=O)[O-])c1ccc(-c2c3nc(c(-c4cccc(S(=O)(=O)[O-])c4F)c4ccc([nH]4)c(-c4cccc(S(=O)(=O)[O-])c4F)c4nc(c(-c5cccc(S(=O)(=O)[O-])c5F)c5ccc2[nH]5)C=C4)C=C3)cc1
REMARK SMILES IDX 7 1 6 2 5 3 4 4 3 5 2 6 1 7 32 8 33 9 94 10 34 11 93 12
REMARK SMILES IDX 35 13 36 14 37 15 87 16 38 17 92 18 86 19 88 20 39 21 91 22
REMARK SMILES IDX 85 23 84 24 40 26 72 27 52 28 71 29 53 30 56 31 70 32 89 33
REMARK SMILES IDX 54 34 55 35 69 37 90 38 57 39 41 40 42 41 50 42 43 43 45 44
REMARK SMILES IDX 51 45 44 46 46 47 47 48 48 49 49 50 73 51 74 52 82 53 75 54
REMARK SMILES IDX 77 55 83 56 76 57 78 58 79 59 80 60 81 61 58 62 59 63 67 64
REMARK SMILES IDX 60 65 62 66 68 67 61 68 63 69 64 70 65 71 66 72 8 73 9 74
REMARK SMILES IDX 10 75 11 76 12 77 13 78 14 79 15 80 18 81 19 83 20 84 28 85
REMARK SMILES IDX 21 86 27 87 22 88 29 89 30 90 31 91 23 92 24 93 25 94 26 95
REMARK SMILES IDX 16 96 17 97
REMARK H PARENT 88 25 56 36 18 82 17 98
REMARK Flexibility Score: inf
ROOT
ATOM      1  C   UNL     1       5.982   0.556   2.486  1.00  0.00     0.188 C 
ENDROOT
BRANCH   1   2
ATOM      2  O   UNL     1       6.745  -0.408   1.758  1.00  0.00    -0.376 OA
BRANCH   2   3
ATOM      3  C   UNL     1       6.204  -0.693   0.461  1.00  0.00     0.202 C 
BRANCH   3   4
ATOM      4  C   UNL     1       6.366   0.433  -0.588  1.00  0.00     0.261 C 
BRANCH   4   5
ATOM      5  O   UNL     1       6.293   1.785  -0.064  1.00  0.00    -0.460 OA
BRANCH   5   6
ATOM      6  C   UNL     1       5.315   2.719  -0.018  1.00  0.00     0.338 C 
ATOM      7  O   UNL     1       5.602   3.868   0.308  1.00  0.00    -0.246 OA
BRANCH   6   8
ATOM      8  C   UNL     1       3.893   2.395  -0.294  1.00  0.00     0.060 A 
ATOM      9  C   UNL     1       3.384   1.110  -0.170  1.00  0.00     0.016 A 
ATOM     10  C   UNL     1       2.997   3.433  -0.593  1.00  0.00     0.016 A 
ATOM     11  C   UNL     1       2.071   0.813  -0.481  1.00  0.00     0.010 A 
ATOM     12  C   UNL     1       1.645   3.158  -0.841  1.00  0.00     0.010 A 
ATOM     13  C   UNL     1       1.195   1.833  -0.839  1.00  0.00    -0.014 A 
BRANCH  13  14
ATOM     14  C   UNL     1      -0.124   1.418  -1.352  1.00  0.00     0.031 A 
ATOM     15  C   UNL     1      -0.365   1.502  -2.830  1.00  0.00     0.074 A 
ATOM     16  C   UNL     1      -0.987   0.789  -0.531  1.00  0.00     0.049 A 
ATOM     17  N   UNL     1      -1.392   1.093  -3.522  1.00  0.00    -0.248 NA
ATOM     18  C   UNL     1       0.708   2.103  -3.644  1.00  0.00     0.031 C 
ATOM     19  C   UNL     1      -0.786   0.583   0.906  1.00  0.00     0.029 A 
ATOM     20  N   UNL     1      -2.184   0.179  -0.790  1.00  0.00    -0.354 N 
ATOM     21  C   UNL     1      -1.102   1.409  -4.843  1.00  0.00     0.074 A 
ATOM     22  C   UNL     1       0.191   2.051  -4.861  1.00  0.00     0.031 C 
ATOM     23  C   UNL     1      -1.822  -0.113   1.401  1.00  0.00     0.029 A 
ATOM     24  C   UNL     1      -2.784  -0.349   0.330  1.00  0.00     0.049 A 
ATOM     25  H   UNL     1      -2.578   0.123  -1.690  1.00  0.00     0.167 HD
ATOM     26  C   UNL     1      -1.847   1.171  -5.946  1.00  0.00     0.034 A 
ATOM     27  C   UNL     1      -3.994  -0.923   0.471  1.00  0.00     0.034 A 
ATOM     28  C   UNL     1      -3.133   0.538  -5.905  1.00  0.00     0.049 A 
ATOM     29  C   UNL     1      -4.837  -1.101  -0.764  1.00  0.00     0.074 A 
ATOM     30  C   UNL     1      -4.012   0.301  -6.943  1.00  0.00     0.029 A 
ATOM     31  N   UNL     1      -3.729   0.050  -4.750  1.00  0.00    -0.354 N 
ATOM     32  N   UNL     1      -4.544  -0.812  -2.010  1.00  0.00    -0.248 NA
ATOM     33  C   UNL     1      -6.162  -1.704  -0.581  1.00  0.00     0.031 C 
ATOM     34  C   UNL     1      -5.155  -0.305  -6.410  1.00  0.00     0.029 A 
ATOM     35  C   UNL     1      -4.968  -0.486  -5.048  1.00  0.00     0.049 A 
ATOM     36  H   UNL     1      -3.328   0.081  -3.851  1.00  0.00     0.167 HD
ATOM     37  C   UNL     1      -5.638  -1.218  -2.764  1.00  0.00     0.074 A 
ATOM     38  C   UNL     1      -6.582  -1.807  -1.834  1.00  0.00     0.031 C 
ATOM     39  C   UNL     1      -5.859  -1.100  -4.097  1.00  0.00     0.034 A 
BRANCH  26  40
ATOM     40  C   UNL     1      -1.286   1.628  -7.265  1.00  0.00     0.023 A 
ATOM     41  C   UNL     1      -0.202   0.941  -7.848  1.00  0.00     0.012 A 
ATOM     42  C   UNL     1      -1.830   2.748  -7.922  1.00  0.00     0.148 A 
ATOM     43  C   UNL     1       0.356   1.384  -9.047  1.00  0.00     0.002 A 
ATOM     44  C   UNL     1      -1.298   3.156  -9.139  1.00  0.00     0.091 A 
ATOM     45  F   UNL     1      -2.842   3.403  -7.335  1.00  0.00    -0.205 F 
ATOM     46  C   UNL     1      -0.197   2.485  -9.695  1.00  0.00     0.022 A 
BRANCH  44  47
ATOM     47  S   UNL     1      -1.976   4.527 -10.080  1.00  0.00     0.127 S 
ATOM     48  O   UNL     1      -0.862   5.478 -10.058  1.00  0.00    -0.237 OA
ATOM     49  O   UNL     1      -2.218   3.905 -11.384  1.00  0.00    -0.237 OA
ATOM     50  O   UNL     1      -3.169   4.955  -9.373  1.00  0.00    -0.744 OA
ENDBRANCH  44  47
ENDBRANCH  26  40
BRANCH  27  51
ATOM     51  C   UNL     1      -4.488  -1.327   1.819  1.00  0.00     0.023 A 
ATOM     52  C   UNL     1      -4.756  -2.678   2.110  1.00  0.00     0.012 A 
ATOM     53  C   UNL     1      -4.711  -0.357   2.819  1.00  0.00     0.148 A 
ATOM     54  C   UNL     1      -5.274  -3.049   3.353  1.00  0.00     0.002 A 
ATOM     55  C   UNL     1      -5.168  -0.739   4.074  1.00  0.00     0.091 A 
ATOM     56  F   UNL     1      -4.479   0.929   2.521  1.00  0.00    -0.205 F 
ATOM     57  C   UNL     1      -5.471  -2.082   4.338  1.00  0.00     0.022 A 
BRANCH  55  58
ATOM     58  S   UNL     1      -5.332   0.438   5.421  1.00  0.00     0.127 S 
ATOM     59  O   UNL     1      -6.775   0.657   5.451  1.00  0.00    -0.237 OA
ATOM     60  O   UNL     1      -4.800  -0.314   6.558  1.00  0.00    -0.237 OA
ATOM     61  O   UNL     1      -4.520   1.586   5.038  1.00  0.00    -0.744 OA
ENDBRANCH  55  58
ENDBRANCH  27  51
BRANCH  39  62
ATOM     62  C   UNL     1      -7.153  -1.655  -4.628  1.00  0.00     0.023 A 
ATOM     63  C   UNL     1      -8.369  -1.003  -4.344  1.00  0.00     0.012 A 
ATOM     64  C   UNL     1      -7.149  -2.788  -5.463  1.00  0.00     0.148 A 
ATOM     65  C   UNL     1      -9.569  -1.499  -4.848  1.00  0.00     0.002 A 
ATOM     66  C   UNL     1      -8.341  -3.241  -6.010  1.00  0.00     0.091 A 
ATOM     67  F   UNL     1      -5.981  -3.402  -5.704  1.00  0.00    -0.205 F 
ATOM     68  C   UNL     1      -9.554  -2.609  -5.691  1.00  0.00     0.022 A 
BRANCH  66  69
ATOM     69  S   UNL     1      -8.399  -4.592  -7.190  1.00  0.00     0.127 S 
ATOM     70  O   UNL     1      -8.984  -5.664  -6.386  1.00  0.00    -0.237 OA
ATOM     71  O   UNL     1      -9.280  -4.057  -8.229  1.00  0.00    -0.237 OA
ATOM     72  O   UNL     1      -7.024  -4.811  -7.618  1.00  0.00    -0.744 OA
ENDBRANCH  66  69
ENDBRANCH  39  62
ENDBRANCH  13  14
ENDBRANCH   6   8
ENDBRANCH   5   6
ENDBRANCH   4   5
ENDBRANCH   3   4
ENDBRANCH   2   3
ENDBRANCH   1   2
BRANCH   1  73
ATOM     73  C   UNL     1       6.187   0.527   4.003  1.00  0.00     0.188 C 
BRANCH  73  74
ATOM     74  O   UNL     1       6.103  -0.696   4.722  1.00  0.00    -0.376 OA
BRANCH  74  75
ATOM     75  C   UNL     1       5.399  -1.788   4.157  1.00  0.00     0.202 C 
BRANCH  75  76
ATOM     76  C   UNL     1       3.867  -1.726   4.168  1.00  0.00     0.261 C 
BRANCH  76  77
ATOM     77  O   UNL     1       3.302  -0.451   3.814  1.00  0.00    -0.462 OA
BRANCH  77  78
ATOM     78  C   UNL     1       2.930   0.300   4.891  1.00  0.00     0.331 C 
ATOM     79  O   UNL     1       3.135  -0.034   6.055  1.00  0.00    -0.250 OA
BRANCH  78  80
ATOM     80  C   UNL     1       2.218   1.609   4.510  1.00  0.00     0.216 C 
BRANCH  80  81
ATOM     81  N   UNL     1       2.374   2.572   5.609  1.00  0.00    -0.365 N 
ATOM     82  H   UNL     1       3.208   3.094   5.582  1.00  0.00     0.161 HD
BRANCH  81  83
ATOM     83  C   UNL     1       1.548   2.866   6.670  1.00  0.00     0.114 A 
ATOM     84  C   UNL     1       1.863   4.095   7.292  1.00  0.00     0.033 A 
ATOM     85  C   UNL     1       0.418   2.194   7.175  1.00  0.00     0.292 A 
ATOM     86  C   UNL     1       1.110   4.634   8.333  1.00  0.00     0.016 A 
ATOM     87  C   UNL     1      -0.370   2.747   8.211  1.00  0.00     0.101 A 
ATOM     88  C   UNL     1      -0.027   3.973   8.795  1.00  0.00     0.062 A 
BRANCH  85  89
ATOM     89  N   UNL     1       0.090   0.810   6.843  1.00  0.00     0.064 N 
ATOM     90  O   UNL     1       0.121  -0.003   7.781  1.00  0.00    -0.258 OA
ATOM     91  O   UNL     1      -0.217   0.534   5.678  1.00  0.00    -0.258 OA
ENDBRANCH  85  89
BRANCH  88  92
ATOM     92  C   UNL     1      -0.823   4.574   9.922  1.00  0.00     0.416 C 
ATOM     93  F   UNL     1      -0.071   4.718  11.052  1.00  0.00    -0.166 F 
ATOM     94  F   UNL     1      -1.278   5.824   9.628  1.00  0.00    -0.166 F 
ATOM     95  F   UNL     1      -1.909   3.847  10.290  1.00  0.00    -0.166 F 
ENDBRANCH  88  92
ENDBRANCH  81  83
ENDBRANCH  80  81
BRANCH  80  96
ATOM     96  C   UNL     1       2.766   2.294   3.247  1.00  0.00     0.193 C 
BRANCH  96  97
ATOM     97  O   UNL     1       2.225   3.610   3.071  1.00  0.00    -0.394 OA
ATOM     98  H   UNL     1       1.262   3.553   2.971  1.00  0.00     0.210 HD
ENDBRANCH  96  97
ENDBRANCH  80  96
ENDBRANCH  78  80
ENDBRANCH  77  78
ENDBRANCH  76  77
ENDBRANCH  75  76
ENDBRANCH  74  75
ENDBRANCH  73  74
ENDBRANCH   1  73
TORSDOF 26
