REMARK SMILES O=C(OCCOCCOCCOC(=O)[C@H]1Cc2cc(Cl)ccc2O1)c1ccc(-c2c3nc(c(-c4cccc(S(=O)(=O)[O-])c4F)c4ccc([nH]4)c(-c4cccc(S(=O)(=O)[O-])c4F)c4nc(c(-c5cccc(S(=O)(=O)[O-])c5F)c5ccc2[nH]5)C=C4)C=C3)cc1
REMARK SMILES IDX 6 1 5 2 4 3 3 4 2 5 1 6 25 7 26 8 87 9 27 10 86 11 28 12
REMARK SMILES IDX 29 13 30 14 80 15 31 16 85 17 79 18 81 19 32 20 84 21 78 22
REMARK SMILES IDX 77 23 33 25 65 26 45 27 64 28 46 29 49 30 63 31 82 32 47 33
REMARK SMILES IDX 48 34 62 36 83 37 50 38 34 39 35 40 43 41 36 42 38 43 44 44
REMARK SMILES IDX 37 45 39 46 40 47 41 48 42 49 66 50 67 51 75 52 68 53 70 54
REMARK SMILES IDX 76 55 69 56 71 57 72 58 73 59 74 60 51 61 52 62 60 63 53 64
REMARK SMILES IDX 55 65 61 66 54 67 56 68 57 69 58 70 59 71 7 72 8 73 9 74
REMARK SMILES IDX 10 75 11 76 12 77 13 78 14 79 15 80 16 81 24 82 17 83 23 84
REMARK SMILES IDX 18 85 22 86 19 87 21 88 20 89
REMARK H PARENT 81 24 49 35
REMARK Flexibility Score: inf
ROOT
ATOM      1  O   UNL     1       4.611   2.311  -7.350  1.00  0.00    -0.376 OA
ENDROOT
BRANCH   1   2
ATOM      2  C   UNL     1       4.913   3.247  -8.381  1.00  0.00     0.202 C 
BRANCH   2   3
ATOM      3  C   UNL     1       6.331   3.829  -8.407  1.00  0.00     0.261 C 
BRANCH   3   4
ATOM      4  O   UNL     1       7.331   3.101  -7.677  1.00  0.00    -0.460 OA
BRANCH   4   5
ATOM      5  C   UNL     1       7.644   3.106  -6.359  1.00  0.00     0.338 C 
ATOM      6  O   UNL     1       8.670   2.516  -6.016  1.00  0.00    -0.246 OA
BRANCH   5   7
ATOM      7  C   UNL     1       6.770   3.663  -5.274  1.00  0.00     0.060 A 
ATOM      8  C   UNL     1       7.005   3.206  -3.957  1.00  0.00     0.016 A 
ATOM      9  C   UNL     1       5.780   4.620  -5.447  1.00  0.00     0.016 A 
ATOM     10  C   UNL     1       6.242   3.652  -2.860  1.00  0.00     0.010 A 
ATOM     11  C   UNL     1       5.016   5.055  -4.359  1.00  0.00     0.010 A 
ATOM     12  C   UNL     1       5.209   4.565  -3.055  1.00  0.00    -0.014 A 
BRANCH  12  13
ATOM     13  C   UNL     1       4.421   5.179  -1.946  1.00  0.00     0.031 A 
ATOM     14  C   UNL     1       3.256   4.488  -1.278  1.00  0.00     0.074 A 
ATOM     15  C   UNL     1       4.668   6.475  -1.681  1.00  0.00     0.049 A 
ATOM     16  N   UNL     1       2.254   5.006  -0.612  1.00  0.00    -0.248 NA
ATOM     17  C   UNL     1       3.183   3.030  -1.407  1.00  0.00     0.031 C 
ATOM     18  C   UNL     1       5.782   7.245  -2.242  1.00  0.00     0.029 A 
ATOM     19  N   UNL     1       3.976   7.382  -0.926  1.00  0.00    -0.354 N 
ATOM     20  C   UNL     1       1.346   3.966  -0.388  1.00  0.00     0.074 A 
ATOM     21  C   UNL     1       1.975   2.772  -0.915  1.00  0.00     0.031 C 
ATOM     22  C   UNL     1       5.674   8.520  -1.845  1.00  0.00     0.029 A 
ATOM     23  C   UNL     1       4.490   8.653  -1.004  1.00  0.00     0.049 A 
ATOM     24  H   UNL     1       3.189   7.147  -0.383  1.00  0.00     0.167 HD
ATOM     25  C   UNL     1       0.100   4.034   0.161  1.00  0.00     0.034 A 
ATOM     26  C   UNL     1       4.064   9.804  -0.453  1.00  0.00     0.034 A 
ATOM     27  C   UNL     1      -0.409   5.228   0.803  1.00  0.00     0.049 A 
ATOM     28  C   UNL     1       2.829   9.794   0.389  1.00  0.00     0.074 A 
ATOM     29  C   UNL     1      -1.595   5.391   1.502  1.00  0.00     0.029 A 
ATOM     30  N   UNL     1       0.242   6.452   0.847  1.00  0.00    -0.354 N 
ATOM     31  N   UNL     1       1.980   8.815   0.579  1.00  0.00    -0.248 NA
ATOM     32  C   UNL     1       2.514  11.024   1.125  1.00  0.00     0.031 C 
ATOM     33  C   UNL     1      -1.667   6.711   1.953  1.00  0.00     0.029 A 
ATOM     34  C   UNL     1      -0.498   7.356   1.591  1.00  0.00     0.049 A 
ATOM     35  H   UNL     1       1.104   6.649   0.414  1.00  0.00     0.167 HD
ATOM     36  C   UNL     1       1.027   9.306   1.458  1.00  0.00     0.074 A 
ATOM     37  C   UNL     1       1.424  10.660   1.790  1.00  0.00     0.031 C 
ATOM     38  C   UNL     1      -0.085   8.693   1.929  1.00  0.00     0.034 A 
BRANCH  25  39
ATOM     39  C   UNL     1      -0.836   2.830   0.098  1.00  0.00     0.023 A 
ATOM     40  C   UNL     1      -0.514   1.603   0.705  1.00  0.00     0.012 A 
ATOM     41  C   UNL     1      -2.112   2.950  -0.509  1.00  0.00     0.148 A 
ATOM     42  C   UNL     1      -1.391   0.513   0.637  1.00  0.00     0.002 A 
ATOM     43  C   UNL     1      -2.988   1.869  -0.564  1.00  0.00     0.091 A 
ATOM     44  F   UNL     1      -2.467   4.135  -1.024  1.00  0.00    -0.205 F 
ATOM     45  C   UNL     1      -2.622   0.643  -0.002  1.00  0.00     0.022 A 
BRANCH  43  46
ATOM     46  S   UNL     1      -4.607   1.966  -1.347  1.00  0.00     0.127 S 
ATOM     47  O   UNL     1      -4.477   0.976  -2.418  1.00  0.00    -0.237 OA
ATOM     48  O   UNL     1      -5.498   1.568  -0.255  1.00  0.00    -0.237 OA
ATOM     49  O   UNL     1      -4.760   3.337  -1.802  1.00  0.00    -0.744 OA
ENDBRANCH  43  46
ENDBRANCH  25  39
BRANCH  26  50
ATOM     50  C   UNL     1       4.945  10.992  -0.569  1.00  0.00     0.023 A 
ATOM     51  C   UNL     1       5.877  11.215   0.463  1.00  0.00     0.012 A 
ATOM     52  C   UNL     1       5.005  11.761  -1.745  1.00  0.00     0.148 A 
ATOM     53  C   UNL     1       6.870  12.181   0.321  1.00  0.00     0.002 A 
ATOM     54  C   UNL     1       6.017  12.703  -1.891  1.00  0.00     0.091 A 
ATOM     55  F   UNL     1       4.121  11.503  -2.719  1.00  0.00    -0.205 F 
ATOM     56  C   UNL     1       6.947  12.915  -0.859  1.00  0.00     0.022 A 
BRANCH  54  57
ATOM     57  S   UNL     1       6.281  13.624  -3.410  1.00  0.00     0.127 S 
ATOM     58  O   UNL     1       6.171  15.005  -2.945  1.00  0.00    -0.237 OA
ATOM     59  O   UNL     1       7.633  13.204  -3.779  1.00  0.00    -0.237 OA
ATOM     60  O   UNL     1       5.235  13.192  -4.326  1.00  0.00    -0.744 OA
ENDBRANCH  54  57
ENDBRANCH  26  50
BRANCH  38  61
ATOM     61  C   UNL     1      -0.966   9.475   2.864  1.00  0.00     0.023 A 
ATOM     62  C   UNL     1      -1.807  10.479   2.348  1.00  0.00     0.012 A 
ATOM     63  C   UNL     1      -1.019   9.159   4.236  1.00  0.00     0.148 A 
ATOM     64  C   UNL     1      -2.672  11.178   3.189  1.00  0.00     0.002 A 
ATOM     65  C   UNL     1      -1.905   9.839   5.063  1.00  0.00     0.091 A 
ATOM     66  F   UNL     1      -0.203   8.204   4.704  1.00  0.00    -0.205 F 
ATOM     67  C   UNL     1      -2.727  10.853   4.543  1.00  0.00     0.022 A 
BRANCH  65  68
ATOM     68  S   UNL     1      -2.086   9.457   6.809  1.00  0.00     0.127 S 
ATOM     69  O   UNL     1      -1.511  10.648   7.434  1.00  0.00    -0.237 OA
ATOM     70  O   UNL     1      -3.537   9.335   6.951  1.00  0.00    -0.237 OA
ATOM     71  O   UNL     1      -1.348   8.222   7.032  1.00  0.00    -0.744 OA
ENDBRANCH  65  68
ENDBRANCH  38  61
ENDBRANCH  12  13
ENDBRANCH   5   7
ENDBRANCH   4   5
ENDBRANCH   3   4
ENDBRANCH   2   3
ENDBRANCH   1   2
BRANCH   1  72
ATOM     72  C   UNL     1       5.283   1.052  -7.463  1.00  0.00     0.188 C 
BRANCH  72  73
ATOM     73  C   UNL     1       4.331  -0.117  -7.194  1.00  0.00     0.188 C 
BRANCH  73  74
ATOM     74  O   UNL     1       3.592  -0.593  -8.321  1.00  0.00    -0.376 OA
BRANCH  74  75
ATOM     75  C   UNL     1       2.765   0.337  -9.014  1.00  0.00     0.202 C 
BRANCH  75  76
ATOM     76  C   UNL     1       1.413   0.663  -8.378  1.00  0.00     0.261 C 
BRANCH  76  77
ATOM     77  O   UNL     1       1.552   1.247  -7.082  1.00  0.00    -0.460 OA
BRANCH  77  78
ATOM     78  C   UNL     1       1.225   0.450  -6.029  1.00  0.00     0.347 C 
ATOM     79  O   UNL     1       0.815  -0.703  -6.132  1.00  0.00    -0.248 OA
BRANCH  78  80
ATOM     80  C   UNL     1       1.492   1.124  -4.690  1.00  0.00     0.287 C 
ATOM     81  C   UNL     1       2.341   2.403  -4.741  1.00  0.00     0.097 C 
ATOM     82  O   UNL     1       0.223   1.394  -4.064  1.00  0.00    -0.478 OA
ATOM     83  C   UNL     1       1.328   3.398  -4.339  1.00  0.00    -0.000 A 
ATOM     84  C   UNL     1       0.161   2.755  -3.978  1.00  0.00     0.124 A 
ATOM     85  C   UNL     1       1.434   4.772  -4.229  1.00  0.00     0.028 A 
ATOM     86  C   UNL     1      -0.938   3.453  -3.531  1.00  0.00     0.048 A 
ATOM     87  C   UNL     1       0.362   5.490  -3.703  1.00  0.00     0.041 A 
ATOM     88  C   UNL     1      -0.825   4.838  -3.367  1.00  0.00     0.024 A 
ATOM     89  Cl  UNL     1       0.528   7.184  -3.452  1.00  0.00    -0.084 Cl
ENDBRANCH  78  80
ENDBRANCH  77  78
ENDBRANCH  76  77
ENDBRANCH  75  76
ENDBRANCH  74  75
ENDBRANCH  73  74
ENDBRANCH  72  73
ENDBRANCH   1  72
TORSDOF 20
