REMARK SMILES COc1ccc(N(CN2C(=O)CC[C@H]2C(=O)OCCOCCOCCOC(=O)c2ccc(-c3c4nc(c(-c5cccc(S(=O)(=O)[O-])c5F)c5ccc([nH]5)c(-c5cccc(S(=O)(=O)[O-])c5F)c5nc(c(-c6cccc(S(=O)(=O)[O-])c6F)c6ccc3[nH]6)C=C5)C=C4)cc2)C(C)=O)cc1
REMARK SMILES IDX 21 1 20 2 19 3 18 4 17 5 15 6 16 7 14 8 9 9 10 10 11 11
REMARK SMILES IDX 12 12 13 13 8 14 7 15 6 16 3 17 4 18 96 19 5 20 95 21 2 22
REMARK SMILES IDX 1 23 92 24 93 25 94 26 22 27 23 28 24 29 25 30 26 31 27 32
REMARK SMILES IDX 28 33 29 34 30 35 91 36 31 37 90 38 32 39 33 40 34 41 84 42
REMARK SMILES IDX 35 43 89 44 83 45 85 46 36 47 88 48 82 49 81 50 37 52 69 53
REMARK SMILES IDX 49 54 68 55 50 56 53 57 67 58 86 59 51 60 52 61 66 63 87 64
REMARK SMILES IDX 54 65 38 66 39 67 47 68 40 69 42 70 48 71 41 72 43 73 44 74
REMARK SMILES IDX 45 75 46 76 70 77 71 78 79 79 72 80 74 81 80 82 73 83 75 84
REMARK SMILES IDX 76 85 77 86 78 87 55 88 56 89 64 90 57 91 59 92 65 93 58 94
REMARK SMILES IDX 60 95 61 96 62 97 63 98
REMARK H PARENT 85 51 53 62
REMARK Flexibility Score: inf
ROOT
ATOM      1  C   UNL     1      -2.632   6.849   3.668  1.00  0.00     0.188 C 
ENDROOT
BRANCH   1   2
ATOM      2  O   UNL     1      -3.416   5.842   3.054  1.00  0.00    -0.376 OA
BRANCH   2   3
ATOM      3  C   UNL     1      -2.841   4.596   2.719  1.00  0.00     0.202 C 
BRANCH   3   4
ATOM      4  C   UNL     1      -1.565   4.536   1.875  1.00  0.00     0.261 C 
BRANCH   4   5
ATOM      5  O   UNL     1      -0.490   5.416   2.243  1.00  0.00    -0.462 OA
BRANCH   5   6
ATOM      6  C   UNL     1      -0.370   6.544   1.484  1.00  0.00     0.329 C 
ATOM      7  O   UNL     1      -1.169   6.886   0.621  1.00  0.00    -0.250 OA
BRANCH   6   8
ATOM      8  C   UNL     1       0.886   7.341   1.857  1.00  0.00     0.197 C 
ATOM      9  N   UNL     1       1.405   8.038   0.694  1.00  0.00    -0.311 N 
ATOM     10  C   UNL     1       1.551   9.397   0.887  1.00  0.00     0.224 C 
ATOM     11  O   UNL     1       1.864  10.228   0.053  1.00  0.00    -0.275 OA
ATOM     12  C   UNL     1       1.356   9.677   2.351  1.00  0.00     0.103 C 
ATOM     13  C   UNL     1       0.603   8.458   2.858  1.00  0.00     0.047 C 
BRANCH   9  14
ATOM     14  C   UNL     1       1.732   7.372  -0.560  1.00  0.00     0.249 C 
BRANCH  14  15
ATOM     15  N   UNL     1       2.560   6.180  -0.331  1.00  0.00    -0.294 N 
BRANCH  15  16
ATOM     16  C   UNL     1       2.018   4.850  -0.534  1.00  0.00     0.046 A 
ATOM     17  C   UNL     1       0.898   2.212  -0.717  1.00  0.00     0.119 A 
ATOM     18  C   UNL     1       0.121   3.334  -0.954  1.00  0.00     0.048 A 
ATOM     19  C   UNL     1       2.254   2.394  -0.500  1.00  0.00     0.048 A 
ATOM     20  C   UNL     1       0.671   4.626  -0.866  1.00  0.00     0.030 A 
ATOM     21  C   UNL     1       2.800   3.690  -0.447  1.00  0.00     0.030 A 
BRANCH  17  22
ATOM     22  O   UNL     1       0.256   1.010  -0.791  1.00  0.00    -0.497 OA
ATOM     23  C   UNL     1       0.819  -0.045  -0.018  1.00  0.00     0.278 C 
ENDBRANCH  17  22
ENDBRANCH  15  16
BRANCH  15  24
ATOM     24  C   UNL     1       3.845   6.519   0.119  1.00  0.00     0.225 C 
ATOM     25  C   UNL     1       4.649   5.561   0.957  1.00  0.00     0.115 C 
ATOM     26  O   UNL     1       4.337   7.639  -0.059  1.00  0.00    -0.275 OA
ENDBRANCH  15  24
ENDBRANCH  14  15
ENDBRANCH   9  14
ENDBRANCH   6   8
ENDBRANCH   5   6
ENDBRANCH   4   5
ENDBRANCH   3   4
ENDBRANCH   2   3
ENDBRANCH   1   2
BRANCH   1  27
ATOM     27  C   UNL     1      -1.583   6.478   4.739  1.00  0.00     0.188 C 
BRANCH  27  28
ATOM     28  O   UNL     1      -1.647   5.175   5.255  1.00  0.00    -0.376 OA
BRANCH  28  29
ATOM     29  C   UNL     1      -2.549   4.846   6.290  1.00  0.00     0.202 C 
BRANCH  29  30
ATOM     30  C   UNL     1      -3.672   5.745   6.847  1.00  0.00     0.261 C 
BRANCH  30  31
ATOM     31  O   UNL     1      -3.887   7.039   6.281  1.00  0.00    -0.460 OA
BRANCH  31  32
ATOM     32  C   UNL     1      -3.300   8.088   6.912  1.00  0.00     0.338 C 
ATOM     33  O   UNL     1      -2.556   8.035   7.870  1.00  0.00    -0.246 OA
BRANCH  32  34
ATOM     34  C   UNL     1      -3.544   9.315   6.114  1.00  0.00     0.060 A 
ATOM     35  C   UNL     1      -2.448   9.996   5.564  1.00  0.00     0.016 A 
ATOM     36  C   UNL     1      -4.840   9.793   5.915  1.00  0.00     0.016 A 
ATOM     37  C   UNL     1      -2.644  11.181   4.847  1.00  0.00     0.010 A 
ATOM     38  C   UNL     1      -5.032  10.990   5.214  1.00  0.00     0.010 A 
ATOM     39  C   UNL     1      -3.934  11.709   4.706  1.00  0.00    -0.014 A 
BRANCH  39  40
ATOM     40  C   UNL     1      -4.130  13.093   4.200  1.00  0.00     0.031 A 
ATOM     41  C   UNL     1      -4.352  14.198   5.199  1.00  0.00     0.074 A 
ATOM     42  C   UNL     1      -4.138  13.375   2.884  1.00  0.00     0.049 A 
ATOM     43  N   UNL     1      -4.618  15.463   4.999  1.00  0.00    -0.248 NA
ATOM     44  C   UNL     1      -4.268  13.818   6.619  1.00  0.00     0.031 C 
ATOM     45  C   UNL     1      -3.914  12.411   1.810  1.00  0.00     0.029 A 
ATOM     46  N   UNL     1      -4.373  14.562   2.231  1.00  0.00    -0.354 N 
ATOM     47  C   UNL     1      -4.769  16.023   6.262  1.00  0.00     0.074 A 
ATOM     48  C   UNL     1      -4.575  14.957   7.221  1.00  0.00     0.031 C 
ATOM     49  C   UNL     1      -4.049  13.039   0.628  1.00  0.00     0.029 A 
ATOM     50  C   UNL     1      -4.402  14.439   0.862  1.00  0.00     0.049 A 
ATOM     51  H   UNL     1      -4.508  15.417   2.699  1.00  0.00     0.167 HD
ATOM     52  C   UNL     1      -5.035  17.308   6.599  1.00  0.00     0.034 A 
ATOM     53  C   UNL     1      -4.704  15.345  -0.092  1.00  0.00     0.034 A 
ATOM     54  C   UNL     1      -5.226  18.370   5.649  1.00  0.00     0.049 A 
ATOM     55  C   UNL     1      -5.049  16.759   0.306  1.00  0.00     0.074 A 
ATOM     56  C   UNL     1      -5.461  19.712   5.895  1.00  0.00     0.029 A 
ATOM     57  N   UNL     1      -5.228  18.211   4.272  1.00  0.00    -0.354 N 
ATOM     58  N   UNL     1      -5.089  17.298   1.500  1.00  0.00    -0.248 NA
ATOM     59  C   UNL     1      -5.364  17.698  -0.783  1.00  0.00     0.031 C 
ATOM     60  C   UNL     1      -5.648  20.355   4.667  1.00  0.00     0.029 A 
ATOM     61  C   UNL     1      -5.481  19.425   3.654  1.00  0.00     0.049 A 
ATOM     62  H   UNL     1      -5.072  17.360   3.802  1.00  0.00     0.167 HD
ATOM     63  C   UNL     1      -5.391  18.643   1.306  1.00  0.00     0.074 A 
ATOM     64  C   UNL     1      -5.512  18.840  -0.124  1.00  0.00     0.031 C 
ATOM     65  C   UNL     1      -5.558  19.625   2.228  1.00  0.00     0.034 A 
BRANCH  52  66
ATOM     66  C   UNL     1      -5.137  17.628   8.069  1.00  0.00     0.023 A 
ATOM     67  C   UNL     1      -3.983  17.595   8.880  1.00  0.00     0.012 A 
ATOM     68  C   UNL     1      -6.374  17.977   8.646  1.00  0.00     0.148 A 
ATOM     69  C   UNL     1      -4.067  17.852  10.248  1.00  0.00     0.002 A 
ATOM     70  C   UNL     1      -6.441  18.282  10.000  1.00  0.00     0.091 A 
ATOM     71  F   UNL     1      -7.465  17.984   7.867  1.00  0.00    -0.205 F 
ATOM     72  C   UNL     1      -5.293  18.203  10.806  1.00  0.00     0.022 A 
BRANCH  70  73
ATOM     73  S   UNL     1      -7.958  18.822  10.795  1.00  0.00     0.127 S 
ATOM     74  O   UNL     1      -8.307  17.648  11.594  1.00  0.00    -0.237 OA
ATOM     75  O   UNL     1      -7.504  19.975  11.573  1.00  0.00    -0.237 OA
ATOM     76  O   UNL     1      -8.883  19.145   9.717  1.00  0.00    -0.744 OA
ENDBRANCH  70  73
ENDBRANCH  52  66
BRANCH  53  77
ATOM     77  C   UNL     1      -4.663  14.952  -1.530  1.00  0.00     0.023 A 
ATOM     78  C   UNL     1      -3.658  15.478  -2.364  1.00  0.00     0.012 A 
ATOM     79  C   UNL     1      -5.603  14.052  -2.071  1.00  0.00     0.148 A 
ATOM     80  C   UNL     1      -3.602  15.134  -3.715  1.00  0.00     0.002 A 
ATOM     81  C   UNL     1      -5.510  13.673  -3.405  1.00  0.00     0.091 A 
ATOM     82  F   UNL     1      -6.561  13.576  -1.264  1.00  0.00    -0.205 F 
ATOM     83  C   UNL     1      -4.520  14.225  -4.233  1.00  0.00     0.022 A 
BRANCH  81  84
ATOM     84  S   UNL     1      -6.579  12.428  -4.137  1.00  0.00     0.127 S 
ATOM     85  O   UNL     1      -7.302  13.206  -5.141  1.00  0.00    -0.237 OA
ATOM     86  O   UNL     1      -5.606  11.479  -4.677  1.00  0.00    -0.237 OA
ATOM     87  O   UNL     1      -7.391  11.909  -3.045  1.00  0.00    -0.744 OA
ENDBRANCH  81  84
ENDBRANCH  53  77
BRANCH  65  88
ATOM     88  C   UNL     1      -5.845  21.022   1.733  1.00  0.00     0.023 A 
ATOM     89  C   UNL     1      -7.097  21.330   1.165  1.00  0.00     0.012 A 
ATOM     90  C   UNL     1      -4.896  22.051   1.905  1.00  0.00     0.148 A 
ATOM     91  C   UNL     1      -7.387  22.629   0.745  1.00  0.00     0.002 A 
ATOM     92  C   UNL     1      -5.211  23.353   1.534  1.00  0.00     0.091 A 
ATOM     93  F   UNL     1      -3.704  21.739   2.434  1.00  0.00    -0.205 F 
ATOM     94  C   UNL     1      -6.450  23.641   0.940  1.00  0.00     0.022 A 
BRANCH  92  95
ATOM     95  S   UNL     1      -4.109  24.739   1.838  1.00  0.00     0.127 S 
ATOM     96  O   UNL     1      -3.682  25.085   0.483  1.00  0.00    -0.237 OA
ATOM     97  O   UNL     1      -5.004  25.714   2.462  1.00  0.00    -0.237 OA
ATOM     98  O   UNL     1      -3.059  24.236   2.713  1.00  0.00    -0.744 OA
ENDBRANCH  92  95
ENDBRANCH  65  88
ENDBRANCH  39  40
ENDBRANCH  32  34
ENDBRANCH  31  32
ENDBRANCH  30  31
ENDBRANCH  29  30
ENDBRANCH  28  29
ENDBRANCH  27  28
ENDBRANCH   1  27
TORSDOF 25
