REMARK SMILES CC(=O)O[C@@H]1CC[C@@]23C(=O)O[C@]4(CC[C@]2(O)C1)[C@H]3CC[C@]1(C)[C@H](C(=O)OCCOCCOCCOC(=O)c2ccc(-c3c5nc(c(-c6cccc(S(=O)(=O)[O-])c6F)c6ccc([nH]6)c(-c6cccc(S(=O)(=O)[O-])c6F)c6nc(c(-c7cccc(S(=O)(=O)[O-])c7F)c7ccc3[nH]7)C=C6)C=C5)cc2)CC[C@@H]14
REMARK SMILES IDX 31 1 30 2 29 3 28 4 27 5 26 6 24 7 25 8 23 9 5 10 6 11 17 12
REMARK SMILES IDX 7 13 15 14 8 15 14 16 9 17 18 18 13 19 10 20 11 21 12 22
REMARK SMILES IDX 19 23 103 24 20 25 21 26 102 27 22 28 101 29 4 30 2 31 1 32
REMARK SMILES IDX 3 33 16 34 32 36 33 37 34 38 35 39 36 40 37 41 38 42 39 43
REMARK SMILES IDX 100 44 40 45 99 46 41 47 42 48 43 49 93 50 44 51 98 52 92 53
REMARK SMILES IDX 94 54 45 55 97 56 91 57 90 58 46 60 78 61 58 62 77 63 59 64
REMARK SMILES IDX 62 65 76 66 95 67 60 68 61 69 75 71 96 72 63 73 47 74 48 75
REMARK SMILES IDX 56 76 49 77 51 78 57 79 50 80 52 81 53 82 54 83 55 84 79 85
REMARK SMILES IDX 80 86 88 87 81 88 83 89 89 90 82 91 84 92 85 93 86 94 87 95
REMARK SMILES IDX 64 96 65 97 73 98 66 99 68 100 74 101 67 102 69 103 70 104
REMARK SMILES IDX 71 105 72 106
REMARK H PARENT 16 35 94 59 62 70
REMARK Flexibility Score: inf
ROOT
ATOM      1  C   UNL     1      -6.503   9.922  -1.180  1.00  0.00     0.188 C 
ENDROOT
BRANCH   1   2
ATOM      2  C   UNL     1      -5.734  11.186  -0.783  1.00  0.00     0.188 C 
BRANCH   2   3
ATOM      3  O   UNL     1      -5.302  12.098  -1.789  1.00  0.00    -0.376 OA
BRANCH   3   4
ATOM      4  C   UNL     1      -5.185  11.672  -3.138  1.00  0.00     0.202 C 
BRANCH   4   5
ATOM      5  C   UNL     1      -4.107  10.626  -3.458  1.00  0.00     0.261 C 
BRANCH   5   6
ATOM      6  O   UNL     1      -4.140   9.447  -2.623  1.00  0.00    -0.463 OA
BRANCH   6   7
ATOM      7  C   UNL     1      -3.138   9.336  -1.722  1.00  0.00     0.309 C 
ATOM      8  O   UNL     1      -2.182  10.110  -1.695  1.00  0.00    -0.252 OA
BRANCH   7   9
ATOM      9  C   UNL     1      -3.319   8.266  -0.621  1.00  0.00     0.105 C 
ATOM     10  C   UNL     1       0.094   1.575  -3.034  1.00  0.00     0.179 C 
ATOM     11  C   UNL     1       0.288   3.063  -3.205  1.00  0.00     0.047 C 
ATOM     12  C   UNL     1      -1.380   1.231  -3.287  1.00  0.00     0.081 C 
ATOM     13  C   UNL     1      -0.680   3.787  -2.288  1.00  0.00     0.026 C 
ATOM     14  C   UNL     1      -2.449   2.095  -2.575  1.00  0.00     0.085 C 
ATOM     15  C   UNL     1      -2.354   3.570  -2.757  1.00  0.00     0.103 C 
ATOM     16  C   UNL     1      -2.414   1.998  -0.980  1.00  0.00     0.041 C 
ATOM     17  C   UNL     1      -2.307   4.895  -3.286  1.00  0.00     0.316 C 
ATOM     18  C   UNL     1      -3.771   4.095  -1.899  1.00  0.00     0.054 C 
ATOM     19  C   UNL     1      -2.455   3.428  -0.167  1.00  0.00     0.052 C 
ATOM     20  O   UNL     1      -2.138   5.348  -4.418  1.00  0.00    -0.251 OA
ATOM     21  O   UNL     1      -2.229   5.563  -2.049  1.00  0.00    -0.458 OA
ATOM     22  C   UNL     1      -2.895   4.774  -0.963  1.00  0.00     0.120 C 
ATOM     23  C   UNL     1      -4.891   5.044  -2.406  1.00  0.00     0.009 C 
ATOM     24  C   UNL     1      -3.308   5.843   0.004  1.00  0.00     0.040 C 
ATOM     25  C   UNL     1      -4.755   6.551  -2.065  1.00  0.00     0.008 C 
ATOM     26  C   UNL     1      -4.207   6.939  -0.651  1.00  0.00    -0.013 C 
ATOM     27  C   UNL     1      -2.050   6.561   0.525  1.00  0.00     0.009 C 
ATOM     28  C   UNL     1      -5.388   7.018   0.355  1.00  0.00     0.013 C 
ATOM     29  C   UNL     1      -1.887   7.774  -0.354  1.00  0.00     0.016 C 
BRANCH  10  30
ATOM     30  O   UNL     1       0.514   1.267  -1.687  1.00  0.00    -0.462 OA
BRANCH  30  31
ATOM     31  C   UNL     1       0.803  -0.024  -1.390  1.00  0.00     0.302 C 
ATOM     32  C   UNL     1       1.231  -0.135   0.045  1.00  0.00     0.139 C 
ATOM     33  O   UNL     1       0.746  -0.959  -2.173  1.00  0.00    -0.253 OA
ENDBRANCH  30  31
ENDBRANCH  10  30
BRANCH  14  34
ATOM     34  O   UNL     1      -3.717   1.631  -3.054  1.00  0.00    -0.389 OA
ATOM     35  H   UNL     1      -4.427   2.143  -2.636  1.00  0.00     0.211 HD
ENDBRANCH  14  34
ENDBRANCH   7   9
ENDBRANCH   6   7
ENDBRANCH   5   6
ENDBRANCH   4   5
ENDBRANCH   3   4
ENDBRANCH   2   3
ENDBRANCH   1   2
BRANCH   1  36
ATOM     36  O   UNL     1      -7.280  10.081  -2.345  1.00  0.00    -0.376 OA
BRANCH  36  37
ATOM     37  C   UNL     1      -8.658   9.803  -2.240  1.00  0.00     0.202 C 
BRANCH  37  38
ATOM     38  C   UNL     1      -9.451  10.762  -1.343  1.00  0.00     0.261 C 
BRANCH  38  39
ATOM     39  O   UNL     1      -8.908  11.025  -0.034  1.00  0.00    -0.460 OA
BRANCH  39  40
ATOM     40  C   UNL     1      -8.990  10.032   0.882  1.00  0.00     0.338 C 
ATOM     41  O   UNL     1      -9.456   8.920   0.704  1.00  0.00    -0.246 OA
BRANCH  40  42
ATOM     42  C   UNL     1      -8.223  10.436   2.086  1.00  0.00     0.060 A 
ATOM     43  C   UNL     1      -7.189   9.607   2.541  1.00  0.00     0.016 A 
ATOM     44  C   UNL     1      -8.544  11.598   2.786  1.00  0.00     0.016 A 
ATOM     45  C   UNL     1      -6.509   9.907   3.725  1.00  0.00     0.010 A 
ATOM     46  C   UNL     1      -7.875  11.890   3.981  1.00  0.00     0.010 A 
ATOM     47  C   UNL     1      -6.886  11.022   4.481  1.00  0.00    -0.014 A 
BRANCH  47  48
ATOM     48  C   UNL     1      -6.395  11.173   5.877  1.00  0.00     0.031 A 
ATOM     49  C   UNL     1      -7.329  10.827   7.008  1.00  0.00     0.074 A 
ATOM     50  C   UNL     1      -5.147  11.599   6.146  1.00  0.00     0.049 A 
ATOM     51  N   UNL     1      -7.152  10.943   8.299  1.00  0.00    -0.248 NA
ATOM     52  C   UNL     1      -8.643  10.280   6.630  1.00  0.00     0.031 C 
ATOM     53  C   UNL     1      -4.136  11.944   5.149  1.00  0.00     0.029 A 
ATOM     54  N   UNL     1      -4.529  11.839   7.350  1.00  0.00    -0.354 N 
ATOM     55  C   UNL     1      -8.344  10.531   8.884  1.00  0.00     0.074 A 
ATOM     56  C   UNL     1      -9.239  10.165   7.808  1.00  0.00     0.031 C 
ATOM     57  C   UNL     1      -3.032  12.381   5.780  1.00  0.00     0.029 A 
ATOM     58  C   UNL     1      -3.270  12.379   7.223  1.00  0.00     0.049 A 
ATOM     59  H   UNL     1      -4.947  11.643   8.219  1.00  0.00     0.167 HD
ATOM     60  C   UNL     1      -8.665  10.452  10.197  1.00  0.00     0.034 A 
ATOM     61  C   UNL     1      -2.421  12.847   8.160  1.00  0.00     0.034 A 
ATOM     62  C   UNL     1      -7.768  10.790  11.268  1.00  0.00     0.049 A 
ATOM     63  C   UNL     1      -2.810  12.773   9.616  1.00  0.00     0.074 A 
ATOM     64  C   UNL     1      -7.985  10.699  12.632  1.00  0.00     0.029 A 
ATOM     65  N   UNL     1      -6.489  11.296  11.100  1.00  0.00    -0.354 N 
ATOM     66  N   UNL     1      -3.903  12.290  10.157  1.00  0.00    -0.248 NA
ATOM     67  C   UNL     1      -1.834  13.280  10.592  1.00  0.00     0.031 C 
ATOM     68  C   UNL     1      -6.850  11.186  13.288  1.00  0.00     0.029 A 
ATOM     69  C   UNL     1      -5.909  11.536  12.334  1.00  0.00     0.049 A 
ATOM     70  H   UNL     1      -6.057  11.461  10.231  1.00  0.00     0.167 HD
ATOM     71  C   UNL     1      -3.729  12.399  11.533  1.00  0.00     0.074 A 
ATOM     72  C   UNL     1      -2.418  12.976  11.743  1.00  0.00     0.031 C 
ATOM     73  C   UNL     1      -4.582  12.062  12.533  1.00  0.00     0.034 A 
BRANCH  60  74
ATOM     74  C   UNL     1     -10.050   9.975  10.550  1.00  0.00     0.023 A 
ATOM     75  C   UNL     1     -10.400   8.622  10.362  1.00  0.00     0.012 A 
ATOM     76  C   UNL     1     -10.992  10.860  11.111  1.00  0.00     0.148 A 
ATOM     77  C   UNL     1     -11.677   8.167  10.692  1.00  0.00     0.002 A 
ATOM     78  C   UNL     1     -12.245  10.388  11.483  1.00  0.00     0.091 A 
ATOM     79  F   UNL     1     -10.648  12.147  11.262  1.00  0.00    -0.205 F 
ATOM     80  C   UNL     1     -12.594   9.046  11.261  1.00  0.00     0.022 A 
BRANCH  78  81
ATOM     81  S   UNL     1     -13.466  11.422  12.299  1.00  0.00     0.127 S 
ATOM     82  O   UNL     1     -14.483  11.553  11.257  1.00  0.00    -0.237 OA
ATOM     83  O   UNL     1     -13.862  10.589  13.435  1.00  0.00    -0.237 OA
ATOM     84  O   UNL     1     -12.777  12.653  12.657  1.00  0.00    -0.744 OA
ENDBRANCH  78  81
ENDBRANCH  60  74
BRANCH  61  85
ATOM     85  C   UNL     1      -1.103  13.417   7.758  1.00  0.00     0.023 A 
ATOM     86  C   UNL     1       0.085  12.738   8.095  1.00  0.00     0.012 A 
ATOM     87  C   UNL     1      -1.021  14.627   7.042  1.00  0.00     0.148 A 
ATOM     88  C   UNL     1       1.330  13.270   7.755  1.00  0.00     0.002 A 
ATOM     89  C   UNL     1       0.219  15.122   6.657  1.00  0.00     0.091 A 
ATOM     90  F   UNL     1      -2.161  15.268   6.748  1.00  0.00    -0.205 F 
ATOM     91  C   UNL     1       1.396  14.455   7.027  1.00  0.00     0.022 A 
BRANCH  89  92
ATOM     92  S   UNL     1       0.398  16.576   5.617  1.00  0.00     0.127 S 
ATOM     93  O   UNL     1       1.012  17.528   6.539  1.00  0.00    -0.237 OA
ATOM     94  O   UNL     1       1.282  16.081   4.562  1.00  0.00    -0.237 OA
ATOM     95  O   UNL     1      -0.948  16.909   5.171  1.00  0.00    -0.744 OA
ENDBRANCH  89  92
ENDBRANCH  61  85
BRANCH  73  96
ATOM     96  C   UNL     1      -4.112  12.252  13.953  1.00  0.00     0.023 A 
ATOM     97  C   UNL     1      -3.977  13.549  14.488  1.00  0.00     0.012 A 
ATOM     98  C   UNL     1      -3.870  11.136  14.780  1.00  0.00     0.148 A 
ATOM     99  C   UNL     1      -3.570  13.732  15.810  1.00  0.00     0.002 A 
ATOM    100  C   UNL     1      -3.518  11.325  16.111  1.00  0.00     0.091 A 
ATOM    101  F   UNL     1      -3.988   9.910  14.250  1.00  0.00    -0.205 F 
ATOM    102  C   UNL     1      -3.353  12.622  16.624  1.00  0.00     0.022 A 
BRANCH 100 103
ATOM    103  S   UNL     1      -3.316   9.957  17.258  1.00  0.00     0.127 S 
ATOM    104  O   UNL     1      -1.867   9.940  17.449  1.00  0.00    -0.237 OA
ATOM    105  O   UNL     1      -4.080  10.411  18.420  1.00  0.00    -0.237 OA
ATOM    106  O   UNL     1      -3.871   8.788  16.589  1.00  0.00    -0.744 OA
ENDBRANCH 100 103
ENDBRANCH  73  96
ENDBRANCH  47  48
ENDBRANCH  40  42
ENDBRANCH  39  40
ENDBRANCH  38  39
ENDBRANCH  37  38
ENDBRANCH  36  37
ENDBRANCH   1  36
TORSDOF 23
