REMARK SMILES Cc1ccc(Cl)c(Nc2ccccc2C(=O)NCC(=O)OCCOCCOCCOC(=O)c2ccc(-c3c4nc(c(-c5cccc(S(=O)(=O)[O-])c5F)c5ccc([nH]5)c(-c5cccc(S(=O)(=O)[O-])c5F)c5nc(c(-c6cccc(S(=O)(=O)[O-])c6F)c6ccc3[nH]6)C=C5)C=C4)cc2)c1Cl
REMARK SMILES IDX 25 1 24 2 23 3 22 4 21 5 19 6 20 7 18 8 17 9 15 10 16 11
REMARK SMILES IDX 14 13 9 14 10 15 11 16 13 17 12 18 8 19 7 21 1 22 2 23 3 24
REMARK SMILES IDX 96 25 4 26 97 27 5 28 6 29 26 30 27 31 28 32 29 33 30 34
REMARK SMILES IDX 31 35 32 36 33 37 34 38 95 39 35 40 94 41 36 42 37 43 38 44
REMARK SMILES IDX 88 45 39 46 93 47 87 48 89 49 40 50 92 51 86 52 85 53 41 55
REMARK SMILES IDX 73 56 53 57 72 58 54 59 57 60 71 61 90 62 55 63 56 64 70 66
REMARK SMILES IDX 91 67 58 68 42 69 43 70 51 71 44 72 46 73 52 74 45 75 47 76
REMARK SMILES IDX 48 77 49 78 50 79 74 80 75 81 83 82 76 83 78 84 84 85 77 86
REMARK SMILES IDX 79 87 80 88 81 89 82 90 59 91 60 92 68 93 61 94 63 95 69 96
REMARK SMILES IDX 62 97 64 98 65 99 66 100 67 101
REMARK H PARENT 17 12 8 20 89 54 57 65
REMARK Flexibility Score: inf
ROOT
ATOM      1  C   UNL     1      -3.339   0.172   2.679  1.00  0.00     0.188 C 
ENDROOT
BRANCH   1   2
ATOM      2  O   UNL     1      -4.417  -0.177   3.523  1.00  0.00    -0.376 OA
BRANCH   2   3
ATOM      3  C   UNL     1      -5.078  -1.421   3.318  1.00  0.00     0.202 C 
BRANCH   3   4
ATOM      4  C   UNL     1      -4.415  -2.583   2.562  1.00  0.00     0.261 C 
BRANCH   4   5
ATOM      5  O   UNL     1      -2.981  -2.587   2.585  1.00  0.00    -0.462 OA
BRANCH   5   6
ATOM      6  C   UNL     1      -2.460  -3.019   1.408  1.00  0.00     0.325 C 
ATOM      7  O   UNL     1      -3.107  -3.627   0.555  1.00  0.00    -0.250 OA
BRANCH   6   8
ATOM      8  C   UNL     1      -1.116  -2.412   1.062  1.00  0.00     0.239 C 
BRANCH   8   9
ATOM      9  N   UNL     1       0.042  -2.269   1.917  1.00  0.00    -0.341 N 
ATOM     10  C   UNL     1       1.359  -2.423   1.518  1.00  0.00     0.253 C 
ATOM     11  O   UNL     1       2.264  -1.995   2.233  1.00  0.00    -0.269 OA
ATOM     12  H   UNL     1      -0.119  -2.045   2.862  1.00  0.00     0.164 HD
BRANCH  10  13
ATOM     13  C   UNL     1       1.698  -3.307   0.358  1.00  0.00     0.063 A 
ATOM     14  C   UNL     1       1.202  -3.225  -0.963  1.00  0.00     0.051 A 
ATOM     15  C   UNL     1       1.382  -4.351  -1.795  1.00  0.00     0.027 A 
ATOM     16  C   UNL     1       2.095  -5.476  -1.376  1.00  0.00     0.002 A 
ATOM     17  C   UNL     1       2.481  -4.417   0.743  1.00  0.00     0.016 A 
ATOM     18  C   UNL     1       2.682  -5.491  -0.119  1.00  0.00     0.001 A 
BRANCH  14  19
ATOM     19  N   UNL     1       0.552  -2.123  -1.566  1.00  0.00    -0.352 N 
ATOM     20  H   UNL     1      -0.043  -2.385  -2.305  1.00  0.00     0.167 HD
BRANCH  19  21
ATOM     21  C   UNL     1       0.570  -0.724  -1.339  1.00  0.00     0.077 A 
ATOM     22  C   UNL     1       2.787   2.133  -0.041  1.00  0.00     0.046 C 
ATOM     23  C   UNL     1       1.599   1.363  -0.553  1.00  0.00    -0.030 A 
ATOM     24  C   UNL     1       0.367   2.021  -0.675  1.00  0.00     0.006 A 
ATOM     25  C   UNL     1       1.701  -0.001  -0.910  1.00  0.00     0.069 A 
ATOM     26  C   UNL     1      -0.747   1.346  -1.161  1.00  0.00     0.023 A 
ATOM     27  Cl  UNL     1       3.283  -0.726  -0.969  1.00  0.00    -0.082 Cl
ATOM     28  C   UNL     1      -0.642  -0.004  -1.493  1.00  0.00     0.066 A 
ATOM     29  Cl  UNL     1      -2.073  -0.797  -2.075  1.00  0.00    -0.082 Cl
ENDBRANCH  19  21
ENDBRANCH  14  19
ENDBRANCH  10  13
ENDBRANCH   8   9
ENDBRANCH   6   8
ENDBRANCH   5   6
ENDBRANCH   4   5
ENDBRANCH   3   4
ENDBRANCH   2   3
ENDBRANCH   1   2
BRANCH   1  30
ATOM     30  C   UNL     1      -1.968   0.122   3.378  1.00  0.00     0.188 C 
BRANCH  30  31
ATOM     31  O   UNL     1      -1.701  -0.807   4.420  1.00  0.00    -0.376 OA
BRANCH  31  32
ATOM     32  C   UNL     1      -2.558  -0.803   5.562  1.00  0.00     0.202 C 
BRANCH  32  33
ATOM     33  C   UNL     1      -2.880   0.495   6.338  1.00  0.00     0.261 C 
BRANCH  33  34
ATOM     34  O   UNL     1      -3.021   1.689   5.554  1.00  0.00    -0.460 OA
BRANCH  34  35
ATOM     35  C   UNL     1      -1.973   2.551   5.630  1.00  0.00     0.338 C 
ATOM     36  O   UNL     1      -0.991   2.455   6.342  1.00  0.00    -0.246 OA
BRANCH  35  37
ATOM     37  C   UNL     1      -2.071   3.531   4.526  1.00  0.00     0.060 A 
ATOM     38  C   UNL     1      -1.067   3.514   3.542  1.00  0.00     0.016 A 
ATOM     39  C   UNL     1      -3.102   4.465   4.468  1.00  0.00     0.016 A 
ATOM     40  C   UNL     1      -1.087   4.435   2.499  1.00  0.00     0.010 A 
ATOM     41  C   UNL     1      -3.096   5.419   3.444  1.00  0.00     0.010 A 
ATOM     42  C   UNL     1      -2.075   5.423   2.474  1.00  0.00    -0.014 A 
BRANCH  42  43
ATOM     43  C   UNL     1      -1.915   6.590   1.577  1.00  0.00     0.031 A 
ATOM     44  C   UNL     1      -1.266   7.825   2.136  1.00  0.00     0.074 A 
ATOM     45  C   UNL     1      -2.348   6.570   0.305  1.00  0.00     0.049 A 
ATOM     46  N   UNL     1      -1.113   9.002   1.591  1.00  0.00    -0.248 NA
ATOM     47  C   UNL     1      -0.723   7.714   3.500  1.00  0.00     0.031 C 
ATOM     48  C   UNL     1      -2.963   5.426  -0.361  1.00  0.00     0.029 A 
ATOM     49  N   UNL     1      -2.371   7.568  -0.638  1.00  0.00    -0.354 N 
ATOM     50  C   UNL     1      -0.501   9.787   2.560  1.00  0.00     0.074 A 
ATOM     51  C   UNL     1      -0.302   8.949   3.723  1.00  0.00     0.031 C 
ATOM     52  C   UNL     1      -3.351   5.801  -1.593  1.00  0.00     0.029 A 
ATOM     53  C   UNL     1      -3.045   7.219  -1.783  1.00  0.00     0.049 A 
ATOM     54  H   UNL     1      -1.946   8.446  -0.506  1.00  0.00     0.167 HD
ATOM     55  C   UNL     1      -0.139  11.088   2.491  1.00  0.00     0.034 A 
ATOM     56  C   UNL     1      -3.413   7.971  -2.841  1.00  0.00     0.034 A 
ATOM     57  C   UNL     1      -0.333  11.918   1.334  1.00  0.00     0.049 A 
ATOM     58  C   UNL     1      -3.034   9.430  -2.884  1.00  0.00     0.074 A 
ATOM     59  C   UNL     1       0.043  13.236   1.149  1.00  0.00     0.029 A 
ATOM     60  N   UNL     1      -0.980  11.519   0.175  1.00  0.00    -0.354 N 
ATOM     61  N   UNL     1      -2.364  10.136  -2.006  1.00  0.00    -0.248 NA
ATOM     62  C   UNL     1      -3.440  10.189  -4.077  1.00  0.00     0.031 C 
ATOM     63  C   UNL     1      -0.413  13.646  -0.108  1.00  0.00     0.029 A 
ATOM     64  C   UNL     1      -1.033  12.570  -0.724  1.00  0.00     0.049 A 
ATOM     65  H   UNL     1      -1.348  10.620   0.014  1.00  0.00     0.167 HD
ATOM     66  C   UNL     1      -2.237  11.410  -2.553  1.00  0.00     0.074 A 
ATOM     67  C   UNL     1      -2.888  11.373  -3.846  1.00  0.00     0.031 C 
ATOM     68  C   UNL     1      -1.642  12.511  -2.029  1.00  0.00     0.034 A 
BRANCH  55  69
ATOM     69  C   UNL     1       0.490  11.695   3.716  1.00  0.00     0.023 A 
ATOM     70  C   UNL     1       1.795  11.323   4.099  1.00  0.00     0.012 A 
ATOM     71  C   UNL     1      -0.211  12.646   4.482  1.00  0.00     0.148 A 
ATOM     72  C   UNL     1       2.375  11.857   5.250  1.00  0.00     0.002 A 
ATOM     73  C   UNL     1       0.392  13.210   5.599  1.00  0.00     0.091 A 
ATOM     74  F   UNL     1      -1.462  12.964   4.119  1.00  0.00    -0.205 F 
ATOM     75  C   UNL     1       1.678  12.806   5.993  1.00  0.00     0.022 A 
BRANCH  73  76
ATOM     76  S   UNL     1      -0.396  14.498   6.570  1.00  0.00     0.127 S 
ATOM     77  O   UNL     1      -0.767  13.769   7.782  1.00  0.00    -0.237 OA
ATOM     78  O   UNL     1       0.692  15.461   6.746  1.00  0.00    -0.237 OA
ATOM     79  O   UNL     1      -1.508  14.983   5.764  1.00  0.00    -0.744 OA
ENDBRANCH  73  76
ENDBRANCH  55  69
BRANCH  56  80
ATOM     80  C   UNL     1      -4.188   7.350  -3.952  1.00  0.00     0.023 A 
ATOM     81  C   UNL     1      -3.580   7.161  -5.207  1.00  0.00     0.012 A 
ATOM     82  C   UNL     1      -5.514   6.916  -3.756  1.00  0.00     0.148 A 
ATOM     83  C   UNL     1      -4.286   6.569  -6.255  1.00  0.00     0.002 A 
ATOM     84  C   UNL     1      -6.192   6.277  -4.787  1.00  0.00     0.091 A 
ATOM     85  F   UNL     1      -6.077   7.119  -2.557  1.00  0.00    -0.205 F 
ATOM     86  C   UNL     1      -5.586   6.117  -6.042  1.00  0.00     0.022 A 
BRANCH  84  87
ATOM     87  S   UNL     1      -7.816   5.544  -4.567  1.00  0.00     0.127 S 
ATOM     88  O   UNL     1      -8.633   6.347  -5.474  1.00  0.00    -0.237 OA
ATOM     89  O   UNL     1      -7.581   4.167  -5.003  1.00  0.00    -0.237 OA
ATOM     90  O   UNL     1      -8.127   5.684  -3.151  1.00  0.00    -0.744 OA
ENDBRANCH  84  87
ENDBRANCH  56  80
BRANCH  68  91
ATOM     91  C   UNL     1      -1.616  13.768  -2.864  1.00  0.00     0.023 A 
ATOM     92  C   UNL     1      -2.796  14.512  -3.060  1.00  0.00     0.012 A 
ATOM     93  C   UNL     1      -0.398  14.256  -3.379  1.00  0.00     0.148 A 
ATOM     94  C   UNL     1      -2.769  15.707  -3.781  1.00  0.00     0.002 A 
ATOM     95  C   UNL     1      -0.370  15.472  -4.052  1.00  0.00     0.091 A 
ATOM     96  F   UNL     1       0.711  13.526  -3.197  1.00  0.00    -0.205 F 
ATOM     97  C   UNL     1      -1.556  16.192  -4.265  1.00  0.00     0.022 A 
BRANCH  95  98
ATOM     98  S   UNL     1       1.159  16.224  -4.621  1.00  0.00     0.127 S 
ATOM     99  O   UNL     1       1.047  16.066  -6.070  1.00  0.00    -0.237 OA
ATOM    100  O   UNL     1       1.025  17.601  -4.145  1.00  0.00    -0.237 OA
ATOM    101  O   UNL     1       2.236  15.470  -3.993  1.00  0.00    -0.744 OA
ENDBRANCH  95  98
ENDBRANCH  68  91
ENDBRANCH  42  43
ENDBRANCH  35  37
ENDBRANCH  34  35
ENDBRANCH  33  34
ENDBRANCH  32  33
ENDBRANCH  31  32
ENDBRANCH  30  31
ENDBRANCH   1  30
TORSDOF 24
