REMARK SMILES Cc1cnc(NC(=O)[C@H]2[C@H]3CC[C@H](CC3)[C@H]2C(=O)OCCOCCOCCOC(=O)c2ccc(-c3c4nc(c(-c5cccc(S(=O)(=O)[O-])c5F)c5ccc([nH]5)c(-c5cccc(S(=O)(=O)[O-])c5F)c5nc(c(-c6cccc(S(=O)(=O)[O-])c6F)c6ccc3[nH]6)C=C5)C=C4)cc2)s1
REMARK SMILES IDX 24 1 23 2 22 3 21 4 20 5 19 6 17 7 18 8 16 9 9 10 10 11
REMARK SMILES IDX 15 12 11 13 13 14 14 15 12 16 7 17 6 18 8 20 5 21 1 22 2 23
REMARK SMILES IDX 3 24 94 25 4 26 25 27 26 28 27 29 28 30 29 31 30 32 31 33
REMARK SMILES IDX 32 34 93 35 33 36 92 37 34 38 35 39 36 40 86 41 37 42 91 43
REMARK SMILES IDX 85 44 87 45 38 46 90 47 84 48 83 49 39 51 71 52 51 53 70 54
REMARK SMILES IDX 52 55 55 56 69 57 88 58 53 59 54 60 68 62 89 63 56 64 40 65
REMARK SMILES IDX 41 66 49 67 42 68 44 69 50 70 43 71 45 72 46 73 47 74 48 75
REMARK SMILES IDX 72 76 73 77 81 78 74 79 76 80 82 81 75 82 77 83 78 84 79 85
REMARK SMILES IDX 80 86 57 87 58 88 66 89 59 90 61 91 67 92 60 93 62 94 63 95
REMARK SMILES IDX 64 96 65 97
REMARK H PARENT 6 19 87 50 55 61
REMARK Flexibility Score: inf
ROOT
ATOM      1  C   UNL     1      -3.708  -1.215   0.293  1.00  0.00     0.188 C 
ENDROOT
BRANCH   1   2
ATOM      2  C   UNL     1      -2.784  -1.263   1.512  1.00  0.00     0.188 C 
BRANCH   2   3
ATOM      3  O   UNL     1      -3.509  -1.255   2.741  1.00  0.00    -0.376 OA
BRANCH   3   4
ATOM      4  C   UNL     1      -4.023   0.024   3.116  1.00  0.00     0.202 C 
BRANCH   4   5
ATOM      5  C   UNL     1      -2.967   1.009   3.638  1.00  0.00     0.261 C 
BRANCH   5   6
ATOM      6  O   UNL     1      -2.330   1.824   2.616  1.00  0.00    -0.463 OA
BRANCH   6   7
ATOM      7  C   UNL     1      -0.975   1.883   2.693  1.00  0.00     0.310 C 
ATOM      8  O   UNL     1      -0.303   1.173   3.440  1.00  0.00    -0.252 OA
BRANCH   7   9
ATOM      9  C   UNL     1      -0.297   3.012   1.912  1.00  0.00     0.115 C 
ATOM     10  C   UNL     1      -0.869   3.639   0.615  1.00  0.00     0.096 C 
ATOM     11  C   UNL     1      -1.185   5.145   0.859  1.00  0.00     0.002 C 
ATOM     12  C   UNL     1      -1.984   5.337   2.159  1.00  0.00     0.005 C 
ATOM     13  C   UNL     1       0.172   5.864   1.031  1.00  0.00     0.005 C 
ATOM     14  C   UNL     1       0.106   4.150   2.885  1.00  0.00     0.004 C 
ATOM     15  C   UNL     1      -1.153   4.885   3.364  1.00  0.00     0.005 C 
ATOM     16  C   UNL     1       0.997   5.149   2.113  1.00  0.00     0.005 C 
BRANCH  10  17
ATOM     17  C   UNL     1      -1.974   2.881  -0.093  1.00  0.00     0.230 C 
ATOM     18  N   UNL     1      -1.754   1.630  -0.587  1.00  0.00    -0.302 N 
ATOM     19  H   UNL     1      -2.529   1.223  -1.036  1.00  0.00     0.172 HD
ATOM     20  O   UNL     1      -3.098   3.380  -0.206  1.00  0.00    -0.274 OA
BRANCH  18  21
ATOM     21  C   UNL     1      -0.630   0.848  -0.561  1.00  0.00     0.189 A 
ATOM     22  C   UNL     1       3.023  -0.238   0.046  1.00  0.00     0.058 C 
ATOM     23  C   UNL     1       1.577  -0.042  -0.220  1.00  0.00     0.023 A 
ATOM     24  C   UNL     1       0.534  -0.920  -0.021  1.00  0.00     0.128 A 
ATOM     25  S   UNL     1       0.951   1.419  -0.861  1.00  0.00    -0.102 S 
ATOM     26  N   UNL     1      -0.709  -0.444  -0.367  1.00  0.00    -0.228 NA
ENDBRANCH  18  21
ENDBRANCH  10  17
ENDBRANCH   7   9
ENDBRANCH   6   7
ENDBRANCH   5   6
ENDBRANCH   4   5
ENDBRANCH   3   4
ENDBRANCH   2   3
ENDBRANCH   1   2
BRANCH   1  27
ATOM     27  O   UNL     1      -4.057   0.138  -0.020  1.00  0.00    -0.376 OA
BRANCH  27  28
ATOM     28  C   UNL     1      -5.409   0.349  -0.436  1.00  0.00     0.202 C 
BRANCH  28  29
ATOM     29  C   UNL     1      -5.923  -0.546  -1.575  1.00  0.00     0.261 C 
BRANCH  29  30
ATOM     30  O   UNL     1      -4.886  -1.084  -2.404  1.00  0.00    -0.460 OA
BRANCH  30  31
ATOM     31  C   UNL     1      -4.118  -0.187  -3.063  1.00  0.00     0.338 C 
ATOM     32  O   UNL     1      -4.363   1.002  -3.202  1.00  0.00    -0.246 OA
BRANCH  31  33
ATOM     33  C   UNL     1      -2.839  -0.838  -3.456  1.00  0.00     0.060 A 
ATOM     34  C   UNL     1      -1.716  -0.026  -3.649  1.00  0.00     0.016 A 
ATOM     35  C   UNL     1      -2.714  -2.228  -3.578  1.00  0.00     0.016 A 
ATOM     36  C   UNL     1      -0.473  -0.597  -3.942  1.00  0.00     0.010 A 
ATOM     37  C   UNL     1      -1.475  -2.799  -3.889  1.00  0.00     0.010 A 
ATOM     38  C   UNL     1      -0.347  -1.987  -4.082  1.00  0.00    -0.014 A 
BRANCH  38  39
ATOM     39  C   UNL     1       0.911  -2.568  -4.617  1.00  0.00     0.031 A 
ATOM     40  C   UNL     1       1.058  -2.685  -6.102  1.00  0.00     0.074 A 
ATOM     41  C   UNL     1       1.903  -3.009  -3.820  1.00  0.00     0.049 A 
ATOM     42  N   UNL     1       2.048  -3.177  -6.796  1.00  0.00    -0.248 NA
ATOM     43  C   UNL     1      -0.073  -2.200  -6.911  1.00  0.00     0.031 C 
ATOM     44  C   UNL     1       1.862  -2.998  -2.368  1.00  0.00     0.029 A 
ATOM     45  N   UNL     1       3.125  -3.566  -4.112  1.00  0.00    -0.354 N 
ATOM     46  C   UNL     1       1.650  -3.095  -8.121  1.00  0.00     0.074 A 
ATOM     47  C   UNL     1       0.331  -2.500  -8.135  1.00  0.00     0.031 C 
ATOM     48  C   UNL     1       3.014  -3.490  -1.883  1.00  0.00     0.029 A 
ATOM     49  C   UNL     1       3.854  -3.921  -2.998  1.00  0.00     0.049 A 
ATOM     50  H   UNL     1       3.450  -3.698  -5.032  1.00  0.00     0.167 HD
ATOM     51  C   UNL     1       2.318  -3.487  -9.228  1.00  0.00     0.034 A 
ATOM     52  C   UNL     1       5.041  -4.555  -2.889  1.00  0.00     0.034 A 
ATOM     53  C   UNL     1       3.617  -4.099  -9.221  1.00  0.00     0.049 A 
ATOM     54  C   UNL     1       5.751  -5.002  -4.143  1.00  0.00     0.074 A 
ATOM     55  C   UNL     1       4.376  -4.508 -10.303  1.00  0.00     0.029 A 
ATOM     56  N   UNL     1       4.339  -4.420  -8.082  1.00  0.00    -0.354 N 
ATOM     57  N   UNL     1       5.414  -4.813  -5.395  1.00  0.00    -0.248 NA
ATOM     58  C   UNL     1       7.008  -5.748  -3.970  1.00  0.00     0.031 C 
ATOM     59  C   UNL     1       5.540  -5.110  -9.817  1.00  0.00     0.029 A 
ATOM     60  C   UNL     1       5.528  -5.035  -8.434  1.00  0.00     0.049 A 
ATOM     61  H   UNL     1       4.048  -4.237  -7.159  1.00  0.00     0.167 HD
ATOM     62  C   UNL     1       6.425  -5.393  -6.156  1.00  0.00     0.074 A 
ATOM     63  C   UNL     1       7.404  -5.912  -5.224  1.00  0.00     0.031 C 
ATOM     64  C   UNL     1       6.522  -5.504  -7.503  1.00  0.00     0.034 A 
BRANCH  51  65
ATOM     65  C   UNL     1       1.637  -3.270 -10.549  1.00  0.00     0.023 A 
ATOM     66  C   UNL     1       1.513  -1.965 -11.066  1.00  0.00     0.012 A 
ATOM     67  C   UNL     1       1.147  -4.363 -11.287  1.00  0.00     0.148 A 
ATOM     68  C   UNL     1       0.882  -1.748 -12.290  1.00  0.00     0.002 A 
ATOM     69  C   UNL     1       0.564  -4.143 -12.527  1.00  0.00     0.091 A 
ATOM     70  F   UNL     1       1.251  -5.590 -10.758  1.00  0.00    -0.205 F 
ATOM     71  C   UNL     1       0.419  -2.837 -13.024  1.00  0.00     0.022 A 
BRANCH  69  72
ATOM     72  S   UNL     1       0.006  -5.483 -13.583  1.00  0.00     0.127 S 
ATOM     73  O   UNL     1      -1.442  -5.281 -13.575  1.00  0.00    -0.237 OA
ATOM     74  O   UNL     1       0.660  -5.162 -14.852  1.00  0.00    -0.237 OA
ATOM     75  O   UNL     1       0.467  -6.712 -12.954  1.00  0.00    -0.744 OA
ENDBRANCH  69  72
ENDBRANCH  51  65
BRANCH  52  76
ATOM     76  C   UNL     1       5.646  -4.827  -1.550  1.00  0.00     0.023 A 
ATOM     77  C   UNL     1       6.872  -4.221  -1.203  1.00  0.00     0.012 A 
ATOM     78  C   UNL     1       5.037  -5.703  -0.631  1.00  0.00     0.148 A 
ATOM     79  C   UNL     1       7.495  -4.513   0.012  1.00  0.00     0.002 A 
ATOM     80  C   UNL     1       5.630  -5.938   0.604  1.00  0.00     0.091 A 
ATOM     81  F   UNL     1       3.887  -6.293  -0.985  1.00  0.00    -0.205 F 
ATOM     82  C   UNL     1       6.870  -5.363   0.919  1.00  0.00     0.022 A 
BRANCH  80  83
ATOM     83  S   UNL     1       4.830  -6.909   1.885  1.00  0.00     0.127 S 
ATOM     84  O   UNL     1       5.678  -8.097   1.935  1.00  0.00    -0.237 OA
ATOM     85  O   UNL     1       4.940  -6.022   3.043  1.00  0.00    -0.237 OA
ATOM     86  O   UNL     1       3.466  -7.123   1.420  1.00  0.00    -0.744 OA
ENDBRANCH  80  83
ENDBRANCH  52  76
BRANCH  64  87
ATOM     87  C   UNL     1       7.748  -6.175  -8.071  1.00  0.00     0.023 A 
ATOM     88  C   UNL     1       7.916  -7.568  -7.941  1.00  0.00     0.012 A 
ATOM     89  C   UNL     1       8.692  -5.431  -8.806  1.00  0.00     0.148 A 
ATOM     90  C   UNL     1       9.020  -8.204  -8.509  1.00  0.00     0.002 A 
ATOM     91  C   UNL     1       9.761  -6.079  -9.413  1.00  0.00     0.091 A 
ATOM     92  F   UNL     1       8.523  -4.104  -8.905  1.00  0.00    -0.205 F 
ATOM     93  C   UNL     1       9.935  -7.463  -9.254  1.00  0.00     0.022 A 
BRANCH  91  94
ATOM     94  S   UNL     1      10.934  -5.224 -10.471  1.00  0.00     0.127 S 
ATOM     95  O   UNL     1      12.152  -5.270  -9.663  1.00  0.00    -0.237 OA
ATOM     96  O   UNL     1      10.958  -6.079 -11.659  1.00  0.00    -0.237 OA
ATOM     97  O   UNL     1      10.384  -3.894 -10.692  1.00  0.00    -0.744 OA
ENDBRANCH  91  94
ENDBRANCH  64  87
ENDBRANCH  38  39
ENDBRANCH  31  33
ENDBRANCH  30  31
ENDBRANCH  29  30
ENDBRANCH  28  29
ENDBRANCH  27  28
ENDBRANCH   1  27
TORSDOF 22
