REMARK SMILES C[C@@H]1CC[C@H](C)[N@H+]1Cc1cc2c(cc1Cl)C=C(C(=O)OCCOCCOCCOC(=O)c1ccc(-c3c4nc(c(-c5cccc(S(=O)(=O)[O-])c5F)c5ccc([nH]5)c(-c5cccc(S(=O)(=O)[O-])c5F)c5nc(c(-c6cccc(S(=O)(=O)[O-])c6F)c6ccc3[nH]6)C=C5)C=C4)cc1)[C@@H](C(F)(F)F)O2
REMARK SMILES IDX 25 1 24 2 23 3 22 4 21 5 20 6 18 7 19 8 17 9 9 10 10 11
REMARK SMILES IDX 14 12 11 13 13 14 15 15 12 16 100 17 16 18 95 19 8 20 7 21
REMARK SMILES IDX 6 22 5 23 4 24 3 25 2 26 1 28 96 29 97 30 98 31 99 32 26 33
REMARK SMILES IDX 27 34 28 35 29 36 30 37 31 38 32 39 33 40 94 41 34 42 93 43
REMARK SMILES IDX 35 44 36 45 37 46 87 47 38 48 92 49 86 50 88 51 39 52 91 53
REMARK SMILES IDX 85 54 84 55 40 57 72 58 52 59 71 60 53 61 56 62 70 63 89 64
REMARK SMILES IDX 54 65 55 66 69 68 90 69 57 70 41 71 42 72 50 73 43 74 45 75
REMARK SMILES IDX 51 76 44 77 46 78 47 79 48 80 49 81 73 82 74 83 82 84 75 85
REMARK SMILES IDX 77 86 83 87 76 88 78 89 79 90 80 91 81 92 58 93 59 94 67 95
REMARK SMILES IDX 60 96 62 97 68 98 61 99 63 100 64 101 65 102 66 103
REMARK H PARENT 7 27 88 56 56 67
REMARK Flexibility Score: inf
ROOT
ATOM      1  C   UNL     1       5.051  -1.750  -8.292  1.00  0.00     0.188 C 
ENDROOT
BRANCH   1   2
ATOM      2  C   UNL     1       4.447  -1.715  -9.714  1.00  0.00     0.188 C 
BRANCH   2   3
ATOM      3  O   UNL     1       5.431  -1.762 -10.726  1.00  0.00    -0.376 OA
BRANCH   3   4
ATOM      4  C   UNL     1       5.706  -0.587 -11.465  1.00  0.00     0.202 C 
BRANCH   4   5
ATOM      5  C   UNL     1       5.976   0.759 -10.764  1.00  0.00     0.261 C 
BRANCH   5   6
ATOM      6  O   UNL     1       5.377   0.946  -9.475  1.00  0.00    -0.460 OA
BRANCH   6   7
ATOM      7  C   UNL     1       4.197   1.602  -9.451  1.00  0.00     0.338 C 
ATOM      8  O   UNL     1       3.611   2.068 -10.415  1.00  0.00    -0.246 OA
BRANCH   7   9
ATOM      9  C   UNL     1       3.636   1.561  -8.085  1.00  0.00     0.087 C 
ATOM     10  C   UNL     1       0.457   1.645  -4.172  1.00  0.00     0.029 A 
ATOM     11  C   UNL     1       1.869   1.662  -4.296  1.00  0.00     0.058 A 
ATOM     12  C   UNL     1      -0.289   1.496  -5.355  1.00  0.00     0.050 A 
ATOM     13  C   UNL     1       2.495   1.545  -5.547  1.00  0.00     0.128 A 
ATOM     14  C   UNL     1       0.340   1.256  -6.580  1.00  0.00     0.033 A 
ATOM     15  Cl  UNL     1      -1.992   1.777  -5.450  1.00  0.00    -0.084 Cl
ATOM     16  C   UNL     1       1.728   1.308  -6.683  1.00  0.00     0.019 A 
ATOM     17  O   UNL     1       3.857   1.690  -5.590  1.00  0.00    -0.475 OA
ATOM     18  C   UNL     1       2.346   1.222  -7.992  1.00  0.00     0.027 C 
ATOM     19  C   UNL     1       4.486   1.917  -6.893  1.00  0.00     0.316 C 
BRANCH  10  20
ATOM     20  C   UNL     1      -0.178   1.894  -2.808  1.00  0.00     0.301 C 
BRANCH  20  21
ATOM     21  N   UNL     1      -0.591   0.744  -1.988  1.00  0.00    -0.327 N 
ATOM     22  C   UNL     1       0.997   0.159  -0.188  1.00  0.00     0.075 C 
ATOM     23  C   UNL     1       0.470  -0.184  -1.579  1.00  0.00     0.181 C 
ATOM     24  C   UNL     1      -0.172  -1.573  -1.608  1.00  0.00     0.071 C 
ATOM     25  C   UNL     1      -1.240  -1.435  -2.672  1.00  0.00     0.071 C 
ATOM     26  C   UNL     1      -1.748  -0.015  -2.473  1.00  0.00     0.181 C 
ATOM     27  H   UNL     1      -0.884   1.251  -1.153  1.00  0.00     0.348 HD
ATOM     28  C   UNL     1      -2.879   0.070  -1.446  1.00  0.00     0.075 C 
ENDBRANCH  20  21
ENDBRANCH  10  20
BRANCH  19  29
ATOM     29  C   UNL     1       5.005   3.359  -6.985  1.00  0.00     0.430 C 
ATOM     30  F   UNL     1       5.764   3.686  -5.911  1.00  0.00    -0.167 F 
ATOM     31  F   UNL     1       5.793   3.529  -8.076  1.00  0.00    -0.167 F 
ATOM     32  F   UNL     1       4.006   4.264  -7.066  1.00  0.00    -0.167 F 
ENDBRANCH  19  29
ENDBRANCH   7   9
ENDBRANCH   6   7
ENDBRANCH   5   6
ENDBRANCH   4   5
ENDBRANCH   3   4
ENDBRANCH   2   3
ENDBRANCH   1   2
BRANCH   1  33
ATOM     33  O   UNL     1       6.464  -1.817  -8.129  1.00  0.00    -0.376 OA
BRANCH  33  34
ATOM     34  C   UNL     1       7.198  -2.785  -8.873  1.00  0.00     0.202 C 
BRANCH  34  35
ATOM     35  C   UNL     1       6.794  -4.266  -8.803  1.00  0.00     0.261 C 
BRANCH  35  36
ATOM     36  O   UNL     1       5.408  -4.533  -9.075  1.00  0.00    -0.460 OA
BRANCH  36  37
ATOM     37  C   UNL     1       4.680  -4.979  -8.017  1.00  0.00     0.338 C 
ATOM     38  O   UNL     1       5.083  -5.197  -6.888  1.00  0.00    -0.246 OA
BRANCH  37  39
ATOM     39  C   UNL     1       3.247  -4.965  -8.381  1.00  0.00     0.060 A 
ATOM     40  C   UNL     1       2.775  -5.690  -9.476  1.00  0.00     0.016 A 
ATOM     41  C   UNL     1       2.363  -4.210  -7.596  1.00  0.00     0.016 A 
ATOM     42  C   UNL     1       1.408  -5.676  -9.769  1.00  0.00     0.010 A 
ATOM     43  C   UNL     1       1.002  -4.181  -7.904  1.00  0.00     0.010 A 
ATOM     44  C   UNL     1       0.512  -4.931  -8.980  1.00  0.00    -0.014 A 
BRANCH  44  45
ATOM     45  C   UNL     1      -0.950  -5.094  -9.171  1.00  0.00     0.031 A 
ATOM     46  C   UNL     1      -1.778  -4.090  -9.912  1.00  0.00     0.074 A 
ATOM     47  C   UNL     1      -1.535  -6.180  -8.629  1.00  0.00     0.049 A 
ATOM     48  N   UNL     1      -3.038  -4.171 -10.256  1.00  0.00    -0.248 NA
ATOM     49  C   UNL     1      -1.122  -2.837 -10.314  1.00  0.00     0.031 C 
ATOM     50  C   UNL     1      -0.842  -7.190  -7.826  1.00  0.00     0.029 A 
ATOM     51  N   UNL     1      -2.834  -6.615  -8.668  1.00  0.00    -0.354 N 
ATOM     52  C   UNL     1      -3.333  -2.983 -10.911  1.00  0.00     0.074 A 
ATOM     53  C   UNL     1      -2.122  -2.188 -10.902  1.00  0.00     0.031 C 
ATOM     54  C   UNL     1      -1.719  -8.140  -7.468  1.00  0.00     0.029 A 
ATOM     55  C   UNL     1      -3.033  -7.804  -8.009  1.00  0.00     0.049 A 
ATOM     56  H   UNL     1      -3.555  -6.123  -9.124  1.00  0.00     0.167 HD
ATOM     57  C   UNL     1      -4.502  -2.606 -11.482  1.00  0.00     0.034 A 
ATOM     58  C   UNL     1      -4.141  -8.557  -7.872  1.00  0.00     0.034 A 
ATOM     59  C   UNL     1      -5.696  -3.410 -11.504  1.00  0.00     0.049 A 
ATOM     60  C   UNL     1      -5.416  -8.126  -8.535  1.00  0.00     0.074 A 
ATOM     61  C   UNL     1      -6.895  -3.146 -12.146  1.00  0.00     0.029 A 
ATOM     62  N   UNL     1      -5.856  -4.617 -10.843  1.00  0.00    -0.354 N 
ATOM     63  N   UNL     1      -5.630  -7.082  -9.298  1.00  0.00    -0.248 NA
ATOM     64  C   UNL     1      -6.592  -8.986  -8.346  1.00  0.00     0.031 C 
ATOM     65  C   UNL     1      -7.787  -4.183 -11.855  1.00  0.00     0.029 A 
ATOM     66  C   UNL     1      -7.138  -5.101 -11.045  1.00  0.00     0.049 A 
ATOM     67  H   UNL     1      -5.162  -5.065 -10.309  1.00  0.00     0.167 HD
ATOM     68  C   UNL     1      -6.957  -7.170  -9.698  1.00  0.00     0.074 A 
ATOM     69  C   UNL     1      -7.496  -8.375  -9.103  1.00  0.00     0.031 C 
ATOM     70  C   UNL     1      -7.662  -6.318 -10.481  1.00  0.00     0.034 A 
BRANCH  57  71
ATOM     71  C   UNL     1      -4.552  -1.286 -12.202  1.00  0.00     0.023 A 
ATOM     72  C   UNL     1      -4.016  -1.197 -13.502  1.00  0.00     0.012 A 
ATOM     73  C   UNL     1      -5.248  -0.188 -11.659  1.00  0.00     0.148 A 
ATOM     74  C   UNL     1      -4.167  -0.032 -14.252  1.00  0.00     0.002 A 
ATOM     75  C   UNL     1      -5.418   0.961 -12.424  1.00  0.00     0.091 A 
ATOM     76  F   UNL     1      -5.741  -0.296 -10.418  1.00  0.00    -0.205 F 
ATOM     77  C   UNL     1      -4.876   1.041 -13.718  1.00  0.00     0.022 A 
BRANCH  75  78
ATOM     78  S   UNL     1      -6.365   2.378 -11.856  1.00  0.00     0.127 S 
ATOM     79  O   UNL     1      -5.324   3.398 -11.740  1.00  0.00    -0.237 OA
ATOM     80  O   UNL     1      -7.301   2.584 -12.961  1.00  0.00    -0.237 OA
ATOM     81  O   UNL     1      -6.981   1.975 -10.600  1.00  0.00    -0.744 OA
ENDBRANCH  75  78
ENDBRANCH  57  71
BRANCH  58  82
ATOM     82  C   UNL     1      -4.044  -9.853  -7.152  1.00  0.00     0.023 A 
ATOM     83  C   UNL     1      -3.986 -11.045  -7.899  1.00  0.00     0.012 A 
ATOM     84  C   UNL     1      -3.910  -9.902  -5.753  1.00  0.00     0.148 A 
ATOM     85  C   UNL     1      -3.800 -12.270  -7.261  1.00  0.00     0.002 A 
ATOM     86  C   UNL     1      -3.687 -11.122  -5.127  1.00  0.00     0.091 A 
ATOM     87  F   UNL     1      -3.963  -8.749  -5.071  1.00  0.00    -0.205 F 
ATOM     88  C   UNL     1      -3.640 -12.308  -5.878  1.00  0.00     0.022 A 
BRANCH  86  89
ATOM     89  S   UNL     1      -3.368 -11.265  -3.365  1.00  0.00     0.127 S 
ATOM     90  O   UNL     1      -4.490 -12.090  -2.925  1.00  0.00    -0.237 OA
ATOM     91  O   UNL     1      -2.067 -11.935  -3.353  1.00  0.00    -0.237 OA
ATOM     92  O   UNL     1      -3.356  -9.903  -2.851  1.00  0.00    -0.744 OA
ENDBRANCH  86  89
ENDBRANCH  58  82
BRANCH  70  93
ATOM     93  C   UNL     1      -9.106  -6.638 -10.754  1.00  0.00     0.023 A 
ATOM     94  C   UNL     1     -10.072  -6.360  -9.767  1.00  0.00     0.012 A 
ATOM     95  C   UNL     1      -9.518  -7.091 -12.022  1.00  0.00     0.148 A 
ATOM     96  C   UNL     1     -11.428  -6.535 -10.037  1.00  0.00     0.002 A 
ATOM     97  C   UNL     1     -10.873  -7.231 -12.295  1.00  0.00     0.091 A 
ATOM     98  F   UNL     1      -8.578  -7.356 -12.941  1.00  0.00    -0.205 F 
ATOM     99  C   UNL     1     -11.829  -6.958 -11.302  1.00  0.00     0.022 A 
BRANCH  97 100
ATOM    100  S   UNL     1     -11.495  -7.700 -13.915  1.00  0.00     0.127 S 
ATOM    101  O   UNL     1     -12.098  -9.003 -13.637  1.00  0.00    -0.237 OA
ATOM    102  O   UNL     1     -12.453  -6.632 -14.198  1.00  0.00    -0.237 OA
ATOM    103  O   UNL     1     -10.338  -7.731 -14.799  1.00  0.00    -0.744 OA
ENDBRANCH  97 100
ENDBRANCH  70  93
ENDBRANCH  44  45
ENDBRANCH  37  39
ENDBRANCH  36  37
ENDBRANCH  35  36
ENDBRANCH  34  35
ENDBRANCH  33  34
ENDBRANCH   1  33
TORSDOF 23
