REMARK SMILES O=C(OCCOCCOCCOC(=O)[C@@H]1CC[C@@H](CN2C(=O)CC3(CCCC3)CC2=O)O1)c1ccc(-c2c3nc(c(-c4cccc(S(=O)(=O)[O-])c4F)c4ccc([nH]4)c(-c4cccc(S(=O)(=O)[O-])c4F)c4nc(c(-c5cccc(S(=O)(=O)[O-])c5F)c5ccc2[nH]5)C=C4)C=C3)cc1
REMARK SMILES IDX 7 1 6 2 5 3 4 4 3 5 2 6 1 7 33 8 34 9 95 10 35 11 94 12
REMARK SMILES IDX 36 13 37 14 38 15 88 16 39 17 93 18 87 19 89 20 40 21 92 22
REMARK SMILES IDX 86 23 85 24 41 26 73 27 53 28 72 29 54 30 57 31 71 32 90 33
REMARK SMILES IDX 55 34 56 35 70 37 91 38 58 39 42 40 43 41 51 42 44 43 46 44
REMARK SMILES IDX 52 45 45 46 47 47 48 48 49 49 50 50 74 51 75 52 83 53 76 54
REMARK SMILES IDX 78 55 84 56 77 57 79 58 80 59 81 60 82 61 59 62 60 63 68 64
REMARK SMILES IDX 61 65 63 66 69 67 62 68 64 69 65 70 66 71 67 72 8 73 9 74
REMARK SMILES IDX 10 75 11 76 12 77 13 78 14 79 15 80 16 81 32 82 17 83 18 84
REMARK SMILES IDX 19 85 20 86 21 87 30 88 22 89 23 90 29 91 31 92 24 93 25 94
REMARK SMILES IDX 28 95 26 96 27 97
REMARK H PARENT 89 25 57 36
REMARK Flexibility Score: inf
ROOT
ATOM      1  C   UNL     1       2.541   1.941  -0.228  1.00  0.00     0.188 C 
ENDROOT
BRANCH   1   2
ATOM      2  O   UNL     1       3.879   1.589   0.140  1.00  0.00    -0.376 OA
BRANCH   2   3
ATOM      3  C   UNL     1       4.728   1.362  -0.992  1.00  0.00     0.202 C 
BRANCH   3   4
ATOM      4  C   UNL     1       4.485   0.044  -1.753  1.00  0.00     0.261 C 
BRANCH   4   5
ATOM      5  O   UNL     1       3.144  -0.463  -1.632  1.00  0.00    -0.460 OA
BRANCH   5   6
ATOM      6  C   UNL     1       2.613  -1.278  -0.684  1.00  0.00     0.338 C 
ATOM      7  O   UNL     1       1.433  -1.608  -0.802  1.00  0.00    -0.246 OA
BRANCH   6   8
ATOM      8  C   UNL     1       3.370  -1.800   0.499  1.00  0.00     0.060 A 
ATOM      9  C   UNL     1       4.603  -1.319   0.934  1.00  0.00     0.016 A 
ATOM     10  C   UNL     1       2.777  -2.834   1.250  1.00  0.00     0.016 A 
ATOM     11  C   UNL     1       5.278  -1.893   1.997  1.00  0.00     0.010 A 
ATOM     12  C   UNL     1       3.427  -3.388   2.362  1.00  0.00     0.010 A 
ATOM     13  C   UNL     1       4.702  -2.934   2.713  1.00  0.00    -0.014 A 
BRANCH  13  14
ATOM     14  C   UNL     1       5.557  -3.589   3.720  1.00  0.00     0.031 A 
ATOM     15  C   UNL     1       6.201  -4.888   3.352  1.00  0.00     0.074 A 
ATOM     16  C   UNL     1       5.904  -2.924   4.838  1.00  0.00     0.049 A 
ATOM     17  N   UNL     1       7.103  -5.563   4.005  1.00  0.00    -0.248 NA
ATOM     18  C   UNL     1       5.819  -5.478   2.057  1.00  0.00     0.031 C 
ATOM     19  C   UNL     1       5.416  -1.595   5.202  1.00  0.00     0.029 A 
ATOM     20  N   UNL     1       6.753  -3.241   5.859  1.00  0.00    -0.354 N 
ATOM     21  C   UNL     1       7.398  -6.657   3.205  1.00  0.00     0.074 A 
ATOM     22  C   UNL     1       6.569  -6.569   2.026  1.00  0.00     0.031 C 
ATOM     23  C   UNL     1       5.931  -1.223   6.384  1.00  0.00     0.029 A 
ATOM     24  C   UNL     1       6.789  -2.295   6.859  1.00  0.00     0.049 A 
ATOM     25  H   UNL     1       7.289  -4.066   5.878  1.00  0.00     0.167 HD
ATOM     26  C   UNL     1       8.299  -7.636   3.433  1.00  0.00     0.034 A 
ATOM     27  C   UNL     1       7.439  -2.316   8.032  1.00  0.00     0.034 A 
ATOM     28  C   UNL     1       9.088  -7.715   4.629  1.00  0.00     0.049 A 
ATOM     29  C   UNL     1       8.347  -3.475   8.304  1.00  0.00     0.074 A 
ATOM     30  C   UNL     1       9.980  -8.698   5.012  1.00  0.00     0.029 A 
ATOM     31  N   UNL     1       9.060  -6.774   5.650  1.00  0.00    -0.354 N 
ATOM     32  N   UNL     1       8.624  -4.497   7.532  1.00  0.00    -0.248 NA
ATOM     33  C   UNL     1       9.070  -3.455   9.580  1.00  0.00     0.031 C 
ATOM     34  C   UNL     1      10.466  -8.367   6.281  1.00  0.00     0.029 A 
ATOM     35  C   UNL     1       9.911  -7.157   6.669  1.00  0.00     0.049 A 
ATOM     36  H   UNL     1       8.514  -5.955   5.647  1.00  0.00     0.167 HD
ATOM     37  C   UNL     1       9.566  -5.241   8.222  1.00  0.00     0.074 A 
ATOM     38  C   UNL     1       9.836  -4.528   9.458  1.00  0.00     0.031 C 
ATOM     39  C   UNL     1      10.152  -6.412   7.877  1.00  0.00     0.034 A 
BRANCH  26  40
ATOM     40  C   UNL     1       8.434  -8.697   2.380  1.00  0.00     0.023 A 
ATOM     41  C   UNL     1       9.079  -8.403   1.160  1.00  0.00     0.012 A 
ATOM     42  C   UNL     1       7.903  -9.983   2.591  1.00  0.00     0.148 A 
ATOM     43  C   UNL     1       9.166  -9.365   0.154  1.00  0.00     0.002 A 
ATOM     44  C   UNL     1       8.029 -10.948   1.601  1.00  0.00     0.091 A 
ATOM     45  F   UNL     1       7.266 -10.227   3.744  1.00  0.00    -0.205 F 
ATOM     46  C   UNL     1       8.648 -10.638   0.378  1.00  0.00     0.022 A 
BRANCH  44  47
ATOM     47  S   UNL     1       7.440 -12.630   1.807  1.00  0.00     0.127 S 
ATOM     48  O   UNL     1       6.403 -12.708   0.780  1.00  0.00    -0.237 OA
ATOM     49  O   UNL     1       8.644 -13.409   1.522  1.00  0.00    -0.237 OA
ATOM     50  O   UNL     1       6.959 -12.725   3.180  1.00  0.00    -0.744 OA
ENDBRANCH  44  47
ENDBRANCH  26  40
BRANCH  27  51
ATOM     51  C   UNL     1       7.250  -1.263   9.060  1.00  0.00     0.023 A 
ATOM     52  C   UNL     1       8.208  -0.247   9.227  1.00  0.00     0.012 A 
ATOM     53  C   UNL     1       6.183  -1.367   9.970  1.00  0.00     0.148 A 
ATOM     54  C   UNL     1       8.117   0.635  10.307  1.00  0.00     0.002 A 
ATOM     55  C   UNL     1       6.112  -0.500  11.055  1.00  0.00     0.091 A 
ATOM     56  F   UNL     1       5.280  -2.341   9.791  1.00  0.00    -0.205 F 
ATOM     57  C   UNL     1       7.072   0.507  11.223  1.00  0.00     0.022 A 
BRANCH  55  58
ATOM     58  S   UNL     1       4.813  -0.691  12.285  1.00  0.00     0.127 S 
ATOM     59  O   UNL     1       5.352  -1.752  13.127  1.00  0.00    -0.237 OA
ATOM     60  O   UNL     1       4.769   0.630  12.912  1.00  0.00    -0.237 OA
ATOM     61  O   UNL     1       3.622  -1.023  11.511  1.00  0.00    -0.744 OA
ENDBRANCH  55  58
ENDBRANCH  27  51
BRANCH  39  62
ATOM     62  C   UNL     1      11.145  -6.971   8.852  1.00  0.00     0.023 A 
ATOM     63  C   UNL     1      10.702  -7.510  10.075  1.00  0.00     0.012 A 
ATOM     64  C   UNL     1      12.514  -6.990   8.532  1.00  0.00     0.148 A 
ATOM     65  C   UNL     1      11.619  -8.023  10.989  1.00  0.00     0.002 A 
ATOM     66  C   UNL     1      13.414  -7.558   9.421  1.00  0.00     0.091 A 
ATOM     67  F   UNL     1      12.910  -6.442   7.373  1.00  0.00    -0.205 F 
ATOM     68  C   UNL     1      12.972  -8.059  10.656  1.00  0.00     0.022 A 
BRANCH  66  69
ATOM     69  S   UNL     1      15.154  -7.741   9.025  1.00  0.00     0.127 S 
ATOM     70  O   UNL     1      15.764  -6.728   9.883  1.00  0.00    -0.237 OA
ATOM     71  O   UNL     1      15.417  -9.124   9.425  1.00  0.00    -0.237 OA
ATOM     72  O   UNL     1      15.267  -7.498   7.593  1.00  0.00    -0.744 OA
ENDBRANCH  66  69
ENDBRANCH  39  62
ENDBRANCH  13  14
ENDBRANCH   6   8
ENDBRANCH   5   6
ENDBRANCH   4   5
ENDBRANCH   3   4
ENDBRANCH   2   3
ENDBRANCH   1   2
BRANCH   1  73
ATOM     73  C   UNL     1       1.982   3.170   0.488  1.00  0.00     0.188 C 
BRANCH  73  74
ATOM     74  O   UNL     1       2.689   4.402   0.372  1.00  0.00    -0.376 OA
BRANCH  74  75
ATOM     75  C   UNL     1       4.073   4.429   0.702  1.00  0.00     0.202 C 
BRANCH  75  76
ATOM     76  C   UNL     1       4.510   4.159   2.149  1.00  0.00     0.261 C 
BRANCH  76  77
ATOM     77  O   UNL     1       3.894   3.019   2.754  1.00  0.00    -0.461 OA
BRANCH  77  78
ATOM     78  C   UNL     1       2.824   3.305   3.546  1.00  0.00     0.335 C 
ATOM     79  O   UNL     1       2.422   4.438   3.787  1.00  0.00    -0.249 OA
BRANCH  78  80
ATOM     80  C   UNL     1       2.158   2.043   4.106  1.00  0.00     0.228 C 
ATOM     81  C   UNL     1       2.921   0.750   3.967  1.00  0.00     0.047 C 
ATOM     82  O   UNL     1       0.814   1.719   3.770  1.00  0.00    -0.361 OA
ATOM     83  C   UNL     1       1.920  -0.305   4.393  1.00  0.00     0.037 C 
ATOM     84  C   UNL     1       0.556   0.352   4.179  1.00  0.00     0.139 C 
BRANCH  84  85
ATOM     85  C   UNL     1      -0.404   0.280   5.409  1.00  0.00     0.160 C 
BRANCH  85  86
ATOM     86  N   UNL     1       0.280   0.617   6.660  1.00  0.00    -0.280 N 
ATOM     87  C   UNL     1       0.447  -0.341   7.644  1.00  0.00     0.229 C 
ATOM     88  C   UNL     1       0.526   1.943   6.932  1.00  0.00     0.229 C 
ATOM     89  O   UNL     1      -0.219  -1.377   7.671  1.00  0.00    -0.274 OA
ATOM     90  C   UNL     1       1.571  -0.103   8.645  1.00  0.00     0.108 C 
ATOM     91  C   UNL     1       1.858   2.154   7.592  1.00  0.00     0.108 C 
ATOM     92  O   UNL     1      -0.184   2.876   6.573  1.00  0.00    -0.274 OA
ATOM     93  C   UNL     1       2.006   1.356   8.867  1.00  0.00    -0.012 C 
ATOM     94  C   UNL     1       3.502   1.429   9.259  1.00  0.00     0.008 C 
ATOM     95  C   UNL     1       1.247   2.053  10.016  1.00  0.00     0.008 C 
ATOM     96  C   UNL     1       3.583   2.540  10.287  1.00  0.00     0.001 C 
ATOM     97  C   UNL     1       2.300   2.357  11.076  1.00  0.00     0.001 C 
ENDBRANCH  85  86
ENDBRANCH  84  85
ENDBRANCH  78  80
ENDBRANCH  77  78
ENDBRANCH  76  77
ENDBRANCH  75  76
ENDBRANCH  74  75
ENDBRANCH  73  74
ENDBRANCH   1  73
TORSDOF 22
