REMARK SMILES Cc1c(CCC(=O)N2CCC(C(=O)OCCOCCOCCOC(=O)c3ccc(-c4c5nc(c(-c6cccc(S(=O)(=O)[O-])c6F)c6ccc([nH]6)c(-c6cccc(S(=O)(=O)[O-])c6F)c6nc(c(-c7cccc(S(=O)(=O)[O-])c7F)c7ccc4[nH]7)C=C6)C=C5)cc3)CC2)c(=O)oc2cc3oc4c(c3cc12)CCCC4
REMARK SMILES IDX 18 1 17 2 16 3 15 4 14 5 12 6 13 7 11 8 6 9 7 10 8 11 9 12
REMARK SMILES IDX 90 13 10 14 89 15 5 16 4 17 3 18 1 19 2 20 102 21 91 22
REMARK SMILES IDX 94 23 101 24 92 25 93 26 95 27 100 28 96 29 99 30 97 31
REMARK SMILES IDX 98 32 103 33 106 34 104 35 105 36 19 37 20 38 21 39 22 40
REMARK SMILES IDX 23 41 24 42 25 43 26 44 27 45 88 46 28 47 87 48 29 49 30 50
REMARK SMILES IDX 31 51 81 52 32 53 86 54 80 55 82 56 33 57 85 58 79 59 78 60
REMARK SMILES IDX 34 62 66 63 46 64 65 65 47 66 50 67 64 68 83 69 48 70 49 71
REMARK SMILES IDX 63 73 84 74 51 75 35 76 36 77 44 78 37 79 39 80 45 81 38 82
REMARK SMILES IDX 40 83 41 84 42 85 43 86 67 87 68 88 76 89 69 90 71 91 77 92
REMARK SMILES IDX 70 93 72 94 73 95 74 96 75 97 52 98 53 99 61 100 54 101
REMARK SMILES IDX 56 102 62 103 55 104 57 105 58 106 59 107 60 108
REMARK H PARENT 82 61 50 72
REMARK Flexibility Score: inf
ROOT
ATOM      1  C   UNL     1      -0.362  -6.164   1.440  1.00  0.00     0.188 C 
ENDROOT
BRANCH   1   2
ATOM      2  O   UNL     1       0.886  -5.841   0.838  1.00  0.00    -0.376 OA
BRANCH   2   3
ATOM      3  C   UNL     1       2.036  -5.941   1.661  1.00  0.00     0.202 C 
BRANCH   3   4
ATOM      4  C   UNL     1       2.748  -4.599   1.887  1.00  0.00     0.261 C 
BRANCH   4   5
ATOM      5  O   UNL     1       1.879  -3.531   2.340  1.00  0.00    -0.463 OA
BRANCH   5   6
ATOM      6  C   UNL     1       1.373  -2.838   1.299  1.00  0.00     0.309 C 
ATOM      7  O   UNL     1       1.645  -3.114   0.131  1.00  0.00    -0.252 OA
BRANCH   6   8
ATOM      8  C   UNL     1       0.409  -1.697   1.579  1.00  0.00     0.103 C 
ATOM      9  C   UNL     1       0.076   2.412   1.499  1.00  0.00     0.222 C 
ATOM     10  O   UNL     1       0.414   2.981   2.542  1.00  0.00    -0.275 OA
ATOM     11  N   UNL     1      -0.414   1.107   1.532  1.00  0.00    -0.343 N 
ATOM     12  C   UNL     1      -0.752   0.312   2.745  1.00  0.00     0.120 C 
ATOM     13  C   UNL     1      -0.245   0.291   0.382  1.00  0.00     0.120 C 
ATOM     14  C   UNL     1       0.053  -1.051   2.925  1.00  0.00     0.037 C 
ATOM     15  C   UNL     1       0.949  -0.559   0.736  1.00  0.00     0.037 C 
BRANCH   9  16
ATOM     16  C   UNL     1       0.066   3.217   0.130  1.00  0.00     0.105 C 
BRANCH  16  17
ATOM     17  C   UNL     1       1.142   3.087  -1.012  1.00  0.00     0.053 C 
BRANCH  17  18
ATOM     18  C   UNL     1       0.811   2.180  -2.204  1.00  0.00     0.042 A 
ATOM     19  C   UNL     1       2.673   0.492  -1.822  1.00  0.00     0.046 C 
ATOM     20  C   UNL     1       1.388   0.983  -2.413  1.00  0.00    -0.030 A 
ATOM     21  C   UNL     1       0.487   0.017  -3.045  1.00  0.00     0.022 A 
ATOM     22  C   UNL     1      -0.055   2.669  -3.337  1.00  0.00     0.339 A 
ATOM     23  C   UNL     1      -0.259   0.400  -4.141  1.00  0.00     0.142 A 
ATOM     24  C   UNL     1       0.211  -1.211  -2.457  1.00  0.00     0.024 A 
ATOM     25  O   UNL     1      -0.406   3.846  -3.381  1.00  0.00    -0.246 OA
ATOM     26  O   UNL     1      -0.320   1.783  -4.405  1.00  0.00    -0.422 OA
ATOM     27  C   UNL     1      -0.990  -0.531  -4.904  1.00  0.00     0.095 A 
ATOM     28  C   UNL     1      -0.694  -2.086  -3.032  1.00  0.00     0.025 A 
ATOM     29  C   UNL     1      -1.125  -1.799  -4.316  1.00  0.00     0.138 A 
ATOM     30  C   UNL     1      -1.142  -3.371  -2.689  1.00  0.00     0.001 A 
ATOM     31  O   UNL     1      -1.566  -2.972  -4.870  1.00  0.00    -0.461 OA
ATOM     32  C   UNL     1      -1.413  -3.924  -3.910  1.00  0.00     0.108 A 
ATOM     33  C   UNL     1      -0.838  -4.273  -1.559  1.00  0.00     0.040 C 
ATOM     34  C   UNL     1      -0.987  -5.324  -4.187  1.00  0.00     0.076 C 
ATOM     35  C   UNL     1       0.270  -5.265  -1.965  1.00  0.00     0.005 C 
ATOM     36  C   UNL     1       0.377  -5.499  -3.482  1.00  0.00     0.008 C 
ENDBRANCH  17  18
ENDBRANCH  16  17
ENDBRANCH   9  16
ENDBRANCH   6   8
ENDBRANCH   5   6
ENDBRANCH   4   5
ENDBRANCH   3   4
ENDBRANCH   2   3
ENDBRANCH   1   2
BRANCH   1  37
ATOM     37  C   UNL     1      -0.889  -5.023   2.311  1.00  0.00     0.188 C 
BRANCH  37  38
ATOM     38  O   UNL     1      -0.333  -4.907   3.618  1.00  0.00    -0.376 OA
BRANCH  38  39
ATOM     39  C   UNL     1      -0.332  -6.085   4.418  1.00  0.00     0.202 C 
BRANCH  39  40
ATOM     40  C   UNL     1      -1.700  -6.691   4.760  1.00  0.00     0.261 C 
BRANCH  40  41
ATOM     41  O   UNL     1      -2.385  -7.181   3.590  1.00  0.00    -0.460 OA
BRANCH  41  42
ATOM     42  C   UNL     1      -3.567  -6.579   3.277  1.00  0.00     0.338 C 
ATOM     43  O   UNL     1      -4.174  -5.763   3.951  1.00  0.00    -0.246 OA
BRANCH  42  44
ATOM     44  C   UNL     1      -3.865  -6.878   1.856  1.00  0.00     0.060 A 
ATOM     45  C   UNL     1      -3.836  -8.189   1.388  1.00  0.00     0.016 A 
ATOM     46  C   UNL     1      -4.060  -5.816   0.959  1.00  0.00     0.016 A 
ATOM     47  C   UNL     1      -3.972  -8.430   0.019  1.00  0.00     0.010 A 
ATOM     48  C   UNL     1      -4.164  -6.062  -0.415  1.00  0.00     0.010 A 
ATOM     49  C   UNL     1      -4.107  -7.370  -0.904  1.00  0.00    -0.014 A 
BRANCH  49  50
ATOM     50  C   UNL     1      -4.285  -7.689  -2.339  1.00  0.00     0.031 A 
ATOM     51  C   UNL     1      -5.076  -6.769  -3.227  1.00  0.00     0.074 A 
ATOM     52  C   UNL     1      -3.473  -8.559  -2.972  1.00  0.00     0.049 A 
ATOM     53  N   UNL     1      -4.571  -5.961  -4.120  1.00  0.00    -0.248 NA
ATOM     54  C   UNL     1      -6.513  -6.597  -3.014  1.00  0.00     0.031 C 
ATOM     55  C   UNL     1      -2.014  -8.594  -2.808  1.00  0.00     0.029 A 
ATOM     56  N   UNL     1      -3.716  -9.366  -4.051  1.00  0.00    -0.354 N 
ATOM     57  C   UNL     1      -5.608  -5.137  -4.559  1.00  0.00     0.074 A 
ATOM     58  C   UNL     1      -6.788  -5.578  -3.838  1.00  0.00     0.031 C 
ATOM     59  C   UNL     1      -1.481  -9.219  -3.881  1.00  0.00     0.029 A 
ATOM     60  C   UNL     1      -2.558  -9.796  -4.671  1.00  0.00     0.049 A 
ATOM     61  H   UNL     1      -4.619  -9.614  -4.353  1.00  0.00     0.167 HD
ATOM     62  C   UNL     1      -5.502  -4.153  -5.501  1.00  0.00     0.034 A 
ATOM     63  C   UNL     1      -2.468 -10.318  -5.919  1.00  0.00     0.034 A 
ATOM     64  C   UNL     1      -4.260  -3.949  -6.234  1.00  0.00     0.049 A 
ATOM     65  C   UNL     1      -2.553  -9.088  -6.785  1.00  0.00     0.074 A 
ATOM     66  C   UNL     1      -3.759  -2.955  -7.063  1.00  0.00     0.029 A 
ATOM     67  N   UNL     1      -3.303  -4.926  -6.253  1.00  0.00    -0.354 N 
ATOM     68  N   UNL     1      -1.553  -8.319  -7.137  1.00  0.00    -0.248 NA
ATOM     69  C   UNL     1      -3.882  -8.544  -7.101  1.00  0.00     0.031 C 
ATOM     70  C   UNL     1      -2.598  -3.468  -7.731  1.00  0.00     0.029 A 
ATOM     71  C   UNL     1      -2.417  -4.774  -7.316  1.00  0.00     0.049 A 
ATOM     72  H   UNL     1      -3.247  -5.652  -5.591  1.00  0.00     0.167 HD
ATOM     73  C   UNL     1      -2.136  -7.121  -7.543  1.00  0.00     0.074 A 
ATOM     74  C   UNL     1      -3.566  -7.362  -7.610  1.00  0.00     0.031 C 
ATOM     75  C   UNL     1      -1.530  -5.891  -7.600  1.00  0.00     0.034 A 
BRANCH  62  76
ATOM     76  C   UNL     1      -6.696  -3.397  -6.020  1.00  0.00     0.023 A 
ATOM     77  C   UNL     1      -7.029  -3.668  -7.367  1.00  0.00     0.012 A 
ATOM     78  C   UNL     1      -7.335  -2.328  -5.364  1.00  0.00     0.148 A 
ATOM     79  C   UNL     1      -7.915  -2.862  -8.074  1.00  0.00     0.002 A 
ATOM     80  C   UNL     1      -8.238  -1.531  -6.077  1.00  0.00     0.091 A 
ATOM     81  F   UNL     1      -7.019  -2.072  -4.087  1.00  0.00    -0.205 F 
ATOM     82  C   UNL     1      -8.512  -1.787  -7.433  1.00  0.00     0.022 A 
BRANCH  80  83
ATOM     83  S   UNL     1      -9.098  -0.116  -5.368  1.00  0.00     0.127 S 
ATOM     84  O   UNL     1      -8.465   1.006  -6.057  1.00  0.00    -0.237 OA
ATOM     85  O   UNL     1     -10.484  -0.370  -5.766  1.00  0.00    -0.237 OA
ATOM     86  O   UNL     1      -8.864  -0.188  -3.932  1.00  0.00    -0.744 OA
ENDBRANCH  80  83
ENDBRANCH  62  76
BRANCH  63  87
ATOM     87  C   UNL     1      -3.298 -11.559  -6.116  1.00  0.00     0.023 A 
ATOM     88  C   UNL     1      -3.068 -12.615  -5.196  1.00  0.00     0.012 A 
ATOM     89  C   UNL     1      -4.283 -11.766  -7.096  1.00  0.00     0.148 A 
ATOM     90  C   UNL     1      -3.855 -13.769  -5.177  1.00  0.00     0.002 A 
ATOM     91  C   UNL     1      -5.109 -12.889  -7.037  1.00  0.00     0.091 A 
ATOM     92  F   UNL     1      -4.417 -10.879  -8.087  1.00  0.00    -0.205 F 
ATOM     93  C   UNL     1      -4.900 -13.890  -6.079  1.00  0.00     0.022 A 
BRANCH  91  94
ATOM     94  S   UNL     1      -6.543 -13.092  -8.103  1.00  0.00     0.127 S 
ATOM     95  O   UNL     1      -6.314 -14.421  -8.668  1.00  0.00    -0.237 OA
ATOM     96  O   UNL     1      -7.634 -13.013  -7.133  1.00  0.00    -0.237 OA
ATOM     97  O   UNL     1      -6.484 -11.995  -9.058  1.00  0.00    -0.744 OA
ENDBRANCH  91  94
ENDBRANCH  63  87
BRANCH  75  98
ATOM     98  C   UNL     1      -0.005  -5.826  -7.677  1.00  0.00     0.023 A 
ATOM     99  C   UNL     1       0.666  -6.835  -8.402  1.00  0.00     0.012 A 
ATOM    100  C   UNL     1       0.814  -4.867  -7.028  1.00  0.00     0.148 A 
ATOM    101  C   UNL     1       2.056  -6.978  -8.372  1.00  0.00     0.002 A 
ATOM    102  C   UNL     1       2.200  -5.048  -6.940  1.00  0.00     0.091 A 
ATOM    103  F   UNL     1       0.249  -3.794  -6.471  1.00  0.00    -0.205 F 
ATOM    104  C   UNL     1       2.819  -6.108  -7.610  1.00  0.00     0.022 A 
BRANCH 102 105
ATOM    105  S   UNL     1       3.283  -4.041  -5.902  1.00  0.00     0.127 S 
ATOM    106  O   UNL     1       3.669  -4.993  -4.859  1.00  0.00    -0.237 OA
ATOM    107  O   UNL     1       4.365  -3.696  -6.826  1.00  0.00    -0.237 OA
ATOM    108  O   UNL     1       2.494  -2.906  -5.447  1.00  0.00    -0.744 OA
ENDBRANCH 102 105
ENDBRANCH  75  98
ENDBRANCH  49  50
ENDBRANCH  42  44
ENDBRANCH  41  42
ENDBRANCH  40  41
ENDBRANCH  39  40
ENDBRANCH  38  39
ENDBRANCH  37  38
ENDBRANCH   1  37
TORSDOF 23
