REMARK SMILES O=C(COCC(=O)OCCOCCOCCOC(=O)c1ccc(-c2c3nc(c(-c4cccc(S(=O)(=O)[O-])c4F)c4ccc([nH]4)c(-c4cccc(S(=O)(=O)[O-])c4F)c4nc(c(-c5cccc(S(=O)(=O)[O-])c5F)c5ccc2[nH]5)C=C4)C=C3)cc1)Nc1cccc([N+](=O)[O-])c1
REMARK SMILES IDX 12 1 11 2 10 3 9 4 8 5 6 6 7 7 5 8 4 9 3 10 2 11 1 12 83 13
REMARK SMILES IDX 84 15 85 16 92 17 86 18 88 19 87 20 89 21 90 22 91 23 13 24
REMARK SMILES IDX 14 25 15 26 16 27 17 28 18 29 19 30 20 31 21 32 82 33 22 34
REMARK SMILES IDX 81 35 23 36 24 37 25 38 75 39 26 40 80 41 74 42 76 43 27 44
REMARK SMILES IDX 79 45 73 46 72 47 28 49 60 50 40 51 59 52 41 53 44 54 58 55
REMARK SMILES IDX 77 56 42 57 43 58 57 60 78 61 45 62 29 63 30 64 38 65 31 66
REMARK SMILES IDX 33 67 39 68 32 69 34 70 35 71 36 72 37 73 61 74 62 75 70 76
REMARK SMILES IDX 63 77 65 78 71 79 64 80 66 81 67 82 68 83 69 84 46 85 47 86
REMARK SMILES IDX 55 87 48 88 50 89 56 90 49 91 51 92 52 93 53 94 54 95
REMARK H PARENT 83 14 76 48 44 59
REMARK Flexibility Score: inf
ROOT
ATOM      1  C   UNL     1       0.267   0.395  -2.961  1.00  0.00     0.188 C 
ENDROOT
BRANCH   1   2
ATOM      2  O   UNL     1      -0.249   0.869  -4.203  1.00  0.00    -0.376 OA
BRANCH   2   3
ATOM      3  C   UNL     1       0.510   0.555  -5.364  1.00  0.00     0.202 C 
BRANCH   3   4
ATOM      4  C   UNL     1       1.881   1.240  -5.492  1.00  0.00     0.261 C 
BRANCH   4   5
ATOM      5  O   UNL     1       2.700   1.205  -4.300  1.00  0.00    -0.462 OA
BRANCH   5   6
ATOM      6  C   UNL     1       2.930   2.417  -3.720  1.00  0.00     0.332 C 
ATOM      7  O   UNL     1       2.582   3.493  -4.199  1.00  0.00    -0.250 OA
BRANCH   6   8
ATOM      8  C   UNL     1       3.615   2.345  -2.336  1.00  0.00     0.283 C 
BRANCH   8   9
ATOM      9  O   UNL     1       4.499   1.326  -1.904  1.00  0.00    -0.360 OA
BRANCH   9  10
ATOM     10  C   UNL     1       3.927   0.294  -1.120  1.00  0.00     0.261 C 
BRANCH  10  11
ATOM     11  C   UNL     1       3.069   0.632   0.124  1.00  0.00     0.250 C 
ATOM     12  O   UNL     1       1.846   0.717   0.029  1.00  0.00    -0.272 OA
ATOM     13  N   UNL     1       3.778   0.885   1.289  1.00  0.00    -0.324 N 
ATOM     14  H   UNL     1       4.761   0.912   1.251  1.00  0.00     0.170 HD
BRANCH  13  15
ATOM     15  C   UNL     1       3.136   1.105   2.530  1.00  0.00     0.048 A 
ATOM     16  C   UNL     1       3.399   2.287   3.224  1.00  0.00     0.026 A 
ATOM     17  C   UNL     1       2.271   0.161   3.091  1.00  0.00     0.111 A 
ATOM     18  C   UNL     1       2.714   2.583   4.409  1.00  0.00     0.009 A 
ATOM     19  C   UNL     1       1.630   0.437   4.314  1.00  0.00     0.271 A 
ATOM     20  C   UNL     1       1.817   1.665   4.955  1.00  0.00     0.086 A 
BRANCH  19  21
ATOM     21  N   UNL     1       0.817  -0.597   4.967  1.00  0.00     0.062 N 
ATOM     22  O   UNL     1       0.200  -0.283   5.991  1.00  0.00    -0.258 OA
ATOM     23  O   UNL     1       0.858  -1.738   4.482  1.00  0.00    -0.258 OA
ENDBRANCH  19  21
ENDBRANCH  13  15
ENDBRANCH  10  11
ENDBRANCH   9  10
ENDBRANCH   8   9
ENDBRANCH   6   8
ENDBRANCH   5   6
ENDBRANCH   4   5
ENDBRANCH   3   4
ENDBRANCH   2   3
ENDBRANCH   1   2
BRANCH   1  24
ATOM     24  C   UNL     1       0.577  -1.101  -2.895  1.00  0.00     0.188 C 
BRANCH  24  25
ATOM     25  O   UNL     1       1.498  -1.579  -3.869  1.00  0.00    -0.376 OA
BRANCH  25  26
ATOM     26  C   UNL     1       1.846  -2.963  -3.790  1.00  0.00     0.202 C 
BRANCH  26  27
ATOM     27  C   UNL     1       0.744  -4.006  -3.484  1.00  0.00     0.261 C 
BRANCH  27  28
ATOM     28  O   UNL     1      -0.067  -3.782  -2.311  1.00  0.00    -0.460 OA
BRANCH  28  29
ATOM     29  C   UNL     1       0.567  -3.696  -1.121  1.00  0.00     0.338 C 
ATOM     30  O   UNL     1       1.753  -3.933  -0.923  1.00  0.00    -0.246 OA
BRANCH  29  31
ATOM     31  C   UNL     1      -0.311  -2.982  -0.157  1.00  0.00     0.060 A 
ATOM     32  C   UNL     1       0.244  -1.885   0.498  1.00  0.00     0.016 A 
ATOM     33  C   UNL     1      -1.647  -3.308   0.084  1.00  0.00     0.016 A 
ATOM     34  C   UNL     1      -0.508  -1.125   1.392  1.00  0.00     0.010 A 
ATOM     35  C   UNL     1      -2.386  -2.577   1.040  1.00  0.00     0.010 A 
ATOM     36  C   UNL     1      -1.804  -1.503   1.740  1.00  0.00    -0.014 A 
BRANCH  36  37
ATOM     37  C   UNL     1      -2.393  -0.906   2.980  1.00  0.00     0.031 A 
ATOM     38  C   UNL     1      -2.497  -1.764   4.222  1.00  0.00     0.074 A 
ATOM     39  C   UNL     1      -2.655   0.414   3.094  1.00  0.00     0.049 A 
ATOM     40  N   UNL     1      -2.920  -1.447   5.420  1.00  0.00    -0.248 NA
ATOM     41  C   UNL     1      -2.030  -3.154   4.102  1.00  0.00     0.031 C 
ATOM     42  C   UNL     1      -2.501   1.407   2.032  1.00  0.00     0.029 A 
ATOM     43  N   UNL     1      -3.093   1.150   4.174  1.00  0.00    -0.354 N 
ATOM     44  C   UNL     1      -2.765  -2.593   6.193  1.00  0.00     0.074 A 
ATOM     45  C   UNL     1      -2.251  -3.624   5.319  1.00  0.00     0.031 C 
ATOM     46  C   UNL     1      -2.845   2.616   2.509  1.00  0.00     0.029 A 
ATOM     47  C   UNL     1      -3.292   2.483   3.895  1.00  0.00     0.049 A 
ATOM     48  H   UNL     1      -3.249   0.758   5.064  1.00  0.00     0.167 HD
ATOM     49  C   UNL     1      -2.993  -2.780   7.515  1.00  0.00     0.034 A 
ATOM     50  C   UNL     1      -3.804   3.479   4.650  1.00  0.00     0.034 A 
ATOM     51  C   UNL     1      -3.467  -1.768   8.419  1.00  0.00     0.049 A 
ATOM     52  C   UNL     1      -4.223   3.203   6.073  1.00  0.00     0.074 A 
ATOM     53  C   UNL     1      -3.749  -1.887   9.769  1.00  0.00     0.029 A 
ATOM     54  N   UNL     1      -3.732  -0.455   8.071  1.00  0.00    -0.354 N 
ATOM     55  N   UNL     1      -4.055   2.120   6.790  1.00  0.00    -0.248 NA
ATOM     56  C   UNL     1      -4.888   4.300   6.797  1.00  0.00     0.031 C 
ATOM     57  C   UNL     1      -4.243  -0.659  10.224  1.00  0.00     0.029 A 
ATOM     58  C   UNL     1      -4.222   0.236   9.168  1.00  0.00     0.049 A 
ATOM     59  H   UNL     1      -3.594  -0.069   7.176  1.00  0.00     0.167 HD
ATOM     60  C   UNL     1      -4.555   2.416   8.056  1.00  0.00     0.074 A 
ATOM     61  C   UNL     1      -5.013   3.788   8.014  1.00  0.00     0.031 C 
ATOM     62  C   UNL     1      -4.635   1.616   9.149  1.00  0.00     0.034 A 
BRANCH  49  63
ATOM     63  C   UNL     1      -2.757  -4.162   8.062  1.00  0.00     0.023 A 
ATOM     64  C   UNL     1      -1.444  -4.635   8.261  1.00  0.00     0.012 A 
ATOM     65  C   UNL     1      -3.850  -4.987   8.392  1.00  0.00     0.148 A 
ATOM     66  C   UNL     1      -1.224  -5.925   8.745  1.00  0.00     0.002 A 
ATOM     67  C   UNL     1      -3.623  -6.253   8.914  1.00  0.00     0.091 A 
ATOM     68  F   UNL     1      -5.089  -4.526   8.169  1.00  0.00    -0.205 F 
ATOM     69  C   UNL     1      -2.312  -6.729   9.081  1.00  0.00     0.022 A 
BRANCH  67  70
ATOM     70  S   UNL     1      -4.962  -7.330   9.435  1.00  0.00     0.127 S 
ATOM     71  O   UNL     1      -4.958  -8.338   8.376  1.00  0.00    -0.237 OA
ATOM     72  O   UNL     1      -4.486  -7.809  10.733  1.00  0.00    -0.237 OA
ATOM     73  O   UNL     1      -6.151  -6.491   9.498  1.00  0.00    -0.744 OA
ENDBRANCH  67  70
ENDBRANCH  49  63
BRANCH  50  74
ATOM     74  C   UNL     1      -3.979   4.848   4.077  1.00  0.00     0.023 A 
ATOM     75  C   UNL     1      -3.259   5.934   4.613  1.00  0.00     0.012 A 
ATOM     76  C   UNL     1      -4.886   5.083   3.024  1.00  0.00     0.148 A 
ATOM     77  C   UNL     1      -3.456   7.229   4.128  1.00  0.00     0.002 A 
ATOM     78  C   UNL     1      -5.033   6.364   2.506  1.00  0.00     0.091 A 
ATOM     79  F   UNL     1      -5.590   4.045   2.551  1.00  0.00    -0.205 F 
ATOM     80  C   UNL     1      -4.333   7.442   3.068  1.00  0.00     0.022 A 
BRANCH  78  81
ATOM     81  S   UNL     1      -6.054   6.712   1.070  1.00  0.00     0.127 S 
ATOM     82  O   UNL     1      -7.107   7.544   1.647  1.00  0.00    -0.237 OA
ATOM     83  O   UNL     1      -5.114   7.422   0.202  1.00  0.00    -0.237 OA
ATOM     84  O   UNL     1      -6.484   5.416   0.565  1.00  0.00    -0.744 OA
ENDBRANCH  78  81
ENDBRANCH  50  74
BRANCH  62  85
ATOM     85  C   UNL     1      -5.204   2.206  10.417  1.00  0.00     0.023 A 
ATOM     86  C   UNL     1      -6.576   2.518  10.498  1.00  0.00     0.012 A 
ATOM     87  C   UNL     1      -4.388   2.402  11.550  1.00  0.00     0.148 A 
ATOM     88  C   UNL     1      -7.116   3.057  11.667  1.00  0.00     0.002 A 
ATOM     89  C   UNL     1      -4.943   2.889  12.729  1.00  0.00     0.091 A 
ATOM     90  F   UNL     1      -3.081   2.116  11.456  1.00  0.00    -0.205 F 
ATOM     91  C   UNL     1      -6.303   3.232  12.784  1.00  0.00     0.022 A 
BRANCH  89  92
ATOM     92  S   UNL     1      -3.994   3.055  14.246  1.00  0.00     0.127 S 
ATOM     93  O   UNL     1      -3.836   4.505  14.342  1.00  0.00    -0.237 OA
ATOM     94  O   UNL     1      -4.894   2.473  15.242  1.00  0.00    -0.237 OA
ATOM     95  O   UNL     1      -2.763   2.305  14.034  1.00  0.00    -0.744 OA
ENDBRANCH  89  92
ENDBRANCH  62  85
ENDBRANCH  36  37
ENDBRANCH  29  31
ENDBRANCH  28  29
ENDBRANCH  27  28
ENDBRANCH  26  27
ENDBRANCH  25  26
ENDBRANCH  24  25
ENDBRANCH   1  24
TORSDOF 25
