REMARK SMILES NC(=O)[C@@H]1CCCCN1c1cncc(C(=O)OCCOCCOCCOC(=O)c2ccc(-c3c4nc(c(-c5cccc(S(=O)(=O)[O-])c5F)c5ccc([nH]5)c(-c5cccc(S(=O)(=O)[O-])c5F)c5nc(c(-c6cccc(S(=O)(=O)[O-])c6F)c6ccc3[nH]6)C=C5)C=C4)cc2)n1
REMARK SMILES IDX 22 1 21 2 20 3 19 4 18 5 17 6 15 7 16 8 14 9 10 10 11 11
REMARK SMILES IDX 92 12 12 13 13 14 9 15 4 16 5 17 6 18 8 19 7 20 2 21 1 22
REMARK SMILES IDX 3 25 23 26 24 27 25 28 26 29 27 30 28 31 29 32 30 33 91 34
REMARK SMILES IDX 31 35 90 36 32 37 33 38 34 39 84 40 35 41 89 42 83 43 85 44
REMARK SMILES IDX 36 45 88 46 82 47 81 48 37 50 69 51 49 52 68 53 50 54 53 55
REMARK SMILES IDX 67 56 86 57 51 58 52 59 66 61 87 62 54 63 38 64 39 65 47 66
REMARK SMILES IDX 40 67 42 68 48 69 41 70 43 71 44 72 45 73 46 74 70 75 71 76
REMARK SMILES IDX 79 77 72 78 74 79 80 80 73 81 75 82 76 83 77 84 78 85 55 86
REMARK SMILES IDX 56 87 64 88 57 89 59 90 65 91 58 92 60 93 61 94 62 95 63 96
REMARK H PARENT 1 23 1 24 85 49 53 60
REMARK Flexibility Score: inf
ROOT
ATOM      1  C   UNL     1       1.548   4.792   3.832  1.00  0.00     0.188 C 
ENDROOT
BRANCH   1   2
ATOM      2  C   UNL     1       0.546   4.394   4.935  1.00  0.00     0.188 C 
BRANCH   2   3
ATOM      3  O   UNL     1       0.983   3.667   6.062  1.00  0.00    -0.376 OA
BRANCH   3   4
ATOM      4  C   UNL     1       1.478   2.346   5.945  1.00  0.00     0.202 C 
BRANCH   4   5
ATOM      5  C   UNL     1       1.032   1.349   4.866  1.00  0.00     0.261 C 
BRANCH   5   6
ATOM      6  O   UNL     1       0.790   1.893   3.566  1.00  0.00    -0.458 OA
BRANCH   6   7
ATOM      7  C   UNL     1      -0.495   1.760   3.119  1.00  0.00     0.358 C 
ATOM      8  O   UNL     1      -1.402   1.197   3.678  1.00  0.00    -0.244 OA
BRANCH   7   9
ATOM      9  C   UNL     1      -0.675   2.595   1.910  1.00  0.00     0.169 A 
ATOM     10  C   UNL     1       0.004   3.267  -0.187  1.00  0.00     0.148 A 
ATOM     11  C   UNL     1      -1.006   4.241  -0.130  1.00  0.00     0.157 A 
ATOM     12  N   UNL     1       0.203   2.462   0.879  1.00  0.00    -0.220 NA
ATOM     13  N   UNL     1      -1.861   4.408   0.913  1.00  0.00    -0.258 NA
ATOM     14  C   UNL     1      -1.694   3.532   1.925  1.00  0.00     0.147 A 
BRANCH  10  15
ATOM     15  N   UNL     1       0.771   3.075  -1.311  1.00  0.00    -0.343 N 
ATOM     16  C   UNL     1       1.165   1.731  -1.780  1.00  0.00     0.172 C 
ATOM     17  C   UNL     1       2.692   1.628  -1.740  1.00  0.00     0.035 C 
ATOM     18  C   UNL     1       3.312   2.738  -2.593  1.00  0.00     0.004 C 
ATOM     19  C   UNL     1       1.289   4.199  -2.085  1.00  0.00     0.119 C 
ATOM     20  C   UNL     1       2.818   4.117  -2.147  1.00  0.00     0.022 C 
BRANCH  16  21
ATOM     21  C   UNL     1       0.421   0.532  -1.149  1.00  0.00     0.240 C 
ATOM     22  N   UNL     1       1.026  -0.122  -0.113  1.00  0.00    -0.368 N 
ATOM     23  H   UNL     1       0.580  -0.890   0.312  1.00  0.00     0.159 HD
ATOM     24  H   UNL     1       1.908   0.175   0.209  1.00  0.00     0.159 HD
ATOM     25  O   UNL     1      -0.681   0.151  -1.545  1.00  0.00    -0.273 OA
ENDBRANCH  16  21
ENDBRANCH  10  15
ENDBRANCH   7   9
ENDBRANCH   6   7
ENDBRANCH   5   6
ENDBRANCH   4   5
ENDBRANCH   3   4
ENDBRANCH   2   3
ENDBRANCH   1   2
BRANCH   1  26
ATOM     26  O   UNL     1       2.916   4.449   3.924  1.00  0.00    -0.376 OA
BRANCH  26  27
ATOM     27  C   UNL     1       3.674   4.832   5.058  1.00  0.00     0.202 C 
BRANCH  27  28
ATOM     28  C   UNL     1       3.558   6.213   5.716  1.00  0.00     0.261 C 
BRANCH  28  29
ATOM     29  O   UNL     1       2.235   6.737   5.853  1.00  0.00    -0.460 OA
BRANCH  29  30
ATOM     30  C   UNL     1       1.967   7.821   5.083  1.00  0.00     0.338 C 
ATOM     31  O   UNL     1       2.713   8.364   4.286  1.00  0.00    -0.246 OA
BRANCH  30  32
ATOM     32  C   UNL     1       0.545   8.175   5.224  1.00  0.00     0.060 A 
ATOM     33  C   UNL     1      -0.282   8.078   4.097  1.00  0.00     0.016 A 
ATOM     34  C   UNL     1       0.047   8.654   6.436  1.00  0.00     0.016 A 
ATOM     35  C   UNL     1      -1.612   8.484   4.173  1.00  0.00     0.010 A 
ATOM     36  C   UNL     1      -1.282   9.079   6.504  1.00  0.00     0.010 A 
ATOM     37  C   UNL     1      -2.108   9.024   5.367  1.00  0.00    -0.014 A 
BRANCH  37  38
ATOM     38  C   UNL     1      -3.439   9.675   5.387  1.00  0.00     0.031 A 
ATOM     39  C   UNL     1      -3.513  11.173   5.276  1.00  0.00     0.074 A 
ATOM     40  C   UNL     1      -4.562   8.949   5.522  1.00  0.00     0.049 A 
ATOM     41  N   UNL     1      -4.558  11.956   5.321  1.00  0.00    -0.248 NA
ATOM     42  C   UNL     1      -2.236  11.883   5.093  1.00  0.00     0.031 C 
ATOM     43  C   UNL     1      -4.619   7.493   5.637  1.00  0.00     0.029 A 
ATOM     44  N   UNL     1      -5.872   9.347   5.618  1.00  0.00    -0.354 N 
ATOM     45  C   UNL     1      -4.066  13.250   5.205  1.00  0.00     0.074 A 
ATOM     46  C   UNL     1      -2.627  13.149   5.095  1.00  0.00     0.031 C 
ATOM     47  C   UNL     1      -5.897   7.121   5.823  1.00  0.00     0.029 A 
ATOM     48  C   UNL     1      -6.743   8.313   5.864  1.00  0.00     0.049 A 
ATOM     49  H   UNL     1      -6.160  10.284   5.519  1.00  0.00     0.167 HD
ATOM     50  C   UNL     1      -4.751  14.418   5.179  1.00  0.00     0.034 A 
ATOM     51  C   UNL     1      -8.067   8.331   6.118  1.00  0.00     0.034 A 
ATOM     52  C   UNL     1      -6.182  14.516   5.274  1.00  0.00     0.049 A 
ATOM     53  C   UNL     1      -8.803   9.647   6.108  1.00  0.00     0.074 A 
ATOM     54  C   UNL     1      -6.972  15.650   5.206  1.00  0.00     0.029 A 
ATOM     55  N   UNL     1      -7.038  13.444   5.473  1.00  0.00    -0.354 N 
ATOM     56  N   UNL     1      -8.342  10.851   5.871  1.00  0.00    -0.248 NA
ATOM     57  C   UNL     1     -10.250   9.602   6.368  1.00  0.00     0.031 C 
ATOM     58  C   UNL     1      -8.304  15.266   5.394  1.00  0.00     0.029 A 
ATOM     59  C   UNL     1      -8.346  13.889   5.545  1.00  0.00     0.049 A 
ATOM     60  H   UNL     1      -6.756  12.504   5.551  1.00  0.00     0.167 HD
ATOM     61  C   UNL     1      -9.444  11.699   5.914  1.00  0.00     0.074 A 
ATOM     62  C   UNL     1     -10.599  10.868   6.183  1.00  0.00     0.031 C 
ATOM     63  C   UNL     1      -9.495  13.046   5.757  1.00  0.00     0.034 A 
BRANCH  50  64
ATOM     64  C   UNL     1      -3.959  15.688   5.023  1.00  0.00     0.023 A 
ATOM     65  C   UNL     1      -3.375  15.999   3.778  1.00  0.00     0.012 A 
ATOM     66  C   UNL     1      -3.838  16.599   6.091  1.00  0.00     0.148 A 
ATOM     67  C   UNL     1      -2.657  17.181   3.607  1.00  0.00     0.002 A 
ATOM     68  C   UNL     1      -3.158  17.796   5.900  1.00  0.00     0.091 A 
ATOM     69  F   UNL     1      -4.379  16.273   7.273  1.00  0.00    -0.205 F 
ATOM     70  C   UNL     1      -2.558  18.083   4.663  1.00  0.00     0.022 A 
BRANCH  68  71
ATOM     71  S   UNL     1      -3.042  19.057   7.173  1.00  0.00     0.127 S 
ATOM     72  O   UNL     1      -1.628  18.976   7.540  1.00  0.00    -0.237 OA
ATOM     73  O   UNL     1      -3.413  20.268   6.441  1.00  0.00    -0.237 OA
ATOM     74  O   UNL     1      -3.981  18.664   8.215  1.00  0.00    -0.744 OA
ENDBRANCH  68  71
ENDBRANCH  50  64
BRANCH  51  75
ATOM     75  C   UNL     1      -8.794   7.056   6.378  1.00  0.00     0.023 A 
ATOM     76  C   UNL     1      -9.723   6.581   5.432  1.00  0.00     0.012 A 
ATOM     77  C   UNL     1      -8.566   6.310   7.551  1.00  0.00     0.148 A 
ATOM     78  C   UNL     1     -10.436   5.404   5.664  1.00  0.00     0.002 A 
ATOM     79  C   UNL     1      -9.239   5.111   7.751  1.00  0.00     0.091 A 
ATOM     80  F   UNL     1      -7.691   6.789   8.447  1.00  0.00    -0.205 F 
ATOM     81  C   UNL     1     -10.187   4.665   6.818  1.00  0.00     0.022 A 
BRANCH  79  82
ATOM     82  S   UNL     1      -8.896   4.035   9.148  1.00  0.00     0.127 S 
ATOM     83  O   UNL     1     -10.120   4.166   9.934  1.00  0.00    -0.237 OA
ATOM     84  O   UNL     1      -8.721   2.738   8.493  1.00  0.00    -0.237 OA
ATOM     85  O   UNL     1      -7.688   4.564   9.766  1.00  0.00    -0.744 OA
ENDBRANCH  79  82
ENDBRANCH  51  75
BRANCH  63  86
ATOM     86  C   UNL     1     -10.845  13.714   5.827  1.00  0.00     0.023 A 
ATOM     87  C   UNL     1     -11.504  13.839   7.066  1.00  0.00     0.012 A 
ATOM     88  C   UNL     1     -11.420  14.291   4.677  1.00  0.00     0.148 A 
ATOM     89  C   UNL     1     -12.730  14.499   7.153  1.00  0.00     0.002 A 
ATOM     90  C   UNL     1     -12.616  14.991   4.780  1.00  0.00     0.091 A 
ATOM     91  F   UNL     1     -10.785  14.147   3.504  1.00  0.00    -0.205 F 
ATOM     92  C   UNL     1     -13.279  15.085   6.014  1.00  0.00     0.022 A 
BRANCH  90  93
ATOM     93  S   UNL     1     -13.346  15.861   3.388  1.00  0.00     0.127 S 
ATOM     94  O   UNL     1     -14.499  15.016   3.080  1.00  0.00    -0.237 OA
ATOM     95  O   UNL     1     -13.681  17.159   3.974  1.00  0.00    -0.237 OA
ATOM     96  O   UNL     1     -12.316  15.912   2.360  1.00  0.00    -0.744 OA
ENDBRANCH  90  93
ENDBRANCH  63  86
ENDBRANCH  37  38
ENDBRANCH  30  32
ENDBRANCH  29  30
ENDBRANCH  28  29
ENDBRANCH  27  28
ENDBRANCH  26  27
ENDBRANCH   1  26
TORSDOF 22
