REMARK SMILES O=C(OCCOCCOCCOC(=O)c1cc(-c2ccccc2)nc(Nc2nc3ccccc3s2)n1)c1ccc(-c2c3nc(c(-c4cccc(S(=O)(=O)[O-])c4F)c4ccc([nH]4)c(-c4cccc(S(=O)(=O)[O-])c4F)c4nc(c(-c5cccc(S(=O)(=O)[O-])c5F)c5ccc2[nH]5)C=C4)C=C3)cc1
REMARK SMILES IDX 7 1 6 2 5 3 4 4 3 5 2 6 1 7 37 8 38 9 99 10 39 11 98 12
REMARK SMILES IDX 40 13 41 14 42 15 92 16 43 17 97 18 91 19 93 20 44 21 96 22
REMARK SMILES IDX 90 23 89 24 45 26 77 27 57 28 76 29 58 30 61 31 75 32 94 33
REMARK SMILES IDX 59 34 60 35 74 37 95 38 62 39 46 40 47 41 55 42 48 43 50 44
REMARK SMILES IDX 56 45 49 46 51 47 52 48 53 49 54 50 78 51 79 52 87 53 80 54
REMARK SMILES IDX 82 55 88 56 81 57 83 58 84 59 85 60 86 61 63 62 64 63 72 64
REMARK SMILES IDX 65 65 67 66 73 67 66 68 68 69 69 70 70 71 71 72 8 73 9 74
REMARK SMILES IDX 10 75 11 76 12 77 13 78 14 79 15 80 16 81 36 82 17 83 25 84
REMARK SMILES IDX 24 85 18 86 19 87 23 88 20 89 22 90 21 91 26 92 27 94 28 95
REMARK SMILES IDX 35 96 29 97 34 98 30 99 33 100 31 101 32 102
REMARK H PARENT 93 25 61 36 26 93
REMARK Flexibility Score: inf
ROOT
ATOM      1  C   UNL     1       2.999  -1.772   0.396  1.00  0.00     0.188 C 
ENDROOT
BRANCH   1   2
ATOM      2  O   UNL     1       4.320  -1.692  -0.140  1.00  0.00    -0.376 OA
BRANCH   2   3
ATOM      3  C   UNL     1       5.358  -1.296   0.767  1.00  0.00     0.202 C 
BRANCH   3   4
ATOM      4  C   UNL     1       5.106  -0.035   1.606  1.00  0.00     0.261 C 
BRANCH   4   5
ATOM      5  O   UNL     1       4.957   1.091   0.742  1.00  0.00    -0.460 OA
BRANCH   5   6
ATOM      6  C   UNL     1       3.680   1.356   0.355  1.00  0.00     0.338 C 
ATOM      7  O   UNL     1       2.703   1.317   1.069  1.00  0.00    -0.246 OA
BRANCH   6   8
ATOM      8  C   UNL     1       3.738   1.635  -1.101  1.00  0.00     0.060 A 
ATOM      9  C   UNL     1       4.728   0.977  -1.839  1.00  0.00     0.016 A 
ATOM     10  C   UNL     1       2.898   2.557  -1.724  1.00  0.00     0.016 A 
ATOM     11  C   UNL     1       5.012   1.357  -3.126  1.00  0.00     0.010 A 
ATOM     12  C   UNL     1       3.139   2.895  -3.062  1.00  0.00     0.010 A 
ATOM     13  C   UNL     1       4.247   2.345  -3.733  1.00  0.00    -0.014 A 
BRANCH  13  14
ATOM     14  C   UNL     1       4.807   2.935  -4.961  1.00  0.00     0.031 A 
ATOM     15  C   UNL     1       5.470   4.274  -4.857  1.00  0.00     0.074 A 
ATOM     16  C   UNL     1       4.980   2.193  -6.069  1.00  0.00     0.049 A 
ATOM     17  N   UNL     1       6.108   4.943  -5.777  1.00  0.00    -0.248 NA
ATOM     18  C   UNL     1       5.490   4.908  -3.527  1.00  0.00     0.031 C 
ATOM     19  C   UNL     1       4.698   0.760  -6.175  1.00  0.00     0.029 A 
ATOM     20  N   UNL     1       5.498   2.522  -7.297  1.00  0.00    -0.354 N 
ATOM     21  C   UNL     1       6.582   6.082  -5.147  1.00  0.00     0.074 A 
ATOM     22  C   UNL     1       6.161   6.022  -3.767  1.00  0.00     0.031 C 
ATOM     23  C   UNL     1       5.052   0.359  -7.403  1.00  0.00     0.029 A 
ATOM     24  C   UNL     1       5.362   1.509  -8.214  1.00  0.00     0.049 A 
ATOM     25  H   UNL     1       5.920   3.389  -7.498  1.00  0.00     0.167 HD
ATOM     26  C   UNL     1       7.311   7.084  -5.683  1.00  0.00     0.034 A 
ATOM     27  C   UNL     1       5.394   1.538  -9.558  1.00  0.00     0.034 A 
ATOM     28  C   UNL     1       7.717   7.117  -7.058  1.00  0.00     0.049 A 
ATOM     29  C   UNL     1       5.967   2.767 -10.178  1.00  0.00     0.074 A 
ATOM     30  C   UNL     1       8.434   8.092  -7.723  1.00  0.00     0.029 A 
ATOM     31  N   UNL     1       7.404   6.137  -7.990  1.00  0.00    -0.354 N 
ATOM     32  N   UNL     1       6.439   3.828  -9.575  1.00  0.00    -0.248 NA
ATOM     33  C   UNL     1       6.126   2.764 -11.635  1.00  0.00     0.031 C 
ATOM     34  C   UNL     1       8.495   7.734  -9.074  1.00  0.00     0.029 A 
ATOM     35  C   UNL     1       7.864   6.511  -9.238  1.00  0.00     0.049 A 
ATOM     36  H   UNL     1       6.925   5.300  -7.791  1.00  0.00     0.167 HD
ATOM     37  C   UNL     1       7.034   4.581 -10.567  1.00  0.00     0.074 A 
ATOM     38  C   UNL     1       6.850   3.859 -11.811  1.00  0.00     0.031 C 
ATOM     39  C   UNL     1       7.694   5.755 -10.450  1.00  0.00     0.034 A 
BRANCH  26  40
ATOM     40  C   UNL     1       7.606   8.252  -4.791  1.00  0.00     0.023 A 
ATOM     41  C   UNL     1       8.541   8.150  -3.741  1.00  0.00     0.012 A 
ATOM     42  C   UNL     1       6.892   9.451  -4.973  1.00  0.00     0.148 A 
ATOM     43  C   UNL     1       8.722   9.212  -2.854  1.00  0.00     0.002 A 
ATOM     44  C   UNL     1       7.111  10.518  -4.116  1.00  0.00     0.091 A 
ATOM     45  F   UNL     1       5.981   9.508  -5.955  1.00  0.00    -0.205 F 
ATOM     46  C   UNL     1       8.012  10.396  -3.046  1.00  0.00     0.022 A 
BRANCH  44  47
ATOM     47  S   UNL     1       6.288  12.097  -4.327  1.00  0.00     0.127 S 
ATOM     48  O   UNL     1       5.365  12.103  -3.192  1.00  0.00    -0.237 OA
ATOM     49  O   UNL     1       7.402  13.039  -4.214  1.00  0.00    -0.237 OA
ATOM     50  O   UNL     1       5.663  12.053  -5.641  1.00  0.00    -0.744 OA
ENDBRANCH  44  47
ENDBRANCH  26  40
BRANCH  27  51
ATOM     51  C   UNL     1       4.853   0.439 -10.409  1.00  0.00     0.023 A 
ATOM     52  C   UNL     1       5.715  -0.354 -11.190  1.00  0.00     0.012 A 
ATOM     53  C   UNL     1       3.457   0.235 -10.511  1.00  0.00     0.148 A 
ATOM     54  C   UNL     1       5.200  -1.312 -12.071  1.00  0.00     0.002 A 
ATOM     55  C   UNL     1       2.952  -0.756 -11.353  1.00  0.00     0.091 A 
ATOM     56  F   UNL     1       2.647   1.010  -9.776  1.00  0.00    -0.205 F 
ATOM     57  C   UNL     1       3.823  -1.519 -12.145  1.00  0.00     0.022 A 
BRANCH  55  58
ATOM     58  S   UNL     1       1.204  -1.191 -11.412  1.00  0.00     0.127 S 
ATOM     59  O   UNL     1       0.831  -0.730 -12.748  1.00  0.00    -0.237 OA
ATOM     60  O   UNL     1       1.236  -2.646 -11.261  1.00  0.00    -0.237 OA
ATOM     61  O   UNL     1       0.582  -0.478 -10.305  1.00  0.00    -0.744 OA
ENDBRANCH  55  58
ENDBRANCH  27  51
BRANCH  39  62
ATOM     62  C   UNL     1       8.314   6.294 -11.699  1.00  0.00     0.023 A 
ATOM     63  C   UNL     1       7.503   6.826 -12.718  1.00  0.00     0.012 A 
ATOM     64  C   UNL     1       9.714   6.313 -11.827  1.00  0.00     0.148 A 
ATOM     65  C   UNL     1       8.082   7.348 -13.870  1.00  0.00     0.002 A 
ATOM     66  C   UNL     1      10.285   6.896 -12.945  1.00  0.00     0.091 A 
ATOM     67  F   UNL     1      10.454   5.767 -10.851  1.00  0.00    -0.205 F 
ATOM     68  C   UNL     1       9.472   7.398 -13.975  1.00  0.00     0.022 A 
BRANCH  66  69
ATOM     69  S   UNL     1      12.057   7.107 -13.114  1.00  0.00     0.127 S 
ATOM     70  O   UNL     1      12.348   6.267 -14.275  1.00  0.00    -0.237 OA
ATOM     71  O   UNL     1      12.167   8.546 -13.355  1.00  0.00    -0.237 OA
ATOM     72  O   UNL     1      12.644   6.652 -11.861  1.00  0.00    -0.744 OA
ENDBRANCH  66  69
ENDBRANCH  39  62
ENDBRANCH  13  14
ENDBRANCH   6   8
ENDBRANCH   5   6
ENDBRANCH   4   5
ENDBRANCH   3   4
ENDBRANCH   2   3
ENDBRANCH   1   2
BRANCH   1  73
ATOM     73  C   UNL     1       2.206  -3.008  -0.036  1.00  0.00     0.188 C 
BRANCH  73  74
ATOM     74  O   UNL     1       2.729  -4.291   0.308  1.00  0.00    -0.376 OA
BRANCH  74  75
ATOM     75  C   UNL     1       4.092  -4.556   0.004  1.00  0.00     0.202 C 
BRANCH  75  76
ATOM     76  C   UNL     1       4.532  -4.615  -1.464  1.00  0.00     0.261 C 
BRANCH  76  77
ATOM     77  O   UNL     1       4.010  -3.581  -2.303  1.00  0.00    -0.459 OA
BRANCH  77  78
ATOM     78  C   UNL     1       2.895  -3.952  -2.977  1.00  0.00     0.357 C 
ATOM     79  O   UNL     1       2.339  -5.042  -2.928  1.00  0.00    -0.244 OA
BRANCH  78  80
ATOM     80  C   UNL     1       2.517  -2.939  -3.970  1.00  0.00     0.154 A 
ATOM     81  C   UNL     1       2.809  -3.334  -5.235  1.00  0.00     0.065 A 
ATOM     82  N   UNL     1       1.710  -1.908  -3.645  1.00  0.00    -0.206 NA
ATOM     83  C   UNL     1       2.150  -2.668  -6.228  1.00  0.00     0.077 A 
ATOM     84  C   UNL     1       1.184  -1.235  -4.685  1.00  0.00     0.230 A 
ATOM     85  N   UNL     1       1.372  -1.599  -5.974  1.00  0.00    -0.213 NA
BRANCH  83  86
ATOM     86  C   UNL     1       2.468  -3.113  -7.586  1.00  0.00     0.000 A 
ATOM     87  C   UNL     1       3.361  -2.344  -8.309  1.00  0.00     0.010 A 
ATOM     88  C   UNL     1       2.315  -4.458  -7.960  1.00  0.00     0.010 A 
ATOM     89  C   UNL     1       4.301  -2.948  -9.140  1.00  0.00     0.001 A 
ATOM     90  C   UNL     1       3.167  -5.040  -8.903  1.00  0.00     0.001 A 
ATOM     91  C   UNL     1       4.206  -4.295  -9.446  1.00  0.00     0.000 A 
ENDBRANCH  83  86
BRANCH  84  92
ATOM     92  N   UNL     1       0.280  -0.185  -4.506  1.00  0.00    -0.300 N 
ATOM     93  H   UNL     1       0.051   0.349  -5.300  1.00  0.00     0.172 HD
BRANCH  92  94
ATOM     94  C   UNL     1      -0.306   0.162  -3.343  1.00  0.00     0.190 A 
ATOM     95  N   UNL     1       0.290   0.658  -2.280  1.00  0.00    -0.220 NA
ATOM     96  S   UNL     1      -2.026   0.034  -3.190  1.00  0.00    -0.097 S 
ATOM     97  C   UNL     1      -0.622   0.878  -1.258  1.00  0.00     0.084 A 
ATOM     98  C   UNL     1      -1.934   0.505  -1.539  1.00  0.00     0.056 A 
ATOM     99  C   UNL     1      -0.344   1.408   0.018  1.00  0.00     0.030 A 
ATOM    100  C   UNL     1      -2.946   0.559  -0.561  1.00  0.00     0.021 A 
ATOM    101  C   UNL     1      -1.330   1.451   1.006  1.00  0.00     0.002 A 
ATOM    102  C   UNL     1      -2.614   1.008   0.723  1.00  0.00     0.002 A 
ENDBRANCH  92  94
ENDBRANCH  84  92
ENDBRANCH  78  80
ENDBRANCH  77  78
ENDBRANCH  76  77
ENDBRANCH  75  76
ENDBRANCH  74  75
ENDBRANCH  73  74
ENDBRANCH   1  73
TORSDOF 23
