REMARK SMILES Cc1cn2c(CC(=O)N[C@@H](C(=O)OCCOCCOCCOC(=O)c3ccc(-c4c5nc(c(-c6cccc(S(=O)(=O)[O-])c6F)c6ccc([nH]6)c(-c6cccc(S(=O)(=O)[O-])c6F)c6nc(c(-c7cccc(S(=O)(=O)[O-])c7F)c7ccc4[nH]7)C=C6)C=C5)cc3)[C@H](C)O)csc2n1
REMARK SMILES IDX 17 1 16 2 15 3 14 4 13 5 11 6 12 7 10 8 9 9 7 10 8 11 6 13
REMARK SMILES IDX 5 14 1 15 2 16 3 17 94 18 4 19 93 20 92 21 91 22 88 23 89 24
REMARK SMILES IDX 90 25 18 27 19 28 20 29 21 30 22 31 23 32 24 33 25 34 26 35
REMARK SMILES IDX 87 36 27 37 86 38 28 39 29 40 30 41 80 42 31 43 85 44 79 45
REMARK SMILES IDX 81 46 32 47 84 48 78 49 77 50 33 52 65 53 45 54 64 55 46 56
REMARK SMILES IDX 49 57 63 58 82 59 47 60 48 61 62 63 83 64 50 65 34 66 35 67
REMARK SMILES IDX 43 68 36 69 38 70 44 71 37 72 39 73 40 74 41 75 42 76 66 77
REMARK SMILES IDX 67 78 75 79 68 80 70 81 76 82 69 83 71 84 72 85 73 86 74 87
REMARK SMILES IDX 51 88 52 89 60 90 53 91 55 92 61 93 54 94 56 95 57 96 58 97
REMARK SMILES IDX 59 98
REMARK H PARENT 9 12 90 26 81 51 49 62
REMARK Flexibility Score: inf
ROOT
ATOM      1  C   UNL     1       0.604  -6.286   5.810  1.00  0.00     0.188 C 
ENDROOT
BRANCH   1   2
ATOM      2  O   UNL     1      -0.274  -7.392   5.963  1.00  0.00    -0.376 OA
BRANCH   2   3
ATOM      3  C   UNL     1      -0.534  -8.232   4.845  1.00  0.00     0.202 C 
BRANCH   3   4
ATOM      4  C   UNL     1      -0.910  -7.609   3.485  1.00  0.00     0.261 C 
BRANCH   4   5
ATOM      5  O   UNL     1       0.023  -6.642   2.946  1.00  0.00    -0.462 OA
BRANCH   5   6
ATOM      6  C   UNL     1      -0.463  -5.392   2.721  1.00  0.00     0.331 C 
ATOM      7  O   UNL     1      -1.634  -5.066   2.892  1.00  0.00    -0.250 OA
BRANCH   6   8
ATOM      8  C   UNL     1       0.598  -4.350   2.274  1.00  0.00     0.221 C 
BRANCH   8   9
ATOM      9  N   UNL     1       1.996  -4.754   2.007  1.00  0.00    -0.340 N 
ATOM     10  C   UNL     1       2.645  -5.045   0.848  1.00  0.00     0.226 C 
ATOM     11  O   UNL     1       3.851  -5.290   0.884  1.00  0.00    -0.275 OA
ATOM     12  H   UNL     1       2.557  -4.825   2.812  1.00  0.00     0.164 HD
BRANCH  10  13
ATOM     13  C   UNL     1       1.898  -5.023  -0.473  1.00  0.00     0.155 C 
BRANCH  13  14
ATOM     14  C   UNL     1       0.922  -6.147  -0.538  1.00  0.00     0.044 A 
ATOM     15  C   UNL     1      -3.800  -4.663  -0.134  1.00  0.00     0.068 C 
ATOM     16  C   UNL     1      -2.537  -5.389  -0.395  1.00  0.00     0.057 A 
ATOM     17  C   UNL     1      -1.280  -4.855  -0.642  1.00  0.00     0.117 A 
ATOM     18  N   UNL     1      -2.490  -6.775  -0.351  1.00  0.00    -0.224 NA
ATOM     19  N   UNL     1      -0.442  -5.930  -0.601  1.00  0.00    -0.294 N 
ATOM     20  C   UNL     1      -1.222  -7.041  -0.498  1.00  0.00     0.194 A 
ATOM     21  S   UNL     1      -0.255  -8.479  -0.411  1.00  0.00    -0.105 S 
ATOM     22  C   UNL     1       1.196  -7.464  -0.429  1.00  0.00     0.091 A 
ENDBRANCH  13  14
ENDBRANCH  10  13
ENDBRANCH   8   9
BRANCH   8  23
ATOM     23  C   UNL     1       0.572  -3.198   3.319  1.00  0.00     0.145 C 
ATOM     24  C   UNL     1      -0.384  -2.079   2.908  1.00  0.00     0.041 C 
BRANCH  23  25
ATOM     25  O   UNL     1       1.889  -2.659   3.516  1.00  0.00    -0.391 OA
ATOM     26  H   UNL     1       2.210  -2.278   2.684  1.00  0.00     0.211 HD
ENDBRANCH  23  25
ENDBRANCH   8  23
ENDBRANCH   6   8
ENDBRANCH   5   6
ENDBRANCH   4   5
ENDBRANCH   3   4
ENDBRANCH   2   3
ENDBRANCH   1   2
BRANCH   1  27
ATOM     27  C   UNL     1       1.918  -6.497   5.041  1.00  0.00     0.188 C 
BRANCH  27  28
ATOM     28  O   UNL     1       2.157  -7.824   4.641  1.00  0.00    -0.376 OA
BRANCH  28  29
ATOM     29  C   UNL     1       3.130  -8.569   5.347  1.00  0.00     0.202 C 
BRANCH  29  30
ATOM     30  C   UNL     1       3.224  -8.505   6.884  1.00  0.00     0.261 C 
BRANCH  30  31
ATOM     31  O   UNL     1       3.003  -7.233   7.515  1.00  0.00    -0.460 OA
BRANCH  31  32
ATOM     32  C   UNL     1       4.012  -6.332   7.488  1.00  0.00     0.338 C 
ATOM     33  O   UNL     1       5.117  -6.494   6.989  1.00  0.00    -0.246 OA
BRANCH  32  34
ATOM     34  C   UNL     1       3.477  -5.028   7.950  1.00  0.00     0.060 A 
ATOM     35  C   UNL     1       3.459  -3.947   7.056  1.00  0.00     0.016 A 
ATOM     36  C   UNL     1       2.977  -4.872   9.245  1.00  0.00     0.016 A 
ATOM     37  C   UNL     1       2.969  -2.704   7.463  1.00  0.00     0.010 A 
ATOM     38  C   UNL     1       2.508  -3.618   9.658  1.00  0.00     0.010 A 
ATOM     39  C   UNL     1       2.531  -2.518   8.780  1.00  0.00    -0.014 A 
BRANCH  39  40
ATOM     40  C   UNL     1       2.247  -1.146   9.277  1.00  0.00     0.031 A 
ATOM     41  C   UNL     1       3.286  -0.443  10.110  1.00  0.00     0.074 A 
ATOM     42  C   UNL     1       1.089  -0.522   8.992  1.00  0.00     0.049 A 
ATOM     43  N   UNL     1       3.251   0.746  10.653  1.00  0.00    -0.248 NA
ATOM     44  C   UNL     1       4.532  -1.184  10.367  1.00  0.00     0.031 C 
ATOM     45  C   UNL     1      -0.002  -1.085   8.200  1.00  0.00     0.029 A 
ATOM     46  N   UNL     1       0.630   0.719   9.365  1.00  0.00    -0.354 N 
ATOM     47  C   UNL     1       4.449   0.884  11.343  1.00  0.00     0.074 A 
ATOM     48  C   UNL     1       5.187  -0.347  11.157  1.00  0.00     0.031 C 
ATOM     49  C   UNL     1      -1.018  -0.206   8.172  1.00  0.00     0.029 A 
ATOM     50  C   UNL     1      -0.660   0.971   8.964  1.00  0.00     0.049 A 
ATOM     51  H   UNL     1       1.174   1.365   9.871  1.00  0.00     0.167 HD
ATOM     52  C   UNL     1       4.902   1.941  12.059  1.00  0.00     0.034 A 
ATOM     53  C   UNL     1      -1.470   2.018   9.226  1.00  0.00     0.034 A 
ATOM     54  C   UNL     1       4.177   3.171  12.236  1.00  0.00     0.049 A 
ATOM     55  C   UNL     1      -0.951   3.175  10.042  1.00  0.00     0.074 A 
ATOM     56  C   UNL     1       4.584   4.322  12.890  1.00  0.00     0.029 A 
ATOM     57  N   UNL     1       2.888   3.405  11.785  1.00  0.00    -0.354 N 
ATOM     58  N   UNL     1       0.235   3.346  10.574  1.00  0.00    -0.248 NA
ATOM     59  C   UNL     1      -1.873   4.299  10.263  1.00  0.00     0.031 C 
ATOM     60  C   UNL     1       3.523   5.233  12.875  1.00  0.00     0.029 A 
ATOM     61  C   UNL     1       2.473   4.670  12.168  1.00  0.00     0.049 A 
ATOM     62  H   UNL     1       2.346   2.766  11.268  1.00  0.00     0.167 HD
ATOM     63  C   UNL     1       0.211   4.606  11.166  1.00  0.00     0.074 A 
ATOM     64  C   UNL     1      -1.098   5.165  10.901  1.00  0.00     0.031 C 
ATOM     65  C   UNL     1       1.182   5.238  11.873  1.00  0.00     0.034 A 
BRANCH  52  66
ATOM     66  C   UNL     1       6.256   1.815  12.710  1.00  0.00     0.023 A 
ATOM     67  C   UNL     1       7.423   1.814  11.919  1.00  0.00     0.012 A 
ATOM     68  C   UNL     1       6.373   1.746  14.112  1.00  0.00     0.148 A 
ATOM     69  C   UNL     1       8.682   1.709  12.510  1.00  0.00     0.002 A 
ATOM     70  C   UNL     1       7.632   1.692  14.697  1.00  0.00     0.091 A 
ATOM     71  F   UNL     1       5.252   1.726  14.847  1.00  0.00    -0.205 F 
ATOM     72  C   UNL     1       8.786   1.659  13.898  1.00  0.00     0.022 A 
BRANCH  70  73
ATOM     73  S   UNL     1       7.875   1.710  16.476  1.00  0.00     0.127 S 
ATOM     74  O   UNL     1       8.352   0.349  16.722  1.00  0.00    -0.237 OA
ATOM     75  O   UNL     1       8.891   2.750  16.636  1.00  0.00    -0.237 OA
ATOM     76  O   UNL     1       6.579   2.031  17.057  1.00  0.00    -0.744 OA
ENDBRANCH  70  73
ENDBRANCH  52  66
BRANCH  53  77
ATOM     77  C   UNL     1      -2.863   2.029   8.695  1.00  0.00     0.023 A 
ATOM     78  C   UNL     1      -3.225   2.949   7.693  1.00  0.00     0.012 A 
ATOM     79  C   UNL     1      -3.826   1.120   9.175  1.00  0.00     0.148 A 
ATOM     80  C   UNL     1      -4.529   2.983   7.198  1.00  0.00     0.002 A 
ATOM     81  C   UNL     1      -5.106   1.119   8.635  1.00  0.00     0.091 A 
ATOM     82  F   UNL     1      -3.465   0.265  10.142  1.00  0.00    -0.205 F 
ATOM     83  C   UNL     1      -5.466   2.062   7.660  1.00  0.00     0.022 A 
BRANCH  81  84
ATOM     84  S   UNL     1      -6.339  -0.110   9.075  1.00  0.00     0.127 S 
ATOM     85  O   UNL     1      -7.345   0.704   9.751  1.00  0.00    -0.237 OA
ATOM     86  O   UNL     1      -6.735  -0.615   7.760  1.00  0.00    -0.237 OA
ATOM     87  O   UNL     1      -5.648  -1.081   9.911  1.00  0.00    -0.744 OA
ENDBRANCH  81  84
ENDBRANCH  53  77
BRANCH  65  88
ATOM     88  C   UNL     1       0.885   6.625  12.389  1.00  0.00     0.023 A 
ATOM     89  C   UNL     1      -0.048   6.809  13.430  1.00  0.00     0.012 A 
ATOM     90  C   UNL     1       1.573   7.745  11.877  1.00  0.00     0.148 A 
ATOM     91  C   UNL     1      -0.324   8.086  13.920  1.00  0.00     0.002 A 
ATOM     92  C   UNL     1       1.332   9.007  12.408  1.00  0.00     0.091 A 
ATOM     93  F   UNL     1       2.447   7.557  10.878  1.00  0.00    -0.205 F 
ATOM     94  C   UNL     1       0.372   9.182  13.418  1.00  0.00     0.022 A 
BRANCH  92  95
ATOM     95  S   UNL     1       2.250  10.463  11.891  1.00  0.00     0.127 S 
ATOM     96  O   UNL     1       1.238  11.200  11.135  1.00  0.00    -0.237 OA
ATOM     97  O   UNL     1       2.617  11.069  13.171  1.00  0.00    -0.237 OA
ATOM     98  O   UNL     1       3.377   9.971  11.110  1.00  0.00    -0.744 OA
ENDBRANCH  92  95
ENDBRANCH  65  88
ENDBRANCH  39  40
ENDBRANCH  32  34
ENDBRANCH  31  32
ENDBRANCH  30  31
ENDBRANCH  29  30
ENDBRANCH  28  29
ENDBRANCH  27  28
ENDBRANCH   1  27
TORSDOF 25
