REMARK SMILES O=C(CSc1nc2cccnc2n1CC(F)(F)F)OCCOCCOCCOC(=O)c1ccc(-c2c3nc(c(-c4cccc(S(=O)(=O)[O-])c4F)c4ccc([nH]4)c(-c4cccc(S(=O)(=O)[O-])c4F)c4nc(c(-c5cccc(S(=O)(=O)[O-])c5F)c5ccc2[nH]5)C=C4)C=C3)cc1
REMARK SMILES IDX 23 1 22 2 21 3 20 4 19 5 2 6 1 7 3 8 4 9 5 10 6 11 13 12
REMARK SMILES IDX 7 13 12 14 8 15 11 16 9 17 10 18 14 19 15 20 16 21 17 22
REMARK SMILES IDX 18 23 24 24 25 25 26 26 27 27 28 28 29 29 30 30 31 31 32 32
REMARK SMILES IDX 93 33 33 34 92 35 34 36 35 37 36 38 86 39 37 40 91 41 85 42
REMARK SMILES IDX 87 43 38 44 90 45 84 46 83 47 39 49 71 50 51 51 70 52 52 53
REMARK SMILES IDX 55 54 69 55 88 56 53 57 54 58 68 60 89 61 56 62 40 63 41 64
REMARK SMILES IDX 49 65 42 66 44 67 50 68 43 69 45 70 46 71 47 72 48 73 72 74
REMARK SMILES IDX 73 75 81 76 74 77 76 78 82 79 75 80 77 81 78 82 79 83 80 84
REMARK SMILES IDX 57 85 58 86 66 87 59 88 61 89 67 90 60 91 62 92 63 93 64 94
REMARK SMILES IDX 65 95
REMARK H PARENT 87 48 55 59
REMARK Flexibility Score: inf
ROOT
ATOM      1  C   UNL     1       3.154   1.897  -0.673  1.00  0.00     0.188 C 
ENDROOT
BRANCH   1   2
ATOM      2  O   UNL     1       4.548   1.902  -0.885  1.00  0.00    -0.376 OA
BRANCH   2   3
ATOM      3  C   UNL     1       5.354   0.806  -0.503  1.00  0.00     0.202 C 
BRANCH   3   4
ATOM      4  C   UNL     1       4.947  -0.587  -0.995  1.00  0.00     0.261 C 
BRANCH   4   5
ATOM      5  O   UNL     1       3.587  -1.028  -0.794  1.00  0.00    -0.463 OA
BRANCH   5   6
ATOM      6  C   UNL     1       2.968  -1.311   0.369  1.00  0.00     0.316 C 
ATOM      7  O   UNL     1       1.920  -1.958   0.356  1.00  0.00    -0.251 OA
BRANCH   6   8
ATOM      8  C   UNL     1       3.453  -0.669   1.644  1.00  0.00     0.200 C 
BRANCH   8   9
ATOM      9  S   UNL     1       4.226  -1.802   2.788  1.00  0.00    -0.076 SA
BRANCH   9  10
ATOM     10  C   UNL     1       3.061  -3.066   2.920  1.00  0.00     0.171 A 
ATOM     11  N   UNL     1       3.398  -4.306   2.640  1.00  0.00    -0.221 NA
ATOM     12  N   UNL     1       1.743  -2.946   3.298  1.00  0.00    -0.294 N 
ATOM     13  C   UNL     1       2.254  -5.026   2.802  1.00  0.00     0.109 A 
ATOM     14  C   UNL     1       1.215  -4.216   3.237  1.00  0.00     0.160 A 
ATOM     15  C   UNL     1       1.992  -6.382   2.596  1.00  0.00     0.034 A 
ATOM     16  N   UNL     1      -0.052  -4.585   3.508  1.00  0.00    -0.237 NA
ATOM     17  C   UNL     1       0.693  -6.821   2.852  1.00  0.00     0.022 A 
ATOM     18  C   UNL     1      -0.258  -5.907   3.296  1.00  0.00     0.113 A 
BRANCH  12  19
ATOM     19  C   UNL     1       0.921  -1.782   3.549  1.00  0.00     0.241 C 
BRANCH  19  20
ATOM     20  C   UNL     1       1.303  -0.935   4.738  1.00  0.00     0.406 C 
ATOM     21  F   UNL     1       2.449  -0.252   4.543  1.00  0.00    -0.169 F 
ATOM     22  F   UNL     1       0.340  -0.007   4.962  1.00  0.00    -0.169 F 
ATOM     23  F   UNL     1       1.433  -1.661   5.866  1.00  0.00    -0.169 F 
ENDBRANCH  19  20
ENDBRANCH  12  19
ENDBRANCH   9  10
ENDBRANCH   8   9
ENDBRANCH   6   8
ENDBRANCH   5   6
ENDBRANCH   4   5
ENDBRANCH   3   4
ENDBRANCH   2   3
ENDBRANCH   1   2
BRANCH   1  24
ATOM     24  C   UNL     1       2.314   2.092  -1.948  1.00  0.00     0.188 C 
BRANCH  24  25
ATOM     25  O   UNL     1       2.891   1.995  -3.245  1.00  0.00    -0.376 OA
BRANCH  25  26
ATOM     26  C   UNL     1       4.199   2.483  -3.524  1.00  0.00     0.202 C 
BRANCH  26  27
ATOM     27  C   UNL     1       4.546   3.955  -3.289  1.00  0.00     0.261 C 
BRANCH  27  28
ATOM     28  O   UNL     1       4.380   4.372  -1.940  1.00  0.00    -0.460 OA
BRANCH  28  29
ATOM     29  C   UNL     1       3.218   4.995  -1.696  1.00  0.00     0.338 C 
ATOM     30  O   UNL     1       2.297   5.184  -2.494  1.00  0.00    -0.246 OA
BRANCH  29  31
ATOM     31  C   UNL     1       3.174   5.482  -0.316  1.00  0.00     0.060 A 
ATOM     32  C   UNL     1       1.926   5.925   0.136  1.00  0.00     0.016 A 
ATOM     33  C   UNL     1       4.373   5.855   0.301  1.00  0.00     0.016 A 
ATOM     34  C   UNL     1       1.895   7.004   0.986  1.00  0.00     0.010 A 
ATOM     35  C   UNL     1       4.342   6.950   1.131  1.00  0.00     0.010 A 
ATOM     36  C   UNL     1       3.113   7.580   1.347  1.00  0.00    -0.014 A 
BRANCH  36  37
ATOM     37  C   UNL     1       3.093   8.984   1.706  1.00  0.00     0.031 A 
ATOM     38  C   UNL     1       3.020   9.298   3.141  1.00  0.00     0.074 A 
ATOM     39  C   UNL     1       3.292   9.923   0.760  1.00  0.00     0.049 A 
ATOM     40  N   UNL     1       2.090   9.945   3.765  1.00  0.00    -0.248 NA
ATOM     41  C   UNL     1       4.077   8.751   3.999  1.00  0.00     0.031 C 
ATOM     42  C   UNL     1       3.720   9.716  -0.630  1.00  0.00     0.029 A 
ATOM     43  N   UNL     1       3.324  11.276   0.898  1.00  0.00    -0.354 N 
ATOM     44  C   UNL     1       2.538  10.036   5.076  1.00  0.00     0.074 A 
ATOM     45  C   UNL     1       3.675   9.157   5.200  1.00  0.00     0.031 C 
ATOM     46  C   UNL     1       4.221  10.876  -1.109  1.00  0.00     0.029 A 
ATOM     47  C   UNL     1       4.046  11.912  -0.106  1.00  0.00     0.049 A 
ATOM     48  H   UNL     1       2.881  11.757   1.634  1.00  0.00     0.167 HD
ATOM     49  C   UNL     1       2.106  10.984   5.946  1.00  0.00     0.034 A 
ATOM     50  C   UNL     1       4.566  13.160  -0.036  1.00  0.00     0.034 A 
ATOM     51  C   UNL     1       0.972  11.721   5.488  1.00  0.00     0.049 A 
ATOM     52  C   UNL     1       3.849  13.873   1.052  1.00  0.00     0.074 A 
ATOM     53  C   UNL     1      -0.333  11.412   5.167  1.00  0.00     0.029 A 
ATOM     54  N   UNL     1       1.215  12.965   4.958  1.00  0.00    -0.354 N 
ATOM     55  N   UNL     1       2.587  14.201   1.013  1.00  0.00    -0.248 NA
ATOM     56  C   UNL     1       4.463  13.917   2.370  1.00  0.00     0.031 C 
ATOM     57  C   UNL     1      -0.677  12.296   4.104  1.00  0.00     0.029 A 
ATOM     58  C   UNL     1       0.442  13.089   3.833  1.00  0.00     0.049 A 
ATOM     59  H   UNL     1       1.832  13.642   5.318  1.00  0.00     0.167 HD
ATOM     60  C   UNL     1       2.153  14.098   2.329  1.00  0.00     0.074 A 
ATOM     61  C   UNL     1       3.372  14.050   3.127  1.00  0.00     0.031 C 
ATOM     62  C   UNL     1       0.860  13.770   2.625  1.00  0.00     0.034 A 
BRANCH  49  63
ATOM     63  C   UNL     1       2.944  11.421   7.100  1.00  0.00     0.023 A 
ATOM     64  C   UNL     1       2.326  11.829   8.291  1.00  0.00     0.012 A 
ATOM     65  C   UNL     1       4.343  11.573   6.987  1.00  0.00     0.148 A 
ATOM     66  C   UNL     1       3.088  12.322   9.356  1.00  0.00     0.002 A 
ATOM     67  C   UNL     1       5.102  11.970   8.076  1.00  0.00     0.091 A 
ATOM     68  F   UNL     1       4.928  11.408   5.791  1.00  0.00    -0.205 F 
ATOM     69  C   UNL     1       4.478  12.362   9.261  1.00  0.00     0.022 A 
BRANCH  67  70
ATOM     70  S   UNL     1       6.892  11.890   8.008  1.00  0.00     0.127 S 
ATOM     71  O   UNL     1       7.237  13.252   7.616  1.00  0.00    -0.237 OA
ATOM     72  O   UNL     1       7.239  11.533   9.385  1.00  0.00    -0.237 OA
ATOM     73  O   UNL     1       7.172  10.839   7.037  1.00  0.00    -0.744 OA
ENDBRANCH  67  70
ENDBRANCH  49  63
BRANCH  50  74
ATOM     74  C   UNL     1       5.813  13.695  -0.641  1.00  0.00     0.023 A 
ATOM     75  C   UNL     1       6.011  15.091  -0.666  1.00  0.00     0.012 A 
ATOM     76  C   UNL     1       6.916  12.870  -0.959  1.00  0.00     0.148 A 
ATOM     77  C   UNL     1       7.265  15.642  -0.957  1.00  0.00     0.002 A 
ATOM     78  C   UNL     1       8.155  13.424  -1.276  1.00  0.00     0.091 A 
ATOM     79  F   UNL     1       6.794  11.540  -0.855  1.00  0.00    -0.205 F 
ATOM     80  C   UNL     1       8.338  14.810  -1.259  1.00  0.00     0.022 A 
BRANCH  78  81
ATOM     81  S   UNL     1       9.564  12.387  -1.695  1.00  0.00     0.127 S 
ATOM     82  O   UNL     1      10.247  13.182  -2.717  1.00  0.00    -0.237 OA
ATOM     83  O   UNL     1      10.268  12.296  -0.420  1.00  0.00    -0.237 OA
ATOM     84  O   UNL     1       8.991  11.145  -2.201  1.00  0.00    -0.744 OA
ENDBRANCH  78  81
ENDBRANCH  50  74
BRANCH  62  85
ATOM     85  C   UNL     1      -0.152  13.803   1.507  1.00  0.00     0.023 A 
ATOM     86  C   UNL     1      -0.092  12.880   0.442  1.00  0.00     0.012 A 
ATOM     87  C   UNL     1      -1.286  14.623   1.637  1.00  0.00     0.148 A 
ATOM     88  C   UNL     1      -1.134  12.785  -0.482  1.00  0.00     0.002 A 
ATOM     89  C   UNL     1      -2.338  14.499   0.737  1.00  0.00     0.091 A 
ATOM     90  F   UNL     1      -1.332  15.480   2.668  1.00  0.00    -0.205 F 
ATOM     91  C   UNL     1      -2.263  13.585  -0.327  1.00  0.00     0.022 A 
BRANCH  89  92
ATOM     92  S   UNL     1      -3.878  15.402   0.938  1.00  0.00     0.127 S 
ATOM     93  O   UNL     1      -3.837  16.332  -0.188  1.00  0.00    -0.237 OA
ATOM     94  O   UNL     1      -4.879  14.341   0.818  1.00  0.00    -0.237 OA
ATOM     95  O   UNL     1      -3.817  16.018   2.258  1.00  0.00    -0.744 OA
ENDBRANCH  89  92
ENDBRANCH  62  85
ENDBRANCH  36  37
ENDBRANCH  29  31
ENDBRANCH  28  29
ENDBRANCH  27  28
ENDBRANCH  26  27
ENDBRANCH  25  26
ENDBRANCH  24  25
ENDBRANCH   1  24
TORSDOF 24
