REMARK SMILES Cc1ccsc1CNC(=O)N[C@@H]1CCCC[C@H]1C(=O)OCCOCCOCCOC(=O)c1ccc(-c2c3nc(c(-c4cccc(S(=O)(=O)[O-])c4F)c4ccc([nH]4)c(-c4cccc(S(=O)(=O)[O-])c4F)c4nc(c(-c5cccc(S(=O)(=O)[O-])c5F)c5ccc2[nH]5)C=C4)C=C3)cc1
REMARK SMILES IDX 24 1 23 2 22 3 21 4 20 5 18 6 19 7 17 8 12 9 13 10 14 11
REMARK SMILES IDX 16 12 15 13 11 14 8 15 9 16 10 18 7 20 6 21 1 22 2 23 3 24
REMARK SMILES IDX 4 25 5 26 25 27 26 28 27 29 28 30 29 31 30 32 31 33 32 34
REMARK SMILES IDX 33 35 94 36 34 37 93 38 35 39 36 40 37 41 87 42 38 43 92 44
REMARK SMILES IDX 86 45 88 46 39 47 91 48 85 49 84 50 40 52 72 53 52 54 71 55
REMARK SMILES IDX 53 56 56 57 70 58 89 59 54 60 55 61 69 63 90 64 57 65 41 66
REMARK SMILES IDX 42 67 50 68 43 69 45 70 51 71 44 72 46 73 47 74 48 75 49 76
REMARK SMILES IDX 73 77 74 78 82 79 75 80 77 81 83 82 76 83 78 84 79 85 80 86
REMARK SMILES IDX 81 87 58 88 59 89 67 90 60 91 62 92 68 93 61 94 63 95 64 96
REMARK SMILES IDX 65 97 66 98
REMARK H PARENT 8 17 11 19 88 51 56 62
REMARK Flexibility Score: inf
ROOT
ATOM      1  C   UNL     1      -4.403  -2.135   0.286  1.00  0.00     0.188 C 
ENDROOT
BRANCH   1   2
ATOM      2  O   UNL     1      -5.608  -1.717  -0.339  1.00  0.00    -0.376 OA
BRANCH   2   3
ATOM      3  C   UNL     1      -5.741  -1.959  -1.738  1.00  0.00     0.202 C 
BRANCH   3   4
ATOM      4  C   UNL     1      -4.564  -1.580  -2.652  1.00  0.00     0.261 C 
BRANCH   4   5
ATOM      5  O   UNL     1      -3.321  -2.318  -2.463  1.00  0.00    -0.463 OA
BRANCH   5   6
ATOM      6  C   UNL     1      -2.213  -1.537  -2.374  1.00  0.00     0.311 C 
ATOM      7  O   UNL     1      -2.268  -0.307  -2.425  1.00  0.00    -0.252 OA
BRANCH   6   8
ATOM      8  C   UNL     1      -0.842  -2.231  -2.267  1.00  0.00     0.121 C 
ATOM      9  C   UNL     1      -0.692  -3.768  -2.227  1.00  0.00     0.098 C 
ATOM     10  C   UNL     1       0.613  -4.366  -2.801  1.00  0.00     0.026 C 
ATOM     11  C   UNL     1       1.210  -3.628  -3.976  1.00  0.00     0.002 C 
ATOM     12  C   UNL     1      -0.015  -1.562  -3.388  1.00  0.00     0.017 C 
ATOM     13  C   UNL     1       1.353  -2.162  -3.638  1.00  0.00     0.001 C 
BRANCH   9  14
ATOM     14  N   UNL     1      -0.835  -4.434  -0.916  1.00  0.00    -0.335 N 
ATOM     15  N   UNL     1       0.434  -3.451   0.848  1.00  0.00    -0.333 N 
ATOM     16  C   UNL     1      -0.262  -4.435   0.289  1.00  0.00     0.315 C 
ATOM     17  H   UNL     1       0.306  -3.397   1.823  1.00  0.00     0.165 HD
ATOM     18  O   UNL     1      -0.448  -5.447   0.970  1.00  0.00    -0.249 OA
ATOM     19  H   UNL     1      -1.583  -5.074  -0.938  1.00  0.00     0.165 HD
BRANCH  15  20
ATOM     20  C   UNL     1       1.333  -2.448   0.345  1.00  0.00     0.164 C 
BRANCH  20  21
ATOM     21  C   UNL     1       0.893  -1.025   0.565  1.00  0.00     0.027 A 
ATOM     22  C   UNL     1       3.057   0.133  -0.194  1.00  0.00     0.045 C 
ATOM     23  C   UNL     1       1.633   0.114   0.260  1.00  0.00    -0.035 A 
ATOM     24  C   UNL     1       0.846   1.303   0.409  1.00  0.00     0.015 A 
ATOM     25  C   UNL     1      -0.420   1.045   0.878  1.00  0.00     0.065 A 
ATOM     26  S   UNL     1      -0.649  -0.613   1.204  1.00  0.00    -0.147 S 
ENDBRANCH  20  21
ENDBRANCH  15  20
ENDBRANCH   9  14
ENDBRANCH   6   8
ENDBRANCH   5   6
ENDBRANCH   4   5
ENDBRANCH   3   4
ENDBRANCH   2   3
ENDBRANCH   1   2
BRANCH   1  27
ATOM     27  C   UNL     1      -3.972  -3.592   0.078  1.00  0.00     0.188 C 
BRANCH  27  28
ATOM     28  O   UNL     1      -4.796  -4.324  -0.813  1.00  0.00    -0.376 OA
BRANCH  28  29
ATOM     29  C   UNL     1      -5.221  -5.614  -0.394  1.00  0.00     0.202 C 
BRANCH  29  30
ATOM     30  C   UNL     1      -6.176  -5.610   0.812  1.00  0.00     0.261 C 
BRANCH  30  31
ATOM     31  O   UNL     1      -5.573  -5.193   2.050  1.00  0.00    -0.460 OA
BRANCH  31  32
ATOM     32  C   UNL     1      -4.599  -6.005   2.528  1.00  0.00     0.338 C 
ATOM     33  O   UNL     1      -4.269  -7.087   2.080  1.00  0.00    -0.246 OA
BRANCH  32  34
ATOM     34  C   UNL     1      -3.836  -5.252   3.544  1.00  0.00     0.060 A 
ATOM     35  C   UNL     1      -2.543  -4.846   3.209  1.00  0.00     0.016 A 
ATOM     36  C   UNL     1      -4.350  -4.968   4.803  1.00  0.00     0.016 A 
ATOM     37  C   UNL     1      -1.731  -4.196   4.131  1.00  0.00     0.010 A 
ATOM     38  C   UNL     1      -3.534  -4.322   5.741  1.00  0.00     0.010 A 
ATOM     39  C   UNL     1      -2.207  -3.966   5.423  1.00  0.00    -0.014 A 
BRANCH  39  40
ATOM     40  C   UNL     1      -1.250  -3.562   6.484  1.00  0.00     0.031 A 
ATOM     41  C   UNL     1      -0.812  -4.605   7.476  1.00  0.00     0.074 A 
ATOM     42  C   UNL     1      -0.728  -2.323   6.542  1.00  0.00     0.049 A 
ATOM     43  N   UNL     1      -0.101  -4.471   8.564  1.00  0.00    -0.248 NA
ATOM     44  C   UNL     1      -1.239  -5.987   7.201  1.00  0.00     0.031 C 
ATOM     45  C   UNL     1      -0.998  -1.242   5.596  1.00  0.00     0.029 A 
ATOM     46  N   UNL     1       0.134  -1.764   7.455  1.00  0.00    -0.354 N 
ATOM     47  C   UNL     1      -0.047  -5.738   9.134  1.00  0.00     0.074 A 
ATOM     48  C   UNL     1      -0.791  -6.627   8.270  1.00  0.00     0.031 C 
ATOM     49  C   UNL     1      -0.338  -0.141   5.993  1.00  0.00     0.029 A 
ATOM     50  C   UNL     1       0.360  -0.424   7.246  1.00  0.00     0.049 A 
ATOM     51  H   UNL     1       0.548  -2.274   8.188  1.00  0.00     0.167 HD
ATOM     52  C   UNL     1       0.575  -6.130  10.271  1.00  0.00     0.034 A 
ATOM     53  C   UNL     1       1.020   0.478   8.002  1.00  0.00     0.034 A 
ATOM     54  C   UNL     1       1.360  -5.259  11.101  1.00  0.00     0.049 A 
ATOM     55  C   UNL     1       1.679   0.027   9.282  1.00  0.00     0.074 A 
ATOM     56  C   UNL     1       2.030  -5.560  12.273  1.00  0.00     0.029 A 
ATOM     57  N   UNL     1       1.589  -3.917  10.841  1.00  0.00    -0.354 N 
ATOM     58  N   UNL     1       1.744  -1.176   9.800  1.00  0.00    -0.248 NA
ATOM     59  C   UNL     1       2.375   1.055  10.072  1.00  0.00     0.031 C 
ATOM     60  C   UNL     1       2.657  -4.395  12.727  1.00  0.00     0.029 A 
ATOM     61  C   UNL     1       2.393  -3.374  11.827  1.00  0.00     0.049 A 
ATOM     62  H   UNL     1       1.231  -3.422  10.068  1.00  0.00     0.167 HD
ATOM     63  C   UNL     1       2.505  -1.055  10.959  1.00  0.00     0.074 A 
ATOM     64  C   UNL     1       2.903   0.335  11.052  1.00  0.00     0.031 C 
ATOM     65  C   UNL     1       2.830  -2.002  11.874  1.00  0.00     0.034 A 
BRANCH  52  66
ATOM     66  C   UNL     1       0.430  -7.572  10.673  1.00  0.00     0.023 A 
ATOM     67  C   UNL     1       1.127  -8.573   9.967  1.00  0.00     0.012 A 
ATOM     68  C   UNL     1      -0.385  -7.934  11.763  1.00  0.00     0.148 A 
ATOM     69  C   UNL     1       0.987  -9.915  10.317  1.00  0.00     0.002 A 
ATOM     70  C   UNL     1      -0.484  -9.270  12.134  1.00  0.00     0.091 A 
ATOM     71  F   UNL     1      -1.063  -6.971  12.403  1.00  0.00    -0.205 F 
ATOM     72  C   UNL     1       0.191 -10.262  11.405  1.00  0.00     0.022 A 
BRANCH  70  73
ATOM     73  S   UNL     1      -1.427  -9.803  13.567  1.00  0.00     0.127 S 
ATOM     74  O   UNL     1      -2.596 -10.417  12.940  1.00  0.00    -0.237 OA
ATOM     75  O   UNL     1      -0.511 -10.749  14.205  1.00  0.00    -0.237 OA
ATOM     76  O   UNL     1      -1.690  -8.600  14.343  1.00  0.00    -0.744 OA
ENDBRANCH  70  73
ENDBRANCH  52  66
BRANCH  53  77
ATOM     77  C   UNL     1       1.088   1.904   7.571  1.00  0.00     0.023 A 
ATOM     78  C   UNL     1       2.321   2.459   7.178  1.00  0.00     0.012 A 
ATOM     79  C   UNL     1      -0.068   2.709   7.535  1.00  0.00     0.148 A 
ATOM     80  C   UNL     1       2.406   3.795   6.781  1.00  0.00     0.002 A 
ATOM     81  C   UNL     1       0.013   4.021   7.082  1.00  0.00     0.091 A 
ATOM     82  F   UNL     1      -1.228   2.174   7.940  1.00  0.00    -0.205 F 
ATOM     83  C   UNL     1       1.252   4.572   6.721  1.00  0.00     0.022 A 
BRANCH  81  84
ATOM     84  S   UNL     1      -1.441   5.049   6.847  1.00  0.00     0.127 S 
ATOM     85  O   UNL     1      -1.302   6.016   7.932  1.00  0.00    -0.237 OA
ATOM     86  O   UNL     1      -1.214   5.591   5.506  1.00  0.00    -0.237 OA
ATOM     87  O   UNL     1      -2.579   4.146   6.944  1.00  0.00    -0.744 OA
ENDBRANCH  81  84
ENDBRANCH  53  77
BRANCH  65  88
ATOM     88  C   UNL     1       3.686  -1.587  13.042  1.00  0.00     0.023 A 
ATOM     89  C   UNL     1       3.127  -0.815  14.079  1.00  0.00     0.012 A 
ATOM     90  C   UNL     1       5.020  -2.029  13.151  1.00  0.00     0.148 A 
ATOM     91  C   UNL     1       3.890  -0.465  15.193  1.00  0.00     0.002 A 
ATOM     92  C   UNL     1       5.760  -1.715  14.285  1.00  0.00     0.091 A 
ATOM     93  F   UNL     1       5.541  -2.747  12.145  1.00  0.00    -0.205 F 
ATOM     94  C   UNL     1       5.201  -0.924  15.301  1.00  0.00     0.022 A 
BRANCH  92  95
ATOM     95  S   UNL     1       7.423  -2.343  14.549  1.00  0.00     0.127 S 
ATOM     96  O   UNL     1       8.236  -1.160  14.271  1.00  0.00    -0.237 OA
ATOM     97  O   UNL     1       7.388  -2.741  15.957  1.00  0.00    -0.237 OA
ATOM     98  O   UNL     1       7.584  -3.449  13.615  1.00  0.00    -0.744 OA
ENDBRANCH  92  95
ENDBRANCH  65  88
ENDBRANCH  39  40
ENDBRANCH  32  34
ENDBRANCH  31  32
ENDBRANCH  30  31
ENDBRANCH  29  30
ENDBRANCH  28  29
ENDBRANCH  27  28
ENDBRANCH   1  27
TORSDOF 23
