REMARK SMILES O=C(OCCOCCOCCOC(=O)[C@@H](Cc1ccccc1F)C1CCOCC1)c1ccc(-c2c3nc(c(-c4cccc(S(=O)(=O)[O-])c4F)c4ccc([nH]4)c(-c4cccc(S(=O)(=O)[O-])c4F)c4nc(c(-c5cccc(S(=O)(=O)[O-])c5F)c5ccc2[nH]5)C=C4)C=C3)cc1
REMARK SMILES IDX 7 1 6 2 5 3 4 4 3 5 2 6 1 7 30 8 31 9 92 10 32 11 91 12
REMARK SMILES IDX 33 13 34 14 35 15 85 16 36 17 90 18 84 19 86 20 37 21 89 22
REMARK SMILES IDX 83 23 82 24 38 26 70 27 50 28 69 29 51 30 54 31 68 32 87 33
REMARK SMILES IDX 52 34 53 35 67 37 88 38 55 39 39 40 40 41 48 42 41 43 43 44
REMARK SMILES IDX 49 45 42 46 44 47 45 48 46 49 47 50 71 51 72 52 80 53 73 54
REMARK SMILES IDX 75 55 81 56 74 57 76 58 77 59 78 60 79 61 56 62 57 63 65 64
REMARK SMILES IDX 58 65 60 66 66 67 59 68 61 69 62 70 63 71 64 72 8 73 9 74
REMARK SMILES IDX 10 75 11 76 12 77 13 78 14 79 15 80 16 81 17 82 18 83 22 84
REMARK SMILES IDX 19 85 21 86 23 87 20 88 24 89 25 90 29 91 26 92 28 93 27 94
REMARK H PARENT 86 25 54 36
REMARK Flexibility Score: inf
ROOT
ATOM      1  C   UNL     1       2.330  -0.470   1.614  1.00  0.00     0.188 C 
ENDROOT
BRANCH   1   2
ATOM      2  O   UNL     1       3.652  -0.704   1.110  1.00  0.00    -0.376 OA
BRANCH   2   3
ATOM      3  C   UNL     1       4.507   0.438   1.181  1.00  0.00     0.202 C 
BRANCH   3   4
ATOM      4  C   UNL     1       4.219   1.566   0.179  1.00  0.00     0.261 C 
BRANCH   4   5
ATOM      5  O   UNL     1       2.861   1.615  -0.278  1.00  0.00    -0.460 OA
BRANCH   5   6
ATOM      6  C   UNL     1       2.290   1.056  -1.373  1.00  0.00     0.338 C 
ATOM      7  O   UNL     1       1.138   1.399  -1.640  1.00  0.00    -0.246 OA
BRANCH   6   8
ATOM      8  C   UNL     1       2.928   0.013  -2.248  1.00  0.00     0.060 A 
ATOM      9  C   UNL     1       4.156  -0.607  -2.026  1.00  0.00     0.016 A 
ATOM     10  C   UNL     1       2.190  -0.413  -3.374  1.00  0.00     0.016 A 
ATOM     11  C   UNL     1       4.629  -1.608  -2.877  1.00  0.00     0.010 A 
ATOM     12  C   UNL     1       2.661  -1.417  -4.236  1.00  0.00     0.010 A 
ATOM     13  C   UNL     1       3.889  -2.024  -3.984  1.00  0.00    -0.014 A 
BRANCH  13  14
ATOM     14  C   UNL     1       4.514  -3.010  -4.893  1.00  0.00     0.031 A 
ATOM     15  C   UNL     1       5.558  -2.521  -5.846  1.00  0.00     0.074 A 
ATOM     16  C   UNL     1       4.234  -4.323  -4.789  1.00  0.00     0.049 A 
ATOM     17  N   UNL     1       6.303  -3.204  -6.669  1.00  0.00    -0.248 NA
ATOM     18  C   UNL     1       5.775  -1.065  -5.895  1.00  0.00     0.031 C 
ATOM     19  C   UNL     1       3.205  -4.881  -3.923  1.00  0.00     0.029 A 
ATOM     20  N   UNL     1       4.809  -5.427  -5.372  1.00  0.00    -0.354 N 
ATOM     21  C   UNL     1       7.001  -2.260  -7.406  1.00  0.00     0.074 A 
ATOM     22  C   UNL     1       6.668  -0.960  -6.867  1.00  0.00     0.031 C 
ATOM     23  C   UNL     1       3.292  -6.221  -3.948  1.00  0.00     0.029 A 
ATOM     24  C   UNL     1       4.364  -6.625  -4.846  1.00  0.00     0.049 A 
ATOM     25  H   UNL     1       5.475  -5.370  -6.095  1.00  0.00     0.167 HD
ATOM     26  C   UNL     1       7.786  -2.465  -8.488  1.00  0.00     0.034 A 
ATOM     27  C   UNL     1       4.793  -7.889  -5.063  1.00  0.00     0.034 A 
ATOM     28  C   UNL     1       8.039  -3.767  -9.040  1.00  0.00     0.049 A 
ATOM     29  C   UNL     1       5.783  -8.085  -6.181  1.00  0.00     0.074 A 
ATOM     30  C   UNL     1       8.704  -4.099 -10.205  1.00  0.00     0.029 A 
ATOM     31  N   UNL     1       7.619  -4.959  -8.463  1.00  0.00    -0.354 N 
ATOM     32  N   UNL     1       6.408  -7.182  -6.897  1.00  0.00    -0.248 NA
ATOM     33  C   UNL     1       6.079  -9.472  -6.569  1.00  0.00     0.031 C 
ATOM     34  C   UNL     1       8.663  -5.491 -10.346  1.00  0.00     0.029 A 
ATOM     35  C   UNL     1       8.026  -6.029  -9.238  1.00  0.00     0.049 A 
ATOM     36  H   UNL     1       7.107  -5.031  -7.626  1.00  0.00     0.167 HD
ATOM     37  C   UNL     1       7.129  -7.887  -7.849  1.00  0.00     0.074 A 
ATOM     38  C   UNL     1       6.939  -9.294  -7.561  1.00  0.00     0.031 C 
ATOM     39  C   UNL     1       7.834  -7.418  -8.907  1.00  0.00     0.034 A 
BRANCH  26  40
ATOM     40  C   UNL     1       8.305  -1.242  -9.191  1.00  0.00     0.023 A 
ATOM     41  C   UNL     1       9.310  -0.450  -8.602  1.00  0.00     0.012 A 
ATOM     42  C   UNL     1       7.756  -0.855 -10.430  1.00  0.00     0.148 A 
ATOM     43  C   UNL     1       9.728   0.732  -9.213  1.00  0.00     0.002 A 
ATOM     44  C   UNL     1       8.214   0.295 -11.057  1.00  0.00     0.091 A 
ATOM     45  F   UNL     1       6.773  -1.601 -10.954  1.00  0.00    -0.205 F 
ATOM     46  C   UNL     1       9.186   1.100 -10.443  1.00  0.00     0.022 A 
BRANCH  44  47
ATOM     47  S   UNL     1       7.629   0.812 -12.674  1.00  0.00     0.127 S 
ATOM     48  O   UNL     1       6.889   2.030 -12.344  1.00  0.00    -0.237 OA
ATOM     49  O   UNL     1       8.883   1.036 -13.393  1.00  0.00    -0.237 OA
ATOM     50  O   UNL     1       6.822  -0.288 -13.183  1.00  0.00    -0.744 OA
ENDBRANCH  44  47
ENDBRANCH  26  40
BRANCH  27  51
ATOM     51  C   UNL     1       4.342  -9.061  -4.239  1.00  0.00     0.023 A 
ATOM     52  C   UNL     1       5.307  -9.833  -3.549  1.00  0.00     0.012 A 
ATOM     53  C   UNL     1       2.990  -9.427  -4.109  1.00  0.00     0.148 A 
ATOM     54  C   UNL     1       4.934 -10.931  -2.761  1.00  0.00     0.002 A 
ATOM     55  C   UNL     1       2.613 -10.461  -3.251  1.00  0.00     0.091 A 
ATOM     56  F   UNL     1       2.078  -8.761  -4.832  1.00  0.00    -0.205 F 
ATOM     57  C   UNL     1       3.582 -11.227  -2.588  1.00  0.00     0.022 A 
BRANCH  55  58
ATOM     58  S   UNL     1       0.878 -10.749  -2.868  1.00  0.00     0.127 S 
ATOM     59  O   UNL     1       0.543 -11.823  -3.799  1.00  0.00    -0.237 OA
ATOM     60  O   UNL     1       0.899 -11.150  -1.462  1.00  0.00    -0.237 OA
ATOM     61  O   UNL     1       0.229  -9.465  -3.110  1.00  0.00    -0.744 OA
ENDBRANCH  55  58
ENDBRANCH  27  51
BRANCH  39  62
ATOM     62  C   UNL     1       8.449  -8.435  -9.825  1.00  0.00     0.023 A 
ATOM     63  C   UNL     1       7.633  -9.197 -10.686  1.00  0.00     0.012 A 
ATOM     64  C   UNL     1       9.847  -8.573  -9.887  1.00  0.00     0.148 A 
ATOM     65  C   UNL     1       8.203 -10.106 -11.575  1.00  0.00     0.002 A 
ATOM     66  C   UNL     1      10.409  -9.438 -10.814  1.00  0.00     0.091 A 
ATOM     67  F   UNL     1      10.598  -7.856  -9.038  1.00  0.00    -0.205 F 
ATOM     68  C   UNL     1       9.590 -10.215 -11.649  1.00  0.00     0.022 A 
BRANCH  66  69
ATOM     69  S   UNL     1      12.184  -9.557 -11.050  1.00  0.00     0.127 S 
ATOM     70  O   UNL     1      12.471 -10.872 -10.479  1.00  0.00    -0.237 OA
ATOM     71  O   UNL     1      12.307  -9.482 -12.506  1.00  0.00    -0.237 OA
ATOM     72  O   UNL     1      12.761  -8.426 -10.336  1.00  0.00    -0.744 OA
ENDBRANCH  66  69
ENDBRANCH  39  62
ENDBRANCH  13  14
ENDBRANCH   6   8
ENDBRANCH   5   6
ENDBRANCH   4   5
ENDBRANCH   3   4
ENDBRANCH   2   3
ENDBRANCH   1   2
BRANCH   1  73
ATOM     73  C   UNL     1       1.823  -1.617   2.490  1.00  0.00     0.188 C 
BRANCH  73  74
ATOM     74  O   UNL     1       2.365  -1.693   3.810  1.00  0.00    -0.376 OA
BRANCH  74  75
ATOM     75  C   UNL     1       3.779  -1.786   3.947  1.00  0.00     0.202 C 
BRANCH  75  76
ATOM     76  C   UNL     1       4.436  -3.121   3.596  1.00  0.00     0.261 C 
BRANCH  76  77
ATOM     77  O   UNL     1       4.160  -3.551   2.262  1.00  0.00    -0.463 OA
BRANCH  77  78
ATOM     78  C   UNL     1       3.264  -4.566   2.157  1.00  0.00     0.309 C 
ATOM     79  O   UNL     1       2.678  -5.045   3.117  1.00  0.00    -0.252 OA
BRANCH  78  80
ATOM     80  C   UNL     1       3.027  -5.017   0.716  1.00  0.00     0.107 C 
BRANCH  80  81
ATOM     81  C   UNL     1       3.896  -4.257  -0.331  1.00  0.00     0.054 C 
BRANCH  81  82
ATOM     82  C   UNL     1       5.424  -4.250  -0.386  1.00  0.00    -0.011 A 
ATOM     83  C   UNL     1       6.093  -3.057  -0.057  1.00  0.00     0.007 A 
ATOM     84  C   UNL     1       6.222  -5.264  -0.934  1.00  0.00     0.126 A 
ATOM     85  C   UNL     1       7.456  -2.867  -0.322  1.00  0.00     0.000 A 
ATOM     86  C   UNL     1       7.580  -5.086  -1.201  1.00  0.00     0.039 A 
ATOM     87  F   UNL     1       5.736  -6.459  -1.264  1.00  0.00    -0.207 F 
ATOM     88  C   UNL     1       8.199  -3.880  -0.912  1.00  0.00     0.003 A 
ENDBRANCH  81  82
ENDBRANCH  80  81
BRANCH  80  89
ATOM     89  C   UNL     1       3.127  -6.548   0.699  1.00  0.00     0.008 C 
ATOM     90  C   UNL     1       3.227  -7.189  -0.673  1.00  0.00     0.033 C 
ATOM     91  C   UNL     1       1.963  -7.338   1.339  1.00  0.00     0.033 C 
ATOM     92  C   UNL     1       3.864  -8.531  -0.404  1.00  0.00     0.160 C 
ATOM     93  C   UNL     1       2.357  -8.821   1.442  1.00  0.00     0.160 C 
ATOM     94  O   UNL     1       2.941  -9.373   0.265  1.00  0.00    -0.381 OA
ENDBRANCH  80  89
ENDBRANCH  78  80
ENDBRANCH  77  78
ENDBRANCH  76  77
ENDBRANCH  75  76
ENDBRANCH  74  75
ENDBRANCH  73  74
ENDBRANCH   1  73
TORSDOF 23
