REMARK SMILES Cc1csc(NC(=O)[C@@H]2CC=CC[C@H]2C(=O)OCCOCCOCCOC(=O)c2ccc(-c3c4nc(c(-c5cccc(S(=O)(=O)[O-])c5F)c5ccc([nH]5)c(-c5cccc(S(=O)(=O)[O-])c5F)c5nc(c(-c6cccc(S(=O)(=O)[O-])c6F)c6ccc3[nH]6)C=C5)C=C4)cc2)n1
REMARK SMILES IDX 22 1 21 2 20 3 19 4 18 5 17 6 15 7 16 8 14 9 9 10 10 11
REMARK SMILES IDX 11 12 13 13 12 14 7 15 6 16 8 18 5 19 1 20 2 21 3 22 92 23
REMARK SMILES IDX 4 24 23 25 24 26 25 27 26 28 27 29 28 30 29 31 30 32 91 33
REMARK SMILES IDX 31 34 90 35 32 36 33 37 34 38 84 39 35 40 89 41 83 42 85 43
REMARK SMILES IDX 36 44 88 45 82 46 81 47 37 49 69 50 49 51 68 52 50 53 53 54
REMARK SMILES IDX 67 55 86 56 51 57 52 58 66 60 87 61 54 62 38 63 39 64 47 65
REMARK SMILES IDX 40 66 42 67 48 68 41 69 43 70 44 71 45 72 46 73 70 74 71 75
REMARK SMILES IDX 79 76 72 77 74 78 80 79 73 80 75 81 76 82 77 83 78 84 55 85
REMARK SMILES IDX 56 86 64 87 57 88 59 89 65 90 58 91 60 92 61 93 62 94 63 95
REMARK H PARENT 6 17 85 48 53 59
REMARK Flexibility Score: inf
ROOT
ATOM      1  C   UNL     1      -0.008   0.726   0.932  1.00  0.00     0.188 C 
ENDROOT
BRANCH   1   2
ATOM      2  C   UNL     1      -0.786  -0.199  -0.022  1.00  0.00     0.188 C 
BRANCH   2   3
ATOM      3  O   UNL     1      -0.023  -0.978  -0.940  1.00  0.00    -0.376 OA
BRANCH   3   4
ATOM      4  C   UNL     1       1.105  -0.370  -1.549  1.00  0.00     0.202 C 
BRANCH   4   5
ATOM      5  C   UNL     1       0.810   0.722  -2.574  1.00  0.00     0.261 C 
BRANCH   5   6
ATOM      6  O   UNL     1       0.332   1.952  -1.993  1.00  0.00    -0.463 OA
BRANCH   6   7
ATOM      7  C   UNL     1      -0.931   2.316  -2.357  1.00  0.00     0.310 C 
ATOM      8  O   UNL     1      -1.711   1.596  -2.968  1.00  0.00    -0.252 OA
BRANCH   7   9
ATOM      9  C   UNL     1      -1.185   3.803  -2.162  1.00  0.00     0.116 C 
ATOM     10  C   UNL     1      -0.838   4.429  -0.779  1.00  0.00     0.097 C 
ATOM     11  C   UNL     1      -0.977   5.953  -0.871  1.00  0.00     0.041 C 
ATOM     12  C   UNL     1      -0.617   6.618  -2.160  1.00  0.00    -0.030 C 
ATOM     13  C   UNL     1      -0.450   4.460  -3.347  1.00  0.00     0.043 C 
ATOM     14  C   UNL     1      -0.375   5.945  -3.285  1.00  0.00    -0.030 C 
BRANCH  10  15
ATOM     15  C   UNL     1      -1.694   3.770   0.329  1.00  0.00     0.230 C 
ATOM     16  N   UNL     1      -1.853   4.186   1.613  1.00  0.00    -0.302 N 
ATOM     17  H   UNL     1      -1.849   3.468   2.287  1.00  0.00     0.172 HD
ATOM     18  O   UNL     1      -2.184   2.652   0.106  1.00  0.00    -0.274 OA
BRANCH  16  19
ATOM     19  C   UNL     1      -2.017   5.443   2.110  1.00  0.00     0.189 A 
ATOM     20  C   UNL     1      -2.514   8.944   1.653  1.00  0.00     0.068 C 
ATOM     21  C   UNL     1      -2.462   7.595   2.267  1.00  0.00     0.051 A 
ATOM     22  C   UNL     1      -3.009   7.175   3.463  1.00  0.00     0.092 A 
ATOM     23  N   UNL     1      -1.844   6.598   1.542  1.00  0.00    -0.225 NA
ATOM     24  S   UNL     1      -2.737   5.487   3.662  1.00  0.00    -0.105 S 
ENDBRANCH  16  19
ENDBRANCH  10  15
ENDBRANCH   7   9
ENDBRANCH   6   7
ENDBRANCH   5   6
ENDBRANCH   4   5
ENDBRANCH   3   4
ENDBRANCH   2   3
ENDBRANCH   1   2
BRANCH   1  25
ATOM     25  O   UNL     1       1.182   0.215   1.529  1.00  0.00    -0.376 OA
BRANCH  25  26
ATOM     26  C   UNL     1       1.128  -1.104   2.063  1.00  0.00     0.202 C 
BRANCH  26  27
ATOM     27  C   UNL     1       0.340  -1.223   3.366  1.00  0.00     0.261 C 
BRANCH  27  28
ATOM     28  O   UNL     1      -1.077  -1.291   3.119  1.00  0.00    -0.460 OA
BRANCH  28  29
ATOM     29  C   UNL     1      -1.805  -0.257   3.600  1.00  0.00     0.338 C 
ATOM     30  O   UNL     1      -1.397   0.707   4.224  1.00  0.00    -0.246 OA
BRANCH  29  31
ATOM     31  C   UNL     1      -3.197  -0.351   3.123  1.00  0.00     0.060 A 
ATOM     32  C   UNL     1      -3.718   0.762   2.458  1.00  0.00     0.016 A 
ATOM     33  C   UNL     1      -4.011  -1.444   3.413  1.00  0.00     0.016 A 
ATOM     34  C   UNL     1      -5.070   0.829   2.139  1.00  0.00     0.010 A 
ATOM     35  C   UNL     1      -5.371  -1.381   3.087  1.00  0.00     0.010 A 
ATOM     36  C   UNL     1      -5.915  -0.228   2.490  1.00  0.00    -0.014 A 
BRANCH  36  37
ATOM     37  C   UNL     1      -7.384  -0.066   2.362  1.00  0.00     0.031 A 
ATOM     38  C   UNL     1      -8.203   0.146   3.606  1.00  0.00     0.074 A 
ATOM     39  C   UNL     1      -7.979  -0.087   1.156  1.00  0.00     0.049 A 
ATOM     40  N   UNL     1      -9.501   0.201   3.744  1.00  0.00    -0.248 NA
ATOM     41  C   UNL     1      -7.456   0.321   4.863  1.00  0.00     0.031 C 
ATOM     42  C   UNL     1      -7.290  -0.230  -0.125  1.00  0.00     0.029 A 
ATOM     43  N   UNL     1      -9.307  -0.007   0.818  1.00  0.00    -0.354 N 
ATOM     44  C   UNL     1      -9.730   0.358   5.106  1.00  0.00     0.074 A 
ATOM     45  C   UNL     1      -8.436   0.402   5.752  1.00  0.00     0.031 C 
ATOM     46  C   UNL     1      -8.203  -0.251  -1.111  1.00  0.00     0.029 A 
ATOM     47  C   UNL     1      -9.540  -0.168  -0.527  1.00  0.00     0.049 A 
ATOM     48  H   UNL     1     -10.023   0.150   1.475  1.00  0.00     0.167 HD
ATOM     49  C   UNL     1     -10.911   0.463   5.760  1.00  0.00     0.034 A 
ATOM     50  C   UNL     1     -10.700  -0.269  -1.205  1.00  0.00     0.034 A 
ATOM     51  C   UNL     1     -12.193   0.463   5.111  1.00  0.00     0.049 A 
ATOM     52  C   UNL     1     -12.002  -0.177  -0.451  1.00  0.00     0.074 A 
ATOM     53  C   UNL     1     -13.447   0.588   5.683  1.00  0.00     0.029 A 
ATOM     54  N   UNL     1     -12.387   0.330   3.745  1.00  0.00    -0.354 N 
ATOM     55  N   UNL     1     -12.204   0.035   0.827  1.00  0.00    -0.248 NA
ATOM     56  C   UNL     1     -13.237  -0.319  -1.237  1.00  0.00     0.031 C 
ATOM     57  C   UNL     1     -14.401   0.517   4.662  1.00  0.00     0.029 A 
ATOM     58  C   UNL     1     -13.740   0.365   3.453  1.00  0.00     0.049 A 
ATOM     59  H   UNL     1     -11.669   0.227   3.080  1.00  0.00     0.167 HD
ATOM     60  C   UNL     1     -13.584   0.079   0.995  1.00  0.00     0.074 A 
ATOM     61  C   UNL     1     -14.169  -0.105  -0.318  1.00  0.00     0.031 C 
ATOM     62  C   UNL     1     -14.303   0.238   2.133  1.00  0.00     0.034 A 
BRANCH  49  63
ATOM     63  C   UNL     1     -10.866   0.597   7.258  1.00  0.00     0.023 A 
ATOM     64  C   UNL     1     -10.480   1.821   7.840  1.00  0.00     0.012 A 
ATOM     65  C   UNL     1     -11.237  -0.479   8.088  1.00  0.00     0.148 A 
ATOM     66  C   UNL     1     -10.435   1.963   9.227  1.00  0.00     0.002 A 
ATOM     67  C   UNL     1     -11.227  -0.318   9.469  1.00  0.00     0.091 A 
ATOM     68  F   UNL     1     -11.574  -1.643   7.515  1.00  0.00    -0.205 F 
ATOM     69  C   UNL     1     -10.817   0.898  10.040  1.00  0.00     0.022 A 
BRANCH  67  70
ATOM     70  S   UNL     1     -11.765  -1.611  10.593  1.00  0.00     0.127 S 
ATOM     71  O   UNL     1     -10.491  -2.081  11.134  1.00  0.00    -0.237 OA
ATOM     72  O   UNL     1     -12.594  -0.869  11.545  1.00  0.00    -0.237 OA
ATOM     73  O   UNL     1     -12.495  -2.571   9.777  1.00  0.00    -0.744 OA
ENDBRANCH  67  70
ENDBRANCH  49  63
BRANCH  50  74
ATOM     74  C   UNL     1     -10.685  -0.452  -2.685  1.00  0.00     0.023 A 
ATOM     75  C   UNL     1     -11.136   0.593  -3.515  1.00  0.00     0.012 A 
ATOM     76  C   UNL     1     -10.211  -1.640  -3.273  1.00  0.00     0.148 A 
ATOM     77  C   UNL     1     -11.135   0.449  -4.903  1.00  0.00     0.002 A 
ATOM     78  C   UNL     1     -10.163  -1.757  -4.657  1.00  0.00     0.091 A 
ATOM     79  F   UNL     1      -9.811  -2.634  -2.466  1.00  0.00    -0.205 F 
ATOM     80  C   UNL     1     -10.638  -0.720  -5.474  1.00  0.00     0.022 A 
BRANCH  78  81
ATOM     81  S   UNL     1      -9.431  -3.178  -5.478  1.00  0.00     0.127 S 
ATOM     82  O   UNL     1     -10.612  -3.866  -5.993  1.00  0.00    -0.237 OA
ATOM     83  O   UNL     1      -8.595  -2.544  -6.497  1.00  0.00    -0.237 OA
ATOM     84  O   UNL     1      -8.686  -3.885  -4.445  1.00  0.00    -0.744 OA
ENDBRANCH  78  81
ENDBRANCH  50  74
BRANCH  62  85
ATOM     85  C   UNL     1     -15.805   0.251   2.017  1.00  0.00     0.023 A 
ATOM     86  C   UNL     1     -16.497  -0.955   1.791  1.00  0.00     0.012 A 
ATOM     87  C   UNL     1     -16.534   1.440   2.218  1.00  0.00     0.148 A 
ATOM     88  C   UNL     1     -17.890  -0.974   1.742  1.00  0.00     0.002 A 
ATOM     89  C   UNL     1     -17.924   1.405   2.212  1.00  0.00     0.091 A 
ATOM     90  F   UNL     1     -15.857   2.581   2.412  1.00  0.00    -0.205 F 
ATOM     91  C   UNL     1     -18.603   0.202   1.964  1.00  0.00     0.022 A 
BRANCH  89  92
ATOM     92  S   UNL     1     -18.920   2.854   2.583  1.00  0.00     0.127 S 
ATOM     93  O   UNL     1     -19.401   3.234   1.256  1.00  0.00    -0.237 OA
ATOM     94  O   UNL     1     -19.948   2.308   3.471  1.00  0.00    -0.237 OA
ATOM     95  O   UNL     1     -18.019   3.805   3.221  1.00  0.00    -0.744 OA
ENDBRANCH  89  92
ENDBRANCH  62  85
ENDBRANCH  36  37
ENDBRANCH  29  31
ENDBRANCH  28  29
ENDBRANCH  27  28
ENDBRANCH  26  27
ENDBRANCH  25  26
ENDBRANCH   1  25
TORSDOF 22
