REMARK SMILES O=C(NCc1ccc(C(=O)OCCOCCOCCOC(=O)c2ccc(-c3c4nc(c(-c5cccc(S(=O)(=O)[O-])c5F)c5ccc([nH]5)c(-c5cccc(S(=O)(=O)[O-])c5F)c5nc(c(-c6cccc(S(=O)(=O)[O-])c6F)c6ccc3[nH]6)C=C5)C=C4)cc2)o1)Nc1ccc(F)c(Cl)c1
REMARK SMILES IDX 15 1 14 2 13 3 12 4 11 5 9 6 10 7 8 8 5 9 6 10 86 11 7 12
REMARK SMILES IDX 4 13 3 14 1 15 2 16 87 17 88 20 89 21 95 22 90 23 93 24
REMARK SMILES IDX 91 25 94 26 92 27 16 28 17 29 18 30 19 31 20 32 21 33 22 34
REMARK SMILES IDX 23 35 24 36 85 37 25 38 84 39 26 40 27 41 28 42 78 43 29 44
REMARK SMILES IDX 83 45 77 46 79 47 30 48 82 49 76 50 75 51 31 53 63 54 43 55
REMARK SMILES IDX 62 56 44 57 47 58 61 59 80 60 45 61 46 62 60 64 81 65 48 66
REMARK SMILES IDX 32 67 33 68 41 69 34 70 36 71 42 72 35 73 37 74 38 75 39 76
REMARK SMILES IDX 40 77 64 78 65 79 73 80 66 81 68 82 74 83 67 84 69 85 70 86
REMARK SMILES IDX 71 87 72 88 49 89 50 90 58 91 51 92 53 93 59 94 52 95 54 96
REMARK SMILES IDX 55 97 56 98 57 99
REMARK H PARENT 3 18 87 19 79 52 47 63
REMARK Flexibility Score: inf
ROOT
ATOM      1  C   UNL     1       5.253  -6.014  -1.162  1.00  0.00     0.188 C 
ENDROOT
BRANCH   1   2
ATOM      2  O   UNL     1       4.795  -7.320  -1.492  1.00  0.00    -0.376 OA
BRANCH   2   3
ATOM      3  C   UNL     1       4.756  -7.715  -2.860  1.00  0.00     0.202 C 
BRANCH   3   4
ATOM      4  C   UNL     1       3.921  -6.846  -3.804  1.00  0.00     0.261 C 
BRANCH   4   5
ATOM      5  O   UNL     1       4.568  -5.586  -4.061  1.00  0.00    -0.457 OA
BRANCH   5   6
ATOM      6  C   UNL     1       3.788  -4.478  -3.894  1.00  0.00     0.374 C 
ATOM      7  O   UNL     1       2.574  -4.494  -3.740  1.00  0.00    -0.242 OA
BRANCH   6   8
ATOM      8  C   UNL     1       4.633  -3.311  -3.805  1.00  0.00     0.211 A 
ATOM      9  C   UNL     1       5.315  -1.440  -2.846  1.00  0.00     0.124 A 
ATOM     10  C   UNL     1       6.221  -1.715  -3.848  1.00  0.00     0.048 A 
ATOM     11  O   UNL     1       4.338  -2.391  -2.837  1.00  0.00    -0.452 OA
ATOM     12  C   UNL     1       5.797  -2.929  -4.449  1.00  0.00     0.058 A 
BRANCH   9  13
ATOM     13  C   UNL     1       5.212  -0.378  -1.812  1.00  0.00     0.193 C 
BRANCH  13  14
ATOM     14  N   UNL     1       3.867   0.134  -1.815  1.00  0.00    -0.331 N 
ATOM     15  O   UNL     1       1.876   0.722  -1.114  1.00  0.00    -0.248 OA
ATOM     16  C   UNL     1       3.021   0.407  -0.798  1.00  0.00     0.319 C 
ATOM     17  N   UNL     1       3.521   0.343   0.475  1.00  0.00    -0.308 N 
ATOM     18  H   UNL     1       3.502   0.317  -2.711  1.00  0.00     0.165 HD
ATOM     19  H   UNL     1       4.490   0.209   0.585  1.00  0.00     0.171 HD
BRANCH  17  20
ATOM     20  C   UNL     1       2.732   0.457   1.643  1.00  0.00     0.044 A 
ATOM     21  C   UNL     1       3.338   0.853   2.841  1.00  0.00     0.029 A 
ATOM     22  C   UNL     1       1.353   0.245   1.613  1.00  0.00     0.049 A 
ATOM     23  C   UNL     1       2.551   1.133   3.965  1.00  0.00     0.043 A 
ATOM     24  C   UNL     1       0.567   0.581   2.708  1.00  0.00     0.078 A 
ATOM     25  C   UNL     1       1.166   1.027   3.880  1.00  0.00     0.141 A 
ATOM     26  Cl  UNL     1      -1.139   0.552   2.503  1.00  0.00    -0.081 Cl
ATOM     27  F   UNL     1       0.425   1.403   4.932  1.00  0.00    -0.205 F 
ENDBRANCH  17  20
ENDBRANCH  13  14
ENDBRANCH   9  13
ENDBRANCH   6   8
ENDBRANCH   5   6
ENDBRANCH   4   5
ENDBRANCH   3   4
ENDBRANCH   2   3
ENDBRANCH   1   2
BRANCH   1  28
ATOM     28  C   UNL     1       6.626  -5.569  -1.700  1.00  0.00     0.188 C 
BRANCH  28  29
ATOM     29  O   UNL     1       7.381  -6.606  -2.311  1.00  0.00    -0.376 OA
BRANCH  29  30
ATOM     30  C   UNL     1       8.549  -7.010  -1.608  1.00  0.00     0.202 C 
BRANCH  30  31
ATOM     31  C   UNL     1       8.273  -7.832  -0.343  1.00  0.00     0.261 C 
BRANCH  31  32
ATOM     32  O   UNL     1       7.557  -7.138   0.692  1.00  0.00    -0.460 OA
BRANCH  32  33
ATOM     33  C   UNL     1       8.169  -6.073   1.256  1.00  0.00     0.338 C 
ATOM     34  O   UNL     1       9.264  -5.620   0.972  1.00  0.00    -0.246 OA
BRANCH  33  35
ATOM     35  C   UNL     1       7.215  -5.429   2.182  1.00  0.00     0.060 A 
ATOM     36  C   UNL     1       6.955  -4.061   2.040  1.00  0.00     0.016 A 
ATOM     37  C   UNL     1       6.601  -6.165   3.200  1.00  0.00     0.016 A 
ATOM     38  C   UNL     1       6.107  -3.417   2.945  1.00  0.00     0.010 A 
ATOM     39  C   UNL     1       5.761  -5.517   4.110  1.00  0.00     0.010 A 
ATOM     40  C   UNL     1       5.537  -4.133   4.008  1.00  0.00    -0.014 A 
BRANCH  40  41
ATOM     41  C   UNL     1       4.854  -3.401   5.106  1.00  0.00     0.031 A 
ATOM     42  C   UNL     1       5.668  -2.998   6.307  1.00  0.00     0.074 A 
ATOM     43  C   UNL     1       3.537  -3.124   5.053  1.00  0.00     0.049 A 
ATOM     44  N   UNL     1       5.332  -2.242   7.319  1.00  0.00    -0.248 NA
ATOM     45  C   UNL     1       7.048  -3.513   6.377  1.00  0.00     0.031 C 
ATOM     46  C   UNL     1       2.638  -3.516   3.969  1.00  0.00     0.029 A 
ATOM     47  N   UNL     1       2.719  -2.471   5.944  1.00  0.00    -0.354 N 
ATOM     48  C   UNL     1       6.442  -2.213   8.156  1.00  0.00     0.074 A 
ATOM     49  C   UNL     1       7.464  -3.028   7.538  1.00  0.00     0.031 C 
ATOM     50  C   UNL     1       1.388  -3.122   4.273  1.00  0.00     0.029 A 
ATOM     51  C   UNL     1       1.390  -2.449   5.572  1.00  0.00     0.049 A 
ATOM     52  H   UNL     1       3.051  -2.057   6.773  1.00  0.00     0.167 HD
ATOM     53  C   UNL     1       6.602  -1.550   9.326  1.00  0.00     0.034 A 
ATOM     54  C   UNL     1       0.313  -1.933   6.208  1.00  0.00     0.034 A 
ATOM     55  C   UNL     1       5.591  -0.719   9.918  1.00  0.00     0.049 A 
ATOM     56  C   UNL     1       0.564  -1.136   7.479  1.00  0.00     0.074 A 
ATOM     57  C   UNL     1       5.673   0.066  11.053  1.00  0.00     0.029 A 
ATOM     58  N   UNL     1       4.302  -0.584   9.428  1.00  0.00    -0.354 N 
ATOM     59  N   UNL     1       1.703  -0.839   8.066  1.00  0.00    -0.248 NA
ATOM     60  C   UNL     1      -0.607  -0.538   8.138  1.00  0.00     0.031 C 
ATOM     61  C   UNL     1       4.427   0.670  11.255  1.00  0.00     0.029 A 
ATOM     62  C   UNL     1       3.572   0.259  10.245  1.00  0.00     0.049 A 
ATOM     63  H   UNL     1       3.956  -1.024   8.618  1.00  0.00     0.167 HD
ATOM     64  C   UNL     1       1.385   0.038   9.102  1.00  0.00     0.074 A 
ATOM     65  C   UNL     1      -0.042   0.264   9.028  1.00  0.00     0.031 C 
ATOM     66  C   UNL     1       2.180   0.577  10.062  1.00  0.00     0.034 A 
BRANCH  53  67
ATOM     67  C   UNL     1       7.932  -1.659  10.020  1.00  0.00     0.023 A 
ATOM     68  C   UNL     1       9.033  -0.935   9.520  1.00  0.00     0.012 A 
ATOM     69  C   UNL     1       8.080  -2.423  11.193  1.00  0.00     0.148 A 
ATOM     70  C   UNL     1      10.268  -0.986  10.166  1.00  0.00     0.002 A 
ATOM     71  C   UNL     1       9.306  -2.442  11.851  1.00  0.00     0.091 A 
ATOM     72  F   UNL     1       7.029  -3.128  11.636  1.00  0.00    -0.205 F 
ATOM     73  C   UNL     1      10.401  -1.730  11.335  1.00  0.00     0.022 A 
BRANCH  71  74
ATOM     74  S   UNL     1       9.556  -3.319  13.398  1.00  0.00     0.127 S 
ATOM     75  O   UNL     1      10.319  -4.485  12.956  1.00  0.00    -0.237 OA
ATOM     76  O   UNL     1      10.323  -2.352  14.184  1.00  0.00    -0.237 OA
ATOM     77  O   UNL     1       8.224  -3.598  13.917  1.00  0.00    -0.744 OA
ENDBRANCH  71  74
ENDBRANCH  53  67
BRANCH  54  78
ATOM     78  C   UNL     1      -1.069  -2.023   5.614  1.00  0.00     0.023 A 
ATOM     79  C   UNL     1      -1.811  -0.845   5.392  1.00  0.00     0.012 A 
ATOM     80  C   UNL     1      -1.670  -3.248   5.255  1.00  0.00     0.148 A 
ATOM     81  C   UNL     1      -3.099  -0.869   4.854  1.00  0.00     0.002 A 
ATOM     82  C   UNL     1      -2.925  -3.264   4.644  1.00  0.00     0.091 A 
ATOM     83  F   UNL     1      -1.000  -4.382   5.502  1.00  0.00    -0.205 F 
ATOM     84  C   UNL     1      -3.647  -2.078   4.457  1.00  0.00     0.022 A 
BRANCH  82  85
ATOM     85  S   UNL     1      -3.677  -4.760   3.990  1.00  0.00     0.127 S 
ATOM     86  O   UNL     1      -4.928  -4.824   4.744  1.00  0.00    -0.237 OA
ATOM     87  O   UNL     1      -3.829  -4.424   2.574  1.00  0.00    -0.237 OA
ATOM     88  O   UNL     1      -2.732  -5.833   4.264  1.00  0.00    -0.744 OA
ENDBRANCH  82  85
ENDBRANCH  54  78
BRANCH  66  89
ATOM     89  C   UNL     1       1.538   1.506  11.064  1.00  0.00     0.023 A 
ATOM     90  C   UNL     1       0.638   0.985  12.016  1.00  0.00     0.012 A 
ATOM     91  C   UNL     1       1.860   2.877  11.103  1.00  0.00     0.148 A 
ATOM     92  C   UNL     1       0.024   1.819  12.949  1.00  0.00     0.002 A 
ATOM     93  C   UNL     1       1.285   3.694  12.072  1.00  0.00     0.091 A 
ATOM     94  F   UNL     1       2.710   3.367  10.188  1.00  0.00    -0.205 F 
ATOM     95  C   UNL     1       0.355   3.171  12.984  1.00  0.00     0.022 A 
BRANCH  93  96
ATOM     96  S   UNL     1       1.754   5.420  12.252  1.00  0.00     0.127 S 
ATOM     97  O   UNL     1       0.725   6.097  11.467  1.00  0.00    -0.237 OA
ATOM     98  O   UNL     1       1.654   5.631  13.697  1.00  0.00    -0.237 OA
ATOM     99  O   UNL     1       3.113   5.505  11.732  1.00  0.00    -0.744 OA
ENDBRANCH  93  96
ENDBRANCH  66  89
ENDBRANCH  40  41
ENDBRANCH  33  35
ENDBRANCH  32  33
ENDBRANCH  31  32
ENDBRANCH  30  31
ENDBRANCH  29  30
ENDBRANCH  28  29
ENDBRANCH   1  28
TORSDOF 23
