REMARK SMILES CN1C(=O)C[C@H](C(=O)Nc2ccc(C(=O)OCCOCCOCCOC(=O)c3ccc(-c4c5nc(c(-c6cccc(S(=O)(=O)[O-])c6F)c6ccc([nH]6)c(-c6cccc(S(=O)(=O)[O-])c6F)c6nc(c(-c7cccc(S(=O)(=O)[O-])c7F)c7ccc4[nH]7)C=C6)C=C5)cc3)cc2)S/C1=[NH+]\c1cccc(C(F)(F)F)c1
REMARK SMILES IDX 20 1 19 2 18 3 17 4 16 5 14 6 15 7 13 8 10 9 11 10 92 11
REMARK SMILES IDX 12 12 91 13 9 14 7 15 8 16 6 18 1 19 2 20 3 21 94 22 4 23
REMARK SMILES IDX 5 24 93 25 95 26 96 28 97 29 105 30 98 31 100 32 99 33
REMARK SMILES IDX 101 34 102 35 103 36 104 37 21 38 22 39 23 40 24 41 25 42
REMARK SMILES IDX 26 43 27 44 28 45 29 46 90 47 30 48 89 49 31 50 32 51 33 52
REMARK SMILES IDX 83 53 34 54 88 55 82 56 84 57 35 58 87 59 81 60 80 61 36 63
REMARK SMILES IDX 68 64 48 65 67 66 49 67 52 68 66 69 85 70 50 71 51 72 65 74
REMARK SMILES IDX 86 75 53 76 37 77 38 78 46 79 39 80 41 81 47 82 40 83 42 84
REMARK SMILES IDX 43 85 44 86 45 87 69 88 70 89 78 90 71 91 73 92 79 93 72 94
REMARK SMILES IDX 74 95 75 96 76 97 77 98 54 99 55 100 63 101 56 102 58 103
REMARK SMILES IDX 64 104 57 105 59 106 60 107 61 108 62 109
REMARK H PARENT 9 17 95 27 84 62 52 73
REMARK Flexibility Score: inf
ROOT
ATOM      1  C   UNL     1      -1.234  11.867  -2.557  1.00  0.00     0.188 C 
ENDROOT
BRANCH   1   2
ATOM      2  O   UNL     1      -0.363  12.899  -2.967  1.00  0.00    -0.376 OA
BRANCH   2   3
ATOM      3  C   UNL     1       0.990  12.634  -3.297  1.00  0.00     0.202 C 
BRANCH   3   4
ATOM      4  C   UNL     1       1.795  11.415  -2.814  1.00  0.00     0.261 C 
BRANCH   4   5
ATOM      5  O   UNL     1       1.060  10.208  -2.611  1.00  0.00    -0.460 OA
BRANCH   5   6
ATOM      6  C   UNL     1       0.962   9.803  -1.323  1.00  0.00     0.338 C 
ATOM      7  O   UNL     1       1.501  10.304  -0.348  1.00  0.00    -0.246 OA
BRANCH   6   8
ATOM      8  C   UNL     1      -0.044   8.728  -1.213  1.00  0.00     0.060 A 
ATOM      9  C   UNL     1      -1.792   6.616  -0.776  1.00  0.00     0.041 A 
ATOM     10  C   UNL     1      -1.849   7.728   0.061  1.00  0.00     0.027 A 
ATOM     11  C   UNL     1      -1.010   6.649  -1.938  1.00  0.00     0.027 A 
ATOM     12  C   UNL     1      -0.949   8.774  -0.142  1.00  0.00     0.018 A 
ATOM     13  C   UNL     1      -0.117   7.697  -2.151  1.00  0.00     0.018 A 
BRANCH   9  14
ATOM     14  N   UNL     1      -2.403   5.433  -0.338  1.00  0.00    -0.325 N 
ATOM     15  C   UNL     1      -1.766   4.225  -0.127  1.00  0.00     0.238 C 
ATOM     16  O   UNL     1      -2.408   3.276   0.329  1.00  0.00    -0.273 OA
ATOM     17  H   UNL     1      -3.372   5.465  -0.165  1.00  0.00     0.169 HD
BRANCH  15  18
ATOM     18  C   UNL     1      -0.259   4.110  -0.383  1.00  0.00     0.160 C 
ATOM     19  C   UNL     1       0.416  -0.209   0.028  1.00  0.00     0.301 C 
ATOM     20  N   UNL     1       0.218   1.215  -0.185  1.00  0.00    -0.194 N 
ATOM     21  C   UNL     1       0.582   2.021   0.889  1.00  0.00     0.311 C 
ATOM     22  C   UNL     1      -0.366   1.624  -1.380  1.00  0.00     0.319 C 
ATOM     23  O   UNL     1       1.012   1.544   1.947  1.00  0.00    -0.247 OA
ATOM     24  C   UNL     1       0.505   3.520   0.774  1.00  0.00     0.153 C 
ATOM     25  S   UNL     1       0.063   3.228  -1.904  1.00  0.00    -0.024 SA
ATOM     26  N   UNL     1      -1.104   0.797  -2.052  1.00  0.00    -0.235 N 
ATOM     27  H   UNL     1      -1.159  -0.140  -1.754  1.00  0.00     0.313 HD
BRANCH  26  28
ATOM     28  C   UNL     1      -1.825   1.187  -3.187  1.00  0.00     0.126 A 
ATOM     29  C   UNL     1      -3.220   1.237  -3.102  1.00  0.00     0.052 A 
ATOM     30  C   UNL     1      -1.210   1.477  -4.406  1.00  0.00     0.064 A 
ATOM     31  C   UNL     1      -3.991   1.602  -4.205  1.00  0.00     0.005 A 
ATOM     32  C   UNL     1      -1.968   1.888  -5.515  1.00  0.00     0.060 A 
ATOM     33  C   UNL     1      -3.367   1.935  -5.405  1.00  0.00     0.013 A 
BRANCH  32  34
ATOM     34  C   UNL     1      -1.296   2.277  -6.805  1.00  0.00     0.416 C 
ATOM     35  F   UNL     1      -1.532   1.385  -7.807  1.00  0.00    -0.166 F 
ATOM     36  F   UNL     1      -1.721   3.484  -7.274  1.00  0.00    -0.166 F 
ATOM     37  F   UNL     1       0.059   2.377  -6.707  1.00  0.00    -0.166 F 
ENDBRANCH  32  34
ENDBRANCH  26  28
ENDBRANCH  15  18
ENDBRANCH   9  14
ENDBRANCH   6   8
ENDBRANCH   5   6
ENDBRANCH   4   5
ENDBRANCH   3   4
ENDBRANCH   2   3
ENDBRANCH   1   2
BRANCH   1  38
ATOM     38  C   UNL     1      -1.649  10.792  -3.580  1.00  0.00     0.188 C 
BRANCH  38  39
ATOM     39  O   UNL     1      -0.949  10.710  -4.799  1.00  0.00    -0.376 OA
BRANCH  39  40
ATOM     40  C   UNL     1      -1.139  11.701  -5.795  1.00  0.00     0.202 C 
BRANCH  40  41
ATOM     41  C   UNL     1      -2.282  12.738  -5.843  1.00  0.00     0.261 C 
BRANCH  41  42
ATOM     42  O   UNL     1      -3.000  13.023  -4.641  1.00  0.00    -0.460 OA
BRANCH  42  43
ATOM     43  C   UNL     1      -4.231  12.460  -4.554  1.00  0.00     0.338 C 
ATOM     44  O   UNL     1      -4.759  11.720  -5.367  1.00  0.00    -0.246 OA
BRANCH  43  45
ATOM     45  C   UNL     1      -4.784  12.711  -3.210  1.00  0.00     0.060 A 
ATOM     46  C   UNL     1      -4.994  11.618  -2.357  1.00  0.00     0.016 A 
ATOM     47  C   UNL     1      -5.151  13.998  -2.820  1.00  0.00     0.016 A 
ATOM     48  C   UNL     1      -5.618  11.803  -1.125  1.00  0.00     0.010 A 
ATOM     49  C   UNL     1      -5.796  14.179  -1.593  1.00  0.00     0.010 A 
ATOM     50  C   UNL     1      -6.072  13.077  -0.762  1.00  0.00    -0.014 A 
BRANCH  50  51
ATOM     51  C   UNL     1      -7.024  13.218   0.366  1.00  0.00     0.031 A 
ATOM     52  C   UNL     1      -8.492  13.332   0.047  1.00  0.00     0.074 A 
ATOM     53  C   UNL     1      -6.605  13.238   1.644  1.00  0.00     0.049 A 
ATOM     54  N   UNL     1      -9.505  13.513   0.853  1.00  0.00    -0.248 NA
ATOM     55  C   UNL     1      -8.867  13.233  -1.375  1.00  0.00     0.031 C 
ATOM     56  C   UNL     1      -5.216  13.117   2.082  1.00  0.00     0.029 A 
ATOM     57  N   UNL     1      -7.314  13.396   2.809  1.00  0.00    -0.354 N 
ATOM     58  C   UNL     1     -10.627  13.591   0.037  1.00  0.00     0.074 A 
ATOM     59  C   UNL     1     -10.174  13.442  -1.328  1.00  0.00     0.031 C 
ATOM     60  C   UNL     1      -5.171  13.238   3.421  1.00  0.00     0.029 A 
ATOM     61  C   UNL     1      -6.521  13.473   3.929  1.00  0.00     0.049 A 
ATOM     62  H   UNL     1      -8.297  13.448   2.839  1.00  0.00     0.167 HD
ATOM     63  C   UNL     1     -11.922  13.764   0.391  1.00  0.00     0.034 A 
ATOM     64  C   UNL     1      -6.849  13.735   5.211  1.00  0.00     0.034 A 
ATOM     65  C   UNL     1     -12.375  13.892   1.748  1.00  0.00     0.049 A 
ATOM     66  C   UNL     1      -8.298  13.951   5.573  1.00  0.00     0.074 A 
ATOM     67  C   UNL     1     -13.672  14.022   2.212  1.00  0.00     0.029 A 
ATOM     68  N   UNL     1     -11.547  13.924   2.859  1.00  0.00    -0.354 N 
ATOM     69  N   UNL     1      -9.359  13.913   4.804  1.00  0.00    -0.248 NA
ATOM     70  C   UNL     1      -8.598  14.213   6.990  1.00  0.00     0.031 C 
ATOM     71  C   UNL     1     -13.625  14.172   3.601  1.00  0.00     0.029 A 
ATOM     72  C   UNL     1     -12.303  14.083   4.006  1.00  0.00     0.049 A 
ATOM     73  H   UNL     1     -10.566  13.844   2.835  1.00  0.00     0.167 HD
ATOM     74  C   UNL     1     -10.451  14.092   5.649  1.00  0.00     0.074 A 
ATOM     75  C   UNL     1      -9.923  14.226   6.990  1.00  0.00     0.031 C 
ATOM     76  C   UNL     1     -11.771  14.148   5.342  1.00  0.00     0.034 A 
BRANCH  63  77
ATOM     77  C   UNL     1     -12.951  13.821  -0.707  1.00  0.00     0.023 A 
ATOM     78  C   UNL     1     -13.298  12.649  -1.409  1.00  0.00     0.012 A 
ATOM     79  C   UNL     1     -13.625  15.024  -0.992  1.00  0.00     0.148 A 
ATOM     80  C   UNL     1     -14.281  12.680  -2.397  1.00  0.00     0.002 A 
ATOM     81  C   UNL     1     -14.638  15.037  -1.942  1.00  0.00     0.091 A 
ATOM     82  F   UNL     1     -13.264  16.131  -0.327  1.00  0.00    -0.205 F 
ATOM     83  C   UNL     1     -14.959  13.870  -2.654  1.00  0.00     0.022 A 
BRANCH  81  84
ATOM     84  S   UNL     1     -15.626  16.496  -2.286  1.00  0.00     0.127 S 
ATOM     85  O   UNL     1     -15.220  16.811  -3.655  1.00  0.00    -0.237 OA
ATOM     86  O   UNL     1     -16.988  15.979  -2.158  1.00  0.00    -0.237 OA
ATOM     87  O   UNL     1     -15.251  17.484  -1.285  1.00  0.00    -0.744 OA
ENDBRANCH  81  84
ENDBRANCH  63  77
BRANCH  64  88
ATOM     88  C   UNL     1      -5.795  13.791   6.265  1.00  0.00     0.023 A 
ATOM     89  C   UNL     1      -5.775  12.817   7.284  1.00  0.00     0.012 A 
ATOM     90  C   UNL     1      -4.832  14.818   6.280  1.00  0.00     0.148 A 
ATOM     91  C   UNL     1      -4.846  12.893   8.323  1.00  0.00     0.002 A 
ATOM     92  C   UNL     1      -3.873  14.854   7.286  1.00  0.00     0.091 A 
ATOM     93  F   UNL     1      -4.877  15.744   5.313  1.00  0.00    -0.205 F 
ATOM     94  C   UNL     1      -3.891  13.905   8.320  1.00  0.00     0.022 A 
BRANCH  92  95
ATOM     95  S   UNL     1      -2.533  16.049   7.296  1.00  0.00     0.127 S 
ATOM     96  O   UNL     1      -2.892  16.891   8.435  1.00  0.00    -0.237 OA
ATOM     97  O   UNL     1      -1.367  15.190   7.507  1.00  0.00    -0.237 OA
ATOM     98  O   UNL     1      -2.574  16.697   5.993  1.00  0.00    -0.744 OA
ENDBRANCH  92  95
ENDBRANCH  64  88
BRANCH  76  99
ATOM     99  C   UNL     1     -12.755  14.284   6.476  1.00  0.00     0.023 A 
ATOM    100  C   UNL     1     -12.862  15.494   7.188  1.00  0.00     0.012 A 
ATOM    101  C   UNL     1     -13.630  13.222   6.783  1.00  0.00     0.148 A 
ATOM    102  C   UNL     1     -13.797  15.632   8.214  1.00  0.00     0.002 A 
ATOM    103  C   UNL     1     -14.597  13.386   7.768  1.00  0.00     0.091 A 
ATOM    104  F   UNL     1     -13.503  12.072   6.106  1.00  0.00    -0.205 F 
ATOM    105  C   UNL     1     -14.672  14.585   8.495  1.00  0.00     0.022 A 
BRANCH 103 106
ATOM    106  S   UNL     1     -15.831  12.130   8.124  1.00  0.00     0.127 S 
ATOM    107  O   UNL     1     -15.389  11.641   9.429  1.00  0.00    -0.237 OA
ATOM    108  O   UNL     1     -17.068  12.910   8.150  1.00  0.00    -0.237 OA
ATOM    109  O   UNL     1     -15.748  11.165   7.036  1.00  0.00    -0.744 OA
ENDBRANCH 103 106
ENDBRANCH  76  99
ENDBRANCH  50  51
ENDBRANCH  43  45
ENDBRANCH  42  43
ENDBRANCH  41  42
ENDBRANCH  40  41
ENDBRANCH  39  40
ENDBRANCH  38  39
ENDBRANCH   1  38
TORSDOF 24
