REMARK SMILES C[C@]([NH3+])(C(=O)N[C@H]1CCCCC[C@@H]1C(=O)OCCOCCOCCOC(=O)c1ccc(-c2c3nc(c(-c4cccc(S(=O)(=O)[O-])c4F)c4ccc([nH]4)c(-c4cccc(S(=O)(=O)[O-])c4F)c4nc(c(-c5cccc(S(=O)(=O)[O-])c5F)c5ccc2[nH]5)C=C4)C=C3)cc1)C(F)(F)F
REMARK SMILES IDX 20 1 19 2 18 3 17 4 16 5 14 6 15 7 13 8 7 9 6 10 4 11 5 12
REMARK SMILES IDX 2 14 1 15 91 16 92 17 93 18 94 19 3 20 8 24 12 26 11 27
REMARK SMILES IDX 10 28 9 29 21 31 22 32 23 33 24 34 25 35 26 36 27 37 28 38
REMARK SMILES IDX 29 39 90 40 30 41 89 42 31 43 32 44 33 45 83 46 34 47 88 48
REMARK SMILES IDX 82 49 84 50 35 51 87 52 81 53 80 54 36 56 68 57 48 58 67 59
REMARK SMILES IDX 49 60 52 61 66 62 85 63 50 64 51 65 65 67 86 68 53 69 37 70
REMARK SMILES IDX 38 71 46 72 39 73 41 74 47 75 40 76 42 77 43 78 44 79 45 80
REMARK SMILES IDX 69 81 70 82 78 83 71 84 73 85 79 86 72 87 74 88 75 89 76 90
REMARK SMILES IDX 77 91 54 92 55 93 63 94 56 95 58 96 64 97 57 98 59 99 60 100
REMARK SMILES IDX 61 101 62 102
REMARK H PARENT 6 13 3 21 3 22 3 23 84 55 52 66
REMARK Flexibility Score: 100.00
ROOT
ATOM      1  C   UNL     1      -1.080   2.653  -2.782  1.00  0.00     0.188 C 
ENDROOT
BRANCH   1   2
ATOM      2  O   UNL     1      -1.071   4.062  -2.598  1.00  0.00    -0.376 OA
BRANCH   2   3
ATOM      3  C   UNL     1      -0.042   4.570  -1.768  1.00  0.00     0.202 C 
BRANCH   3   4
ATOM      4  C   UNL     1       1.311   4.299  -2.437  1.00  0.00     0.261 C 
BRANCH   4   5
ATOM      5  O   UNL     1       1.633   2.899  -2.713  1.00  0.00    -0.463 OA
BRANCH   5   6
ATOM      6  C   UNL     1       1.703   2.037  -1.644  1.00  0.00     0.311 C 
ATOM      7  O   UNL     1       1.854   2.413  -0.491  1.00  0.00    -0.252 OA
BRANCH   6   8
ATOM      8  C   UNL     1       1.492   0.552  -2.074  1.00  0.00     0.121 C 
BRANCH   8   9
ATOM      9  C   UNL     1       0.088  -0.104  -1.618  1.00  0.00     0.096 C 
BRANCH   9  10
ATOM     10  N   UNL     1      -1.068   0.203  -2.589  1.00  0.00    -0.347 N 
ATOM     11  C   UNL     1      -2.480   0.283  -2.621  1.00  0.00     0.290 C 
ATOM     12  O   UNL     1      -2.686  -0.867  -3.071  1.00  0.00    -0.267 OA
ATOM     13  H   UNL     1      -0.704   0.412  -3.480  1.00  0.00     0.164 HD
BRANCH  11  14
ATOM     14  C   UNL     1      -3.727   1.752  -2.515  1.00  0.00     0.266 C 
ATOM     15  C   UNL     1      -3.601   3.130  -3.418  1.00  0.00     0.100 C 
BRANCH  14  16
ATOM     16  C   UNL     1      -5.378   1.798  -2.788  1.00  0.00     0.453 C 
ATOM     17  F   UNL     1      -6.167   0.928  -2.142  1.00  0.00    -0.164 F 
ATOM     18  F   UNL     1      -5.851   3.014  -2.323  1.00  0.00    -0.164 F 
ATOM     19  F   UNL     1      -5.715   1.816  -4.106  1.00  0.00    -0.164 F 
ENDBRANCH  14  16
BRANCH  14  20
ATOM     20  N   UNL     1      -3.635   2.064  -1.033  1.00  0.00    -0.337 N 
ATOM     21  H   UNL     1      -3.716   1.199  -0.498  1.00  0.00     0.345 HD
ATOM     22  H   UNL     1      -4.391   2.697  -0.771  1.00  0.00     0.345 HD
ATOM     23  H   UNL     1      -2.738   2.505  -0.833  1.00  0.00     0.345 HD
ENDBRANCH  14  20
ENDBRANCH  11  14
ENDBRANCH   9  10
BRANCH   9  24
ATOM     24  C   UNL     1       0.219  -1.664  -1.446  1.00  0.00     0.026 CG0
ATOM     25  G   UNL     1       1.045  -2.463  -2.471  1.00  0.00     0.000 G0
ENDBRANCH   9  24
ENDBRANCH   8   9
BRANCH   8  26
ATOM     26  C   UNL     1       2.742  -0.140  -1.478  1.00  0.00     0.017 C 
BRANCH  26  27
ATOM     27  C   UNL     1       3.293  -1.305  -2.289  1.00  0.00     0.001 C 
BRANCH  27  28
ATOM     28  C   UNL     1       2.518  -2.593  -2.098  1.00  0.00     0.000 C 
BRANCH  28  29
ATOM     29  C   UNL     1       1.045  -2.463  -2.471  1.00  0.00     0.002 CG0
ATOM     30  G   UNL     1       0.219  -1.664  -1.446  1.00  0.00     0.000 G0
ENDBRANCH  28  29
ENDBRANCH  27  28
ENDBRANCH  26  27
ENDBRANCH   8  26
ENDBRANCH   6   8
ENDBRANCH   5   6
ENDBRANCH   4   5
ENDBRANCH   3   4
ENDBRANCH   2   3
ENDBRANCH   1   2
BRANCH   1  31
ATOM     31  C   UNL     1      -1.270   2.091  -4.372  1.00  0.00     0.188 C 
BRANCH  31  32
ATOM     32  O   UNL     1      -2.030   0.862  -4.829  1.00  0.00    -0.376 OA
BRANCH  32  33
ATOM     33  C   UNL     1      -3.445   0.602  -5.204  1.00  0.00     0.202 C 
BRANCH  33  34
ATOM     34  C   UNL     1      -4.595  -0.532  -4.444  1.00  0.00     0.261 C 
BRANCH  34  35
ATOM     35  O   UNL     1      -4.798  -0.597  -2.910  1.00  0.00    -0.460 OA
BRANCH  35  36
ATOM     36  C   UNL     1      -4.909  -1.750  -2.138  1.00  0.00     0.338 C 
ATOM     37  O   UNL     1      -5.326  -2.803  -2.604  1.00  0.00    -0.246 OA
BRANCH  36  38
ATOM     38  C   UNL     1      -4.418  -1.694  -0.631  1.00  0.00     0.060 A 
ATOM     39  C   UNL     1      -3.097  -1.409  -0.257  1.00  0.00     0.016 A 
ATOM     40  C   UNL     1      -5.159  -2.231   0.424  1.00  0.00     0.016 A 
ATOM     41  C   UNL     1      -2.489  -1.683   0.996  1.00  0.00     0.010 A 
ATOM     42  C   UNL     1      -4.573  -2.485   1.722  1.00  0.00     0.010 A 
ATOM     43  C   UNL     1      -3.206  -2.269   2.018  1.00  0.00    -0.014 A 
BRANCH  43  44
ATOM     44  C   UNL     1      -2.514  -2.805   3.262  1.00  0.00     0.031 A 
ATOM     45  C   UNL     1      -2.671  -4.277   3.604  1.00  0.00     0.074 A 
ATOM     46  C   UNL     1      -1.699  -2.089   4.079  1.00  0.00     0.049 A 
ATOM     47  N   UNL     1      -2.444  -4.911   4.729  1.00  0.00    -0.248 NA
ATOM     48  C   UNL     1      -3.145  -5.147   2.517  1.00  0.00     0.031 C 
ATOM     49  C   UNL     1      -1.257  -0.711   3.872  1.00  0.00     0.029 A 
ATOM     50  N   UNL     1      -1.116  -2.430   5.293  1.00  0.00    -0.354 N 
ATOM     51  C   UNL     1      -2.859  -6.224   4.520  1.00  0.00     0.074 A 
ATOM     52  C   UNL     1      -3.309  -6.302   3.146  1.00  0.00     0.031 C 
ATOM     53  C   UNL     1      -0.519  -0.314   4.925  1.00  0.00     0.029 A 
ATOM     54  C   UNL     1      -0.496  -1.373   5.932  1.00  0.00     0.049 A 
ATOM     55  H   UNL     1      -1.141  -3.342   5.663  1.00  0.00     0.167 HD
ATOM     56  C   UNL     1      -2.880  -7.269   5.385  1.00  0.00     0.034 A 
ATOM     57  C   UNL     1      -0.027  -1.231   7.195  1.00  0.00     0.034 A 
ATOM     58  C   UNL     1      -2.361  -7.235   6.727  1.00  0.00     0.049 A 
ATOM     59  C   UNL     1      -0.127  -2.377   8.179  1.00  0.00     0.074 A 
ATOM     60  C   UNL     1      -2.343  -8.253   7.668  1.00  0.00     0.029 A 
ATOM     61  N   UNL     1      -1.757  -6.139   7.319  1.00  0.00    -0.354 N 
ATOM     62  N   UNL     1      -0.567  -3.596   7.987  1.00  0.00    -0.248 NA
ATOM     63  C   UNL     1       0.343  -2.129   9.555  1.00  0.00     0.031 C 
ATOM     64  C   UNL     1      -1.762  -7.761   8.841  1.00  0.00     0.029 A 
ATOM     65  C   UNL     1      -1.373  -6.452   8.614  1.00  0.00     0.049 A 
ATOM     66  H   UNL     1      -1.620  -5.267   6.885  1.00  0.00     0.167 HD
ATOM     67  C   UNL     1      -0.391  -4.265   9.196  1.00  0.00     0.074 A 
ATOM     68  C   UNL     1       0.209  -3.324  10.115  1.00  0.00     0.031 C 
ATOM     69  C   UNL     1      -0.711  -5.543   9.515  1.00  0.00     0.034 A 
BRANCH  56  70
ATOM     70  C   UNL     1      -3.527  -8.551   4.920  1.00  0.00     0.023 A 
ATOM     71  C   UNL     1      -2.884  -9.380   3.981  1.00  0.00     0.012 A 
ATOM     72  C   UNL     1      -4.763  -8.956   5.467  1.00  0.00     0.148 A 
ATOM     73  C   UNL     1      -3.482 -10.569   3.559  1.00  0.00     0.002 A 
ATOM     74  C   UNL     1      -5.328 -10.165   5.080  1.00  0.00     0.091 A 
ATOM     75  F   UNL     1      -5.365  -8.150   6.353  1.00  0.00    -0.205 F 
ATOM     76  C   UNL     1      -4.697 -10.965   4.114  1.00  0.00     0.022 A 
BRANCH  74  77
ATOM     77  S   UNL     1      -6.845 -10.802   5.801  1.00  0.00     0.127 S 
ATOM     78  O   UNL     1      -7.777 -10.685   4.681  1.00  0.00    -0.237 OA
ATOM     79  O   UNL     1      -6.470 -12.175   6.142  1.00  0.00    -0.237 OA
ATOM     80  O   UNL     1      -7.136  -9.951   6.946  1.00  0.00    -0.744 OA
ENDBRANCH  74  77
ENDBRANCH  56  70
BRANCH  57  81
ATOM     81  C   UNL     1       0.550   0.077   7.653  1.00  0.00     0.023 A 
ATOM     82  C   UNL     1       1.908   0.159   8.023  1.00  0.00     0.012 A 
ATOM     83  C   UNL     1      -0.252   1.233   7.755  1.00  0.00     0.148 A 
ATOM     84  C   UNL     1       2.449   1.354   8.505  1.00  0.00     0.002 A 
ATOM     85  C   UNL     1       0.310   2.437   8.174  1.00  0.00     0.091 A 
ATOM     86  F   UNL     1      -1.550   1.135   7.442  1.00  0.00    -0.205 F 
ATOM     87  C   UNL     1       1.654   2.494   8.567  1.00  0.00     0.022 A 
BRANCH  85  88
ATOM     88  S   UNL     1      -0.615   3.978   8.158  1.00  0.00     0.127 S 
ATOM     89  O   UNL     1      -0.711   4.279   9.597  1.00  0.00    -0.237 OA
ATOM     90  O   UNL     1       0.301   4.863   7.420  1.00  0.00    -0.237 OA
ATOM     91  O   UNL     1      -1.854   3.699   7.489  1.00  0.00    -0.744 OA
ENDBRANCH  85  88
ENDBRANCH  57  81
BRANCH  69  92
ATOM     92  C   UNL     1      -0.360  -6.054  10.892  1.00  0.00     0.023 A 
ATOM     93  C   UNL     1      -1.086  -5.623  12.019  1.00  0.00     0.012 A 
ATOM     94  C   UNL     1       0.639  -7.037  11.052  1.00  0.00     0.148 A 
ATOM     95  C   UNL     1      -0.806  -6.141  13.285  1.00  0.00     0.002 A 
ATOM     96  C   UNL     1       0.878  -7.585  12.307  1.00  0.00     0.091 A 
ATOM     97  F   UNL     1       1.332  -7.424   9.971  1.00  0.00    -0.205 F 
ATOM     98  C   UNL     1       0.165  -7.130  13.427  1.00  0.00     0.022 A 
BRANCH  96  99
ATOM     99  S   UNL     1       2.041  -8.931  12.569  1.00  0.00     0.127 S 
ATOM    100  O   UNL     1       3.105  -8.264  13.318  1.00  0.00    -0.237 OA
ATOM    101  O   UNL     1       1.246  -9.878  13.353  1.00  0.00    -0.237 OA
ATOM    102  O   UNL     1       2.415  -9.405  11.244  1.00  0.00    -0.744 OA
ENDBRANCH  96  99
ENDBRANCH  69  92
ENDBRANCH  43  44
ENDBRANCH  36  38
ENDBRANCH  35  36
ENDBRANCH  34  35
ENDBRANCH  33  34
ENDBRANCH  32  33
ENDBRANCH  31  32
ENDBRANCH   1  31
TORSDOF 24
