REMARK SMILES O=C(OCCOCCOCCOC(=O)C1([NH+]2CCOCC2)CCC1)c1ccc(-c2c3nc(c(-c4cccc(S(=O)(=O)[O-])c4F)c4ccc([nH]4)c(-c4cccc(S(=O)(=O)[O-])c4F)c4nc(c(-c5cccc(S(=O)(=O)[O-])c5F)c5ccc2[nH]5)C=C4)C=C3)cc1
REMARK SMILES IDX 7 1 6 2 5 3 4 4 3 5 2 6 1 7 25 8 26 9 87 10 27 11 86 12
REMARK SMILES IDX 28 13 29 14 30 15 80 16 31 17 85 18 79 19 81 20 32 21 84 22
REMARK SMILES IDX 78 23 77 24 33 26 65 27 45 28 64 29 46 30 49 31 63 32 82 33
REMARK SMILES IDX 47 34 48 35 62 37 83 38 50 39 34 40 35 41 43 42 36 43 38 44
REMARK SMILES IDX 44 45 37 46 39 47 40 48 41 49 42 50 66 51 67 52 75 53 68 54
REMARK SMILES IDX 70 55 76 56 69 57 71 58 72 59 73 60 74 61 51 62 52 63 60 64
REMARK SMILES IDX 53 65 55 66 61 67 54 68 56 69 57 70 58 71 59 72 8 73 9 74
REMARK SMILES IDX 10 75 11 76 12 77 13 78 14 79 15 80 22 81 24 82 23 83 16 84
REMARK SMILES IDX 17 85 21 86 18 88 20 89 19 90
REMARK H PARENT 81 25 49 36 16 87
REMARK Flexibility Score: inf
ROOT
ATOM      1  C   UNL     1       2.534   1.751   0.507  1.00  0.00     0.188 C 
ENDROOT
BRANCH   1   2
ATOM      2  O   UNL     1       3.886   1.307   0.665  1.00  0.00    -0.376 OA
BRANCH   2   3
ATOM      3  C   UNL     1       4.672   1.406  -0.526  1.00  0.00     0.202 C 
BRANCH   3   4
ATOM      4  C   UNL     1       4.351   0.382  -1.632  1.00  0.00     0.261 C 
BRANCH   4   5
ATOM      5  O   UNL     1       3.001  -0.117  -1.601  1.00  0.00    -0.460 OA
BRANCH   5   6
ATOM      6  C   UNL     1       2.498  -1.198  -0.947  1.00  0.00     0.338 C 
ATOM      7  O   UNL     1       1.325  -1.504  -1.157  1.00  0.00    -0.246 OA
BRANCH   6   8
ATOM      8  C   UNL     1       3.280  -2.025   0.028  1.00  0.00     0.060 A 
ATOM      9  C   UNL     1       4.525  -1.673   0.537  1.00  0.00     0.016 A 
ATOM     10  C   UNL     1       2.712  -3.227   0.489  1.00  0.00     0.016 A 
ATOM     11  C   UNL     1       5.240  -2.499   1.380  1.00  0.00     0.010 A 
ATOM     12  C   UNL     1       3.399  -4.046   1.399  1.00  0.00     0.010 A 
ATOM     13  C   UNL     1       4.686  -3.689   1.823  1.00  0.00    -0.014 A 
BRANCH  13  14
ATOM     14  C   UNL     1       5.568  -4.564   2.614  1.00  0.00     0.031 A 
ATOM     15  C   UNL     1       6.161  -5.755   1.941  1.00  0.00     0.074 A 
ATOM     16  C   UNL     1       5.991  -4.181   3.834  1.00  0.00     0.049 A 
ATOM     17  N   UNL     1       7.030  -6.603   2.411  1.00  0.00    -0.248 NA
ATOM     18  C   UNL     1       5.802  -5.971   0.527  1.00  0.00     0.031 C 
ATOM     19  C   UNL     1       5.676  -2.904   4.469  1.00  0.00     0.029 A 
ATOM     20  N   UNL     1       6.765  -4.813   4.767  1.00  0.00    -0.354 N 
ATOM     21  C   UNL     1       7.348  -7.433   1.349  1.00  0.00     0.074 A 
ATOM     22  C   UNL     1       6.551  -7.018   0.217  1.00  0.00     0.031 C 
ATOM     23  C   UNL     1       6.095  -2.912   5.742  1.00  0.00     0.029 A 
ATOM     24  C   UNL     1       6.765  -4.173   5.987  1.00  0.00     0.049 A 
ATOM     25  H   UNL     1       7.268  -5.639   4.587  1.00  0.00     0.167 HD
ATOM     26  C   UNL     1       8.258  -8.429   1.323  1.00  0.00     0.034 A 
ATOM     27  C   UNL     1       7.244  -4.572   7.176  1.00  0.00     0.034 A 
ATOM     28  C   UNL     1       9.011  -8.834   2.475  1.00  0.00     0.049 A 
ATOM     29  C   UNL     1       8.079  -5.814   7.179  1.00  0.00     0.074 A 
ATOM     30  C   UNL     1       9.906  -9.878   2.596  1.00  0.00     0.029 A 
ATOM     31  N   UNL     1       8.933  -8.220   3.719  1.00  0.00    -0.354 N 
ATOM     32  N   UNL     1       8.393  -6.583   6.164  1.00  0.00    -0.248 NA
ATOM     33  C   UNL     1       8.696  -6.197   8.451  1.00  0.00     0.031 C 
ATOM     34  C   UNL     1      10.336  -9.923   3.927  1.00  0.00     0.029 A 
ATOM     35  C   UNL     1       9.745  -8.879   4.624  1.00  0.00     0.049 A 
ATOM     36  H   UNL     1       8.381  -7.433   3.927  1.00  0.00     0.167 HD
ATOM     37  C   UNL     1       9.295  -7.508   6.658  1.00  0.00     0.074 A 
ATOM     38  C   UNL     1       9.480  -7.194   8.063  1.00  0.00     0.031 C 
ATOM     39  C   UNL     1       9.918  -8.522   6.010  1.00  0.00     0.034 A 
BRANCH  26  40
ATOM     40  C   UNL     1       8.442  -9.146   0.018  1.00  0.00     0.023 A 
ATOM     41  C   UNL     1       9.127  -8.518  -1.044  1.00  0.00     0.012 A 
ATOM     42  C   UNL     1       7.917 -10.437  -0.161  1.00  0.00     0.148 A 
ATOM     43  C   UNL     1       9.261  -9.159  -2.275  1.00  0.00     0.002 A 
ATOM     44  C   UNL     1       8.090 -11.085  -1.376  1.00  0.00     0.091 A 
ATOM     45  F   UNL     1       7.241 -10.995   0.853  1.00  0.00    -0.205 F 
ATOM     46  C   UNL     1       8.750 -10.444  -2.438  1.00  0.00     0.022 A 
BRANCH  44  47
ATOM     47  S   UNL     1       7.514 -12.758  -1.672  1.00  0.00     0.127 S 
ATOM     48  O   UNL     1       6.543 -12.552  -2.744  1.00  0.00    -0.237 OA
ATOM     49  O   UNL     1       8.743 -13.434  -2.078  1.00  0.00    -0.237 OA
ATOM     50  O   UNL     1       6.946 -13.220  -0.408  1.00  0.00    -0.744 OA
ENDBRANCH  44  47
ENDBRANCH  26  40
BRANCH  27  51
ATOM     51  C   UNL     1       6.967  -3.795   8.415  1.00  0.00     0.023 A 
ATOM     52  C   UNL     1       8.005  -3.129   9.091  1.00  0.00     0.012 A 
ATOM     53  C   UNL     1       5.659  -3.736   8.939  1.00  0.00     0.148 A 
ATOM     54  C   UNL     1       7.757  -2.466  10.295  1.00  0.00     0.002 A 
ATOM     55  C   UNL     1       5.412  -3.043  10.119  1.00  0.00     0.091 A 
ATOM     56  F   UNL     1       4.679  -4.373   8.281  1.00  0.00    -0.205 F 
ATOM     57  C   UNL     1       6.463  -2.422  10.808  1.00  0.00     0.022 A 
BRANCH  55  58
ATOM     58  S   UNL     1       3.757  -2.867  10.794  1.00  0.00     0.127 S 
ATOM     59  O   UNL     1       3.775  -3.840  11.882  1.00  0.00    -0.237 OA
ATOM     60  O   UNL     1       3.752  -1.467  11.219  1.00  0.00    -0.237 OA
ATOM     61  O   UNL     1       2.856  -3.162   9.687  1.00  0.00    -0.744 OA
ENDBRANCH  55  58
ENDBRANCH  27  51
BRANCH  39  62
ATOM     62  C   UNL     1      10.880  -9.339   6.820  1.00  0.00     0.023 A 
ATOM     63  C   UNL     1      10.397 -10.206   7.820  1.00  0.00     0.012 A 
ATOM     64  C   UNL     1      12.260  -9.273   6.558  1.00  0.00     0.148 A 
ATOM     65  C   UNL     1      11.282 -10.963   8.580  1.00  0.00     0.002 A 
ATOM     66  C   UNL     1      13.130 -10.079   7.276  1.00  0.00     0.091 A 
ATOM     67  F   UNL     1      12.695  -8.421   5.618  1.00  0.00    -0.205 F 
ATOM     68  C   UNL     1      12.646 -10.910   8.299  1.00  0.00     0.022 A 
BRANCH  66  69
ATOM     69  S   UNL     1      14.883 -10.159   6.903  1.00  0.00     0.127 S 
ATOM     70  O   UNL     1      15.462  -9.452   8.044  1.00  0.00    -0.237 OA
ATOM     71  O   UNL     1      15.128 -11.601   6.889  1.00  0.00    -0.237 OA
ATOM     72  O   UNL     1      15.050  -9.506   5.612  1.00  0.00    -0.744 OA
ENDBRANCH  66  69
ENDBRANCH  39  62
ENDBRANCH  13  14
ENDBRANCH   6   8
ENDBRANCH   5   6
ENDBRANCH   4   5
ENDBRANCH   3   4
ENDBRANCH   2   3
ENDBRANCH   1   2
BRANCH   1  73
ATOM     73  C   UNL     1       2.015   2.587   1.681  1.00  0.00     0.188 C 
BRANCH  73  74
ATOM     74  O   UNL     1       2.682   3.816   1.961  1.00  0.00    -0.376 OA
BRANCH  74  75
ATOM     75  C   UNL     1       4.101   3.794   2.041  1.00  0.00     0.202 C 
BRANCH  75  76
ATOM     76  C   UNL     1       4.782   2.933   3.119  1.00  0.00     0.261 C 
BRANCH  76  77
ATOM     77  O   UNL     1       4.037   1.780   3.539  1.00  0.00    -0.459 OA
BRANCH  77  78
ATOM     78  C   UNL     1       3.376   1.907   4.740  1.00  0.00     0.368 C 
ATOM     79  O   UNL     1       3.527   2.920   5.423  1.00  0.00    -0.245 OA
BRANCH  78  80
ATOM     80  C   UNL     1       2.489   0.568   5.116  1.00  0.00     0.196 C 
ATOM     81  C   UNL     1       2.207  -0.466   3.956  1.00  0.00     0.081 C 
ATOM     82  C   UNL     1       3.371  -0.547   5.746  1.00  0.00     0.081 C 
ATOM     83  C   UNL     1       2.645  -1.606   4.897  1.00  0.00     0.014 C 
BRANCH  80  84
ATOM     84  N   UNL     1       1.150   0.851   5.774  1.00  0.00    -0.317 N 
ATOM     85  C   UNL     1       1.188   1.946   6.767  1.00  0.00     0.292 C 
ATOM     86  C   UNL     1       0.411  -0.258   6.434  1.00  0.00     0.292 C 
ATOM     87  H   UNL     1       0.639   1.088   4.924  1.00  0.00     0.349 HD
ATOM     88  C   UNL     1       1.829   1.519   8.088  1.00  0.00     0.221 C 
ATOM     89  C   UNL     1       0.876  -0.638   7.861  1.00  0.00     0.221 C 
ATOM     90  O   UNL     1       1.004   0.522   8.698  1.00  0.00    -0.370 OA
ENDBRANCH  80  84
ENDBRANCH  78  80
ENDBRANCH  77  78
ENDBRANCH  76  77
ENDBRANCH  75  76
ENDBRANCH  74  75
ENDBRANCH  73  74
ENDBRANCH   1  73
TORSDOF 21
