REMARK SMILES CC(C)Cc1cc2c(cc1Cl)C=C(C(=O)OCCOCCOCCOC(=O)c1ccc(-c3c4nc(c(-c5cccc(S(=O)(=O)[O-])c5F)c5ccc([nH]5)c(-c5cccc(S(=O)(=O)[O-])c5F)c5nc(c(-c6cccc(S(=O)(=O)[O-])c6F)c6ccc3[nH]6)C=C5)C=C4)cc1)[C@@H](C(F)(F)F)O2
REMARK SMILES IDX 21 1 20 2 19 3 18 4 17 5 16 6 14 7 15 8 13 9 5 10 6 11 10 12
REMARK SMILES IDX 7 13 9 14 11 15 8 16 96 17 12 18 91 19 4 20 2 21 1 22 3 23
REMARK SMILES IDX 92 24 93 25 94 26 95 27 22 28 23 29 24 30 25 31 26 32 27 33
REMARK SMILES IDX 28 34 29 35 90 36 30 37 89 38 31 39 32 40 33 41 83 42 34 43
REMARK SMILES IDX 88 44 82 45 84 46 35 47 87 48 81 49 80 50 36 52 68 53 48 54
REMARK SMILES IDX 67 55 49 56 52 57 66 58 85 59 50 60 51 61 65 63 86 64 53 65
REMARK SMILES IDX 37 66 38 67 46 68 39 69 41 70 47 71 40 72 42 73 43 74 44 75
REMARK SMILES IDX 45 76 69 77 70 78 78 79 71 80 73 81 79 82 72 83 74 84 75 85
REMARK SMILES IDX 76 86 77 87 54 88 55 89 63 90 56 91 58 92 64 93 57 94 59 95
REMARK SMILES IDX 60 96 61 97 62 98
REMARK H PARENT 84 51 52 62
REMARK Flexibility Score: inf
ROOT
ATOM      1  C   UNL     1      -2.846  -7.343   3.453  1.00  0.00     0.188 C 
ENDROOT
BRANCH   1   2
ATOM      2  C   UNL     1      -4.020  -7.915   2.628  1.00  0.00     0.188 C 
BRANCH   2   3
ATOM      3  O   UNL     1      -3.960  -9.316   2.485  1.00  0.00    -0.376 OA
BRANCH   3   4
ATOM      4  C   UNL     1      -3.526  -9.894   1.270  1.00  0.00     0.202 C 
BRANCH   4   5
ATOM      5  C   UNL     1      -2.367  -9.330   0.427  1.00  0.00     0.261 C 
BRANCH   5   6
ATOM      6  O   UNL     1      -1.969  -7.983   0.684  1.00  0.00    -0.460 OA
BRANCH   6   7
ATOM      7  C   UNL     1      -2.456  -7.037  -0.150  1.00  0.00     0.338 C 
ATOM      8  O   UNL     1      -3.216  -7.215  -1.087  1.00  0.00    -0.246 OA
BRANCH   7   9
ATOM      9  C   UNL     1      -2.009  -5.713   0.330  1.00  0.00     0.087 C 
ATOM     10  C   UNL     1      -1.499  -0.825   1.337  1.00  0.00    -0.025 A 
ATOM     11  C   UNL     1      -0.682  -1.955   1.499  1.00  0.00     0.052 A 
ATOM     12  C   UNL     1      -2.861  -1.043   1.052  1.00  0.00     0.045 A 
ATOM     13  C   UNL     1      -1.157  -3.236   1.209  1.00  0.00     0.128 A 
ATOM     14  C   UNL     1      -3.346  -2.330   0.792  1.00  0.00     0.032 A 
ATOM     15  Cl  UNL     1      -3.997   0.259   0.989  1.00  0.00    -0.084 Cl
ATOM     16  C   UNL     1      -2.480  -3.424   0.815  1.00  0.00     0.019 A 
ATOM     17  O   UNL     1      -0.246  -4.246   1.324  1.00  0.00    -0.475 OA
ATOM     18  C   UNL     1      -2.927  -4.739   0.388  1.00  0.00     0.027 C 
ATOM     19  C   UNL     1      -0.573  -5.540   0.754  1.00  0.00     0.316 C 
BRANCH  10  20
ATOM     20  C   UNL     1      -0.946   0.584   1.454  1.00  0.00     0.040 C 
BRANCH  20  21
ATOM     21  C   UNL     1       0.580   0.786   1.284  1.00  0.00    -0.013 C 
ATOM     22  C   UNL     1       1.090   0.347  -0.095  1.00  0.00     0.008 C 
ATOM     23  C   UNL     1       0.927   2.265   1.487  1.00  0.00     0.008 C 
ENDBRANCH  20  21
ENDBRANCH  10  20
BRANCH  19  24
ATOM     24  C   UNL     1       0.410  -5.843  -0.385  1.00  0.00     0.430 C 
ATOM     25  F   UNL     1       1.694  -5.657   0.011  1.00  0.00    -0.167 F 
ATOM     26  F   UNL     1       0.319  -7.131  -0.795  1.00  0.00    -0.167 F 
ATOM     27  F   UNL     1       0.204  -5.059  -1.466  1.00  0.00    -0.167 F 
ENDBRANCH  19  24
ENDBRANCH   7   9
ENDBRANCH   6   7
ENDBRANCH   5   6
ENDBRANCH   4   5
ENDBRANCH   3   4
ENDBRANCH   2   3
ENDBRANCH   1   2
BRANCH   1  28
ATOM     28  O   UNL     1      -1.868  -8.228   3.991  1.00  0.00    -0.376 OA
BRANCH  28  29
ATOM     29  C   UNL     1      -2.302  -9.372   4.721  1.00  0.00     0.202 C 
BRANCH  29  30
ATOM     30  C   UNL     1      -3.253  -9.190   5.913  1.00  0.00     0.261 C 
BRANCH  30  31
ATOM     31  O   UNL     1      -4.463  -8.479   5.608  1.00  0.00    -0.460 OA
BRANCH  31  32
ATOM     32  C   UNL     1      -4.602  -7.272   6.218  1.00  0.00     0.338 C 
ATOM     33  O   UNL     1      -3.835  -6.759   7.013  1.00  0.00    -0.246 OA
BRANCH  32  34
ATOM     34  C   UNL     1      -5.741  -6.555   5.607  1.00  0.00     0.060 A 
ATOM     35  C   UNL     1      -7.017  -7.120   5.574  1.00  0.00     0.016 A 
ATOM     36  C   UNL     1      -5.513  -5.284   5.059  1.00  0.00     0.016 A 
ATOM     37  C   UNL     1      -8.073  -6.394   5.015  1.00  0.00     0.010 A 
ATOM     38  C   UNL     1      -6.564  -4.570   4.483  1.00  0.00     0.010 A 
ATOM     39  C   UNL     1      -7.857  -5.111   4.479  1.00  0.00    -0.014 A 
BRANCH  39  40
ATOM     40  C   UNL     1      -9.015  -4.264   4.104  1.00  0.00     0.031 A 
ATOM     41  C   UNL     1      -9.455  -4.089   2.684  1.00  0.00     0.074 A 
ATOM     42  C   UNL     1      -9.661  -3.619   5.094  1.00  0.00     0.049 A 
ATOM     43  N   UNL     1     -10.517  -3.473   2.232  1.00  0.00    -0.248 NA
ATOM     44  C   UNL     1      -8.600  -4.665   1.637  1.00  0.00     0.031 C 
ATOM     45  C   UNL     1      -9.277  -3.656   6.507  1.00  0.00     0.029 A 
ATOM     46  N   UNL     1     -10.766  -2.808   5.067  1.00  0.00    -0.354 N 
ATOM     47  C   UNL     1     -10.466  -3.584   0.850  1.00  0.00     0.074 A 
ATOM     48  C   UNL     1      -9.253  -4.311   0.534  1.00  0.00     0.031 C 
ATOM     49  C   UNL     1     -10.141  -2.914   7.214  1.00  0.00     0.029 A 
ATOM     50  C   UNL     1     -11.136  -2.348   6.308  1.00  0.00     0.049 A 
ATOM     51  H   UNL     1     -11.247  -2.578   4.240  1.00  0.00     0.167 HD
ATOM     52  C   UNL     1     -11.362  -3.139  -0.063  1.00  0.00     0.034 A 
ATOM     53  C   UNL     1     -12.172  -1.574   6.683  1.00  0.00     0.034 A 
ATOM     54  C   UNL     1     -12.572  -2.429   0.261  1.00  0.00     0.049 A 
ATOM     55  C   UNL     1     -13.164  -1.117   5.656  1.00  0.00     0.074 A 
ATOM     56  C   UNL     1     -13.581  -2.019  -0.595  1.00  0.00     0.029 A 
ATOM     57  N   UNL     1     -12.932  -2.005   1.531  1.00  0.00    -0.354 N 
ATOM     58  N   UNL     1     -13.191  -1.378   4.372  1.00  0.00    -0.248 NA
ATOM     59  C   UNL     1     -14.283  -0.290   6.128  1.00  0.00     0.031 C 
ATOM     60  C   UNL     1     -14.542  -1.333   0.155  1.00  0.00     0.029 A 
ATOM     61  C   UNL     1     -14.138  -1.327   1.480  1.00  0.00     0.049 A 
ATOM     62  H   UNL     1     -12.407  -2.163   2.348  1.00  0.00     0.167 HD
ATOM     63  C   UNL     1     -14.337  -0.765   3.884  1.00  0.00     0.074 A 
ATOM     64  C   UNL     1     -14.987  -0.130   5.013  1.00  0.00     0.031 C 
ATOM     65  C   UNL     1     -14.799  -0.726   2.611  1.00  0.00     0.034 A 
BRANCH  52  66
ATOM     66  C   UNL     1     -11.120  -3.463  -1.512  1.00  0.00     0.023 A 
ATOM     67  C   UNL     1     -11.428  -4.756  -1.980  1.00  0.00     0.012 A 
ATOM     68  C   UNL     1     -10.717  -2.471  -2.426  1.00  0.00     0.148 A 
ATOM     69  C   UNL     1     -11.331  -5.061  -3.337  1.00  0.00     0.002 A 
ATOM     70  C   UNL     1     -10.649  -2.775  -3.782  1.00  0.00     0.091 A 
ATOM     71  F   UNL     1     -10.420  -1.252  -1.955  1.00  0.00    -0.205 F 
ATOM     72  C   UNL     1     -10.953  -4.069  -4.237  1.00  0.00     0.022 A 
BRANCH  70  73
ATOM     73  S   UNL     1     -10.229  -1.556  -5.033  1.00  0.00     0.127 S 
ATOM     74  O   UNL     1      -8.929  -2.044  -5.492  1.00  0.00    -0.237 OA
ATOM     75  O   UNL     1     -11.316  -1.718  -5.998  1.00  0.00    -0.237 OA
ATOM     76  O   UNL     1     -10.204  -0.270  -4.351  1.00  0.00    -0.744 OA
ENDBRANCH  70  73
ENDBRANCH  52  66
BRANCH  53  77
ATOM     77  C   UNL     1     -12.356  -1.283   8.129  1.00  0.00     0.023 A 
ATOM     78  C   UNL     1     -13.318  -2.010   8.854  1.00  0.00     0.012 A 
ATOM     79  C   UNL     1     -11.511  -0.381   8.802  1.00  0.00     0.148 A 
ATOM     80  C   UNL     1     -13.436  -1.844  10.234  1.00  0.00     0.002 A 
ATOM     81  C   UNL     1     -11.609  -0.248  10.181  1.00  0.00     0.091 A 
ATOM     82  F   UNL     1     -10.601   0.290   8.083  1.00  0.00    -0.205 F 
ATOM     83  C   UNL     1     -12.576  -0.972  10.898  1.00  0.00     0.022 A 
BRANCH  81  84
ATOM     84  S   UNL     1     -10.479   0.764  11.142  1.00  0.00     0.127 S 
ATOM     85  O   UNL     1     -11.388   1.736  11.745  1.00  0.00    -0.237 OA
ATOM     86  O   UNL     1      -9.920  -0.217  12.072  1.00  0.00    -0.237 OA
ATOM     87  O   UNL     1      -9.525   1.312  10.187  1.00  0.00    -0.744 OA
ENDBRANCH  81  84
ENDBRANCH  53  77
BRANCH  65  88
ATOM     88  C   UNL     1     -16.071   0.029   2.343  1.00  0.00     0.023 A 
ATOM     89  C   UNL     1     -16.032   1.434   2.256  1.00  0.00     0.012 A 
ATOM     90  C   UNL     1     -17.271  -0.652   2.061  1.00  0.00     0.148 A 
ATOM     91  C   UNL     1     -17.172   2.152   1.897  1.00  0.00     0.002 A 
ATOM     92  C   UNL     1     -18.395   0.068   1.672  1.00  0.00     0.091 A 
ATOM     93  F   UNL     1     -17.284  -1.989   2.161  1.00  0.00    -0.205 F 
ATOM     94  C   UNL     1     -18.348   1.470   1.594  1.00  0.00     0.022 A 
BRANCH  92  95
ATOM     95  S   UNL     1     -19.936  -0.722   1.192  1.00  0.00     0.127 S 
ATOM     96  O   UNL     1     -20.840  -0.283   2.255  1.00  0.00    -0.237 OA
ATOM     97  O   UNL     1     -20.196  -0.121  -0.116  1.00  0.00    -0.237 OA
ATOM     98  O   UNL     1     -19.666  -2.153   1.163  1.00  0.00    -0.744 OA
ENDBRANCH  92  95
ENDBRANCH  65  88
ENDBRANCH  39  40
ENDBRANCH  32  34
ENDBRANCH  31  32
ENDBRANCH  30  31
ENDBRANCH  29  30
ENDBRANCH  28  29
ENDBRANCH   1  28
TORSDOF 23
