REMARK SMILES Cc1[nH]c2ccccc2c1[C@H](C(=O)OCCOCCOCCOC(=O)c1ccc(-c2c3nc(c(-c4cccc(S(=O)(=O)[O-])c4F)c4ccc([nH]4)c(-c4cccc(S(=O)(=O)[O-])c4F)c4nc(c(-c5cccc(S(=O)(=O)[O-])c5F)c5ccc2[nH]5)C=C4)C=C3)cc1)[NH+]1CCN(C(=O)c2ccco2)CC1
REMARK SMILES IDX 19 1 18 2 17 3 16 4 15 5 14 6 12 7 13 8 11 9 10 10 1 11 2 12
REMARK SMILES IDX 3 13 4 14 9 16 5 17 8 18 6 19 7 20 89 21 90 22 101 23 91 25
REMARK SMILES IDX 100 26 92 27 93 28 94 29 95 30 96 31 99 32 97 33 98 34 20 35
REMARK SMILES IDX 21 36 22 37 23 38 24 39 25 40 26 41 27 42 88 43 28 44 87 45
REMARK SMILES IDX 29 46 30 47 31 48 81 49 32 50 86 51 80 52 82 53 33 54 85 55
REMARK SMILES IDX 79 56 78 57 34 59 66 60 46 61 65 62 47 63 50 64 64 65 83 66
REMARK SMILES IDX 48 67 49 68 63 70 84 71 51 72 35 73 36 74 44 75 37 76 39 77
REMARK SMILES IDX 45 78 38 79 40 80 41 81 42 82 43 83 67 84 68 85 76 86 69 87
REMARK SMILES IDX 71 88 77 89 70 90 72 91 73 92 74 93 75 94 52 95 53 96 61 97
REMARK SMILES IDX 54 98 56 99 62 100 55 101 57 102 58 103 59 104 60 105
REMARK H PARENT 3 15 89 24 82 58 50 69
REMARK Flexibility Score: inf
ROOT
ATOM      1  C   UNL     1      -1.302   0.364  -2.481  1.00  0.00     0.188 C 
ENDROOT
BRANCH   1   2
ATOM      2  C   UNL     1      -0.901   1.382  -1.398  1.00  0.00     0.188 C 
BRANCH   2   3
ATOM      3  O   UNL     1       0.462   1.724  -1.204  1.00  0.00    -0.376 OA
BRANCH   3   4
ATOM      4  C   UNL     1       1.456   0.718  -1.102  1.00  0.00     0.202 C 
BRANCH   4   5
ATOM      5  C   UNL     1       1.409  -0.170   0.137  1.00  0.00     0.261 C 
BRANCH   5   6
ATOM      6  O   UNL     1       0.761  -1.433  -0.124  1.00  0.00    -0.459 OA
BRANCH   6   7
ATOM      7  C   UNL     1      -0.516  -1.570   0.303  1.00  0.00     0.370 C 
ATOM      8  O   UNL     1      -1.152  -0.669   0.844  1.00  0.00    -0.245 OA
BRANCH   7   9
ATOM      9  C   UNL     1      -1.076  -2.985   0.207  1.00  0.00     0.328 C 
BRANCH   9  10
ATOM     10  C   UNL     1      -0.750  -3.874  -1.023  1.00  0.00     0.049 A 
ATOM     11  C   UNL     1       0.754  -2.507  -2.766  1.00  0.00     0.065 C 
ATOM     12  C   UNL     1      -0.050  -3.620  -2.211  1.00  0.00     0.022 A 
ATOM     13  N   UNL     1      -0.203  -4.693  -3.049  1.00  0.00    -0.358 N 
ATOM     14  C   UNL     1      -0.926  -5.684  -2.463  1.00  0.00     0.046 A 
ATOM     15  H   UNL     1       0.163  -4.740  -3.962  1.00  0.00     0.166 HD
ATOM     16  C   UNL     1      -1.303  -5.218  -1.207  1.00  0.00     0.009 A 
ATOM     17  C   UNL     1      -1.274  -6.937  -2.977  1.00  0.00     0.027 A 
ATOM     18  C   UNL     1      -2.110  -6.075  -0.426  1.00  0.00     0.011 A 
ATOM     19  C   UNL     1      -2.042  -7.770  -2.169  1.00  0.00     0.002 A 
ATOM     20  C   UNL     1      -2.459  -7.346  -0.912  1.00  0.00     0.001 A 
ENDBRANCH   9  10
BRANCH   9  21
ATOM     21  N   UNL     1      -0.927  -3.720   1.500  1.00  0.00    -0.316 N 
ATOM     22  C   UNL     1       0.443  -3.957   1.958  1.00  0.00     0.285 C 
ATOM     23  C   UNL     1      -1.724  -3.166   2.612  1.00  0.00     0.285 C 
ATOM     24  H   UNL     1      -1.310  -4.629   1.241  1.00  0.00     0.349 HD
ATOM     25  C   UNL     1       1.148  -2.804   2.690  1.00  0.00     0.181 C 
ATOM     26  C   UNL     1      -1.124  -2.035   3.488  1.00  0.00     0.181 C 
ATOM     27  N   UNL     1       0.339  -1.972   3.578  1.00  0.00    -0.325 N 
ATOM     28  C   UNL     1       1.019  -0.882   4.177  1.00  0.00     0.289 C 
ATOM     29  O   UNL     1       2.197  -0.673   3.869  1.00  0.00    -0.265 OA
BRANCH  28  30
ATOM     30  C   UNL     1       0.338  -0.040   5.151  1.00  0.00     0.191 A 
ATOM     31  C   UNL     1      -0.576  -0.283   6.163  1.00  0.00     0.056 A 
ATOM     32  O   UNL     1       0.696   1.288   5.198  1.00  0.00    -0.459 OA
ATOM     33  C   UNL     1      -0.812   0.950   6.822  1.00  0.00     0.043 A 
ATOM     34  C   UNL     1      -0.017   1.875   6.192  1.00  0.00     0.196 A 
ENDBRANCH  28  30
ENDBRANCH   9  21
ENDBRANCH   7   9
ENDBRANCH   6   7
ENDBRANCH   5   6
ENDBRANCH   4   5
ENDBRANCH   3   4
ENDBRANCH   2   3
ENDBRANCH   1   2
BRANCH   1  35
ATOM     35  O   UNL     1      -0.585   0.265  -3.708  1.00  0.00    -0.376 OA
BRANCH  35  36
ATOM     36  C   UNL     1       0.092   1.401  -4.224  1.00  0.00     0.202 C 
BRANCH  36  37
ATOM     37  C   UNL     1      -0.758   2.505  -4.850  1.00  0.00     0.261 C 
BRANCH  37  38
ATOM     38  O   UNL     1      -1.743   3.026  -3.955  1.00  0.00    -0.460 OA
BRANCH  38  39
ATOM     39  C   UNL     1      -2.983   2.516  -4.122  1.00  0.00     0.338 C 
ATOM     40  O   UNL     1      -3.343   1.715  -4.977  1.00  0.00    -0.246 OA
BRANCH  39  41
ATOM     41  C   UNL     1      -3.848   2.940  -3.007  1.00  0.00     0.060 A 
ATOM     42  C   UNL     1      -4.705   1.984  -2.445  1.00  0.00     0.016 A 
ATOM     43  C   UNL     1      -3.858   4.263  -2.558  1.00  0.00     0.016 A 
ATOM     44  C   UNL     1      -5.640   2.367  -1.493  1.00  0.00     0.010 A 
ATOM     45  C   UNL     1      -4.805   4.650  -1.611  1.00  0.00     0.010 A 
ATOM     46  C   UNL     1      -5.736   3.714  -1.128  1.00  0.00    -0.014 A 
BRANCH  46  47
ATOM     47  C   UNL     1      -6.959   4.179  -0.441  1.00  0.00     0.031 A 
ATOM     48  C   UNL     1      -8.041   4.807  -1.276  1.00  0.00     0.074 A 
ATOM     49  C   UNL     1      -7.108   4.016   0.883  1.00  0.00     0.049 A 
ATOM     50  N   UNL     1      -9.191   5.304  -0.906  1.00  0.00    -0.248 NA
ATOM     51  C   UNL     1      -7.790   4.891  -2.726  1.00  0.00     0.031 C 
ATOM     52  C   UNL     1      -6.125   3.402   1.774  1.00  0.00     0.029 A 
ATOM     53  N   UNL     1      -8.140   4.374   1.709  1.00  0.00    -0.354 N 
ATOM     54  C   UNL     1      -9.783   5.787  -2.067  1.00  0.00     0.074 A 
ATOM     55  C   UNL     1      -8.863   5.538  -3.153  1.00  0.00     0.031 C 
ATOM     56  C   UNL     1      -6.592   3.451   3.033  1.00  0.00     0.029 A 
ATOM     57  C   UNL     1      -7.891   4.121   3.035  1.00  0.00     0.049 A 
ATOM     58  H   UNL     1      -8.979   4.773   1.383  1.00  0.00     0.167 HD
ATOM     59  C   UNL     1     -10.993   6.374  -2.216  1.00  0.00     0.034 A 
ATOM     60  C   UNL     1      -8.624   4.422   4.124  1.00  0.00     0.034 A 
ATOM     61  C   UNL     1     -11.903   6.603  -1.127  1.00  0.00     0.049 A 
ATOM     62  C   UNL     1      -9.959   5.094   3.934  1.00  0.00     0.074 A 
ATOM     63  C   UNL     1     -13.169   7.157  -1.164  1.00  0.00     0.029 A 
ATOM     64  N   UNL     1     -11.635   6.301   0.200  1.00  0.00    -0.354 N 
ATOM     65  N   UNL     1     -10.552   5.458   2.821  1.00  0.00    -0.248 NA
ATOM     66  C   UNL     1     -10.743   5.363   5.146  1.00  0.00     0.031 C 
ATOM     67  C   UNL     1     -13.652   7.224   0.147  1.00  0.00     0.029 A 
ATOM     68  C   UNL     1     -12.706   6.668   0.995  1.00  0.00     0.049 A 
ATOM     69  H   UNL     1     -10.804   5.887   0.528  1.00  0.00     0.167 HD
ATOM     70  C   UNL     1     -11.793   5.961   3.195  1.00  0.00     0.074 A 
ATOM     71  C   UNL     1     -11.873   5.832   4.637  1.00  0.00     0.031 C 
ATOM     72  C   UNL     1     -12.776   6.490   2.423  1.00  0.00     0.034 A 
BRANCH  59  73
ATOM     73  C   UNL     1     -11.399   6.801  -3.603  1.00  0.00     0.023 A 
ATOM     74  C   UNL     1     -11.712   5.831  -4.577  1.00  0.00     0.012 A 
ATOM     75  C   UNL     1     -11.506   8.167  -3.930  1.00  0.00     0.148 A 
ATOM     76  C   UNL     1     -12.090   6.213  -5.864  1.00  0.00     0.002 A 
ATOM     77  C   UNL     1     -11.931   8.540  -5.200  1.00  0.00     0.091 A 
ATOM     78  F   UNL     1     -11.179   9.075  -3.000  1.00  0.00    -0.205 F 
ATOM     79  C   UNL     1     -12.211   7.565  -6.172  1.00  0.00     0.022 A 
BRANCH  77  80
ATOM     80  S   UNL     1     -12.194  10.253  -5.670  1.00  0.00     0.127 S 
ATOM     81  O   UNL     1     -11.125  10.460  -6.646  1.00  0.00    -0.237 OA
ATOM     82  O   UNL     1     -13.541  10.210  -6.242  1.00  0.00    -0.237 OA
ATOM     83  O   UNL     1     -12.078  11.031  -4.445  1.00  0.00    -0.744 OA
ENDBRANCH  77  80
ENDBRANCH  59  73
BRANCH  60  84
ATOM     84  C   UNL     1      -8.128   4.058   5.481  1.00  0.00     0.023 A 
ATOM     85  C   UNL     1      -8.795   3.066   6.225  1.00  0.00     0.012 A 
ATOM     86  C   UNL     1      -6.986   4.675   6.030  1.00  0.00     0.148 A 
ATOM     87  C   UNL     1      -8.358   2.720   7.504  1.00  0.00     0.002 A 
ATOM     88  C   UNL     1      -6.520   4.283   7.279  1.00  0.00     0.091 A 
ATOM     89  F   UNL     1      -6.372   5.626   5.313  1.00  0.00    -0.205 F 
ATOM     90  C   UNL     1      -7.216   3.321   8.027  1.00  0.00     0.022 A 
BRANCH  88  91
ATOM     91  S   UNL     1      -4.984   4.902   7.977  1.00  0.00     0.127 S 
ATOM     92  O   UNL     1      -5.465   5.677   9.117  1.00  0.00    -0.237 OA
ATOM     93  O   UNL     1      -4.290   3.660   8.324  1.00  0.00    -0.237 OA
ATOM     94  O   UNL     1      -4.348   5.669   6.916  1.00  0.00    -0.744 OA
ENDBRANCH  88  91
ENDBRANCH  60  84
BRANCH  72  95
ATOM     95  C   UNL     1     -14.042   6.926   3.117  1.00  0.00     0.023 A 
ATOM     96  C   UNL     1     -14.036   8.060   3.953  1.00  0.00     0.012 A 
ATOM     97  C   UNL     1     -15.250   6.235   2.898  1.00  0.00     0.148 A 
ATOM     98  C   UNL     1     -15.202   8.469   4.600  1.00  0.00     0.002 A 
ATOM     99  C   UNL     1     -16.419   6.682   3.500  1.00  0.00     0.091 A 
ATOM    100  F   UNL     1     -15.233   5.149   2.111  1.00  0.00    -0.205 F 
ATOM    101  C   UNL     1     -16.394   7.787   4.365  1.00  0.00     0.022 A 
BRANCH  99 102
ATOM    102  S   UNL     1     -18.015   5.927   3.174  1.00  0.00     0.127 S 
ATOM    103  O   UNL     1     -18.263   5.204   4.419  1.00  0.00    -0.237 OA
ATOM    104  O   UNL     1     -18.873   7.095   2.965  1.00  0.00    -0.237 OA
ATOM    105  O   UNL     1     -17.832   5.096   1.992  1.00  0.00    -0.744 OA
ENDBRANCH  99 102
ENDBRANCH  72  95
ENDBRANCH  46  47
ENDBRANCH  39  41
ENDBRANCH  38  39
ENDBRANCH  37  38
ENDBRANCH  36  37
ENDBRANCH  35  36
ENDBRANCH   1  35
TORSDOF 23
