REMARK SMILES O=C(OCCOCCOCCOC(=O)c1noc(-c2ccccc2C(F)(F)F)n1)c1ccc(-c2c3nc(c(-c4cccc(S(=O)(=O)[O-])c4F)c4ccc([nH]4)c(-c4cccc(S(=O)(=O)[O-])c4F)c4nc(c(-c5cccc(S(=O)(=O)[O-])c5F)c5ccc2[nH]5)C=C4)C=C3)cc1
REMARK SMILES IDX 7 1 6 2 5 3 4 4 3 5 2 6 1 7 30 8 31 9 92 10 32 11 91 12
REMARK SMILES IDX 33 13 34 14 35 15 85 16 36 17 90 18 84 19 86 20 37 21 89 22
REMARK SMILES IDX 83 23 82 24 38 26 70 27 50 28 69 29 51 30 54 31 68 32 87 33
REMARK SMILES IDX 52 34 53 35 67 37 88 38 55 39 39 40 40 41 48 42 41 43 43 44
REMARK SMILES IDX 49 45 42 46 44 47 45 48 46 49 47 50 71 51 72 52 80 53 73 54
REMARK SMILES IDX 75 55 81 56 74 57 76 58 77 59 78 60 79 61 56 62 57 63 65 64
REMARK SMILES IDX 58 65 60 66 66 67 59 68 61 69 62 70 63 71 64 72 8 73 9 74
REMARK SMILES IDX 10 75 11 76 12 77 13 78 14 79 15 80 16 81 29 82 17 83 18 84
REMARK SMILES IDX 19 85 20 86 24 87 21 88 23 89 22 90 25 91 26 92 27 93 28 94
REMARK H PARENT 86 25 54 36
REMARK Flexibility Score: inf
ROOT
ATOM      1  C   UNL     1       2.427   2.002  -0.852  1.00  0.00     0.188 C 
ENDROOT
BRANCH   1   2
ATOM      2  O   UNL     1       3.745   1.619  -0.435  1.00  0.00    -0.376 OA
BRANCH   2   3
ATOM      3  C   UNL     1       4.475   0.884  -1.421  1.00  0.00     0.202 C 
BRANCH   3   4
ATOM      4  C   UNL     1       4.252  -0.632  -1.378  1.00  0.00     0.261 C 
BRANCH   4   5
ATOM      5  O   UNL     1       2.871  -0.956  -1.152  1.00  0.00    -0.460 OA
BRANCH   5   6
ATOM      6  C   UNL     1       2.282  -1.324   0.015  1.00  0.00     0.338 C 
ATOM      7  O   UNL     1       1.081  -1.592   0.004  1.00  0.00    -0.246 OA
BRANCH   6   8
ATOM      8  C   UNL     1       3.031  -1.490   1.300  1.00  0.00     0.060 A 
ATOM      9  C   UNL     1       4.162  -0.760   1.668  1.00  0.00     0.016 A 
ATOM     10  C   UNL     1       2.522  -2.422   2.221  1.00  0.00     0.016 A 
ATOM     11  C   UNL     1       4.864  -1.061   2.833  1.00  0.00     0.010 A 
ATOM     12  C   UNL     1       3.178  -2.670   3.434  1.00  0.00     0.010 A 
ATOM     13  C   UNL     1       4.389  -2.030   3.719  1.00  0.00    -0.014 A 
BRANCH  13  14
ATOM     14  C   UNL     1       5.223  -2.409   4.885  1.00  0.00     0.031 A 
ATOM     15  C   UNL     1       5.903  -3.752   4.893  1.00  0.00     0.074 A 
ATOM     16  C   UNL     1       5.454  -1.517   5.868  1.00  0.00     0.049 A 
ATOM     17  N   UNL     1       6.731  -4.250   5.773  1.00  0.00    -0.248 NA
ATOM     18  C   UNL     1       5.631  -4.646   3.754  1.00  0.00     0.031 C 
ATOM     19  C   UNL     1       4.891  -0.166   5.931  1.00  0.00     0.029 A 
ATOM     20  N   UNL     1       6.244  -1.594   6.984  1.00  0.00    -0.354 N 
ATOM     21  C   UNL     1       7.066  -5.515   5.304  1.00  0.00     0.074 A 
ATOM     22  C   UNL     1       6.338  -5.719   4.072  1.00  0.00     0.031 C 
ATOM     23  C   UNL     1       5.375   0.469   7.011  1.00  0.00     0.029 A 
ATOM     24  C   UNL     1       6.263  -0.437   7.728  1.00  0.00     0.049 A 
ATOM     25  H   UNL     1       6.751  -2.401   7.231  1.00  0.00     0.167 HD
ATOM     26  C   UNL     1       7.921  -6.417   5.837  1.00  0.00     0.034 A 
ATOM     27  C   UNL     1       6.935  -0.141   8.855  1.00  0.00     0.034 A 
ATOM     28  C   UNL     1       8.654  -6.205   7.053  1.00  0.00     0.049 A 
ATOM     29  C   UNL     1       7.848  -1.180   9.444  1.00  0.00     0.074 A 
ATOM     30  C   UNL     1       9.505  -7.073   7.712  1.00  0.00     0.029 A 
ATOM     31  N   UNL     1       8.626  -5.031   7.790  1.00  0.00    -0.354 N 
ATOM     32  N   UNL     1       8.162  -2.363   8.975  1.00  0.00    -0.248 NA
ATOM     33  C   UNL     1       8.517  -0.831  10.706  1.00  0.00     0.031 C 
ATOM     34  C   UNL     1       9.992  -6.421   8.851  1.00  0.00     0.029 A 
ATOM     35  C   UNL     1       9.450  -5.146   8.894  1.00  0.00     0.049 A 
ATOM     36  H   UNL     1       8.098  -4.233   7.560  1.00  0.00     0.167 HD
ATOM     37  C   UNL     1       9.072  -2.897   9.877  1.00  0.00     0.074 A 
ATOM     38  C   UNL     1       9.283  -1.895  10.903  1.00  0.00     0.031 C 
ATOM     39  C   UNL     1       9.664  -4.116   9.876  1.00  0.00     0.034 A 
BRANCH  26  40
ATOM     40  C   UNL     1       8.124  -7.701   5.080  1.00  0.00     0.023 A 
ATOM     41  C   UNL     1       8.954  -7.704   3.941  1.00  0.00     0.012 A 
ATOM     42  C   UNL     1       7.503  -8.895   5.489  1.00  0.00     0.148 A 
ATOM     43  C   UNL     1       9.143  -8.873   3.204  1.00  0.00     0.002 A 
ATOM     44  C   UNL     1       7.717 -10.063   4.765  1.00  0.00     0.091 A 
ATOM     45  F   UNL     1       6.694  -8.862   6.558  1.00  0.00    -0.205 F 
ATOM     46  C   UNL     1       8.530 -10.052   3.619  1.00  0.00     0.022 A 
BRANCH  44  47
ATOM     47  S   UNL     1       7.001 -11.640   5.239  1.00  0.00     0.127 S 
ATOM     48  O   UNL     1       5.978 -11.820   4.210  1.00  0.00    -0.237 OA
ATOM     49  O   UNL     1       8.145 -12.546   5.125  1.00  0.00    -0.237 OA
ATOM     50  O   UNL     1       6.502 -11.461   6.595  1.00  0.00    -0.744 OA
ENDBRANCH  44  47
ENDBRANCH  26  40
BRANCH  27  51
ATOM     51  C   UNL     1       6.826   1.201   9.488  1.00  0.00     0.023 A 
ATOM     52  C   UNL     1       7.894   2.108   9.350  1.00  0.00     0.012 A 
ATOM     53  C   UNL     1       5.714   1.554  10.275  1.00  0.00     0.148 A 
ATOM     54  C   UNL     1       7.873   3.333  10.017  1.00  0.00     0.002 A 
ATOM     55  C   UNL     1       5.697   2.779  10.934  1.00  0.00     0.091 A 
ATOM     56  F   UNL     1       4.701   0.681  10.369  1.00  0.00    -0.205 F 
ATOM     57  C   UNL     1       6.780   3.666  10.813  1.00  0.00     0.022 A 
BRANCH  55  58
ATOM     58  S   UNL     1       4.355   3.286  12.015  1.00  0.00     0.127 S 
ATOM     59  O   UNL     1       5.071   3.674  13.229  1.00  0.00    -0.237 OA
ATOM     60  O   UNL     1       3.771   4.399  11.268  1.00  0.00    -0.237 OA
ATOM     61  O   UNL     1       3.500   2.116  12.165  1.00  0.00    -0.744 OA
ENDBRANCH  55  58
ENDBRANCH  27  51
BRANCH  39  62
ATOM     62  C   UNL     1      10.585  -4.430  11.020  1.00  0.00     0.023 A 
ATOM     63  C   UNL     1      10.037  -4.761  12.274  1.00  0.00     0.012 A 
ATOM     64  C   UNL     1      11.979  -4.461  10.838  1.00  0.00     0.148 A 
ATOM     65  C   UNL     1      10.868  -5.099  13.340  1.00  0.00     0.002 A 
ATOM     66  C   UNL     1      12.799  -4.837  11.894  1.00  0.00     0.091 A 
ATOM     67  F   UNL     1      12.480  -4.113   9.643  1.00  0.00    -0.205 F 
ATOM     68  C   UNL     1      12.247  -5.149  13.147  1.00  0.00     0.022 A 
BRANCH  66  69
ATOM     69  S   UNL     1      14.576  -5.007  11.694  1.00  0.00     0.127 S 
ATOM     70  O   UNL     1      15.060  -3.731  12.216  1.00  0.00    -0.237 OA
ATOM     71  O   UNL     1      14.881  -6.166  12.534  1.00  0.00    -0.237 OA
ATOM     72  O   UNL     1      14.787  -5.231  10.270  1.00  0.00    -0.744 OA
ENDBRANCH  66  69
ENDBRANCH  39  62
ENDBRANCH  13  14
ENDBRANCH   6   8
ENDBRANCH   5   6
ENDBRANCH   4   5
ENDBRANCH   3   4
ENDBRANCH   2   3
ENDBRANCH   1   2
BRANCH   1  73
ATOM     73  C   UNL     1       2.006   3.321  -0.196  1.00  0.00     0.188 C 
BRANCH  73  74
ATOM     74  O   UNL     1       2.642   4.486  -0.739  1.00  0.00    -0.376 OA
BRANCH  74  75
ATOM     75  C   UNL     1       4.064   4.549  -0.634  1.00  0.00     0.202 C 
BRANCH  75  76
ATOM     76  C   UNL     1       4.601   4.878   0.758  1.00  0.00     0.261 C 
BRANCH  76  77
ATOM     77  O   UNL     1       4.184   3.927   1.749  1.00  0.00    -0.457 OA
BRANCH  77  78
ATOM     78  C   UNL     1       3.644   4.487   2.877  1.00  0.00     0.380 C 
ATOM     79  O   UNL     1       3.559   5.699   3.055  1.00  0.00    -0.242 OA
BRANCH  78  80
ATOM     80  C   UNL     1       3.185   3.520   3.876  1.00  0.00     0.281 A 
ATOM     81  N   UNL     1       2.723   2.280   3.623  1.00  0.00    -0.049 NA
ATOM     82  N   UNL     1       3.095   3.884   5.195  1.00  0.00    -0.181 NA
ATOM     83  O   UNL     1       2.229   1.859   4.877  1.00  0.00    -0.333 OA
ATOM     84  C   UNL     1       2.480   2.877   5.754  1.00  0.00     0.259 A 
BRANCH  84  85
ATOM     85  C   UNL     1       2.001   2.780   7.126  1.00  0.00     0.052 A 
ATOM     86  C   UNL     1       1.855   1.529   7.750  1.00  0.00     0.014 A 
ATOM     87  C   UNL     1       1.736   3.958   7.870  1.00  0.00     0.068 A 
ATOM     88  C   UNL     1       1.486   1.443   9.093  1.00  0.00     0.001 A 
ATOM     89  C   UNL     1       1.363   3.846   9.219  1.00  0.00     0.014 A 
ATOM     90  C   UNL     1       1.243   2.599   9.824  1.00  0.00     0.001 A 
BRANCH  87  91
ATOM     91  C   UNL     1       1.859   5.344   7.274  1.00  0.00     0.417 C 
ATOM     92  F   UNL     1       1.298   6.321   8.050  1.00  0.00    -0.166 F 
ATOM     93  F   UNL     1       3.141   5.750   7.062  1.00  0.00    -0.166 F 
ATOM     94  F   UNL     1       1.205   5.463   6.078  1.00  0.00    -0.166 F 
ENDBRANCH  87  91
ENDBRANCH  84  85
ENDBRANCH  78  80
ENDBRANCH  77  78
ENDBRANCH  76  77
ENDBRANCH  75  76
ENDBRANCH  74  75
ENDBRANCH  73  74
ENDBRANCH   1  73
TORSDOF 22
