REMARK SMILES O=C(OCCOCCOCCOC(=O)c1ccc(-c2c3nc(c(-c4cccc(S(=O)(=O)[O-])c4F)c4ccc([nH]4)c(-c4cccc(S(=O)(=O)[O-])c4F)c4nc(c(-c5cccc(S(=O)(=O)[O-])c5F)c5ccc2[nH]5)C=C4)C=C3)cc1)c1ccc(/C=N/NC(=O)c2cccc3ccccc23)cc1
REMARK SMILES IDX 7 1 6 2 5 3 4 4 3 5 2 6 1 7 78 8 79 9 98 10 80 11 97 12
REMARK SMILES IDX 81 13 82 14 83 15 84 16 85 17 86 19 87 20 88 21 96 22 89 23
REMARK SMILES IDX 91 24 95 25 90 26 92 27 94 28 93 29 8 30 9 31 10 32 11 33
REMARK SMILES IDX 12 34 13 35 14 36 15 37 16 38 77 39 17 40 76 41 18 42 19 43
REMARK SMILES IDX 20 44 70 45 21 46 75 47 69 48 71 49 22 50 74 51 68 52 67 53
REMARK SMILES IDX 23 55 55 56 35 57 54 58 36 59 39 60 53 61 72 62 37 63 38 64
REMARK SMILES IDX 52 66 73 67 40 68 24 69 25 70 33 71 26 72 28 73 34 74 27 75
REMARK SMILES IDX 29 76 30 77 31 78 32 79 56 80 57 81 65 82 58 83 60 84 66 85
REMARK SMILES IDX 59 86 61 87 62 88 63 89 64 90 41 91 42 92 50 93 43 94 45 95
REMARK SMILES IDX 51 96 44 97 46 98 47 99 48 100 49 101
REMARK H PARENT 84 18 71 54 39 65
REMARK Flexibility Score: inf
ROOT
ATOM      1  C   UNL     1       2.490   2.232   0.448  1.00  0.00     0.188 C 
ENDROOT
BRANCH   1   2
ATOM      2  O   UNL     1       3.802   1.684   0.608  1.00  0.00    -0.376 OA
BRANCH   2   3
ATOM      3  C   UNL     1       4.565   1.632  -0.598  1.00  0.00     0.202 C 
BRANCH   3   4
ATOM      4  C   UNL     1       4.376   0.343  -1.403  1.00  0.00     0.261 C 
BRANCH   4   5
ATOM      5  O   UNL     1       3.007  -0.089  -1.412  1.00  0.00    -0.460 OA
BRANCH   5   6
ATOM      6  C   UNL     1       2.435  -1.079  -0.680  1.00  0.00     0.338 C 
ATOM      7  O   UNL     1       1.289  -1.419  -0.972  1.00  0.00    -0.246 OA
BRANCH   6   8
ATOM      8  C   UNL     1       3.111  -1.793   0.455  1.00  0.00     0.060 A 
ATOM      9  C   UNL     1       4.202  -1.310   1.181  1.00  0.00     0.016 A 
ATOM     10  C   UNL     1       2.571  -3.037   0.842  1.00  0.00     0.016 A 
ATOM     11  C   UNL     1       4.809  -2.073   2.174  1.00  0.00     0.010 A 
ATOM     12  C   UNL     1       3.157  -3.802   1.861  1.00  0.00     0.010 A 
ATOM     13  C   UNL     1       4.305  -3.329   2.490  1.00  0.00    -0.005 A 
BRANCH  13  14
ATOM     14  C   UNL     1       5.133  -4.244   3.290  1.00  0.00     0.141 C 
ATOM     15  N   UNL     1       6.413  -4.046   3.307  1.00  0.00    -0.180 NA
BRANCH  15  16
ATOM     16  N   UNL     1       7.229  -5.060   3.702  1.00  0.00    -0.243 N 
ATOM     17  C   UNL     1       7.302  -6.318   3.119  1.00  0.00     0.271 C 
ATOM     18  H   UNL     1       7.821  -4.886   4.469  1.00  0.00     0.194 HD
ATOM     19  O   UNL     1       8.339  -6.978   3.183  1.00  0.00    -0.267 OA
BRANCH  17  20
ATOM     20  C   UNL     1       6.106  -6.916   2.493  1.00  0.00     0.049 A 
ATOM     21  C   UNL     1       5.433  -7.834   3.305  1.00  0.00     0.014 A 
ATOM     22  C   UNL     1       5.624  -6.576   1.198  1.00  0.00    -0.006 A 
ATOM     23  C   UNL     1       4.263  -8.420   2.852  1.00  0.00     0.001 A 
ATOM     24  C   UNL     1       4.430  -7.202   0.755  1.00  0.00    -0.018 A 
ATOM     25  C   UNL     1       6.230  -5.634   0.333  1.00  0.00     0.009 A 
ATOM     26  C   UNL     1       3.769  -8.116   1.586  1.00  0.00     0.009 A 
ATOM     27  C   UNL     1       3.896  -6.893  -0.506  1.00  0.00     0.009 A 
ATOM     28  C   UNL     1       5.671  -5.319  -0.910  1.00  0.00     0.001 A 
ATOM     29  C   UNL     1       4.508  -5.953  -1.331  1.00  0.00     0.001 A 
ENDBRANCH  17  20
ENDBRANCH  15  16
ENDBRANCH  13  14
ENDBRANCH   6   8
ENDBRANCH   5   6
ENDBRANCH   4   5
ENDBRANCH   3   4
ENDBRANCH   2   3
ENDBRANCH   1   2
BRANCH   1  30
ATOM     30  C   UNL     1       2.036   2.925   1.736  1.00  0.00     0.188 C 
BRANCH  30  31
ATOM     31  O   UNL     1       2.739   4.127   2.056  1.00  0.00    -0.376 OA
BRANCH  31  32
ATOM     32  C   UNL     1       4.131   4.008   2.340  1.00  0.00     0.202 C 
BRANCH  32  33
ATOM     33  C   UNL     1       4.522   3.407   3.697  1.00  0.00     0.261 C 
BRANCH  33  34
ATOM     34  O   UNL     1       4.050   2.068   3.940  1.00  0.00    -0.460 OA
BRANCH  34  35
ATOM     35  C   UNL     1       3.086   1.985   4.885  1.00  0.00     0.338 C 
ATOM     36  O   UNL     1       2.539   2.921   5.464  1.00  0.00    -0.246 OA
BRANCH  35  37
ATOM     37  C   UNL     1       2.703   0.595   5.173  1.00  0.00     0.060 A 
ATOM     38  C   UNL     1       1.425   0.164   4.799  1.00  0.00     0.016 A 
ATOM     39  C   UNL     1       3.474  -0.162   6.060  1.00  0.00     0.016 A 
ATOM     40  C   UNL     1       0.877  -0.980   5.387  1.00  0.00     0.010 A 
ATOM     41  C   UNL     1       2.925  -1.312   6.639  1.00  0.00     0.010 A 
ATOM     42  C   UNL     1       1.599  -1.688   6.360  1.00  0.00    -0.014 A 
BRANCH  42  43
ATOM     43  C   UNL     1       0.902  -2.681   7.223  1.00  0.00     0.031 A 
ATOM     44  C   UNL     1       0.487  -2.279   8.621  1.00  0.00     0.074 A 
ATOM     45  C   UNL     1       0.626  -3.921   6.777  1.00  0.00     0.049 A 
ATOM     46  N   UNL     1      -0.147  -2.974   9.532  1.00  0.00    -0.248 NA
ATOM     47  C   UNL     1       0.841  -0.915   9.053  1.00  0.00     0.031 C 
ATOM     48  C   UNL     1       0.967  -4.446   5.456  1.00  0.00     0.029 A 
ATOM     49  N   UNL     1      -0.001  -4.970   7.403  1.00  0.00    -0.354 N 
ATOM     50  C   UNL     1      -0.237  -2.150  10.650  1.00  0.00     0.074 A 
ATOM     51  C   UNL     1       0.419  -0.907  10.310  1.00  0.00     0.031 C 
ATOM     52  C   UNL     1       0.550  -5.723   5.371  1.00  0.00     0.029 A 
ATOM     53  C   UNL     1      -0.083  -6.105   6.632  1.00  0.00     0.049 A 
ATOM     54  H   UNL     1      -0.358  -4.915   8.319  1.00  0.00     0.167 HD
ATOM     55  C   UNL     1      -0.830  -2.390  11.845  1.00  0.00     0.034 A 
ATOM     56  C   UNL     1      -0.620  -7.309   6.911  1.00  0.00     0.034 A 
ATOM     57  C   UNL     1      -1.530  -3.602  12.176  1.00  0.00     0.049 A 
ATOM     58  C   UNL     1      -1.286  -7.542   8.245  1.00  0.00     0.074 A 
ATOM     59  C   UNL     1      -2.216  -3.911  13.338  1.00  0.00     0.029 A 
ATOM     60  N   UNL     1      -1.634  -4.706  11.347  1.00  0.00    -0.354 N 
ATOM     61  N   UNL     1      -1.476  -6.705   9.235  1.00  0.00    -0.248 NA
ATOM     62  C   UNL     1      -1.851  -8.882   8.476  1.00  0.00     0.031 C 
ATOM     63  C   UNL     1      -2.725  -5.208  13.216  1.00  0.00     0.029 A 
ATOM     64  C   UNL     1      -2.369  -5.699  11.970  1.00  0.00     0.049 A 
ATOM     65  H   UNL     1      -1.243  -4.774  10.446  1.00  0.00     0.167 HD
ATOM     66  C   UNL     1      -2.223  -7.401  10.183  1.00  0.00     0.074 A 
ATOM     67  C   UNL     1      -2.460  -8.722   9.643  1.00  0.00     0.031 C 
ATOM     68  C   UNL     1      -2.663  -6.986  11.396  1.00  0.00     0.034 A 
BRANCH  55  69
ATOM     69  C   UNL     1      -0.790  -1.298  12.883  1.00  0.00     0.023 A 
ATOM     70  C   UNL     1      -1.618  -0.167  12.735  1.00  0.00     0.012 A 
ATOM     71  C   UNL     1       0.010  -1.421  14.037  1.00  0.00     0.148 A 
ATOM     72  C   UNL     1      -1.630   0.837  13.702  1.00  0.00     0.002 A 
ATOM     73  C   UNL     1      -0.038  -0.435  15.017  1.00  0.00     0.091 A 
ATOM     74  F   UNL     1       0.808  -2.492  14.152  1.00  0.00    -0.205 F 
ATOM     75  C   UNL     1      -0.850   0.698  14.847  1.00  0.00     0.022 A 
BRANCH  73  76
ATOM     76  S   UNL     1       0.874  -0.567  16.559  1.00  0.00     0.127 S 
ATOM     77  O   UNL     1       1.979   0.362  16.330  1.00  0.00    -0.237 OA
ATOM     78  O   UNL     1      -0.109  -0.113  17.544  1.00  0.00    -0.237 OA
ATOM     79  O   UNL     1       1.246  -1.970  16.682  1.00  0.00    -0.744 OA
ENDBRANCH  73  76
ENDBRANCH  55  69
BRANCH  56  80
ATOM     80  C   UNL     1      -0.645  -8.388   5.885  1.00  0.00     0.023 A 
ATOM     81  C   UNL     1      -1.870  -8.700   5.263  1.00  0.00     0.012 A 
ATOM     82  C   UNL     1       0.500  -9.144   5.574  1.00  0.00     0.148 A 
ATOM     83  C   UNL     1      -1.966  -9.773   4.378  1.00  0.00     0.002 A 
ATOM     84  C   UNL     1       0.399 -10.205   4.681  1.00  0.00     0.091 A 
ATOM     85  F   UNL     1       1.661  -8.807   6.153  1.00  0.00    -0.205 F 
ATOM     86  C   UNL     1      -0.834 -10.527   4.090  1.00  0.00     0.022 A 
BRANCH  84  87
ATOM     87  S   UNL     1       1.796 -11.232   4.222  1.00  0.00     0.127 S 
ATOM     88  O   UNL     1       1.284 -12.579   4.466  1.00  0.00    -0.237 OA
ATOM     89  O   UNL     1       1.958 -10.879   2.813  1.00  0.00    -0.237 OA
ATOM     90  O   UNL     1       2.887 -10.821   5.094  1.00  0.00    -0.744 OA
ENDBRANCH  84  87
ENDBRANCH  56  80
BRANCH  68  91
ATOM     91  C   UNL     1      -3.490  -7.945  12.212  1.00  0.00     0.023 A 
ATOM     92  C   UNL     1      -2.875  -9.050  12.834  1.00  0.00     0.012 A 
ATOM     93  C   UNL     1      -4.865  -7.715  12.419  1.00  0.00     0.148 A 
ATOM     94  C   UNL     1      -3.620  -9.927  13.621  1.00  0.00     0.002 A 
ATOM     95  C   UNL     1      -5.593  -8.569  13.241  1.00  0.00     0.091 A 
ATOM     96  F   UNL     1      -5.442  -6.674  11.802  1.00  0.00    -0.205 F 
ATOM     97  C   UNL     1      -4.975  -9.681  13.834  1.00  0.00     0.022 A 
BRANCH  95  98
ATOM     98  S   UNL     1      -7.318  -8.262  13.638  1.00  0.00     0.127 S 
ATOM     99  O   UNL     1      -8.005  -9.155  12.707  1.00  0.00    -0.237 OA
ATOM    100  O   UNL     1      -7.399  -8.668  15.043  1.00  0.00    -0.237 OA
ATOM    101  O   UNL     1      -7.523  -6.836  13.417  1.00  0.00    -0.744 OA
ENDBRANCH  95  98
ENDBRANCH  68  91
ENDBRANCH  42  43
ENDBRANCH  35  37
ENDBRANCH  34  35
ENDBRANCH  33  34
ENDBRANCH  32  33
ENDBRANCH  31  32
ENDBRANCH  30  31
ENDBRANCH   1  30
TORSDOF 23
