REMARK SMILES C[C@@H]1C[N@@H+](C[C@]2(C(=O)OCCOCCOCCOC(=O)c3ccc(-c4c5nc(c(-c6cccc(S(=O)(=O)[O-])c6F)c6ccc([nH]6)c(-c6cccc(S(=O)(=O)[O-])c6F)c6nc(c(-c7cccc(S(=O)(=O)[O-])c7F)c7ccc4[nH]7)C=C6)C=C5)cc3)CCOC2)C[C@@H]1C
REMARK SMILES IDX 14 1 13 2 12 3 11 4 10 5 9 6 7 7 8 8 6 9 84 10 87 11 85 12
REMARK SMILES IDX 86 13 5 14 4 15 1 16 2 17 3 18 89 19 88 20 90 21 15 23 16 24
REMARK SMILES IDX 17 25 18 26 19 27 20 28 21 29 22 30 83 31 23 32 82 33 24 34
REMARK SMILES IDX 25 35 26 36 76 37 27 38 81 39 75 40 77 41 28 42 80 43 74 44
REMARK SMILES IDX 73 45 29 47 61 48 41 49 60 50 42 51 45 52 59 53 78 54 43 55
REMARK SMILES IDX 44 56 58 58 79 59 46 60 30 61 31 62 39 63 32 64 34 65 40 66
REMARK SMILES IDX 33 67 35 68 36 69 37 70 38 71 62 72 63 73 71 74 64 75 66 76
REMARK SMILES IDX 72 77 65 78 67 79 68 80 69 81 70 82 47 83 48 84 56 85 49 86
REMARK SMILES IDX 51 87 57 88 50 89 52 90 53 91 54 92 55 93
REMARK H PARENT 4 22 77 46 45 57
REMARK Flexibility Score: inf
ROOT
ATOM      1  C   UNL     1       2.629   3.949   1.381  1.00  0.00     0.188 C 
ENDROOT
BRANCH   1   2
ATOM      2  C   UNL     1       1.947   3.877   0.012  1.00  0.00     0.188 C 
BRANCH   2   3
ATOM      3  O   UNL     1       2.243   4.911  -0.915  1.00  0.00    -0.376 OA
BRANCH   3   4
ATOM      4  C   UNL     1       2.006   6.245  -0.487  1.00  0.00     0.202 C 
BRANCH   4   5
ATOM      5  C   UNL     1       0.544   6.668  -0.268  1.00  0.00     0.261 C 
BRANCH   5   6
ATOM      6  O   UNL     1      -0.231   5.793   0.577  1.00  0.00    -0.463 OA
BRANCH   6   7
ATOM      7  C   UNL     1      -1.243   5.128  -0.045  1.00  0.00     0.320 C 
ATOM      8  O   UNL     1      -1.555   5.292  -1.221  1.00  0.00    -0.251 OA
BRANCH   7   9
ATOM      9  C   UNL     1      -2.012   4.169   0.864  1.00  0.00     0.142 C 
ATOM     10  C   UNL     1      -2.099   2.839   0.115  1.00  0.00     0.055 C 
ATOM     11  C   UNL     1      -1.260   3.747   2.118  1.00  0.00     0.185 C 
ATOM     12  C   UNL     1      -2.068   1.770   1.181  1.00  0.00     0.161 C 
ATOM     13  O   UNL     1      -1.559   2.367   2.377  1.00  0.00    -0.380 OA
BRANCH   9  14
ATOM     14  C   UNL     1      -3.356   4.904   1.147  1.00  0.00     0.283 C 
BRANCH  14  15
ATOM     15  N   UNL     1      -4.480   4.317   1.858  1.00  0.00    -0.333 N 
ATOM     16  C   UNL     1      -5.363   2.328   4.863  1.00  0.00     0.014 C 
ATOM     17  C   UNL     1      -4.877   2.647   3.459  1.00  0.00     0.049 C 
ATOM     18  C   UNL     1      -4.423   4.092   3.289  1.00  0.00     0.265 C 
ATOM     19  C   UNL     1      -5.879   2.444   2.313  1.00  0.00     0.049 C 
ATOM     20  C   UNL     1      -5.300   3.319   1.194  1.00  0.00     0.265 C 
ATOM     21  C   UNL     1      -7.316   2.841   2.642  1.00  0.00     0.014 C 
ATOM     22  H   UNL     1      -4.981   5.202   1.777  1.00  0.00     0.348 HD
ENDBRANCH  14  15
ENDBRANCH   9  14
ENDBRANCH   7   9
ENDBRANCH   6   7
ENDBRANCH   5   6
ENDBRANCH   4   5
ENDBRANCH   3   4
ENDBRANCH   2   3
ENDBRANCH   1   2
BRANCH   1  23
ATOM     23  O   UNL     1       2.457   5.169   2.099  1.00  0.00    -0.376 OA
BRANCH  23  24
ATOM     24  C   UNL     1       2.882   5.152   3.469  1.00  0.00     0.202 C 
BRANCH  24  25
ATOM     25  C   UNL     1       4.236   4.482   3.781  1.00  0.00     0.261 C 
BRANCH  25  26
ATOM     26  O   UNL     1       4.295   3.079   3.450  1.00  0.00    -0.460 OA
BRANCH  26  27
ATOM     27  C   UNL     1       3.381   2.265   4.032  1.00  0.00     0.338 C 
ATOM     28  O   UNL     1       2.671   2.547   4.983  1.00  0.00    -0.246 OA
BRANCH  27  29
ATOM     29  C   UNL     1       3.196   1.069   3.162  1.00  0.00     0.060 A 
ATOM     30  C   UNL     1       1.903   0.548   3.009  1.00  0.00     0.016 A 
ATOM     31  C   UNL     1       4.256   0.515   2.436  1.00  0.00     0.016 A 
ATOM     32  C   UNL     1       1.680  -0.562   2.187  1.00  0.00     0.010 A 
ATOM     33  C   UNL     1       4.032  -0.597   1.615  1.00  0.00     0.010 A 
ATOM     34  C   UNL     1       2.752  -1.171   1.520  1.00  0.00    -0.014 A 
BRANCH  34  35
ATOM     35  C   UNL     1       2.595  -2.522   0.917  1.00  0.00     0.031 A 
ATOM     36  C   UNL     1       3.041  -3.712   1.727  1.00  0.00     0.074 A 
ATOM     37  C   UNL     1       2.091  -2.713  -0.317  1.00  0.00     0.049 A 
ATOM     38  N   UNL     1       3.057  -4.979   1.406  1.00  0.00    -0.248 NA
ATOM     39  C   UNL     1       3.543  -3.429   3.083  1.00  0.00     0.031 C 
ATOM     40  C   UNL     1       1.613  -1.665  -1.214  1.00  0.00     0.029 A 
ATOM     41  N   UNL     1       1.925  -3.875  -1.036  1.00  0.00    -0.354 N 
ATOM     42  C   UNL     1       3.596  -5.640   2.503  1.00  0.00     0.074 A 
ATOM     43  C   UNL     1       3.906  -4.633   3.494  1.00  0.00     0.031 C 
ATOM     44  C   UNL     1       1.235  -2.228  -2.377  1.00  0.00     0.029 A 
ATOM     45  C   UNL     1       1.465  -3.673  -2.316  1.00  0.00     0.049 A 
ATOM     46  H   UNL     1       2.118  -4.767  -0.668  1.00  0.00     0.167 HD
ATOM     47  C   UNL     1       3.800  -6.965   2.686  1.00  0.00     0.034 A 
ATOM     48  C   UNL     1       1.272  -4.547  -3.327  1.00  0.00     0.034 A 
ATOM     49  C   UNL     1       3.479  -7.979   1.721  1.00  0.00     0.049 A 
ATOM     50  C   UNL     1       1.541  -6.018  -3.113  1.00  0.00     0.074 A 
ATOM     51  C   UNL     1       3.612  -9.351   1.843  1.00  0.00     0.029 A 
ATOM     52  N   UNL     1       2.976  -7.737   0.454  1.00  0.00    -0.354 N 
ATOM     53  N   UNL     1       1.932  -6.639  -2.027  1.00  0.00    -0.248 NA
ATOM     54  C   UNL     1       1.312  -6.914  -4.259  1.00  0.00     0.031 C 
ATOM     55  C   UNL     1       3.214  -9.938   0.637  1.00  0.00     0.029 A 
ATOM     56  C   UNL     1       2.805  -8.932  -0.223  1.00  0.00     0.049 A 
ATOM     57  H   UNL     1       2.771  -6.846   0.088  1.00  0.00     0.167 HD
ATOM     58  C   UNL     1       1.955  -7.995  -2.346  1.00  0.00     0.074 A 
ATOM     59  C   UNL     1       1.525  -8.108  -3.723  1.00  0.00     0.031 C 
ATOM     60  C   UNL     1       2.313  -9.049  -1.571  1.00  0.00     0.034 A 
BRANCH  47  61
ATOM     61  C   UNL     1       4.385  -7.399   4.002  1.00  0.00     0.023 A 
ATOM     62  C   UNL     1       3.587  -7.364   5.164  1.00  0.00     0.012 A 
ATOM     63  C   UNL     1       5.705  -7.882   4.081  1.00  0.00     0.148 A 
ATOM     64  C   UNL     1       4.106  -7.773   6.391  1.00  0.00     0.002 A 
ATOM     65  C   UNL     1       6.200  -8.330   5.299  1.00  0.00     0.091 A 
ATOM     66  F   UNL     1       6.454  -7.881   2.969  1.00  0.00    -0.205 F 
ATOM     67  C   UNL     1       5.407  -8.266   6.456  1.00  0.00     0.022 A 
BRANCH  65  68
ATOM     68  S   UNL     1       7.835  -9.053   5.468  1.00  0.00     0.127 S 
ATOM     69  O   UNL     1       8.554  -7.992   6.172  1.00  0.00    -0.237 OA
ATOM     70  O   UNL     1       7.564 -10.244   6.273  1.00  0.00    -0.237 OA
ATOM     71  O   UNL     1       8.293  -9.328   4.113  1.00  0.00    -0.744 OA
ENDBRANCH  65  68
ENDBRANCH  47  61
BRANCH  48  72
ATOM     72  C   UNL     1       0.770  -4.066  -4.647  1.00  0.00     0.023 A 
ATOM     73  C   UNL     1      -0.524  -4.428  -5.073  1.00  0.00     0.012 A 
ATOM     74  C   UNL     1       1.569  -3.267  -5.487  1.00  0.00     0.148 A 
ATOM     75  C   UNL     1      -1.000  -4.029  -6.323  1.00  0.00     0.002 A 
ATOM     76  C   UNL     1       1.069  -2.828  -6.707  1.00  0.00     0.091 A 
ATOM     77  F   UNL     1       2.805  -2.953  -5.074  1.00  0.00    -0.205 F 
ATOM     78  C   UNL     1      -0.208  -3.222  -7.135  1.00  0.00     0.022 A 
BRANCH  76  79
ATOM     79  S   UNL     1       1.971  -1.695  -7.770  1.00  0.00     0.127 S 
ATOM     80  O   UNL     1       2.290  -2.547  -8.913  1.00  0.00    -0.237 OA
ATOM     81  O   UNL     1       0.964  -0.665  -8.031  1.00  0.00    -0.237 OA
ATOM     82  O   UNL     1       3.109  -1.240  -6.984  1.00  0.00    -0.744 OA
ENDBRANCH  76  79
ENDBRANCH  48  72
BRANCH  60  83
ATOM     83  C   UNL     1       2.215 -10.436  -2.157  1.00  0.00     0.023 A 
ATOM     84  C   UNL     1       3.150 -10.861  -3.122  1.00  0.00     0.012 A 
ATOM     85  C   UNL     1       1.256 -11.352  -1.678  1.00  0.00     0.148 A 
ATOM     86  C   UNL     1       3.115 -12.164  -3.619  1.00  0.00     0.002 A 
ATOM     87  C   UNL     1       1.256 -12.662  -2.142  1.00  0.00     0.091 A 
ATOM     88  F   UNL     1       0.364 -10.927  -0.770  1.00  0.00    -0.205 F 
ATOM     89  C   UNL     1       2.178 -13.067  -3.121  1.00  0.00     0.022 A 
BRANCH  87  90
ATOM     90  S   UNL     1       0.151 -13.919  -1.488  1.00  0.00     0.127 S 
ATOM     91  O   UNL     1      -0.782 -14.104  -2.599  1.00  0.00    -0.237 OA
ATOM     92  O   UNL     1       1.059 -15.045  -1.261  1.00  0.00    -0.237 OA
ATOM     93  O   UNL     1      -0.426 -13.355  -0.275  1.00  0.00    -0.744 OA
ENDBRANCH  87  90
ENDBRANCH  60  83
ENDBRANCH  34  35
ENDBRANCH  27  29
ENDBRANCH  26  27
ENDBRANCH  25  26
ENDBRANCH  24  25
ENDBRANCH  23  24
ENDBRANCH   1  23
TORSDOF 22
