REMARK SMILES Cc1nc(-c2ccccc2Cl)nc2sc(C(=O)OCCOCCOCCOC(=O)c3ccc(-c4c5nc(c(-c6cccc(S(=O)(=O)[O-])c6F)c6ccc([nH]6)c(-c6cccc(S(=O)(=O)[O-])c6F)c6nc(c(-c7cccc(S(=O)(=O)[O-])c7F)c7ccc4[nH]7)C=C6)C=C5)cc3)c(N)c12
REMARK SMILES IDX 23 1 22 2 21 3 20 4 19 5 18 6 16 7 17 8 15 9 1 10 2 11 3 12
REMARK SMILES IDX 95 13 4 14 13 15 93 16 12 17 14 18 5 19 6 20 10 21 7 22 9 23
REMARK SMILES IDX 11 24 8 25 94 26 24 29 25 30 26 31 27 32 28 33 29 34 30 35
REMARK SMILES IDX 31 36 92 37 32 38 91 39 33 40 34 41 35 42 85 43 36 44 90 45
REMARK SMILES IDX 84 46 86 47 37 48 89 49 83 50 82 51 38 53 70 54 50 55 69 56
REMARK SMILES IDX 51 57 54 58 68 59 87 60 52 61 53 62 67 64 88 65 55 66 39 67
REMARK SMILES IDX 40 68 48 69 41 70 43 71 49 72 42 73 44 74 45 75 46 76 47 77
REMARK SMILES IDX 71 78 72 79 80 80 73 81 75 82 81 83 74 84 76 85 77 86 78 87
REMARK SMILES IDX 79 88 56 89 57 90 65 91 58 92 60 93 66 94 59 95 61 96 62 97
REMARK SMILES IDX 63 98 64 99
REMARK H PARENT 94 27 94 28 86 52 54 63
REMARK Flexibility Score: inf
ROOT
ATOM      1  C   UNL     1       4.915   5.611   0.105  1.00  0.00     0.188 C 
ENDROOT
BRANCH   1   2
ATOM      2  C   UNL     1       5.693   4.998  -1.083  1.00  0.00     0.188 C 
BRANCH   2   3
ATOM      3  O   UNL     1       6.339   5.811  -2.056  1.00  0.00    -0.376 OA
BRANCH   3   4
ATOM      4  C   UNL     1       5.782   7.050  -2.462  1.00  0.00     0.202 C 
BRANCH   4   5
ATOM      5  C   UNL     1       4.346   7.116  -3.010  1.00  0.00     0.261 C 
BRANCH   5   6
ATOM      6  O   UNL     1       3.346   6.415  -2.261  1.00  0.00    -0.459 OA
BRANCH   6   7
ATOM      7  C   UNL     1       2.965   5.191  -2.725  1.00  0.00     0.350 C 
ATOM      8  O   UNL     1       3.388   4.678  -3.759  1.00  0.00    -0.245 OA
BRANCH   7   9
ATOM      9  C   UNL     1       2.098   4.529  -1.769  1.00  0.00     0.138 A 
ATOM     10  C   UNL     1       1.045   0.326  -0.089  1.00  0.00     0.067 C 
ATOM     11  C   UNL     1       0.540   1.714   0.168  1.00  0.00     0.052 A 
ATOM     12  N   UNL     1      -0.535   1.812   1.006  1.00  0.00    -0.233 NA
ATOM     13  C   UNL     1       1.030   2.888  -0.449  1.00  0.00     0.057 A 
ATOM     14  C   UNL     1      -1.062   3.020   1.270  1.00  0.00     0.162 A 
ATOM     15  C   UNL     1       0.372   4.055  -0.097  1.00  0.00     0.130 A 
ATOM     16  C   UNL     1       2.068   3.190  -1.407  1.00  0.00     0.069 A 
ATOM     17  N   UNL     1      -0.654   4.179   0.750  1.00  0.00    -0.217 NA
ATOM     18  S   UNL     1       0.943   5.436  -0.898  1.00  0.00    -0.106 S 
BRANCH  14  19
ATOM     19  C   UNL     1      -2.299   3.104   2.054  1.00  0.00     0.038 A 
ATOM     20  C   UNL     1      -3.383   3.831   1.508  1.00  0.00     0.013 A 
ATOM     21  C   UNL     1      -2.460   2.568   3.340  1.00  0.00     0.052 A 
ATOM     22  C   UNL     1      -4.566   4.036   2.216  1.00  0.00     0.001 A 
ATOM     23  C   UNL     1      -3.652   2.776   4.053  1.00  0.00     0.021 A 
ATOM     24  Cl  UNL     1      -1.207   1.693   4.150  1.00  0.00    -0.084 Cl
ATOM     25  C   UNL     1      -4.698   3.512   3.495  1.00  0.00     0.002 A 
ENDBRANCH  14  19
BRANCH  16  26
ATOM     26  N   UNL     1       2.943   2.284  -1.901  1.00  0.00    -0.397 N 
ATOM     27  H   UNL     1       3.626   2.564  -2.552  1.00  0.00     0.156 HD
ATOM     28  H   UNL     1       2.897   1.345  -1.609  1.00  0.00     0.156 HD
ENDBRANCH  16  26
ENDBRANCH   7   9
ENDBRANCH   6   7
ENDBRANCH   5   6
ENDBRANCH   4   5
ENDBRANCH   3   4
ENDBRANCH   2   3
ENDBRANCH   1   2
BRANCH   1  29
ATOM     29  O   UNL     1       4.774   7.016   0.051  1.00  0.00    -0.376 OA
BRANCH  29  30
ATOM     30  C   UNL     1       5.511   7.831   0.948  1.00  0.00     0.202 C 
BRANCH  30  31
ATOM     31  C   UNL     1       7.011   7.631   1.163  1.00  0.00     0.261 C 
BRANCH  31  32
ATOM     32  O   UNL     1       7.510   6.339   0.879  1.00  0.00    -0.460 OA
BRANCH  32  33
ATOM     33  C   UNL     1       7.411   5.472   1.905  1.00  0.00     0.338 C 
ATOM     34  O   UNL     1       6.684   5.566   2.879  1.00  0.00    -0.246 OA
BRANCH  33  35
ATOM     35  C   UNL     1       8.425   4.435   1.730  1.00  0.00     0.060 A 
ATOM     36  C   UNL     1       8.300   3.298   2.527  1.00  0.00     0.016 A 
ATOM     37  C   UNL     1       9.626   4.796   1.101  1.00  0.00     0.016 A 
ATOM     38  C   UNL     1       9.455   2.662   2.908  1.00  0.00     0.010 A 
ATOM     39  C   UNL     1      10.778   4.177   1.505  1.00  0.00     0.010 A 
ATOM     40  C   UNL     1      10.680   3.186   2.476  1.00  0.00    -0.014 A 
BRANCH  40  41
ATOM     41  C   UNL     1      11.887   2.579   2.981  1.00  0.00     0.031 A 
ATOM     42  C   UNL     1      12.123   1.267   2.353  1.00  0.00     0.074 A 
ATOM     43  C   UNL     1      12.697   3.197   3.860  1.00  0.00     0.049 A 
ATOM     44  N   UNL     1      11.948   0.108   2.893  1.00  0.00    -0.248 NA
ATOM     45  C   UNL     1      12.326   1.231   0.896  1.00  0.00     0.031 C 
ATOM     46  C   UNL     1      12.644   4.591   4.310  1.00  0.00     0.029 A 
ATOM     47  N   UNL     1      13.834   2.732   4.444  1.00  0.00    -0.354 N 
ATOM     48  C   UNL     1      12.313  -0.796   1.903  1.00  0.00     0.074 A 
ATOM     49  C   UNL     1      12.257  -0.079   0.660  1.00  0.00     0.031 C 
ATOM     50  C   UNL     1      13.827   4.919   4.880  1.00  0.00     0.029 A 
ATOM     51  C   UNL     1      14.660   3.731   4.953  1.00  0.00     0.049 A 
ATOM     52  H   UNL     1      14.053   1.774   4.502  1.00  0.00     0.167 HD
ATOM     53  C   UNL     1      12.971  -1.937   2.234  1.00  0.00     0.034 A 
ATOM     54  C   UNL     1      15.957   3.583   5.323  1.00  0.00     0.034 A 
ATOM     55  C   UNL     1      12.820  -2.233   3.638  1.00  0.00     0.049 A 
ATOM     56  C   UNL     1      16.178   2.137   5.555  1.00  0.00     0.074 A 
ATOM     57  C   UNL     1      11.754  -2.458   4.485  1.00  0.00     0.029 A 
ATOM     58  N   UNL     1      13.893  -1.925   4.438  1.00  0.00    -0.354 N 
ATOM     59  N   UNL     1      15.634   1.472   6.534  1.00  0.00    -0.248 NA
ATOM     60  C   UNL     1      16.672   1.335   4.448  1.00  0.00     0.031 C 
ATOM     61  C   UNL     1      12.134  -1.874   5.728  1.00  0.00     0.029 A 
ATOM     62  C   UNL     1      13.434  -1.379   5.603  1.00  0.00     0.049 A 
ATOM     63  H   UNL     1      14.839  -2.072   4.208  1.00  0.00     0.167 HD
ATOM     64  C   UNL     1      15.288   0.254   5.965  1.00  0.00     0.074 A 
ATOM     65  C   UNL     1      16.067   0.178   4.731  1.00  0.00     0.031 C 
ATOM     66  C   UNL     1      14.184  -0.425   6.394  1.00  0.00     0.034 A 
BRANCH  53  67
ATOM     67  C   UNL     1      14.104  -2.526   1.419  1.00  0.00     0.023 A 
ATOM     68  C   UNL     1      14.629  -3.758   1.863  1.00  0.00     0.012 A 
ATOM     69  C   UNL     1      14.854  -1.831   0.438  1.00  0.00     0.148 A 
ATOM     70  C   UNL     1      15.859  -4.240   1.404  1.00  0.00     0.002 A 
ATOM     71  C   UNL     1      16.029  -2.357  -0.082  1.00  0.00     0.091 A 
ATOM     72  F   UNL     1      14.527  -0.587   0.087  1.00  0.00    -0.205 F 
ATOM     73  C   UNL     1      16.556  -3.545   0.424  1.00  0.00     0.022 A 
BRANCH  71  74
ATOM     74  S   UNL     1      16.936  -1.523  -1.392  1.00  0.00     0.127 S 
ATOM     75  O   UNL     1      18.130  -1.075  -0.682  1.00  0.00    -0.237 OA
ATOM     76  O   UNL     1      17.150  -2.616  -2.341  1.00  0.00    -0.237 OA
ATOM     77  O   UNL     1      16.051  -0.473  -1.882  1.00  0.00    -0.744 OA
ENDBRANCH  71  74
ENDBRANCH  53  67
BRANCH  54  78
ATOM     78  C   UNL     1      17.105   4.521   5.237  1.00  0.00     0.023 A 
ATOM     79  C   UNL     1      18.279   4.239   5.968  1.00  0.00     0.012 A 
ATOM     80  C   UNL     1      17.178   5.490   4.213  1.00  0.00     0.148 A 
ATOM     81  C   UNL     1      19.495   4.861   5.657  1.00  0.00     0.002 A 
ATOM     82  C   UNL     1      18.390   6.105   3.906  1.00  0.00     0.091 A 
ATOM     83  F   UNL     1      16.085   5.739   3.481  1.00  0.00    -0.205 F 
ATOM     84  C   UNL     1      19.554   5.782   4.617  1.00  0.00     0.022 A 
BRANCH  82  85
ATOM     85  S   UNL     1      18.562   7.267   2.544  1.00  0.00     0.127 S 
ATOM     86  O   UNL     1      19.228   8.396   3.193  1.00  0.00    -0.237 OA
ATOM     87  O   UNL     1      19.400   6.516   1.612  1.00  0.00    -0.237 OA
ATOM     88  O   UNL     1      17.208   7.550   2.086  1.00  0.00    -0.744 OA
ENDBRANCH  82  85
ENDBRANCH  54  78
BRANCH  66  89
ATOM     89  C   UNL     1      13.544   0.004   7.692  1.00  0.00     0.023 A 
ATOM     90  C   UNL     1      12.943   1.269   7.869  1.00  0.00     0.012 A 
ATOM     91  C   UNL     1      13.382  -0.970   8.691  1.00  0.00     0.148 A 
ATOM     92  C   UNL     1      12.206   1.553   9.022  1.00  0.00     0.002 A 
ATOM     93  C   UNL     1      12.601  -0.704   9.806  1.00  0.00     0.091 A 
ATOM     94  F   UNL     1      13.967  -2.164   8.509  1.00  0.00    -0.205 F 
ATOM     95  C   UNL     1      12.018   0.561   9.982  1.00  0.00     0.022 A 
BRANCH  93  96
ATOM     96  S   UNL     1      12.202  -1.987  10.996  1.00  0.00     0.127 S 
ATOM     97  O   UNL     1      13.021  -1.605  12.143  1.00  0.00    -0.237 OA
ATOM     98  O   UNL     1      10.762  -1.804  11.183  1.00  0.00    -0.237 OA
ATOM     99  O   UNL     1      12.562  -3.249  10.361  1.00  0.00    -0.744 OA
ENDBRANCH  93  96
ENDBRANCH  66  89
ENDBRANCH  40  41
ENDBRANCH  33  35
ENDBRANCH  32  33
ENDBRANCH  31  32
ENDBRANCH  30  31
ENDBRANCH  29  30
ENDBRANCH   1  29
TORSDOF 22
