REMARK SMILES COc1ccc([C@@](C)(NC(=O)c2csc(C)n2)C(=O)OCCOCCOCCOC(=O)c2ccc(-c3c4nc(c(-c5cccc(S(=O)(=O)[O-])c5F)c5ccc([nH]5)c(-c5cccc(S(=O)(=O)[O-])c5F)c5nc(c(-c6cccc(S(=O)(=O)[O-])c6F)c6ccc3[nH]6)C=C5)C=C4)cc2)cc1
REMARK SMILES IDX 25 1 24 2 23 3 22 4 21 5 20 6 18 7 19 8 7 9 8 10 6 11 3 12
REMARK SMILES IDX 4 13 96 14 5 15 95 16 2 17 1 18 9 19 10 20 11 22 12 23 13 24
REMARK SMILES IDX 17 25 14 26 15 27 16 28 26 29 27 30 28 31 29 32 30 33 31 34
REMARK SMILES IDX 32 35 33 36 94 37 34 38 93 39 35 40 36 41 37 42 87 43 38 44
REMARK SMILES IDX 92 45 86 46 88 47 39 48 91 49 85 50 84 51 40 53 72 54 52 55
REMARK SMILES IDX 71 56 53 57 56 58 70 59 89 60 54 61 55 62 69 64 90 65 57 66
REMARK SMILES IDX 41 67 42 68 50 69 43 70 45 71 51 72 44 73 46 74 47 75 48 76
REMARK SMILES IDX 49 77 73 78 74 79 82 80 75 81 77 82 83 83 76 84 78 85 79 86
REMARK SMILES IDX 80 87 81 88 58 89 59 90 67 91 60 92 62 93 68 94 61 95 63 96
REMARK SMILES IDX 64 97 65 98 66 99
REMARK H PARENT 9 21 88 52 56 63
REMARK Flexibility Score: inf
ROOT
ATOM      1  C   UNL     1       2.932   0.825  -6.357  1.00  0.00     0.188 C 
ENDROOT
BRANCH   1   2
ATOM      2  C   UNL     1       4.010   0.095  -5.559  1.00  0.00     0.188 C 
BRANCH   2   3
ATOM      3  O   UNL     1       5.271  -0.086  -6.207  1.00  0.00    -0.376 OA
BRANCH   3   4
ATOM      4  C   UNL     1       6.113  -0.993  -5.465  1.00  0.00     0.202 C 
BRANCH   4   5
ATOM      5  C   UNL     1       5.890  -2.483  -5.790  1.00  0.00     0.261 C 
BRANCH   5   6
ATOM      6  O   UNL     1       4.551  -2.653  -6.249  1.00  0.00    -0.461 OA
BRANCH   6   7
ATOM      7  C   UNL     1       3.747  -3.630  -5.784  1.00  0.00     0.336 C 
ATOM      8  O   UNL     1       4.113  -4.553  -5.067  1.00  0.00    -0.249 OA
BRANCH   7   9
ATOM      9  C   UNL     1       2.259  -3.268  -6.119  1.00  0.00     0.161 C 
ATOM     10  C   UNL     1       1.556  -4.555  -6.584  1.00  0.00     0.053 C 
BRANCH   9  11
ATOM     11  C   UNL     1       1.552  -2.717  -4.816  1.00  0.00    -0.011 A 
ATOM     12  C   UNL     1       0.281  -1.748  -2.430  1.00  0.00     0.118 A 
ATOM     13  C   UNL     1      -0.466  -2.159  -3.535  1.00  0.00     0.047 A 
ATOM     14  C   UNL     1       1.664  -1.799  -2.516  1.00  0.00     0.047 A 
ATOM     15  C   UNL     1       0.152  -2.616  -4.715  1.00  0.00     0.010 A 
ATOM     16  C   UNL     1       2.282  -2.293  -3.680  1.00  0.00     0.010 A 
BRANCH  12  17
ATOM     17  O   UNL     1      -0.450  -1.365  -1.341  1.00  0.00    -0.497 OA
ATOM     18  C   UNL     1       0.238  -0.710  -0.276  1.00  0.00     0.278 C 
ENDBRANCH  12  17
ENDBRANCH   9  11
BRANCH   9  19
ATOM     19  N   UNL     1       2.108  -2.235  -7.197  1.00  0.00    -0.331 N 
ATOM     20  C   UNL     1       2.496  -2.322  -8.528  1.00  0.00     0.271 C 
ATOM     21  H   UNL     1       1.681  -1.390  -6.927  1.00  0.00     0.165 HD
ATOM     22  O   UNL     1       1.601  -2.264  -9.375  1.00  0.00    -0.267 OA
BRANCH  20  23
ATOM     23  C   UNL     1       3.911  -2.176  -8.925  1.00  0.00     0.139 A 
ATOM     24  C   UNL     1       4.380  -0.999  -9.486  1.00  0.00     0.101 A 
ATOM     25  N   UNL     1       4.864  -3.208  -8.940  1.00  0.00    -0.236 NA
ATOM     26  S   UNL     1       6.043  -1.085  -9.835  1.00  0.00    -0.127 S 
ATOM     27  C   UNL     1       6.021  -2.743  -9.386  1.00  0.00     0.090 A 
ATOM     28  C   UNL     1       7.289  -3.516  -9.512  1.00  0.00     0.079 C 
ENDBRANCH  20  23
ENDBRANCH   9  19
ENDBRANCH   7   9
ENDBRANCH   6   7
ENDBRANCH   5   6
ENDBRANCH   4   5
ENDBRANCH   3   4
ENDBRANCH   2   3
ENDBRANCH   1   2
BRANCH   1  29
ATOM     29  O   UNL     1       3.216   0.999  -7.731  1.00  0.00    -0.376 OA
BRANCH  29  30
ATOM     30  C   UNL     1       2.970   2.321  -8.221  1.00  0.00     0.202 C 
BRANCH  30  31
ATOM     31  C   UNL     1       4.080   3.304  -7.808  1.00  0.00     0.261 C 
BRANCH  31  32
ATOM     32  O   UNL     1       4.068   3.627  -6.405  1.00  0.00    -0.460 OA
BRANCH  32  33
ATOM     33  C   UNL     1       2.948   4.243  -5.954  1.00  0.00     0.338 C 
ATOM     34  O   UNL     1       2.056   4.731  -6.628  1.00  0.00    -0.246 OA
BRANCH  33  35
ATOM     35  C   UNL     1       2.834   3.929  -4.517  1.00  0.00     0.060 A 
ATOM     36  C   UNL     1       1.725   3.177  -4.097  1.00  0.00     0.016 A 
ATOM     37  C   UNL     1       3.827   4.307  -3.613  1.00  0.00     0.016 A 
ATOM     38  C   UNL     1       1.594   2.821  -2.761  1.00  0.00     0.010 A 
ATOM     39  C   UNL     1       3.665   4.003  -2.261  1.00  0.00     0.010 A 
ATOM     40  C   UNL     1       2.527   3.299  -1.831  1.00  0.00    -0.014 A 
BRANCH  40  41
ATOM     41  C   UNL     1       2.115   3.361  -0.414  1.00  0.00     0.031 A 
ATOM     42  C   UNL     1       1.247   4.525  -0.016  1.00  0.00     0.074 A 
ATOM     43  C   UNL     1       2.459   2.410   0.470  1.00  0.00     0.049 A 
ATOM     44  N   UNL     1       0.701   4.798   1.136  1.00  0.00    -0.248 NA
ATOM     45  C   UNL     1       0.960   5.519  -1.069  1.00  0.00     0.031 C 
ATOM     46  C   UNL     1       3.286   1.242   0.179  1.00  0.00     0.029 A 
ATOM     47  N   UNL     1       2.131   2.272   1.794  1.00  0.00    -0.354 N 
ATOM     48  C   UNL     1       0.045   6.011   0.958  1.00  0.00     0.074 A 
ATOM     49  C   UNL     1       0.234   6.410  -0.416  1.00  0.00     0.031 C 
ATOM     50  C   UNL     1       3.375   0.486   1.289  1.00  0.00     0.029 A 
ATOM     51  C   UNL     1       2.630   1.129   2.371  1.00  0.00     0.049 A 
ATOM     52  H   UNL     1       1.589   2.931   2.286  1.00  0.00     0.167 HD
ATOM     53  C   UNL     1      -0.641   6.741   1.865  1.00  0.00     0.034 A 
ATOM     54  C   UNL     1       2.481   0.662   3.628  1.00  0.00     0.034 A 
ATOM     55  C   UNL     1      -0.808   6.348   3.233  1.00  0.00     0.049 A 
ATOM     56  C   UNL     1       1.673   1.478   4.610  1.00  0.00     0.074 A 
ATOM     57  C   UNL     1      -1.442   7.028   4.255  1.00  0.00     0.029 A 
ATOM     58  N   UNL     1      -0.326   5.165   3.772  1.00  0.00    -0.354 N 
ATOM     59  N   UNL     1       1.002   2.588   4.411  1.00  0.00    -0.248 NA
ATOM     60  C   UNL     1       1.592   0.968   5.987  1.00  0.00     0.031 C 
ATOM     61  C   UNL     1      -1.329   6.260   5.419  1.00  0.00     0.029 A 
ATOM     62  C   UNL     1      -0.648   5.091   5.113  1.00  0.00     0.049 A 
ATOM     63  H   UNL     1       0.173   4.478   3.272  1.00  0.00     0.167 HD
ATOM     64  C   UNL     1       0.415   2.905   5.633  1.00  0.00     0.074 A 
ATOM     65  C   UNL     1       0.768   1.841   6.551  1.00  0.00     0.031 C 
ATOM     66  C   UNL     1      -0.317   3.993   5.983  1.00  0.00     0.034 A 
BRANCH  53  67
ATOM     67  C   UNL     1      -1.226   8.045   1.399  1.00  0.00     0.023 A 
ATOM     68  C   UNL     1      -2.368   8.047   0.573  1.00  0.00     0.012 A 
ATOM     69  C   UNL     1      -0.641   9.268   1.778  1.00  0.00     0.148 A 
ATOM     70  C   UNL     1      -2.903   9.249   0.109  1.00  0.00     0.002 A 
ATOM     71  C   UNL     1      -1.204  10.462   1.346  1.00  0.00     0.091 A 
ATOM     72  F   UNL     1       0.469   9.240   2.530  1.00  0.00    -0.205 F 
ATOM     73  C   UNL     1      -2.328  10.455   0.503  1.00  0.00     0.022 A 
BRANCH  71  74
ATOM     74  S   UNL     1      -0.574  12.066   1.851  1.00  0.00     0.127 S 
ATOM     75  O   UNL     1       0.008  12.560   0.604  1.00  0.00    -0.237 OA
ATOM     76  O   UNL     1      -1.794  12.756   2.272  1.00  0.00    -0.237 OA
ATOM     77  O   UNL     1       0.376  11.804   2.923  1.00  0.00    -0.744 OA
ENDBRANCH  71  74
ENDBRANCH  53  67
BRANCH  54  78
ATOM     78  C   UNL     1       3.037  -0.667   4.016  1.00  0.00     0.023 A 
ATOM     79  C   UNL     1       2.151  -1.710   4.355  1.00  0.00     0.012 A 
ATOM     80  C   UNL     1       4.421  -0.920   4.039  1.00  0.00     0.148 A 
ATOM     81  C   UNL     1       2.631  -2.964   4.736  1.00  0.00     0.002 A 
ATOM     82  C   UNL     1       4.892  -2.191   4.355  1.00  0.00     0.091 A 
ATOM     83  F   UNL     1       5.259   0.086   3.750  1.00  0.00    -0.205 F 
ATOM     84  C   UNL     1       4.001  -3.210   4.722  1.00  0.00     0.022 A 
BRANCH  82  85
ATOM     85  S   UNL     1       6.630  -2.616   4.194  1.00  0.00     0.127 S 
ATOM     86  O   UNL     1       7.102  -2.487   5.569  1.00  0.00    -0.237 OA
ATOM     87  O   UNL     1       6.571  -3.987   3.687  1.00  0.00    -0.237 OA
ATOM     88  O   UNL     1       7.163  -1.655   3.236  1.00  0.00    -0.744 OA
ENDBRANCH  82  85
ENDBRANCH  54  78
BRANCH  66  89
ATOM     89  C   UNL     1      -0.781   4.090   7.412  1.00  0.00     0.023 A 
ATOM     90  C   UNL     1       0.152   4.389   8.424  1.00  0.00     0.012 A 
ATOM     91  C   UNL     1      -2.147   3.980   7.738  1.00  0.00     0.148 A 
ATOM     92  C   UNL     1      -0.261   4.543   9.746  1.00  0.00     0.002 A 
ATOM     93  C   UNL     1      -2.558   4.182   9.050  1.00  0.00     0.091 A 
ATOM     94  F   UNL     1      -3.016   3.681   6.762  1.00  0.00    -0.205 F 
ATOM     95  C   UNL     1      -1.616   4.452  10.056  1.00  0.00     0.022 A 
BRANCH  93  96
ATOM     96  S   UNL     1      -4.291   4.181   9.522  1.00  0.00     0.127 S 
ATOM     97  O   UNL     1      -4.416   2.888  10.190  1.00  0.00    -0.237 OA
ATOM     98  O   UNL     1      -4.373   5.340  10.412  1.00  0.00    -0.237 OA
ATOM     99  O   UNL     1      -5.041   4.322   8.281  1.00  0.00    -0.744 OA
ENDBRANCH  93  96
ENDBRANCH  66  89
ENDBRANCH  40  41
ENDBRANCH  33  35
ENDBRANCH  32  33
ENDBRANCH  31  32
ENDBRANCH  30  31
ENDBRANCH  29  30
ENDBRANCH   1  29
TORSDOF 24
