REMARK SMILES O=C(CNC(=O)N1CC(OCCOCCOCCOC(=O)c2ccc(-c3c4nc(c(-c5cccc(S(=O)(=O)[O-])c5F)c5ccc([nH]5)c(-c5cccc(S(=O)(=O)[O-])c5F)c5nc(c(-c6cccc(S(=O)(=O)[O-])c6F)c6ccc3[nH]6)C=C5)C=C4)cc2)=Nc2ccccc21)N[C@H](C(=O)[O-])c1ccccc1
REMARK SMILES IDX 14 1 13 2 12 3 11 4 10 5 9 6 7 7 8 8 91 9 86 10 90 11 85 12
REMARK SMILES IDX 87 13 89 14 88 15 5 16 4 17 6 19 3 20 2 21 1 22 92 23 93 25
REMARK SMILES IDX 97 26 98 27 102 28 99 29 101 30 100 31 94 32 95 33 96 34
REMARK SMILES IDX 15 35 16 36 17 37 18 38 19 39 20 40 21 41 22 42 23 43 84 44
REMARK SMILES IDX 24 45 83 46 25 47 26 48 27 49 77 50 28 51 82 52 76 53 78 54
REMARK SMILES IDX 29 55 81 56 75 57 74 58 30 60 62 61 42 62 61 63 43 64 46 65
REMARK SMILES IDX 60 66 79 67 44 68 45 69 59 71 80 72 47 73 31 74 32 75 40 76
REMARK SMILES IDX 33 77 35 78 41 79 34 80 36 81 37 82 38 83 39 84 63 85 64 86
REMARK SMILES IDX 72 87 65 88 67 89 73 90 66 91 68 92 69 93 70 94 71 95 48 96
REMARK SMILES IDX 49 97 57 98 50 99 52 100 58 101 51 102 53 103 54 104 55 105
REMARK SMILES IDX 56 106
REMARK H PARENT 4 18 92 24 78 59 46 70
REMARK Flexibility Score: inf
ROOT
ATOM      1  C   UNL     1      -0.365  -3.771  -4.674  1.00  0.00     0.188 C 
ENDROOT
BRANCH   1   2
ATOM      2  O   UNL     1      -1.492  -4.638  -4.730  1.00  0.00    -0.376 OA
BRANCH   2   3
ATOM      3  C   UNL     1      -1.291  -6.042  -4.638  1.00  0.00     0.201 C 
BRANCH   3   4
ATOM      4  C   UNL     1      -0.761  -6.720  -5.904  1.00  0.00     0.259 C 
BRANCH   4   5
ATOM      5  O   UNL     1       0.683  -6.808  -5.901  1.00  0.00    -0.477 OA
BRANCH   5   6
ATOM      6  C   UNL     1       1.372  -5.892  -6.622  1.00  0.00     0.209 C 
ATOM      7  N   UNL     1       3.453  -4.594  -6.439  1.00  0.00    -0.283 N 
ATOM      8  C   UNL     1       2.859  -5.933  -6.384  1.00  0.00     0.224 C 
ATOM      9  C   UNL     1       2.876  -3.720  -7.430  1.00  0.00     0.072 A 
ATOM     10  C   UNL     1       1.579  -4.021  -7.926  1.00  0.00     0.091 A 
ATOM     11  C   UNL     1       3.542  -2.610  -7.961  1.00  0.00     0.029 A 
ATOM     12  N   UNL     1       0.788  -5.059  -7.411  1.00  0.00    -0.214 NA
ATOM     13  C   UNL     1       0.970  -3.200  -8.879  1.00  0.00     0.030 A 
ATOM     14  C   UNL     1       2.917  -1.794  -8.915  1.00  0.00     0.002 A 
ATOM     15  C   UNL     1       1.634  -2.086  -9.370  1.00  0.00     0.002 A 
BRANCH   7  16
ATOM     16  C   UNL     1       4.666  -4.466  -5.804  1.00  0.00     0.322 C 
ATOM     17  N   UNL     1       5.016  -3.321  -5.169  1.00  0.00    -0.329 N 
ATOM     18  H   UNL     1       5.956  -3.280  -4.880  1.00  0.00     0.165 HD
ATOM     19  O   UNL     1       5.429  -5.425  -5.659  1.00  0.00    -0.248 OA
BRANCH  17  20
ATOM     20  C   UNL     1       4.230  -2.147  -4.848  1.00  0.00     0.218 C 
BRANCH  20  21
ATOM     21  C   UNL     1       4.136  -1.729  -3.370  1.00  0.00     0.240 C 
ATOM     22  O   UNL     1       3.786  -0.589  -3.063  1.00  0.00    -0.273 OA
ATOM     23  N   UNL     1       4.235  -2.717  -2.418  1.00  0.00    -0.342 N 
ATOM     24  H   UNL     1       4.671  -3.574  -2.627  1.00  0.00     0.164 HD
BRANCH  23  25
ATOM     25  C   UNL     1       3.674  -2.466  -1.075  1.00  0.00     0.158 C 
BRANCH  25  26
ATOM     26  C   UNL     1       3.455  -3.747  -0.254  1.00  0.00    -0.020 A 
ATOM     27  C   UNL     1       3.291  -5.002  -0.869  1.00  0.00     0.006 A 
ATOM     28  C   UNL     1       3.280  -3.699   1.144  1.00  0.00     0.006 A 
ATOM     29  C   UNL     1       3.033  -6.156  -0.118  1.00  0.00     0.000 A 
ATOM     30  C   UNL     1       3.021  -4.851   1.895  1.00  0.00     0.000 A 
ATOM     31  C   UNL     1       2.907  -6.082   1.264  1.00  0.00     0.000 A 
ENDBRANCH  25  26
BRANCH  25  32
ATOM     32  C   UNL     1       4.449  -1.366  -0.300  1.00  0.00     0.068 C 
ATOM     33  O   UNL     1       4.063  -0.778   0.704  1.00  0.00    -0.548 OA
ATOM     34  O   UNL     1       5.694  -1.109  -0.758  1.00  0.00    -0.548 OA
ENDBRANCH  25  32
ENDBRANCH  23  25
ENDBRANCH  20  21
ENDBRANCH  17  20
ENDBRANCH   7  16
ENDBRANCH   5   6
ENDBRANCH   4   5
ENDBRANCH   3   4
ENDBRANCH   2   3
ENDBRANCH   1   2
BRANCH   1  35
ATOM     35  C   UNL     1       0.764  -4.114  -3.688  1.00  0.00     0.188 C 
BRANCH  35  36
ATOM     36  O   UNL     1       0.387  -4.514  -2.374  1.00  0.00    -0.376 OA
BRANCH  36  37
ATOM     37  C   UNL     1      -0.662  -3.774  -1.756  1.00  0.00     0.202 C 
BRANCH  37  38
ATOM     38  C   UNL     1      -0.314  -2.328  -1.401  1.00  0.00     0.261 C 
BRANCH  38  39
ATOM     39  O   UNL     1       0.013  -1.558  -2.570  1.00  0.00    -0.460 OA
BRANCH  39  40
ATOM     40  C   UNL     1       0.311  -0.262  -2.322  1.00  0.00     0.338 C 
ATOM     41  O   UNL     1       0.263   0.269  -1.215  1.00  0.00    -0.246 OA
BRANCH  40  42
ATOM     42  C   UNL     1       0.727   0.456  -3.556  1.00  0.00     0.060 A 
ATOM     43  C   UNL     1       1.277  -0.206  -4.655  1.00  0.00     0.016 A 
ATOM     44  C   UNL     1       0.671   1.852  -3.570  1.00  0.00     0.016 A 
ATOM     45  C   UNL     1       1.898   0.519  -5.680  1.00  0.00     0.010 A 
ATOM     46  C   UNL     1       1.206   2.574  -4.644  1.00  0.00     0.010 A 
ATOM     47  C   UNL     1       1.883   1.922  -5.686  1.00  0.00    -0.014 A 
BRANCH  47  48
ATOM     48  C   UNL     1       2.605   2.701  -6.739  1.00  0.00     0.031 A 
ATOM     49  C   UNL     1       3.651   3.724  -6.359  1.00  0.00     0.074 A 
ATOM     50  C   UNL     1       2.328   2.515  -8.046  1.00  0.00     0.049 A 
ATOM     51  N   UNL     1       4.242   4.618  -7.111  1.00  0.00    -0.248 NA
ATOM     52  C   UNL     1       4.067   3.765  -4.948  1.00  0.00     0.031 C 
ATOM     53  C   UNL     1       1.339   1.575  -8.568  1.00  0.00     0.029 A 
ATOM     54  N   UNL     1       2.852   3.101  -9.175  1.00  0.00    -0.354 N 
ATOM     55  C   UNL     1       4.996   5.407  -6.248  1.00  0.00     0.074 A 
ATOM     56  C   UNL     1       4.836   4.846  -4.923  1.00  0.00     0.031 C 
ATOM     57  C   UNL     1       1.374   1.597  -9.908  1.00  0.00     0.029 A 
ATOM     58  C   UNL     1       2.326   2.610 -10.349  1.00  0.00     0.049 A 
ATOM     59  H   UNL     1       3.539   3.806  -9.146  1.00  0.00     0.167 HD
ATOM     60  C   UNL     1       5.733   6.509  -6.531  1.00  0.00     0.034 A 
ATOM     61  C   UNL     1       2.559   2.947 -11.634  1.00  0.00     0.034 A 
ATOM     62  C   UNL     1       5.960   7.016  -7.861  1.00  0.00     0.049 A 
ATOM     63  C   UNL     1       3.483   4.096 -11.931  1.00  0.00     0.074 A 
ATOM     64  C   UNL     1       6.694   8.125  -8.247  1.00  0.00     0.029 A 
ATOM     65  N   UNL     1       5.475   6.438  -9.024  1.00  0.00    -0.354 N 
ATOM     66  N   UNL     1       4.180   4.831 -11.099  1.00  0.00    -0.248 NA
ATOM     67  C   UNL     1       3.638   4.474 -13.344  1.00  0.00     0.031 C 
ATOM     68  C   UNL     1       6.646   8.221  -9.644  1.00  0.00     0.029 A 
ATOM     69  C   UNL     1       5.899   7.160 -10.128  1.00  0.00     0.049 A 
ATOM     70  H   UNL     1       4.911   5.632  -9.060  1.00  0.00     0.167 HD
ATOM     71  C   UNL     1       4.833   5.775 -11.883  1.00  0.00     0.074 A 
ATOM     72  C   UNL     1       4.509   5.470 -13.262  1.00  0.00     0.031 C 
ATOM     73  C   UNL     1       5.590   6.831 -11.495  1.00  0.00     0.034 A 
BRANCH  60  74
ATOM     74  C   UNL     1       6.336   7.266  -5.375  1.00  0.00     0.023 A 
ATOM     75  C   UNL     1       7.468   6.765  -4.705  1.00  0.00     0.012 A 
ATOM     76  C   UNL     1       5.800   8.513  -4.988  1.00  0.00     0.148 A 
ATOM     77  C   UNL     1       8.040   7.477  -3.650  1.00  0.00     0.002 A 
ATOM     78  C   UNL     1       6.400   9.236  -3.963  1.00  0.00     0.091 A 
ATOM     79  F   UNL     1       4.708   8.964  -5.622  1.00  0.00    -0.205 F 
ATOM     80  C   UNL     1       7.514   8.715  -3.286  1.00  0.00     0.022 A 
BRANCH  78  81
ATOM     81  S   UNL     1       5.839  10.874  -3.481  1.00  0.00     0.127 S 
ATOM     82  O   UNL     1       5.171  10.595  -2.211  1.00  0.00    -0.237 OA
ATOM     83  O   UNL     1       7.098  11.610  -3.359  1.00  0.00    -0.237 OA
ATOM     84  O   UNL     1       4.974  11.333  -4.559  1.00  0.00    -0.744 OA
ENDBRANCH  78  81
ENDBRANCH  60  74
BRANCH  61  85
ATOM     85  C   UNL     1       1.933   2.160 -12.738  1.00  0.00     0.023 A 
ATOM     86  C   UNL     1       2.755   1.393 -13.588  1.00  0.00     0.012 A 
ATOM     87  C   UNL     1       0.538   2.102 -12.911  1.00  0.00     0.148 A 
ATOM     88  C   UNL     1       2.200   0.592 -14.588  1.00  0.00     0.002 A 
ATOM     89  C   UNL     1      -0.011   1.233 -13.848  1.00  0.00     0.091 A 
ATOM     90  F   UNL     1      -0.238   2.872 -12.133  1.00  0.00    -0.205 F 
ATOM     91  C   UNL     1       0.816   0.493 -14.702  1.00  0.00     0.022 A 
BRANCH  89  92
ATOM     92  S   UNL     1      -1.776   0.895 -13.871  1.00  0.00     0.127 S 
ATOM     93  O   UNL     1      -2.248   1.810 -14.905  1.00  0.00    -0.237 OA
ATOM     94  O   UNL     1      -1.819  -0.523 -14.233  1.00  0.00    -0.237 OA
ATOM     95  O   UNL     1      -2.221   1.168 -12.510  1.00  0.00    -0.744 OA
ENDBRANCH  89  92
ENDBRANCH  61  85
BRANCH  73  96
ATOM     96  C   UNL     1       6.091   7.748 -12.580  1.00  0.00     0.023 A 
ATOM     97  C   UNL     1       5.183   8.612 -13.226  1.00  0.00     0.012 A 
ATOM     98  C   UNL     1       7.450   7.779 -12.943  1.00  0.00     0.148 A 
ATOM     99  C   UNL     1       5.612   9.462 -14.245  1.00  0.00     0.002 A 
ATOM    100  C   UNL     1       7.878   8.659 -13.932  1.00  0.00     0.091 A 
ATOM    101  F   UNL     1       8.297   6.935 -12.336  1.00  0.00    -0.205 F 
ATOM    102  C   UNL     1       6.960   9.492 -14.591  1.00  0.00     0.022 A 
BRANCH 100 103
ATOM    103  S   UNL     1       9.610   8.812 -14.382  1.00  0.00     0.127 S 
ATOM    104  O   UNL     1       9.678   7.995 -15.592  1.00  0.00    -0.237 OA
ATOM    105  O   UNL     1       9.754  10.251 -14.609  1.00  0.00    -0.237 OA
ATOM    106  O   UNL     1      10.358   8.310 -13.237  1.00  0.00    -0.744 OA
ENDBRANCH 100 103
ENDBRANCH  73  96
ENDBRANCH  47  48
ENDBRANCH  40  42
ENDBRANCH  39  40
ENDBRANCH  38  39
ENDBRANCH  37  38
ENDBRANCH  36  37
ENDBRANCH  35  36
ENDBRANCH   1  35
TORSDOF 25
