REMARK SMILES O=C(OCCOCCOCCOC(=O)c1ccc(N2C(=O)[C@@H]3N=NC(c4ccccc4)=C3[C@H]2c2cccc(Br)c2)cc1)c1ccc(-c2c3nc(c(-c4cccc(S(=O)(=O)[O-])c4F)c4ccc([nH]4)c(-c4cccc(S(=O)(=O)[O-])c4F)c4nc(c(-c5cccc(S(=O)(=O)[O-])c5F)c5ccc2[nH]5)C=C4)C=C3)cc1
REMARK SMILES IDX 7 1 6 2 5 3 4 4 3 5 2 6 1 7 43 8 44 9 105 10 45 11 104 12
REMARK SMILES IDX 46 13 47 14 48 15 98 16 49 17 103 18 97 19 99 20 50 21
REMARK SMILES IDX 102 22 96 23 95 24 51 26 83 27 63 28 82 29 64 30 67 31 81 32
REMARK SMILES IDX 100 33 65 34 66 35 80 37 101 38 68 39 52 40 53 41 61 42
REMARK SMILES IDX 54 43 56 44 62 45 55 46 57 47 58 48 59 49 60 50 84 51 85 52
REMARK SMILES IDX 93 53 86 54 88 55 94 56 87 57 89 58 90 59 91 60 92 61 69 62
REMARK SMILES IDX 70 63 78 64 71 65 73 66 79 67 72 68 74 69 75 70 76 71 77 72
REMARK SMILES IDX 8 73 9 74 10 75 11 76 12 77 13 78 14 79 15 80 16 81 42 82
REMARK SMILES IDX 17 83 41 84 18 85 19 86 20 87 33 88 22 89 21 90 32 91 23 92
REMARK SMILES IDX 25 93 24 94 34 95 35 96 40 97 36 98 38 99 37 100 39 101
REMARK SMILES IDX 26 102 27 103 31 104 28 105 30 106 29 107
REMARK H PARENT 99 25 67 36
REMARK Flexibility Score: inf
ROOT
ATOM      1  C   UNL     1       3.377   1.462  -0.878  1.00  0.00     0.188 C 
ENDROOT
BRANCH   1   2
ATOM      2  O   UNL     1       4.686   0.963  -1.114  1.00  0.00    -0.376 OA
BRANCH   2   3
ATOM      3  C   UNL     1       5.156  -0.003  -0.191  1.00  0.00     0.202 C 
BRANCH   3   4
ATOM      4  C   UNL     1       4.597  -1.411  -0.406  1.00  0.00     0.261 C 
BRANCH   4   5
ATOM      5  O   UNL     1       3.193  -1.494  -0.708  1.00  0.00    -0.460 OA
BRANCH   5   6
ATOM      6  C   UNL     1       2.096  -1.528   0.070  1.00  0.00     0.338 C 
ATOM      7  O   UNL     1       1.034  -1.907  -0.422  1.00  0.00    -0.246 OA
BRANCH   6   8
ATOM      8  C   UNL     1       2.062  -0.992   1.453  1.00  0.00     0.060 A 
ATOM      9  C   UNL     1       3.129  -1.031   2.349  1.00  0.00     0.016 A 
ATOM     10  C   UNL     1       0.812  -0.507   1.890  1.00  0.00     0.016 A 
ATOM     11  C   UNL     1       2.928  -0.697   3.680  1.00  0.00     0.010 A 
ATOM     12  C   UNL     1       0.604  -0.180   3.221  1.00  0.00     0.010 A 
ATOM     13  C   UNL     1       1.650  -0.352   4.120  1.00  0.00    -0.014 A 
BRANCH  13  14
ATOM     14  C   UNL     1       1.443  -0.290   5.559  1.00  0.00     0.031 A 
ATOM     15  C   UNL     1       2.083   0.841   6.273  1.00  0.00     0.074 A 
ATOM     16  C   UNL     1       0.689  -1.212   6.191  1.00  0.00     0.049 A 
ATOM     17  N   UNL     1       3.002   0.791   7.183  1.00  0.00    -0.248 NA
ATOM     18  C   UNL     1       1.726   2.200   5.849  1.00  0.00     0.031 C 
ATOM     19  C   UNL     1      -0.198  -2.204   5.572  1.00  0.00     0.029 A 
ATOM     20  N   UNL     1       0.443  -1.360   7.524  1.00  0.00    -0.354 N 
ATOM     21  C   UNL     1       3.171   2.108   7.614  1.00  0.00     0.074 A 
ATOM     22  C   UNL     1       2.500   2.935   6.647  1.00  0.00     0.031 C 
ATOM     23  C   UNL     1      -1.070  -2.651   6.500  1.00  0.00     0.029 A 
ATOM     24  C   UNL     1      -0.714  -2.084   7.787  1.00  0.00     0.049 A 
ATOM     25  H   UNL     1       1.025  -0.992   8.227  1.00  0.00     0.167 HD
ATOM     26  C   UNL     1       3.633   2.394   8.863  1.00  0.00     0.034 A 
ATOM     27  C   UNL     1      -1.391  -2.128   8.958  1.00  0.00     0.034 A 
ATOM     28  C   UNL     1       4.315   1.267   9.451  1.00  0.00     0.049 A 
ATOM     29  C   UNL     1      -0.465  -1.710  10.033  1.00  0.00     0.074 A 
ATOM     30  C   UNL     1       5.401   0.484   9.116  1.00  0.00     0.029 A 
ATOM     31  N   UNL     1       3.668   0.600  10.460  1.00  0.00    -0.354 N 
ATOM     32  N   UNL     1       0.561  -2.413  10.426  1.00  0.00    -0.248 NA
ATOM     33  C   UNL     1      -0.461  -0.315  10.439  1.00  0.00     0.031 C 
ATOM     34  C   UNL     1       5.099  -0.812   9.628  1.00  0.00     0.029 A 
ATOM     35  C   UNL     1       3.860  -0.738  10.266  1.00  0.00     0.049 A 
ATOM     36  H   UNL     1       3.157   1.012  11.194  1.00  0.00     0.167 HD
ATOM     37  C   UNL     1       1.531  -1.468  10.733  1.00  0.00     0.074 A 
ATOM     38  C   UNL     1       0.803  -0.208  10.856  1.00  0.00     0.031 C 
ATOM     39  C   UNL     1       2.860  -1.740  10.566  1.00  0.00     0.034 A 
BRANCH  26  40
ATOM     40  C   UNL     1       3.131   3.538   9.732  1.00  0.00     0.023 A 
ATOM     41  C   UNL     1       3.743   3.693  11.000  1.00  0.00     0.012 A 
ATOM     42  C   UNL     1       1.921   4.239   9.525  1.00  0.00     0.148 A 
ATOM     43  C   UNL     1       3.124   4.399  12.038  1.00  0.00     0.002 A 
ATOM     44  C   UNL     1       1.345   4.999  10.539  1.00  0.00     0.091 A 
ATOM     45  F   UNL     1       1.235   4.088   8.391  1.00  0.00    -0.205 F 
ATOM     46  C   UNL     1       1.920   5.048  11.809  1.00  0.00     0.022 A 
BRANCH  44  47
ATOM     47  S   UNL     1      -0.192   5.895  10.279  1.00  0.00     0.127 S 
ATOM     48  O   UNL     1      -1.154   5.014  10.934  1.00  0.00    -0.237 OA
ATOM     49  O   UNL     1       0.072   7.154  10.977  1.00  0.00    -0.237 OA
ATOM     50  O   UNL     1      -0.319   6.034   8.834  1.00  0.00    -0.744 OA
ENDBRANCH  44  47
ENDBRANCH  26  40
BRANCH  27  51
ATOM     51  C   UNL     1      -2.848  -2.273   9.172  1.00  0.00     0.023 A 
ATOM     52  C   UNL     1      -3.330  -2.716  10.418  1.00  0.00     0.012 A 
ATOM     53  C   UNL     1      -3.779  -1.749   8.245  1.00  0.00     0.148 A 
ATOM     54  C   UNL     1      -4.690  -2.623  10.738  1.00  0.00     0.002 A 
ATOM     55  C   UNL     1      -5.132  -1.679   8.558  1.00  0.00     0.091 A 
ATOM     56  F   UNL     1      -3.329  -1.234   7.093  1.00  0.00    -0.205 F 
ATOM     57  C   UNL     1      -5.590  -2.104   9.810  1.00  0.00     0.022 A 
BRANCH  55  58
ATOM     58  S   UNL     1      -6.346  -1.029   7.401  1.00  0.00     0.127 S 
ATOM     59  O   UNL     1      -7.430  -2.006   7.515  1.00  0.00    -0.237 OA
ATOM     60  O   UNL     1      -6.641   0.281   7.974  1.00  0.00    -0.237 OA
ATOM     61  O   UNL     1      -5.687  -1.023   6.101  1.00  0.00    -0.744 OA
ENDBRANCH  55  58
ENDBRANCH  27  51
BRANCH  39  62
ATOM     62  C   UNL     1       3.279  -3.173  10.358  1.00  0.00     0.023 A 
ATOM     63  C   UNL     1       2.851  -3.918   9.241  1.00  0.00     0.012 A 
ATOM     64  C   UNL     1       4.269  -3.715  11.198  1.00  0.00     0.148 A 
ATOM     65  C   UNL     1       3.377  -5.185   8.981  1.00  0.00     0.002 A 
ATOM     66  C   UNL     1       4.826  -4.955  10.908  1.00  0.00     0.091 A 
ATOM     67  F   UNL     1       4.675  -2.992  12.254  1.00  0.00    -0.205 F 
ATOM     68  C   UNL     1       4.375  -5.698   9.806  1.00  0.00     0.022 A 
BRANCH  66  69
ATOM     69  S   UNL     1       6.212  -5.603  11.847  1.00  0.00     0.127 S 
ATOM     70  O   UNL     1       5.562  -6.577  12.721  1.00  0.00    -0.237 OA
ATOM     71  O   UNL     1       7.058  -6.186  10.804  1.00  0.00    -0.237 OA
ATOM     72  O   UNL     1       6.809  -4.453  12.517  1.00  0.00    -0.744 OA
ENDBRANCH  66  69
ENDBRANCH  39  62
ENDBRANCH  13  14
ENDBRANCH   6   8
ENDBRANCH   5   6
ENDBRANCH   4   5
ENDBRANCH   3   4
ENDBRANCH   2   3
ENDBRANCH   1   2
BRANCH   1  73
ATOM     73  C   UNL     1       2.366   1.179  -2.014  1.00  0.00     0.188 C 
BRANCH  73  74
ATOM     74  O   UNL     1       2.774   0.872  -3.343  1.00  0.00    -0.376 OA
BRANCH  74  75
ATOM     75  C   UNL     1       4.066   1.228  -3.789  1.00  0.00     0.202 C 
BRANCH  75  76
ATOM     76  C   UNL     1       4.372   2.723  -3.941  1.00  0.00     0.261 C 
BRANCH  76  77
ATOM     77  O   UNL     1       3.895   3.574  -2.885  1.00  0.00    -0.460 OA
BRANCH  77  78
ATOM     78  C   UNL     1       2.771   4.270  -3.159  1.00  0.00     0.338 C 
ATOM     79  O   UNL     1       2.124   4.260  -4.204  1.00  0.00    -0.246 OA
BRANCH  78  80
ATOM     80  C   UNL     1       2.370   5.093  -2.006  1.00  0.00     0.060 A 
ATOM     81  C   UNL     1       1.232   4.753  -1.269  1.00  0.00     0.018 A 
ATOM     82  C   UNL     1       3.045   6.283  -1.735  1.00  0.00     0.018 A 
ATOM     83  C   UNL     1       0.754   5.618  -0.280  1.00  0.00     0.027 A 
ATOM     84  C   UNL     1       2.540   7.161  -0.766  1.00  0.00     0.027 A 
ATOM     85  C   UNL     1       1.371   6.855  -0.061  1.00  0.00     0.045 A 
BRANCH  85  86
ATOM     86  N   UNL     1       0.787   7.783   0.843  1.00  0.00    -0.299 N 
ATOM     87  C   UNL     1       0.373   7.343   2.137  1.00  0.00     0.259 C 
ATOM     88  C   UNL     1      -0.082   8.876   0.349  1.00  0.00     0.152 C 
ATOM     89  C   UNL     1      -0.749   8.245   2.590  1.00  0.00     0.248 C 
ATOM     90  O   UNL     1       0.839   6.392   2.749  1.00  0.00    -0.271 OA
ATOM     91  C   UNL     1      -1.245   8.597   1.232  1.00  0.00     0.021 C 
ATOM     92  N   UNL     1      -1.902   7.568   3.188  1.00  0.00    -0.170 NA
ATOM     93  C   UNL     1      -2.525   8.215   1.202  1.00  0.00     0.097 C 
ATOM     94  N   UNL     1      -2.902   7.697   2.427  1.00  0.00    -0.154 NA
BRANCH  88  95
ATOM     95  C   UNL     1       0.530  10.268   0.618  1.00  0.00    -0.020 A 
ATOM     96  C   UNL     1      -0.145  11.256   1.367  1.00  0.00     0.006 A 
ATOM     97  C   UNL     1       1.817  10.595   0.163  1.00  0.00     0.022 A 
ATOM     98  C   UNL     1       0.483  12.447   1.750  1.00  0.00     0.002 A 
ATOM     99  C   UNL     1       2.447  11.784   0.550  1.00  0.00     0.018 A 
ATOM    100  C   UNL     1       1.792  12.702   1.361  1.00  0.00     0.016 A 
ATOM    101  Br  UNL     1       4.220  12.133  -0.011  1.00  0.00    -0.051 Br
ENDBRANCH  88  95
BRANCH  93 102
ATOM    102  C   UNL     1      -3.440   7.950   0.086  1.00  0.00     0.002 A 
ATOM    103  C   UNL     1      -4.455   8.854  -0.251  1.00  0.00     0.010 A 
ATOM    104  C   UNL     1      -3.502   6.640  -0.419  1.00  0.00     0.010 A 
ATOM    105  C   UNL     1      -5.541   8.435  -1.031  1.00  0.00     0.001 A 
ATOM    106  C   UNL     1      -4.588   6.224  -1.191  1.00  0.00     0.001 A 
ATOM    107  C   UNL     1      -5.617   7.116  -1.482  1.00  0.00     0.000 A 
ENDBRANCH  93 102
ENDBRANCH  85  86
ENDBRANCH  78  80
ENDBRANCH  77  78
ENDBRANCH  76  77
ENDBRANCH  75  76
ENDBRANCH  74  75
ENDBRANCH  73  74
ENDBRANCH   1  73
TORSDOF 23
