REMARK SMILES O=C(OCCOCCOCCOC(=O)[C@H]1CN(C(=O)C[C@H]2NC(=O)c3ccccc32)C[C@@H]1c1ccc(F)cc1)c1ccc(-c2c3nc(c(-c4cccc(S(=O)(=O)[O-])c4F)c4ccc([nH]4)c(-c4cccc(S(=O)(=O)[O-])c4F)c4nc(c(-c5cccc(S(=O)(=O)[O-])c5F)c5ccc2[nH]5)C=C4)C=C3)cc1
REMARK SMILES IDX 7 1 6 2 5 3 4 4 3 5 2 6 1 7 40 8 41 9 102 10 42 11 101 12
REMARK SMILES IDX 43 13 44 14 45 15 95 16 46 17 100 18 94 19 96 20 47 21 99 22
REMARK SMILES IDX 93 23 92 24 48 26 80 27 60 28 79 29 61 30 64 31 78 32 97 33
REMARK SMILES IDX 62 34 63 35 77 37 98 38 65 39 49 40 50 41 58 42 51 43 53 44
REMARK SMILES IDX 59 45 52 46 54 47 55 48 56 49 57 50 81 51 82 52 90 53 83 54
REMARK SMILES IDX 85 55 91 56 84 57 86 58 87 59 88 60 89 61 66 62 67 63 75 64
REMARK SMILES IDX 68 65 70 66 76 67 69 68 71 69 72 70 73 71 74 72 8 73 9 74
REMARK SMILES IDX 10 75 11 76 12 77 13 78 14 79 15 80 16 81 32 82 17 83 31 84
REMARK SMILES IDX 33 85 34 86 39 87 35 88 38 89 36 90 37 91 18 92 19 93 20 94
REMARK SMILES IDX 21 95 22 96 30 97 23 98 25 100 29 101 24 102 26 103 28 104
REMARK SMILES IDX 27 105
REMARK H PARENT 96 25 64 36 22 99
REMARK Flexibility Score: inf
ROOT
ATOM      1  C   UNL     1       8.598  -9.084   7.908  1.00  0.00     0.188 C 
ENDROOT
BRANCH   1   2
ATOM      2  O   UNL     1       8.960 -10.463   7.804  1.00  0.00    -0.376 OA
BRANCH   2   3
ATOM      3  C   UNL     1      10.008 -10.860   8.694  1.00  0.00     0.202 C 
BRANCH   3   4
ATOM      4  C   UNL     1      11.415 -10.352   8.334  1.00  0.00     0.261 C 
BRANCH   4   5
ATOM      5  O   UNL     1      11.416  -9.108   7.620  1.00  0.00    -0.460 OA
BRANCH   5   6
ATOM      6  C   UNL     1      11.413  -8.901   6.279  1.00  0.00     0.338 C 
ATOM      7  O   UNL     1      11.585  -7.750   5.879  1.00  0.00    -0.246 OA
BRANCH   6   8
ATOM      8  C   UNL     1      11.174  -9.976   5.257  1.00  0.00     0.060 A 
ATOM      9  C   UNL     1      10.729 -11.273   5.526  1.00  0.00     0.016 A 
ATOM     10  C   UNL     1      11.362  -9.632   3.909  1.00  0.00     0.016 A 
ATOM     11  C   UNL     1      10.524 -12.219   4.530  1.00  0.00     0.010 A 
ATOM     12  C   UNL     1      11.139 -10.570   2.894  1.00  0.00     0.010 A 
ATOM     13  C   UNL     1      10.733 -11.881   3.206  1.00  0.00    -0.014 A 
BRANCH  13  14
ATOM     14  C   UNL     1      10.737 -12.956   2.192  1.00  0.00     0.031 A 
ATOM     15  C   UNL     1      12.075 -13.342   1.643  1.00  0.00     0.074 A 
ATOM     16  C   UNL     1       9.622 -13.632   1.844  1.00  0.00     0.049 A 
ATOM     17  N   UNL     1      12.358 -14.224   0.731  1.00  0.00    -0.248 NA
ATOM     18  C   UNL     1      13.259 -12.703   2.253  1.00  0.00     0.031 C 
ATOM     19  C   UNL     1       8.321 -13.536   2.501  1.00  0.00     0.029 A 
ATOM     20  N   UNL     1       9.382 -14.512   0.820  1.00  0.00    -0.354 N 
ATOM     21  C   UNL     1      13.742 -14.261   0.673  1.00  0.00     0.074 A 
ATOM     22  C   UNL     1      14.251 -13.275   1.593  1.00  0.00     0.031 C 
ATOM     23  C   UNL     1       7.387 -14.163   1.769  1.00  0.00     0.029 A 
ATOM     24  C   UNL     1       8.038 -14.771   0.625  1.00  0.00     0.049 A 
ATOM     25  H   UNL     1      10.096 -14.918   0.277  1.00  0.00     0.167 HD
ATOM     26  C   UNL     1      14.513 -15.094  -0.054  1.00  0.00     0.034 A 
ATOM     27  C   UNL     1       7.412 -15.433  -0.366  1.00  0.00     0.034 A 
ATOM     28  C   UNL     1      13.965 -16.061  -0.957  1.00  0.00     0.049 A 
ATOM     29  C   UNL     1       8.288 -16.181  -1.320  1.00  0.00     0.074 A 
ATOM     30  C   UNL     1      14.634 -16.956  -1.765  1.00  0.00     0.029 A 
ATOM     31  N   UNL     1      12.606 -16.237  -1.187  1.00  0.00    -0.354 N 
ATOM     32  N   UNL     1       9.599 -16.234  -1.347  1.00  0.00    -0.248 NA
ATOM     33  C   UNL     1       7.622 -17.042  -2.301  1.00  0.00     0.031 C 
ATOM     34  C   UNL     1      13.680 -17.634  -2.528  1.00  0.00     0.029 A 
ATOM     35  C   UNL     1      12.414 -17.204  -2.152  1.00  0.00     0.049 A 
ATOM     36  H   UNL     1      11.887 -15.745  -0.729  1.00  0.00     0.167 HD
ATOM     37  C   UNL     1       9.919 -17.193  -2.291  1.00  0.00     0.074 A 
ATOM     38  C   UNL     1       8.661 -17.671  -2.836  1.00  0.00     0.031 C 
ATOM     39  C   UNL     1      11.139 -17.658  -2.651  1.00  0.00     0.034 A 
BRANCH  26  40
ATOM     40  C   UNL     1      16.000 -14.974   0.099  1.00  0.00     0.023 A 
ATOM     41  C   UNL     1      16.632 -15.408   1.283  1.00  0.00     0.012 A 
ATOM     42  C   UNL     1      16.775 -14.440  -0.946  1.00  0.00     0.148 A 
ATOM     43  C   UNL     1      18.014 -15.291   1.432  1.00  0.00     0.002 A 
ATOM     44  C   UNL     1      18.155 -14.373  -0.810  1.00  0.00     0.091 A 
ATOM     45  F   UNL     1      16.146 -13.997  -2.042  1.00  0.00    -0.205 F 
ATOM     46  C   UNL     1      18.775 -14.785   0.381  1.00  0.00     0.022 A 
BRANCH  44  47
ATOM     47  S   UNL     1      19.227 -13.806  -2.132  1.00  0.00     0.127 S 
ATOM     48  O   UNL     1      19.827 -12.613  -1.534  1.00  0.00    -0.237 OA
ATOM     49  O   UNL     1      20.139 -14.938  -2.286  1.00  0.00    -0.237 OA
ATOM     50  O   UNL     1      18.361 -13.554  -3.276  1.00  0.00    -0.744 OA
ENDBRANCH  44  47
ENDBRANCH  26  40
BRANCH  27  51
ATOM     51  C   UNL     1       5.923 -15.529  -0.418  1.00  0.00     0.023 A 
ATOM     52  C   UNL     1       5.278 -16.640   0.154  1.00  0.00     0.012 A 
ATOM     53  C   UNL     1       5.138 -14.512  -0.999  1.00  0.00     0.148 A 
ATOM     54  C   UNL     1       3.884 -16.734   0.154  1.00  0.00     0.002 A 
ATOM     55  C   UNL     1       3.746 -14.584  -0.948  1.00  0.00     0.091 A 
ATOM     56  F   UNL     1       5.768 -13.496  -1.598  1.00  0.00    -0.205 F 
ATOM     57  C   UNL     1       3.119 -15.703  -0.383  1.00  0.00     0.022 A 
BRANCH  55  58
ATOM     58  S   UNL     1       2.663 -13.267  -1.526  1.00  0.00     0.127 S 
ATOM     59  O   UNL     1       1.635 -14.002  -2.261  1.00  0.00    -0.237 OA
ATOM     60  O   UNL     1       2.216 -12.685  -0.259  1.00  0.00    -0.237 OA
ATOM     61  O   UNL     1       3.494 -12.399  -2.346  1.00  0.00    -0.744 OA
ENDBRANCH  55  58
ENDBRANCH  27  51
BRANCH  39  62
ATOM     62  C   UNL     1      11.179 -18.762  -3.663  1.00  0.00     0.023 A 
ATOM     63  C   UNL     1      10.914 -18.482  -5.015  1.00  0.00     0.012 A 
ATOM     64  C   UNL     1      11.621 -20.043  -3.281  1.00  0.00     0.148 A 
ATOM     65  C   UNL     1      11.077 -19.473  -5.978  1.00  0.00     0.002 A 
ATOM     66  C   UNL     1      11.844 -21.004  -4.253  1.00  0.00     0.091 A 
ATOM     67  F   UNL     1      11.845 -20.282  -1.980  1.00  0.00    -0.205 F 
ATOM     68  C   UNL     1      11.560 -20.725  -5.601  1.00  0.00     0.022 A 
BRANCH  66  69
ATOM     69  S   UNL     1      12.589 -22.592  -3.877  1.00  0.00     0.127 S 
ATOM     70  O   UNL     1      11.480 -23.509  -4.139  1.00  0.00    -0.237 OA
ATOM     71  O   UNL     1      13.680 -22.657  -4.850  1.00  0.00    -0.237 OA
ATOM     72  O   UNL     1      13.019 -22.520  -2.487  1.00  0.00    -0.744 OA
ENDBRANCH  66  69
ENDBRANCH  39  62
ENDBRANCH  13  14
ENDBRANCH   6   8
ENDBRANCH   5   6
ENDBRANCH   4   5
ENDBRANCH   3   4
ENDBRANCH   2   3
ENDBRANCH   1   2
BRANCH   1  73
ATOM     73  C   UNL     1       7.090  -8.839   7.985  1.00  0.00     0.188 C 
BRANCH  73  74
ATOM     74  O   UNL     1       6.360  -9.479   9.024  1.00  0.00    -0.376 OA
BRANCH  74  75
ATOM     75  C   UNL     1       6.536 -10.882   9.180  1.00  0.00     0.202 C 
BRANCH  75  76
ATOM     76  C   UNL     1       6.179 -11.834   8.019  1.00  0.00     0.261 C 
BRANCH  76  77
ATOM     77  O   UNL     1       6.555 -11.418   6.684  1.00  0.00    -0.463 OA
BRANCH  77  78
ATOM     78  C   UNL     1       5.512 -10.964   5.958  1.00  0.00     0.311 C 
ATOM     79  O   UNL     1       4.362 -10.898   6.402  1.00  0.00    -0.252 OA
BRANCH  78  80
ATOM     80  C   UNL     1       5.771 -10.475   4.553  1.00  0.00     0.128 C 
ATOM     81  C   UNL     1       5.387  -9.010   4.550  1.00  0.00     0.135 C 
ATOM     82  C   UNL     1       7.063 -10.479   3.709  1.00  0.00     0.055 C 
ATOM     83  N   UNL     1       6.611  -8.246   4.423  1.00  0.00    -0.341 N 
ATOM     84  C   UNL     1       7.683  -9.082   3.935  1.00  0.00     0.128 C 
BRANCH  82  85
ATOM     85  C   UNL     1       6.838 -10.671   2.183  1.00  0.00    -0.042 A 
ATOM     86  C   UNL     1       7.913 -10.479   1.286  1.00  0.00     0.007 A 
ATOM     87  C   UNL     1       5.606 -11.024   1.607  1.00  0.00     0.007 A 
ATOM     88  C   UNL     1       7.761 -10.582  -0.100  1.00  0.00     0.039 A 
ATOM     89  C   UNL     1       5.443 -11.087   0.219  1.00  0.00     0.039 A 
ATOM     90  C   UNL     1       6.515 -10.856  -0.624  1.00  0.00     0.123 A 
ATOM     91  F   UNL     1       6.351 -10.884  -1.952  1.00  0.00    -0.207 F 
ENDBRANCH  82  85
BRANCH  83  92
ATOM     92  C   UNL     1       6.789  -6.884   4.547  1.00  0.00     0.225 C 
ATOM     93  O   UNL     1       7.865  -6.343   4.291  1.00  0.00    -0.275 OA
BRANCH  92  94
ATOM     94  C   UNL     1       5.633  -6.064   5.091  1.00  0.00     0.130 C 
BRANCH  94  95
ATOM     95  C   UNL     1       4.732  -5.383   4.050  1.00  0.00     0.123 C 
ATOM     96  N   UNL     1       5.317  -4.130   3.610  1.00  0.00    -0.345 N 
ATOM     97  C   UNL     1       4.536  -6.090   2.743  1.00  0.00    -0.012 A 
ATOM     98  C   UNL     1       5.682  -4.144   2.284  1.00  0.00     0.252 C 
ATOM     99  H   UNL     1       5.439  -3.351   4.199  1.00  0.00     0.164 HD
ATOM    100  C   UNL     1       5.252  -5.434   1.741  1.00  0.00     0.045 A 
ATOM    101  C   UNL     1       3.798  -7.214   2.421  1.00  0.00     0.007 A 
ATOM    102  O   UNL     1       6.186  -3.221   1.663  1.00  0.00    -0.269 OA
ATOM    103  C   UNL     1       5.417  -5.954   0.472  1.00  0.00     0.014 A 
ATOM    104  C   UNL     1       3.978  -7.786   1.155  1.00  0.00     0.000 A 
ATOM    105  C   UNL     1       4.810  -7.179   0.200  1.00  0.00     0.001 A 
ENDBRANCH  94  95
ENDBRANCH  92  94
ENDBRANCH  83  92
ENDBRANCH  78  80
ENDBRANCH  77  78
ENDBRANCH  76  77
ENDBRANCH  75  76
ENDBRANCH  74  75
ENDBRANCH  73  74
ENDBRANCH   1  73
TORSDOF 24
