REMARK SMILES C#Cc1cccc(N(C)S(=O)(=O)c2cc(F)c(F)c(C(=O)OCCOCCOCCOC(=O)c3ccc(-c4c5nc(c(-c6cccc(S(=O)(=O)[O-])c6F)c6ccc([nH]6)c(-c6cccc(S(=O)(=O)[O-])c6F)c6nc(c(-c7cccc(S(=O)(=O)[O-])c7F)c7ccc4[nH]7)C=C6)C=C5)cc3)c2)c1
REMARK SMILES IDX 26 1 25 2 24 3 23 4 22 5 20 6 21 7 19 8 13 9 14 10 97 11
REMARK SMILES IDX 15 12 16 13 17 14 18 15 10 16 11 17 12 18 8 19 9 20 7 21
REMARK SMILES IDX 3 22 4 23 98 24 5 25 6 26 2 27 1 28 27 29 28 30 29 31 30 32
REMARK SMILES IDX 31 33 32 34 33 35 34 36 35 37 96 38 36 39 95 40 37 41 38 42
REMARK SMILES IDX 39 43 89 44 40 45 94 46 88 47 90 48 41 49 93 50 87 51 86 52
REMARK SMILES IDX 42 54 74 55 54 56 73 57 55 58 58 59 72 60 91 61 56 62 57 63
REMARK SMILES IDX 71 65 92 66 59 67 43 68 44 69 52 70 45 71 47 72 53 73 46 74
REMARK SMILES IDX 48 75 49 76 50 77 51 78 75 79 76 80 84 81 77 82 79 83 85 84
REMARK SMILES IDX 78 85 80 86 81 87 82 88 83 89 60 90 61 91 69 92 62 93 64 94
REMARK SMILES IDX 70 95 63 96 65 97 66 98 67 99 68 100
REMARK H PARENT 90 53 58 64
REMARK Flexibility Score: inf
ROOT
ATOM      1  C   UNL     1       7.575  -6.529   1.433  1.00  0.00     0.188 C 
ENDROOT
BRANCH   1   2
ATOM      2  O   UNL     1       8.868  -5.989   1.302  1.00  0.00    -0.376 OA
BRANCH   2   3
ATOM      3  C   UNL     1       9.161  -5.056   0.280  1.00  0.00     0.202 C 
BRANCH   3   4
ATOM      4  C   UNL     1       8.189  -4.569  -0.817  1.00  0.00     0.261 C 
BRANCH   4   5
ATOM      5  O   UNL     1       6.796  -4.866  -0.682  1.00  0.00    -0.460 OA
BRANCH   5   6
ATOM      6  C   UNL     1       6.295  -5.835  -1.496  1.00  0.00     0.341 C 
ATOM      7  O   UNL     1       6.894  -6.471  -2.339  1.00  0.00    -0.246 OA
BRANCH   6   8
ATOM      8  C   UNL     1       4.892  -6.056  -1.099  1.00  0.00     0.100 A 
ATOM      9  C   UNL     1       2.750  -5.153  -0.441  1.00  0.00     0.091 A 
ATOM     10  C   UNL     1       2.338  -6.439  -0.057  1.00  0.00     0.064 A 
ATOM     11  C   UNL     1       4.014  -4.965  -0.999  1.00  0.00     0.041 A 
ATOM     12  C   UNL     1       3.202  -7.519  -0.214  1.00  0.00     0.161 A 
ATOM     13  F   UNL     1       2.796  -8.737   0.165  1.00  0.00    -0.204 F 
ATOM     14  C   UNL     1       4.483  -7.334  -0.718  1.00  0.00     0.173 A 
ATOM     15  F   UNL     1       5.330  -8.371  -0.757  1.00  0.00    -0.203 F 
BRANCH   9  16
ATOM     16  S   UNL     1       1.595  -3.827  -0.150  1.00  0.00     0.264 S 
ATOM     17  O   UNL     1       1.123  -4.012   1.208  1.00  0.00    -0.201 OA
ATOM     18  O   UNL     1       0.681  -3.892  -1.272  1.00  0.00    -0.201 OA
BRANCH  16  19
ATOM     19  N   UNL     1       2.396  -2.304  -0.203  1.00  0.00    -0.269 N 
ATOM     20  C   UNL     1       3.723  -2.208   0.462  1.00  0.00     0.164 C 
BRANCH  19  21
ATOM     21  C   UNL     1       1.538  -1.103  -0.075  1.00  0.00     0.053 A 
ATOM     22  C   UNL     1      -0.633   0.036   0.009  1.00  0.00     0.026 A 
ATOM     23  C   UNL     1      -0.007   1.279  -0.011  1.00  0.00     0.017 A 
ATOM     24  C   UNL     1       0.132  -1.141  -0.018  1.00  0.00     0.044 A 
ATOM     25  C   UNL     1       1.379   1.346  -0.069  1.00  0.00     0.003 A 
ATOM     26  C   UNL     1       2.136   0.169  -0.124  1.00  0.00     0.027 A 
BRANCH  22  27
ATOM     27  C   UNL     1      -2.066  -0.026   0.034  1.00  0.00    -0.070 C 
ATOM     28  C   UNL     1      -3.264  -0.053   0.042  1.00  0.00     0.010 C 
ENDBRANCH  22  27
ENDBRANCH  19  21
ENDBRANCH  16  19
ENDBRANCH   9  16
ENDBRANCH   6   8
ENDBRANCH   5   6
ENDBRANCH   4   5
ENDBRANCH   3   4
ENDBRANCH   2   3
ENDBRANCH   1   2
BRANCH   1  29
ATOM     29  C   UNL     1       6.530  -5.613   2.100  1.00  0.00     0.188 C 
BRANCH  29  30
ATOM     30  O   UNL     1       6.867  -4.255   2.289  1.00  0.00    -0.376 OA
BRANCH  30  31
ATOM     31  C   UNL     1       7.855  -3.913   3.254  1.00  0.00     0.202 C 
BRANCH  31  32
ATOM     32  C   UNL     1       8.432  -4.841   4.353  1.00  0.00     0.261 C 
BRANCH  32  33
ATOM     33  O   UNL     1       8.263  -6.257   4.231  1.00  0.00    -0.460 OA
BRANCH  33  34
ATOM     34  C   UNL     1       7.291  -6.815   4.996  1.00  0.00     0.338 C 
ATOM     35  O   UNL     1       6.533  -6.234   5.753  1.00  0.00    -0.246 OA
BRANCH  34  36
ATOM     36  C   UNL     1       7.140  -8.236   4.614  1.00  0.00     0.060 A 
ATOM     37  C   UNL     1       5.997  -8.630   3.902  1.00  0.00     0.016 A 
ATOM     38  C   UNL     1       8.109  -9.175   4.966  1.00  0.00     0.016 A 
ATOM     39  C   UNL     1       5.818  -9.966   3.542  1.00  0.00     0.010 A 
ATOM     40  C   UNL     1       7.911 -10.520   4.632  1.00  0.00     0.010 A 
ATOM     41  C   UNL     1       6.753 -10.927   3.940  1.00  0.00    -0.014 A 
BRANCH  41  42
ATOM     42  C   UNL     1       6.449 -12.370   3.772  1.00  0.00     0.031 A 
ATOM     43  C   UNL     1       6.002 -13.161   4.972  1.00  0.00     0.074 A 
ATOM     44  C   UNL     1       6.570 -12.976   2.576  1.00  0.00     0.049 A 
ATOM     45  N   UNL     1       5.745 -14.438   5.075  1.00  0.00    -0.248 NA
ATOM     46  C   UNL     1       5.827 -12.408   6.225  1.00  0.00     0.031 C 
ATOM     47  C   UNL     1       6.971 -12.320   1.333  1.00  0.00     0.029 A 
ATOM     48  N   UNL     1       6.393 -14.291   2.223  1.00  0.00    -0.354 N 
ATOM     49  C   UNL     1       5.415 -14.651   6.409  1.00  0.00     0.074 A 
ATOM     50  C   UNL     1       5.514 -13.373   7.078  1.00  0.00     0.031 C 
ATOM     51  C   UNL     1       7.042 -13.243   0.358  1.00  0.00     0.029 A 
ATOM     52  C   UNL     1       6.726 -14.557   0.915  1.00  0.00     0.049 A 
ATOM     53  H   UNL     1       6.060 -14.977   2.845  1.00  0.00     0.167 HD
ATOM     54  C   UNL     1       5.056 -15.805   7.020  1.00  0.00     0.034 A 
ATOM     55  C   UNL     1       6.802 -15.730   0.254  1.00  0.00     0.034 A 
ATOM     56  C   UNL     1       4.954 -17.075   6.352  1.00  0.00     0.049 A 
ATOM     57  C   UNL     1       6.446 -17.009   0.970  1.00  0.00     0.074 A 
ATOM     58  C   UNL     1       4.552 -18.291   6.877  1.00  0.00     0.029 A 
ATOM     59  N   UNL     1       5.280 -17.302   5.025  1.00  0.00    -0.354 N 
ATOM     60  N   UNL     1       6.037 -17.181   2.204  1.00  0.00    -0.248 NA
ATOM     61  C   UNL     1       6.536 -18.254   0.193  1.00  0.00     0.031 C 
ATOM     62  C   UNL     1       4.692 -19.263   5.883  1.00  0.00     0.029 A 
ATOM     63  C   UNL     1       5.117 -18.642   4.720  1.00  0.00     0.049 A 
ATOM     64  H   UNL     1       5.583 -16.611   4.392  1.00  0.00     0.167 HD
ATOM     65  C   UNL     1       5.784 -18.543   2.338  1.00  0.00     0.074 A 
ATOM     66  C   UNL     1       6.066 -19.147   1.053  1.00  0.00     0.031 C 
ATOM     67  C   UNL     1       5.363 -19.232   3.428  1.00  0.00     0.034 A 
BRANCH  54  68
ATOM     68  C   UNL     1       4.755 -15.751   8.496  1.00  0.00     0.023 A 
ATOM     69  C   UNL     1       3.597 -15.094   8.960  1.00  0.00     0.012 A 
ATOM     70  C   UNL     1       5.598 -16.399   9.421  1.00  0.00     0.148 A 
ATOM     71  C   UNL     1       3.304 -15.049  10.322  1.00  0.00     0.002 A 
ATOM     72  C   UNL     1       5.272 -16.395  10.771  1.00  0.00     0.091 A 
ATOM     73  F   UNL     1       6.703 -17.004   8.963  1.00  0.00    -0.205 F 
ATOM     74  C   UNL     1       4.135 -15.707  11.226  1.00  0.00     0.022 A 
BRANCH  72  75
ATOM     75  S   UNL     1       6.230 -17.282  12.004  1.00  0.00     0.127 S 
ATOM     76  O   UNL     1       6.779 -16.182  12.797  1.00  0.00    -0.237 OA
ATOM     77  O   UNL     1       5.200 -18.068  12.682  1.00  0.00    -0.237 OA
ATOM     78  O   UNL     1       7.212 -18.066  11.267  1.00  0.00    -0.744 OA
ENDBRANCH  72  75
ENDBRANCH  54  68
BRANCH  55  79
ATOM     79  C   UNL     1       7.234 -15.759  -1.174  1.00  0.00     0.023 A 
ATOM     80  C   UNL     1       6.319 -16.141  -2.174  1.00  0.00     0.012 A 
ATOM     81  C   UNL     1       8.551 -15.421  -1.541  1.00  0.00     0.148 A 
ATOM     82  C   UNL     1       6.718 -16.222  -3.509  1.00  0.00     0.002 A 
ATOM     83  C   UNL     1       8.926 -15.448  -2.879  1.00  0.00     0.091 A 
ATOM     84  F   UNL     1       9.411 -15.075  -0.573  1.00  0.00    -0.205 F 
ATOM     85  C   UNL     1       8.017 -15.867  -3.863  1.00  0.00     0.022 A 
BRANCH  83  86
ATOM     86  S   UNL     1      10.542 -14.903  -3.442  1.00  0.00     0.127 S 
ATOM     87  O   UNL     1      11.111 -16.144  -3.962  1.00  0.00    -0.237 OA
ATOM     88  O   UNL     1      10.186 -13.915  -4.459  1.00  0.00    -0.237 OA
ATOM     89  O   UNL     1      11.207 -14.352  -2.269  1.00  0.00    -0.744 OA
ENDBRANCH  83  86
ENDBRANCH  55  79
BRANCH  67  90
ATOM     90  C   UNL     1       5.130 -20.715   3.279  1.00  0.00     0.023 A 
ATOM     91  C   UNL     1       6.219 -21.593   3.102  1.00  0.00     0.012 A 
ATOM     92  C   UNL     1       3.828 -21.246   3.384  1.00  0.00     0.148 A 
ATOM     93  C   UNL     1       6.011 -22.968   2.990  1.00  0.00     0.002 A 
ATOM     94  C   UNL     1       3.635 -22.621   3.329  1.00  0.00     0.091 A 
ATOM     95  F   UNL     1       2.803 -20.397   3.542  1.00  0.00    -0.205 F 
ATOM     96  C   UNL     1       4.723 -23.482   3.115  1.00  0.00     0.022 A 
BRANCH  94  97
ATOM     97  S   UNL     1       2.027 -23.383   3.576  1.00  0.00     0.127 S 
ATOM     98  O   UNL     1       1.753 -23.937   2.251  1.00  0.00    -0.237 OA
ATOM     99  O   UNL     1       2.316 -24.381   4.607  1.00  0.00    -0.237 OA
ATOM    100  O   UNL     1       1.132 -22.314   3.999  1.00  0.00    -0.744 OA
ENDBRANCH  94  97
ENDBRANCH  67  90
ENDBRANCH  41  42
ENDBRANCH  34  36
ENDBRANCH  33  34
ENDBRANCH  32  33
ENDBRANCH  31  32
ENDBRANCH  30  31
ENDBRANCH  29  30
ENDBRANCH   1  29
TORSDOF 24
