REMARK SMILES O=C(OCCOCCOCCOC(=O)[C@H]1Cc2c([nH]c3ccccc23)[C@@H](c2ccc(OC(F)(F)F)cc2)[NH2+]1)c1ccc(-c2c3nc(c(-c4cccc(S(=O)(=O)[O-])c4F)c4ccc([nH]4)c(-c4cccc(S(=O)(=O)[O-])c4F)c4nc(c(-c5cccc(S(=O)(=O)[O-])c5F)c5ccc2[nH]5)C=C4)C=C3)cc1
REMARK SMILES IDX 7 1 6 2 5 3 4 4 3 5 2 6 1 7 39 8 40 9 101 10 41 11 100 12
REMARK SMILES IDX 42 13 43 14 44 15 94 16 45 17 99 18 93 19 95 20 46 21 98 22
REMARK SMILES IDX 92 23 91 24 47 26 79 27 59 28 78 29 60 30 63 31 77 32 96 33
REMARK SMILES IDX 61 34 62 35 76 37 97 38 64 39 48 40 49 41 57 42 50 43 52 44
REMARK SMILES IDX 58 45 51 46 53 47 54 48 55 49 56 50 80 51 81 52 89 53 82 54
REMARK SMILES IDX 84 55 90 56 83 57 85 58 86 59 87 60 88 61 65 62 66 63 74 64
REMARK SMILES IDX 67 65 69 66 75 67 68 68 70 69 71 70 72 71 73 72 8 73 9 74
REMARK SMILES IDX 10 75 11 76 12 77 13 78 14 79 15 80 16 81 38 82 17 83 26 84
REMARK SMILES IDX 18 87 25 88 19 89 20 90 24 91 21 93 23 94 22 95 27 96 28 97
REMARK SMILES IDX 37 98 29 99 36 100 30 101 31 102 32 103 33 104 34 105 35 106
REMARK H PARENT 95 25 63 36 38 85 38 86 19 92
REMARK Flexibility Score: inf
ROOT
ATOM      1  C   UNL     1       2.657   1.154  -1.701  1.00  0.00     0.188 C 
ENDROOT
BRANCH   1   2
ATOM      2  O   UNL     1       3.973   1.243  -1.155  1.00  0.00    -0.376 OA
BRANCH   2   3
ATOM      3  C   UNL     1       4.842   0.163  -1.512  1.00  0.00     0.202 C 
BRANCH   3   4
ATOM      4  C   UNL     1       4.493  -1.216  -0.919  1.00  0.00     0.261 C 
BRANCH   4   5
ATOM      5  O   UNL     1       3.101  -1.387  -0.596  1.00  0.00    -0.460 OA
BRANCH   5   6
ATOM      6  C   UNL     1       2.475  -1.172   0.590  1.00  0.00     0.338 C 
ATOM      7  O   UNL     1       1.286  -1.470   0.694  1.00  0.00    -0.246 OA
BRANCH   6   8
ATOM      8  C   UNL     1       3.149  -0.573   1.778  1.00  0.00     0.060 A 
ATOM      9  C   UNL     1       4.252   0.274   1.713  1.00  0.00     0.016 A 
ATOM     10  C   UNL     1       2.593  -0.827   3.043  1.00  0.00     0.016 A 
ATOM     11  C   UNL     1       4.877   0.748   2.850  1.00  0.00     0.010 A 
ATOM     12  C   UNL     1       3.179  -0.303   4.200  1.00  0.00     0.010 A 
ATOM     13  C   UNL     1       4.357   0.446   4.101  1.00  0.00    -0.014 A 
BRANCH  13  14
ATOM     14  C   UNL     1       5.182   0.798   5.267  1.00  0.00     0.031 A 
ATOM     15  C   UNL     1       5.907  -0.308   5.974  1.00  0.00     0.074 A 
ATOM     16  C   UNL     1       5.397   2.093   5.560  1.00  0.00     0.049 A 
ATOM     17  N   UNL     1       6.698  -0.246   7.008  1.00  0.00    -0.248 NA
ATOM     18  C   UNL     1       5.729  -1.669   5.434  1.00  0.00     0.031 C 
ATOM     19  C   UNL     1       4.817   3.233   4.842  1.00  0.00     0.029 A 
ATOM     20  N   UNL     1       6.183   2.670   6.518  1.00  0.00    -0.354 N 
ATOM     21  C   UNL     1       7.059  -1.559   7.282  1.00  0.00     0.074 A 
ATOM     22  C   UNL     1       6.419  -2.398   6.296  1.00  0.00     0.031 C 
ATOM     23  C   UNL     1       5.279   4.374   5.379  1.00  0.00     0.029 A 
ATOM     24  C   UNL     1       6.133   4.043   6.512  1.00  0.00     0.049 A 
ATOM     25  H   UNL     1       6.732   2.152   7.150  1.00  0.00     0.167 HD
ATOM     26  C   UNL     1       7.851  -2.018   8.276  1.00  0.00     0.034 A 
ATOM     27  C   UNL     1       6.690   4.923   7.363  1.00  0.00     0.034 A 
ATOM     28  C   UNL     1       8.480  -1.155   9.235  1.00  0.00     0.049 A 
ATOM     29  C   UNL     1       7.497   4.378   8.507  1.00  0.00     0.074 A 
ATOM     30  C   UNL     1       9.276  -1.494  10.311  1.00  0.00     0.029 A 
ATOM     31  N   UNL     1       8.368   0.229   9.233  1.00  0.00    -0.354 N 
ATOM     32  N   UNL     1       7.828   3.134   8.765  1.00  0.00    -0.248 NA
ATOM     33  C   UNL     1       8.009   5.354   9.475  1.00  0.00     0.031 C 
ATOM     34  C   UNL     1       9.611  -0.315  10.985  1.00  0.00     0.029 A 
ATOM     35  C   UNL     1       9.068   0.761  10.298  1.00  0.00     0.049 A 
ATOM     36  H   UNL     1       7.863   0.753   8.570  1.00  0.00     0.167 HD
ATOM     37  C   UNL     1       8.613   3.180   9.908  1.00  0.00     0.074 A 
ATOM     38  C   UNL     1       8.724   4.579  10.278  1.00  0.00     0.031 C 
ATOM     39  C   UNL     1       9.184   2.165  10.601  1.00  0.00     0.034 A 
BRANCH  26  40
ATOM     40  C   UNL     1       8.016  -3.508   8.396  1.00  0.00     0.023 A 
ATOM     41  C   UNL     1       8.777  -4.225   7.451  1.00  0.00     0.012 A 
ATOM     42  C   UNL     1       7.389  -4.203   9.449  1.00  0.00     0.148 A 
ATOM     43  C   UNL     1       8.877  -5.615   7.529  1.00  0.00     0.002 A 
ATOM     44  C   UNL     1       7.532  -5.581   9.547  1.00  0.00     0.091 A 
ATOM     45  F   UNL     1       6.644  -3.506  10.318  1.00  0.00    -0.205 F 
ATOM     46  C   UNL     1       8.261  -6.291   8.579  1.00  0.00     0.022 A 
BRANCH  44  47
ATOM     47  S   UNL     1       6.831  -6.532  10.899  1.00  0.00     0.127 S 
ATOM     48  O   UNL     1       5.829  -7.338  10.202  1.00  0.00    -0.237 OA
ATOM     49  O   UNL     1       7.993  -7.282  11.376  1.00  0.00    -0.237 OA
ATOM     50  O   UNL     1       6.300  -5.561  11.844  1.00  0.00    -0.744 OA
ENDBRANCH  44  47
ENDBRANCH  26  40
BRANCH  27  51
ATOM     51  C   UNL     1       6.476   6.386   7.206  1.00  0.00     0.023 A 
ATOM     52  C   UNL     1       7.559   7.223   6.877  1.00  0.00     0.012 A 
ATOM     53  C   UNL     1       5.209   6.957   7.434  1.00  0.00     0.148 A 
ATOM     54  C   UNL     1       7.390   8.607   6.805  1.00  0.00     0.002 A 
ATOM     55  C   UNL     1       5.044   8.332   7.340  1.00  0.00     0.091 A 
ATOM     56  F   UNL     1       4.196   6.140   7.759  1.00  0.00    -0.205 F 
ATOM     57  C   UNL     1       6.133   9.161   7.031  1.00  0.00     0.022 A 
BRANCH  55  58
ATOM     58  S   UNL     1       3.459   9.131   7.595  1.00  0.00     0.127 S 
ATOM     59  O   UNL     1       3.655   9.777   8.889  1.00  0.00    -0.237 OA
ATOM     60  O   UNL     1       3.398  10.046   6.458  1.00  0.00    -0.237 OA
ATOM     61  O   UNL     1       2.480   8.048   7.586  1.00  0.00    -0.744 OA
ENDBRANCH  55  58
ENDBRANCH  27  51
BRANCH  39  62
ATOM     62  C   UNL     1      10.027   2.538  11.787  1.00  0.00     0.023 A 
ATOM     63  C   UNL     1       9.422   3.002  12.971  1.00  0.00     0.012 A 
ATOM     64  C   UNL     1      11.422   2.357  11.740  1.00  0.00     0.148 A 
ATOM     65  C   UNL     1      10.202   3.313  14.083  1.00  0.00     0.002 A 
ATOM     66  C   UNL     1      12.184   2.610  12.869  1.00  0.00     0.091 A 
ATOM     67  F   UNL     1      11.973   1.935  10.592  1.00  0.00    -0.205 F 
ATOM     68  C   UNL     1      11.579   3.104  14.036  1.00  0.00     0.022 A 
BRANCH  66  69
ATOM     69  S   UNL     1      13.943   2.260  12.932  1.00  0.00     0.127 S 
ATOM     70  O   UNL     1      14.514   3.606  12.943  1.00  0.00    -0.237 OA
ATOM     71  O   UNL     1      14.067   1.532  14.195  1.00  0.00    -0.237 OA
ATOM     72  O   UNL     1      14.238   1.466  11.747  1.00  0.00    -0.744 OA
ENDBRANCH  66  69
ENDBRANCH  39  62
ENDBRANCH  13  14
ENDBRANCH   6   8
ENDBRANCH   5   6
ENDBRANCH   4   5
ENDBRANCH   3   4
ENDBRANCH   2   3
ENDBRANCH   1   2
BRANCH   1  73
ATOM     73  C   UNL     1       2.073   2.507  -2.101  1.00  0.00     0.188 C 
BRANCH  73  74
ATOM     74  O   UNL     1       2.775   3.248  -3.093  1.00  0.00    -0.376 OA
BRANCH  74  75
ATOM     75  C   UNL     1       4.168   3.456  -2.901  1.00  0.00     0.202 C 
BRANCH  75  76
ATOM     76  C   UNL     1       4.656   4.306  -1.714  1.00  0.00     0.261 C 
BRANCH  76  77
ATOM     77  O   UNL     1       4.056   4.060  -0.433  1.00  0.00    -0.459 OA
BRANCH  77  78
ATOM     78  C   UNL     1       3.020   4.907  -0.149  1.00  0.00     0.365 C 
ATOM     79  O   UNL     1       2.529   5.667  -0.978  1.00  0.00    -0.245 OA
BRANCH  78  80
ATOM     80  C   UNL     1       2.579   4.815   1.319  1.00  0.00     0.298 C 
ATOM     81  C   UNL     1       2.246   6.279   1.673  1.00  0.00     0.115 C 
ATOM     82  N   UNL     1       1.439   3.859   1.498  1.00  0.00    -0.323 N 
ATOM     83  C   UNL     1       1.508   6.344   2.938  1.00  0.00    -0.006 A 
ATOM     84  C   UNL     1       0.806   3.872   2.853  1.00  0.00     0.262 C 
ATOM     85  H   UNL     1       1.787   2.917   1.321  1.00  0.00     0.347 HD
ATOM     86  H   UNL     1       0.715   4.155   0.844  1.00  0.00     0.347 HD
ATOM     87  C   UNL     1       0.897   5.237   3.478  1.00  0.00     0.083 A 
ATOM     88  C   UNL     1       1.163   7.476   3.701  1.00  0.00     0.003 A 
ATOM     89  N   UNL     1       0.366   5.635   4.684  1.00  0.00    -0.353 N 
ATOM     90  C   UNL     1       0.391   7.016   4.765  1.00  0.00     0.046 A 
ATOM     91  C   UNL     1       1.412   8.851   3.563  1.00  0.00     0.010 A 
ATOM     92  H   UNL     1       0.021   5.031   5.381  1.00  0.00     0.166 HD
ATOM     93  C   UNL     1      -0.172   7.889   5.701  1.00  0.00     0.026 A 
ATOM     94  C   UNL     1       0.861   9.734   4.490  1.00  0.00     0.001 A 
ATOM     95  C   UNL     1       0.077   9.258   5.538  1.00  0.00     0.002 A 
BRANCH  84  96
ATOM     96  C   UNL     1      -0.642   3.357   2.729  1.00  0.00     0.016 A 
ATOM     97  C   UNL     1      -1.754   4.215   2.820  1.00  0.00     0.014 A 
ATOM     98  C   UNL     1      -0.905   1.996   2.491  1.00  0.00     0.014 A 
ATOM     99  C   UNL     1      -3.062   3.730   2.740  1.00  0.00     0.047 A 
ATOM    100  C   UNL     1      -2.224   1.514   2.371  1.00  0.00     0.047 A 
ATOM    101  C   UNL     1      -3.308   2.381   2.503  1.00  0.00     0.129 A 
BRANCH 101 102
ATOM    102  O   UNL     1      -4.634   2.065   2.434  1.00  0.00    -0.406 OA
BRANCH 102 103
ATOM    103  C   UNL     1      -4.988   0.792   1.931  1.00  0.00     0.573 C 
ATOM    104  F   UNL     1      -4.471   0.583   0.702  1.00  0.00    -0.132 F 
ATOM    105  F   UNL     1      -4.598  -0.194   2.765  1.00  0.00    -0.132 F 
ATOM    106  F   UNL     1      -6.338   0.736   1.825  1.00  0.00    -0.132 F 
ENDBRANCH 102 103
ENDBRANCH 101 102
ENDBRANCH  84  96
ENDBRANCH  78  80
ENDBRANCH  77  78
ENDBRANCH  76  77
ENDBRANCH  75  76
ENDBRANCH  74  75
ENDBRANCH  73  74
ENDBRANCH   1  73
TORSDOF 23
