REMARK SMILES O=C(OCCOCCOCCOC(=O)c1ccc(-c2c3nc(c(-c4cccc(S(=O)(=O)[O-])c4F)c4ccc([nH]4)c(-c4cccc(S(=O)(=O)[O-])c4F)c4nc(c(-c5cccc(S(=O)(=O)[O-])c5F)c5ccc2[nH]5)C=C4)C=C3)cc1)C1=Cc2c(Cl)ccc(Cl)c2O[C@@H]1C(F)(F)F
REMARK SMILES IDX 8 1 7 2 6 3 5 4 4 5 3 6 2 7 1 8 78 9 79 10 89 11 80 12 88 13
REMARK SMILES IDX 81 14 87 15 82 16 83 17 85 18 84 19 86 20 90 21 91 22 92 23
REMARK SMILES IDX 93 24 9 25 10 26 11 27 12 28 13 29 14 30 15 31 16 32 77 33
REMARK SMILES IDX 17 34 76 35 18 36 19 37 20 38 70 39 21 40 75 41 69 42 71 43
REMARK SMILES IDX 22 44 74 45 68 46 67 47 23 49 55 50 35 51 54 52 36 53 39 54
REMARK SMILES IDX 53 55 72 56 37 57 38 58 52 60 73 61 40 62 24 63 25 64 33 65
REMARK SMILES IDX 26 66 28 67 34 68 27 69 29 70 30 71 31 72 32 73 56 74 57 75
REMARK SMILES IDX 65 76 58 77 60 78 66 79 59 80 61 81 62 82 63 83 64 84 41 85
REMARK SMILES IDX 42 86 50 87 43 88 45 89 51 90 44 91 46 92 47 93 48 94 49 95
REMARK H PARENT 71 48 39 59
REMARK Flexibility Score: inf
ROOT
ATOM      1  C   UNL     1       2.248   3.209   1.010  1.00  0.00     0.188 C 
ENDROOT
BRANCH   1   2
ATOM      2  C   UNL     1       2.531   1.763   1.457  1.00  0.00     0.188 C 
BRANCH   2   3
ATOM      3  O   UNL     1       3.866   1.146   1.605  1.00  0.00    -0.376 OA
BRANCH   3   4
ATOM      4  C   UNL     1       4.554  -0.148   0.748  1.00  0.00     0.202 C 
BRANCH   4   5
ATOM      5  C   UNL     1       3.787  -1.036  -1.076  1.00  0.00     0.261 C 
BRANCH   5   6
ATOM      6  O   UNL     1       2.817  -2.188  -1.187  1.00  0.00    -0.460 OA
BRANCH   6   7
ATOM      7  C   UNL     1       3.017  -3.096  -0.223  1.00  0.00     0.338 C 
ATOM      8  O   UNL     1       2.332  -4.054   0.036  1.00  0.00    -0.246 OA
BRANCH   7   9
ATOM      9  C   UNL     1       3.926  -2.307   0.600  1.00  0.00     0.087 C 
ATOM     10  C   UNL     1       5.300  -2.221   0.095  1.00  0.00     0.029 C 
ATOM     11  C   UNL     1       2.711  -0.827   0.675  1.00  0.00     0.316 C 
ATOM     12  C   UNL     1       5.991  -0.803  -0.797  1.00  0.00     0.037 A 
ATOM     13  O   UNL     1       3.346   0.666  -0.405  1.00  0.00    -0.474 OA
ATOM     14  C   UNL     1       7.240  -0.864  -1.366  1.00  0.00     0.052 A 
ATOM     15  C   UNL     1       5.035   0.613  -1.123  1.00  0.00     0.148 A 
ATOM     16  Cl  UNL     1       8.273  -2.226  -1.246  1.00  0.00    -0.084 Cl
ATOM     17  C   UNL     1       7.624   0.251  -2.136  1.00  0.00     0.023 A 
ATOM     18  C   UNL     1       5.484   1.641  -1.910  1.00  0.00     0.083 A 
ATOM     19  C   UNL     1       6.800   1.427  -2.387  1.00  0.00     0.026 A 
ATOM     20  Cl  UNL     1       4.594   2.999  -2.399  1.00  0.00    -0.080 Cl
BRANCH  11  21
ATOM     21  C   UNL     1       2.468  -1.017   2.314  1.00  0.00     0.430 C 
ATOM     22  F   UNL     1       2.020  -0.003   3.051  1.00  0.00    -0.167 F 
ATOM     23  F   UNL     1       1.518  -1.987   2.456  1.00  0.00    -0.167 F 
ATOM     24  F   UNL     1       3.557  -1.510   2.967  1.00  0.00    -0.167 F 
ENDBRANCH  11  21
ENDBRANCH   7   9
ENDBRANCH   6   7
ENDBRANCH   5   6
ENDBRANCH   4   5
ENDBRANCH   3   4
ENDBRANCH   2   3
ENDBRANCH   1   2
BRANCH   1  25
ATOM     25  O   UNL     1       3.224   3.956   0.336  1.00  0.00    -0.376 OA
BRANCH  25  26
ATOM     26  C   UNL     1       4.519   3.960   0.910  1.00  0.00     0.202 C 
BRANCH  26  27
ATOM     27  C   UNL     1       4.660   4.432   2.362  1.00  0.00     0.261 C 
BRANCH  27  28
ATOM     28  O   UNL     1       4.143   3.502   3.334  1.00  0.00    -0.460 OA
BRANCH  28  29
ATOM     29  C   UNL     1       3.077   3.915   4.064  1.00  0.00     0.338 C 
ATOM     30  O   UNL     1       2.498   4.984   3.980  1.00  0.00    -0.246 OA
BRANCH  29  31
ATOM     31  C   UNL     1       2.585   2.800   4.899  1.00  0.00     0.060 A 
ATOM     32  C   UNL     1       1.253   2.382   4.751  1.00  0.00     0.016 A 
ATOM     33  C   UNL     1       3.411   2.214   5.859  1.00  0.00     0.016 A 
ATOM     34  C   UNL     1       0.738   1.384   5.575  1.00  0.00     0.010 A 
ATOM     35  C   UNL     1       2.880   1.248   6.718  1.00  0.00     0.010 A 
ATOM     36  C   UNL     1       1.531   0.865   6.604  1.00  0.00    -0.014 A 
BRANCH  36  37
ATOM     37  C   UNL     1       0.853   0.189   7.733  1.00  0.00     0.031 A 
ATOM     38  C   UNL     1       0.419   1.051   8.888  1.00  0.00     0.074 A 
ATOM     39  C   UNL     1       0.591  -1.129   7.724  1.00  0.00     0.049 A 
ATOM     40  N   UNL     1      -0.236   0.726   9.969  1.00  0.00    -0.248 NA
ATOM     41  C   UNL     1       0.773   2.481   8.807  1.00  0.00     0.031 C 
ATOM     42  C   UNL     1       0.940  -2.056   6.651  1.00  0.00     0.029 A 
ATOM     43  N   UNL     1      -0.028  -1.913   8.665  1.00  0.00    -0.354 N 
ATOM     44  C   UNL     1      -0.346   1.899  10.707  1.00  0.00     0.074 A 
ATOM     45  C   UNL     1       0.318   2.941   9.960  1.00  0.00     0.031 C 
ATOM     46  C   UNL     1       0.543  -3.293   7.002  1.00  0.00     0.029 A 
ATOM     47  C   UNL     1      -0.066  -3.246   8.331  1.00  0.00     0.049 A 
ATOM     48  H   UNL     1      -0.408  -1.556   9.499  1.00  0.00     0.167 HD
ATOM     49  C   UNL     1      -0.951   2.093  11.901  1.00  0.00     0.034 A 
ATOM     50  C   UNL     1      -0.528  -4.301   9.031  1.00  0.00     0.034 A 
ATOM     51  C   UNL     1      -1.595   1.049  12.647  1.00  0.00     0.049 A 
ATOM     52  C   UNL     1      -1.156  -4.064  10.383  1.00  0.00     0.074 A 
ATOM     53  C   UNL     1      -2.272   1.143  13.848  1.00  0.00     0.029 A 
ATOM     54  N   UNL     1      -1.608  -0.288  12.280  1.00  0.00    -0.354 N 
ATOM     55  N   UNL     1      -1.349  -2.935  11.022  1.00  0.00    -0.248 NA
ATOM     56  C   UNL     1      -1.664  -5.247  11.094  1.00  0.00     0.031 C 
ATOM     57  C   UNL     1      -2.634  -0.148  14.243  1.00  0.00     0.029 A 
ATOM     58  C   UNL     1      -2.257  -1.034  13.246  1.00  0.00     0.049 A 
ATOM     59  H   UNL     1      -1.214  -0.651  11.455  1.00  0.00     0.167 HD
ATOM     60  C   UNL     1      -2.047  -3.264  12.181  1.00  0.00     0.074 A 
ATOM     61  C   UNL     1      -2.251  -4.697  12.147  1.00  0.00     0.031 C 
ATOM     62  C   UNL     1      -2.482  -2.456  13.180  1.00  0.00     0.034 A 
BRANCH  49  63
ATOM     63  C   UNL     1      -0.907   3.480  12.486  1.00  0.00     0.023 A 
ATOM     64  C   UNL     1      -1.624   4.535  11.884  1.00  0.00     0.012 A 
ATOM     65  C   UNL     1      -0.164   3.729  13.656  1.00  0.00     0.148 A 
ATOM     66  C   UNL     1      -1.566   5.824  12.413  1.00  0.00     0.002 A 
ATOM     67  C   UNL     1      -0.157   5.002  14.209  1.00  0.00     0.091 A 
ATOM     68  F   UNL     1       0.532   2.720  14.197  1.00  0.00    -0.205 F 
ATOM     69  C   UNL     1      -0.842   6.054  13.581  1.00  0.00     0.022 A 
BRANCH  67  70
ATOM     70  S   UNL     1       0.676   5.379  15.753  1.00  0.00     0.127 S 
ATOM     71  O   UNL     1       1.739   6.278  15.304  1.00  0.00    -0.237 OA
ATOM     72  O   UNL     1      -0.387   6.026  16.522  1.00  0.00    -0.237 OA
ATOM     73  O   UNL     1       1.129   4.104  16.291  1.00  0.00    -0.744 OA
ENDBRANCH  67  70
ENDBRANCH  49  63
BRANCH  50  74
ATOM     74  C   UNL     1      -0.448  -5.678   8.464  1.00  0.00     0.023 A 
ATOM     75  C   UNL     1      -1.629  -6.369   8.131  1.00  0.00     0.012 A 
ATOM     76  C   UNL     1       0.795  -6.311   8.271  1.00  0.00     0.148 A 
ATOM     77  C   UNL     1      -1.577  -7.681   7.657  1.00  0.00     0.002 A 
ATOM     78  C   UNL     1       0.843  -7.597   7.746  1.00  0.00     0.091 A 
ATOM     79  F   UNL     1       1.906  -5.641   8.605  1.00  0.00    -0.205 F 
ATOM     80  C   UNL     1      -0.342  -8.291   7.456  1.00  0.00     0.022 A 
BRANCH  78  81
ATOM     81  S   UNL     1       2.388  -8.425   7.358  1.00  0.00     0.127 S 
ATOM     82  O   UNL     1       2.365  -9.552   8.288  1.00  0.00    -0.237 OA
ATOM     83  O   UNL     1       2.192  -8.783   5.953  1.00  0.00    -0.237 OA
ATOM     84  O   UNL     1       3.437  -7.442   7.592  1.00  0.00    -0.744 OA
ENDBRANCH  78  81
ENDBRANCH  50  74
BRANCH  62  85
ATOM     85  C   UNL     1      -3.292  -3.084  14.288  1.00  0.00     0.023 A 
ATOM     86  C   UNL     1      -2.695  -3.977  15.200  1.00  0.00     0.012 A 
ATOM     87  C   UNL     1      -4.648  -2.736  14.450  1.00  0.00     0.148 A 
ATOM     88  C   UNL     1      -3.451  -4.556  16.220  1.00  0.00     0.002 A 
ATOM     89  C   UNL     1      -5.377  -3.267  15.506  1.00  0.00     0.091 A 
ATOM     90  F   UNL     1      -5.203  -1.892  13.567  1.00  0.00    -0.205 F 
ATOM     91  C   UNL     1      -4.786  -4.193  16.379  1.00  0.00     0.022 A 
BRANCH  89  92
ATOM     92  S   UNL     1      -7.069  -2.775  15.850  1.00  0.00     0.127 S 
ATOM     93  O   UNL     1      -7.807  -3.989  15.507  1.00  0.00    -0.237 OA
ATOM     94  O   UNL     1      -7.018  -2.475  17.281  1.00  0.00    -0.237 OA
ATOM     95  O   UNL     1      -7.338  -1.623  15.000  1.00  0.00    -0.744 OA
ENDBRANCH  89  92
ENDBRANCH  62  85
ENDBRANCH  36  37
ENDBRANCH  29  31
ENDBRANCH  28  29
ENDBRANCH  27  28
ENDBRANCH  26  27
ENDBRANCH  25  26
ENDBRANCH   1  25
TORSDOF 21
