REMARK SMILES O=C(OCCOCCOCCOC(=O)c1cc(-c2ccc[nH]c2=O)ccc1Cl)c1ccc(-c2c3nc(c(-c4cccc(S(=O)(=O)[O-])c4F)c4ccc([nH]4)c(-c4cccc(S(=O)(=O)[O-])c4F)c4nc(c(-c5cccc(S(=O)(=O)[O-])c5F)c5ccc2[nH]5)C=C4)C=C3)cc1
REMARK SMILES IDX 7 1 6 2 5 3 4 4 3 5 2 6 1 7 29 8 30 9 91 10 31 11 90 12
REMARK SMILES IDX 32 13 33 14 34 15 84 16 35 17 89 18 83 19 85 20 36 21 88 22
REMARK SMILES IDX 82 23 81 24 37 26 69 27 49 28 68 29 50 30 53 31 67 32 86 33
REMARK SMILES IDX 51 34 52 35 66 37 87 38 54 39 38 40 39 41 47 42 40 43 42 44
REMARK SMILES IDX 48 45 41 46 43 47 44 48 45 49 46 50 70 51 71 52 79 53 72 54
REMARK SMILES IDX 74 55 80 56 73 57 75 58 76 59 77 60 78 61 55 62 56 63 64 64
REMARK SMILES IDX 57 65 59 66 65 67 58 68 60 69 61 70 62 71 63 72 8 73 9 74
REMARK SMILES IDX 10 75 11 76 12 77 13 78 14 79 15 80 16 81 27 82 17 83 26 84
REMARK SMILES IDX 28 85 25 86 18 87 19 88 23 89 20 90 22 91 24 92 21 93
REMARK H PARENT 85 25 53 36 22 94
REMARK Flexibility Score: inf
ROOT
ATOM      1  C   UNL     1       2.612   0.014   2.244  1.00  0.00     0.188 C 
ENDROOT
BRANCH   1   2
ATOM      2  O   UNL     1       3.874  -0.366   1.686  1.00  0.00    -0.376 OA
BRANCH   2   3
ATOM      3  C   UNL     1       4.772   0.723   1.467  1.00  0.00     0.202 C 
BRANCH   3   4
ATOM      4  C   UNL     1       4.566   1.473   0.144  1.00  0.00     0.261 C 
BRANCH   4   5
ATOM      5  O   UNL     1       3.193   1.483  -0.277  1.00  0.00    -0.460 OA
BRANCH   5   6
ATOM      6  C   UNL     1       2.637   0.713  -1.247  1.00  0.00     0.338 C 
ATOM      7  O   UNL     1       1.487   0.949  -1.611  1.00  0.00    -0.246 OA
BRANCH   6   8
ATOM      8  C   UNL     1       3.377  -0.397  -1.919  1.00  0.00     0.060 A 
ATOM      9  C   UNL     1       4.319  -1.208  -1.288  1.00  0.00     0.016 A 
ATOM     10  C   UNL     1       3.029  -0.700  -3.243  1.00  0.00     0.016 A 
ATOM     11  C   UNL     1       4.978  -2.227  -1.967  1.00  0.00     0.010 A 
ATOM     12  C   UNL     1       3.625  -1.780  -3.906  1.00  0.00     0.010 A 
ATOM     13  C   UNL     1       4.620  -2.543  -3.274  1.00  0.00    -0.014 A 
BRANCH  13  14
ATOM     14  C   UNL     1       5.319  -3.638  -3.984  1.00  0.00     0.031 A 
ATOM     15  C   UNL     1       6.119  -3.314  -5.210  1.00  0.00     0.074 A 
ATOM     16  C   UNL     1       5.263  -4.905  -3.524  1.00  0.00     0.049 A 
ATOM     17  N   UNL     1       6.698  -4.125  -6.051  1.00  0.00    -0.248 NA
ATOM     18  C   UNL     1       6.298  -1.887  -5.525  1.00  0.00     0.031 C 
ATOM     19  C   UNL     1       4.597  -5.335  -2.292  1.00  0.00     0.029 A 
ATOM     20  N   UNL     1       5.765  -6.071  -4.048  1.00  0.00    -0.354 N 
ATOM     21  C   UNL     1       7.266  -3.313  -7.022  1.00  0.00     0.074 A 
ATOM     22  C   UNL     1       6.963  -1.944  -6.669  1.00  0.00     0.031 C 
ATOM     23  C   UNL     1       4.712  -6.666  -2.172  1.00  0.00     0.029 A 
ATOM     24  C   UNL     1       5.376  -7.192  -3.352  1.00  0.00     0.049 A 
ATOM     25  H   UNL     1       6.345  -6.101  -4.843  1.00  0.00     0.167 HD
ATOM     26  C   UNL     1       7.988  -3.679  -8.104  1.00  0.00     0.034 A 
ATOM     27  C   UNL     1       5.481  -8.499  -3.655  1.00  0.00     0.034 A 
ATOM     28  C   UNL     1       8.326  -5.038  -8.416  1.00  0.00     0.049 A 
ATOM     29  C   UNL     1       6.193  -8.880  -4.917  1.00  0.00     0.074 A 
ATOM     30  C   UNL     1       9.110  -5.513  -9.450  1.00  0.00     0.029 A 
ATOM     31  N   UNL     1       7.886  -6.141  -7.702  1.00  0.00    -0.354 N 
ATOM     32  N   UNL     1       6.790  -8.102  -5.785  1.00  0.00    -0.248 NA
ATOM     33  C   UNL     1       6.269 -10.313  -5.232  1.00  0.00     0.031 C 
ATOM     34  C   UNL     1       9.117  -6.910  -9.380  1.00  0.00     0.029 A 
ATOM     35  C   UNL     1       8.354  -7.301  -8.291  1.00  0.00     0.049 A 
ATOM     36  H   UNL     1       7.324  -6.104  -6.894  1.00  0.00     0.167 HD
ATOM     37  C   UNL     1       7.343  -8.949  -6.733  1.00  0.00     0.074 A 
ATOM     38  C   UNL     1       7.019 -10.302  -6.326  1.00  0.00     0.031 C 
ATOM     39  C   UNL     1       8.050  -8.635  -7.844  1.00  0.00     0.034 A 
BRANCH  26  40
ATOM     40  C   UNL     1       8.452  -2.589  -9.024  1.00  0.00     0.023 A 
ATOM     41  C   UNL     1       9.542  -1.774  -8.661  1.00  0.00     0.012 A 
ATOM     42  C   UNL     1       7.811  -2.387 -10.261  1.00  0.00     0.148 A 
ATOM     43  C   UNL     1       9.973  -0.754  -9.509  1.00  0.00     0.002 A 
ATOM     44  C   UNL     1       8.267  -1.392 -11.114  1.00  0.00     0.091 A 
ATOM     45  F   UNL     1       6.760  -3.160 -10.568  1.00  0.00    -0.205 F 
ATOM     46  C   UNL     1       9.342  -0.569 -10.736  1.00  0.00     0.022 A 
BRANCH  44  47
ATOM     47  S   UNL     1       7.551  -1.099 -12.734  1.00  0.00     0.127 S 
ATOM     48  O   UNL     1       7.008   0.250 -12.575  1.00  0.00    -0.237 OA
ATOM     49  O   UNL     1       8.723  -1.188 -13.604  1.00  0.00    -0.237 OA
ATOM     50  O   UNL     1       6.557  -2.144 -12.932  1.00  0.00    -0.744 OA
ENDBRANCH  44  47
ENDBRANCH  26  40
BRANCH  27  51
ATOM     51  C   UNL     1       4.854  -9.534  -2.786  1.00  0.00     0.023 A 
ATOM     52  C   UNL     1       5.660 -10.401  -2.026  1.00  0.00     0.012 A 
ATOM     53  C   UNL     1       3.453  -9.669  -2.726  1.00  0.00     0.148 A 
ATOM     54  C   UNL     1       5.082 -11.402  -1.242  1.00  0.00     0.002 A 
ATOM     55  C   UNL     1       2.884 -10.646  -1.918  1.00  0.00     0.091 A 
ATOM     56  F   UNL     1       2.704  -8.831  -3.458  1.00  0.00    -0.205 F 
ATOM     57  C   UNL     1       3.696 -11.520  -1.182  1.00  0.00     0.022 A 
BRANCH  55  58
ATOM     58  S   UNL     1       1.108 -10.807  -1.704  1.00  0.00     0.127 S 
ATOM     59  O   UNL     1       0.845 -12.093  -2.345  1.00  0.00    -0.237 OA
ATOM     60  O   UNL     1       0.989 -10.802  -0.247  1.00  0.00    -0.237 OA
ATOM     61  O   UNL     1       0.533  -9.643  -2.363  1.00  0.00    -0.744 OA
ENDBRANCH  55  58
ENDBRANCH  27  51
BRANCH  39  62
ATOM     62  C   UNL     1       8.546  -9.774  -8.685  1.00  0.00     0.023 A 
ATOM     63  C   UNL     1       7.648 -10.467  -9.518  1.00  0.00     0.012 A 
ATOM     64  C   UNL     1       9.915 -10.098  -8.707  1.00  0.00     0.148 A 
ATOM     65  C   UNL     1       8.107 -11.483 -10.353  1.00  0.00     0.002 A 
ATOM     66  C   UNL     1      10.372 -11.077  -9.577  1.00  0.00     0.091 A 
ATOM     67  F   UNL     1      10.742  -9.436  -7.885  1.00  0.00    -0.205 F 
ATOM     68  C   UNL     1       9.468 -11.778 -10.393  1.00  0.00     0.022 A 
BRANCH  66  69
ATOM     69  S   UNL     1      12.117 -11.452  -9.768  1.00  0.00     0.127 S 
ATOM     70  O   UNL     1      12.204 -12.780  -9.161  1.00  0.00    -0.237 OA
ATOM     71  O   UNL     1      12.279 -11.431 -11.222  1.00  0.00    -0.237 OA
ATOM     72  O   UNL     1      12.835 -10.397  -9.064  1.00  0.00    -0.744 OA
ENDBRANCH  66  69
ENDBRANCH  39  62
ENDBRANCH  13  14
ENDBRANCH   6   8
ENDBRANCH   5   6
ENDBRANCH   4   5
ENDBRANCH   3   4
ENDBRANCH   2   3
ENDBRANCH   1   2
BRANCH   1  73
ATOM     73  C   UNL     1       1.996  -1.152   3.022  1.00  0.00     0.188 C 
BRANCH  73  74
ATOM     74  O   UNL     1       2.653  -1.485   4.246  1.00  0.00    -0.376 OA
BRANCH  74  75
ATOM     75  C   UNL     1       4.021  -1.867   4.162  1.00  0.00     0.202 C 
BRANCH  75  76
ATOM     76  C   UNL     1       4.357  -3.253   3.590  1.00  0.00     0.261 C 
BRANCH  76  77
ATOM     77  O   UNL     1       3.724  -3.622   2.354  1.00  0.00    -0.460 OA
BRANCH  77  78
ATOM     78  C   UNL     1       2.649  -4.429   2.522  1.00  0.00     0.339 C 
ATOM     79  O   UNL     1       2.060  -4.649   3.579  1.00  0.00    -0.246 OA
BRANCH  78  80
ATOM     80  C   UNL     1       2.290  -5.114   1.276  1.00  0.00     0.079 A 
ATOM     81  C   UNL     1       1.519  -4.457   0.298  1.00  0.00     0.026 A 
ATOM     82  C   UNL     1       2.581  -6.477   1.161  1.00  0.00     0.055 A 
ATOM     83  C   UNL     1       1.007  -5.185  -0.790  1.00  0.00    -0.012 A 
ATOM     84  C   UNL     1       2.059  -7.200   0.095  1.00  0.00     0.022 A 
ATOM     85  Cl  UNL     1       3.608  -7.303   2.280  1.00  0.00    -0.083 Cl
ATOM     86  C   UNL     1       1.284  -6.558  -0.873  1.00  0.00     0.010 A 
BRANCH  83  87
ATOM     87  C   UNL     1       0.188  -4.580  -1.859  1.00  0.00     0.047 A 
ATOM     88  C   UNL     1       0.669  -3.576  -2.616  1.00  0.00     0.016 A 
ATOM     89  C   UNL     1      -1.150  -5.162  -2.241  1.00  0.00     0.255 A 
ATOM     90  C   UNL     1      -0.029  -3.108  -3.794  1.00  0.00     0.019 A 
ATOM     91  N   UNL     1      -1.685  -4.723  -3.432  1.00  0.00    -0.329 N 
ATOM     92  O   UNL     1      -1.762  -5.951  -1.529  1.00  0.00    -0.269 OA
ATOM     93  C   UNL     1      -1.150  -3.719  -4.191  1.00  0.00     0.086 A 
ATOM     94  H   UNL     1      -2.506  -5.159  -3.757  1.00  0.00     0.169 HD
ENDBRANCH  83  87
ENDBRANCH  78  80
ENDBRANCH  77  78
ENDBRANCH  76  77
ENDBRANCH  75  76
ENDBRANCH  74  75
ENDBRANCH  73  74
ENDBRANCH   1  73
TORSDOF 21
