REMARK SMILES CC[C@H]1CC[C@@](C(=O)OCCOCCOCCOC(=O)c2ccc(-c3c4nc(c(-c5cccc(S(=O)(=O)[O-])c5F)c5ccc([nH]5)c(-c5cccc(S(=O)(=O)[O-])c5F)c5nc(c(-c6cccc(S(=O)(=O)[O-])c6F)c6ccc3[nH]6)C=C5)C=C4)cc2)(C2CCCC2)C1
REMARK SMILES IDX 14 1 13 2 12 3 11 4 10 5 9 6 7 7 8 8 6 9 3 10 4 11 89 12
REMARK SMILES IDX 5 13 2 14 1 15 84 16 85 17 88 18 86 19 87 20 15 21 16 22
REMARK SMILES IDX 17 23 18 24 19 25 20 26 21 27 22 28 83 29 23 30 82 31 24 32
REMARK SMILES IDX 25 33 26 34 76 35 27 36 81 37 75 38 77 39 28 40 80 41 74 42
REMARK SMILES IDX 73 43 29 45 61 46 41 47 60 48 42 49 45 50 59 51 78 52 43 53
REMARK SMILES IDX 44 54 58 56 79 57 46 58 30 59 31 60 39 61 32 62 34 63 40 64
REMARK SMILES IDX 33 65 35 66 36 67 37 68 38 69 62 70 63 71 71 72 64 73 66 74
REMARK SMILES IDX 72 75 65 76 67 77 68 78 69 79 70 80 47 81 48 82 56 83 49 84
REMARK SMILES IDX 51 85 57 86 50 87 52 88 53 89 54 90 55 91
REMARK H PARENT 77 44 45 55
REMARK Flexibility Score: inf
ROOT
ATOM      1  C   UNL     1       3.277  -7.250  -0.827  1.00  0.00     0.188 C 
ENDROOT
BRANCH   1   2
ATOM      2  C   UNL     1       2.156  -8.296  -0.823  1.00  0.00     0.188 C 
BRANCH   2   3
ATOM      3  O   UNL     1       1.900  -8.970  -2.032  1.00  0.00    -0.376 OA
BRANCH   3   4
ATOM      4  C   UNL     1       1.270  -8.258  -3.086  1.00  0.00     0.202 C 
BRANCH   4   5
ATOM      5  C   UNL     1       0.522  -6.916  -2.923  1.00  0.00     0.261 C 
BRANCH   5   6
ATOM      6  O   UNL     1       1.037  -5.961  -1.974  1.00  0.00    -0.463 OA
BRANCH   6   7
ATOM      7  C   UNL     1       0.141  -5.472  -1.071  1.00  0.00     0.312 C 
ATOM      8  O   UNL     1      -1.038  -5.816  -1.048  1.00  0.00    -0.252 OA
BRANCH   7   9
ATOM      9  C   UNL     1       0.698  -4.417  -0.073  1.00  0.00     0.071 C 
ATOM     10  C   UNL     1       0.799  -1.904  -0.263  1.00  0.00    -0.010 C 
ATOM     11  C   UNL     1       2.173  -2.453  -0.611  1.00  0.00     0.005 C 
ATOM     12  C   UNL     1      -0.118  -3.128  -0.388  1.00  0.00     0.022 C 
ATOM     13  C   UNL     1       2.157  -3.950  -0.294  1.00  0.00     0.019 C 
BRANCH  10  14
ATOM     14  C   UNL     1       0.748  -1.208   1.103  1.00  0.00     0.000 C 
ATOM     15  C   UNL     1       1.266   0.220   1.093  1.00  0.00     0.004 C 
ENDBRANCH  10  14
BRANCH   9  16
ATOM     16  C   UNL     1       0.390  -4.979   1.371  1.00  0.00     0.006 C 
ATOM     17  C   UNL     1       1.261  -6.129   1.902  1.00  0.00     0.005 C 
ATOM     18  C   UNL     1       0.511  -4.004   2.540  1.00  0.00     0.005 C 
ATOM     19  C   UNL     1       0.934  -6.215   3.395  1.00  0.00     0.000 C 
ATOM     20  C   UNL     1       0.387  -4.855   3.791  1.00  0.00     0.000 C 
ENDBRANCH   9  16
ENDBRANCH   7   9
ENDBRANCH   6   7
ENDBRANCH   5   6
ENDBRANCH   4   5
ENDBRANCH   3   4
ENDBRANCH   2   3
ENDBRANCH   1   2
BRANCH   1  21
ATOM     21  O   UNL     1       3.946  -6.905  -2.019  1.00  0.00    -0.376 OA
BRANCH  21  22
ATOM     22  C   UNL     1       4.666  -7.901  -2.725  1.00  0.00     0.202 C 
BRANCH  22  23
ATOM     23  C   UNL     1       5.411  -9.068  -2.045  1.00  0.00     0.261 C 
BRANCH  23  24
ATOM     24  O   UNL     1       4.980  -9.464  -0.738  1.00  0.00    -0.460 OA
BRANCH  24  25
ATOM     25  C   UNL     1       5.749  -9.016   0.286  1.00  0.00     0.338 C 
ATOM     26  O   UNL     1       6.773  -8.350   0.194  1.00  0.00    -0.246 OA
BRANCH  25  27
ATOM     27  C   UNL     1       5.043  -9.238   1.567  1.00  0.00     0.060 A 
ATOM     28  C   UNL     1       4.758  -8.117   2.360  1.00  0.00     0.016 A 
ATOM     29  C   UNL     1       4.683 -10.515   2.002  1.00  0.00     0.016 A 
ATOM     30  C   UNL     1       4.136  -8.270   3.597  1.00  0.00     0.010 A 
ATOM     31  C   UNL     1       4.082 -10.669   3.260  1.00  0.00     0.010 A 
ATOM     32  C   UNL     1       3.826  -9.550   4.073  1.00  0.00    -0.014 A 
BRANCH  32  33
ATOM     33  C   UNL     1       3.449  -9.706   5.501  1.00  0.00     0.031 A 
ATOM     34  C   UNL     1       4.550  -9.906   6.506  1.00  0.00     0.074 A 
ATOM     35  C   UNL     1       2.173  -9.625   5.919  1.00  0.00     0.049 A 
ATOM     36  N   UNL     1       4.474 -10.041   7.804  1.00  0.00    -0.248 NA
ATOM     37  C   UNL     1       5.921  -9.953   5.972  1.00  0.00     0.031 C 
ATOM     38  C   UNL     1       1.014  -9.405   5.059  1.00  0.00     0.029 A 
ATOM     39  N   UNL     1       1.640  -9.725   7.182  1.00  0.00    -0.354 N 
ATOM     40  C   UNL     1       5.780 -10.216   8.241  1.00  0.00     0.074 A 
ATOM     41  C   UNL     1       6.630 -10.168   7.070  1.00  0.00     0.031 C 
ATOM     42  C   UNL     1      -0.097  -9.391   5.817  1.00  0.00     0.029 A 
ATOM     43  C   UNL     1       0.267  -9.645   7.211  1.00  0.00     0.049 A 
ATOM     44  H   UNL     1       2.189  -9.844   7.990  1.00  0.00     0.167 HD
ATOM     45  C   UNL     1       6.238 -10.401   9.501  1.00  0.00     0.034 A 
ATOM     46  C   UNL     1      -0.596  -9.787   8.239  1.00  0.00     0.034 A 
ATOM     47  C   UNL     1       5.402 -10.467  10.667  1.00  0.00     0.049 A 
ATOM     48  C   UNL     1      -0.062 -10.052   9.627  1.00  0.00     0.074 A 
ATOM     49  C   UNL     1       5.781 -10.645  11.986  1.00  0.00     0.029 A 
ATOM     50  N   UNL     1       4.019 -10.384  10.658  1.00  0.00    -0.354 N 
ATOM     51  N   UNL     1       1.181 -10.123  10.038  1.00  0.00    -0.248 NA
ATOM     52  C   UNL     1      -1.054 -10.232  10.699  1.00  0.00     0.031 C 
ATOM     53  C   UNL     1       4.625 -10.711  12.769  1.00  0.00     0.029 A 
ATOM     54  C   UNL     1       3.527 -10.522  11.945  1.00  0.00     0.049 A 
ATOM     55  H   UNL     1       3.467 -10.246   9.854  1.00  0.00     0.167 HD
ATOM     56  C   UNL     1       1.119 -10.317  11.416  1.00  0.00     0.074 A 
ATOM     57  C   UNL     1      -0.283 -10.330  11.773  1.00  0.00     0.031 C 
ATOM     58  C   UNL     1       2.133 -10.481  12.303  1.00  0.00     0.034 A 
BRANCH  45  59
ATOM     59  C   UNL     1       7.723 -10.566   9.676  1.00  0.00     0.023 A 
ATOM     60  C   UNL     1       8.579  -9.457   9.516  1.00  0.00     0.012 A 
ATOM     61  C   UNL     1       8.267 -11.816  10.027  1.00  0.00     0.148 A 
ATOM     62  C   UNL     1       9.957  -9.599   9.668  1.00  0.00     0.002 A 
ATOM     63  C   UNL     1       9.635 -11.939  10.225  1.00  0.00     0.091 A 
ATOM     64  F   UNL     1       7.437 -12.862  10.149  1.00  0.00    -0.205 F 
ATOM     65  C   UNL     1      10.483 -10.836  10.032  1.00  0.00     0.022 A 
BRANCH  63  66
ATOM     66  S   UNL     1      10.400 -13.469  10.770  1.00  0.00     0.127 S 
ATOM     67  O   UNL     1      11.153 -13.862   9.580  1.00  0.00    -0.237 OA
ATOM     68  O   UNL     1      11.223 -13.017  11.891  1.00  0.00    -0.237 OA
ATOM     69  O   UNL     1       9.306 -14.358  11.136  1.00  0.00    -0.744 OA
ENDBRANCH  63  66
ENDBRANCH  45  59
BRANCH  46  70
ATOM     70  C   UNL     1      -2.068  -9.689   8.012  1.00  0.00     0.023 A 
ATOM     71  C   UNL     1      -2.800  -8.635   8.595  1.00  0.00     0.012 A 
ATOM     72  C   UNL     1      -2.752 -10.655   7.248  1.00  0.00     0.148 A 
ATOM     73  C   UNL     1      -4.188  -8.569   8.457  1.00  0.00     0.002 A 
ATOM     74  C   UNL     1      -4.125 -10.550   7.065  1.00  0.00     0.091 A 
ATOM     75  F   UNL     1      -2.043 -11.662   6.719  1.00  0.00    -0.205 F 
ATOM     76  C   UNL     1      -4.849  -9.520   7.685  1.00  0.00     0.022 A 
BRANCH  74  77
ATOM     77  S   UNL     1      -5.044 -11.663   5.996  1.00  0.00     0.127 S 
ATOM     78  O   UNL     1      -5.881 -12.378   6.956  1.00  0.00    -0.237 OA
ATOM     79  O   UNL     1      -5.760 -10.724   5.132  1.00  0.00    -0.237 OA
ATOM     80  O   UNL     1      -4.043 -12.469   5.311  1.00  0.00    -0.744 OA
ENDBRANCH  74  77
ENDBRANCH  46  70
BRANCH  58  81
ATOM     81  C   UNL     1       1.780 -10.633  13.763  1.00  0.00     0.023 A 
ATOM     82  C   UNL     1       1.156 -11.809  14.226  1.00  0.00     0.012 A 
ATOM     83  C   UNL     1       2.135  -9.633  14.691  1.00  0.00     0.148 A 
ATOM     84  C   UNL     1       0.856 -11.969  15.579  1.00  0.00     0.002 A 
ATOM     85  C   UNL     1       1.883  -9.822  16.044  1.00  0.00     0.091 A 
ATOM     86  F   UNL     1       2.714  -8.513  14.233  1.00  0.00    -0.205 F 
ATOM     87  C   UNL     1       1.229 -10.982  16.489  1.00  0.00     0.022 A 
BRANCH  85  88
ATOM     88  S   UNL     1       2.420  -8.652  17.298  1.00  0.00     0.127 S 
ATOM     89  O   UNL     1       1.150  -8.059  17.716  1.00  0.00    -0.237 OA
ATOM     90  O   UNL     1       3.041  -9.527  18.293  1.00  0.00    -0.237 OA
ATOM     91  O   UNL     1       3.344  -7.744  16.632  1.00  0.00    -0.744 OA
ENDBRANCH  85  88
ENDBRANCH  58  81
ENDBRANCH  32  33
ENDBRANCH  25  27
ENDBRANCH  24  25
ENDBRANCH  23  24
ENDBRANCH  22  23
ENDBRANCH  21  22
ENDBRANCH   1  21
TORSDOF 22
