REMARK SMILES O=C(OCCOCCOCCOC(=O)[C@H]1CCCC[C@H]1C(=O)N1CCN(S(=O)(=O)c2ccc(F)cc2)CC1)c1ccc(-c2c3nc(c(-c4cccc(S(=O)(=O)[O-])c4F)c4ccc([nH]4)c(-c4cccc(S(=O)(=O)[O-])c4F)c4nc(c(-c5cccc(S(=O)(=O)[O-])c5F)c5ccc2[nH]5)C=C4)C=C3)cc1
REMARK SMILES IDX 7 1 6 2 5 3 4 4 3 5 2 6 1 7 39 8 40 9 101 10 41 11 100 12
REMARK SMILES IDX 42 13 43 14 44 15 94 16 45 17 99 18 93 19 95 20 46 21 98 22
REMARK SMILES IDX 92 23 91 24 47 26 79 27 59 28 78 29 60 30 63 31 77 32 96 33
REMARK SMILES IDX 61 34 62 35 76 37 97 38 64 39 48 40 49 41 57 42 50 43 52 44
REMARK SMILES IDX 58 45 51 46 53 47 54 48 55 49 56 50 80 51 81 52 89 53 82 54
REMARK SMILES IDX 84 55 90 56 83 57 85 58 86 59 87 60 88 61 65 62 66 63 74 64
REMARK SMILES IDX 67 65 69 66 75 67 68 68 70 69 71 70 72 71 73 72 8 73 9 74
REMARK SMILES IDX 10 75 11 76 12 77 13 78 14 79 15 80 16 81 20 82 17 83 19 84
REMARK SMILES IDX 18 85 21 86 22 87 23 88 24 89 38 90 25 91 37 92 26 93 27 94
REMARK SMILES IDX 28 95 29 96 30 97 31 98 36 99 32 100 35 101 33 102 34 103
REMARK H PARENT 95 25 63 36
REMARK Flexibility Score: inf
ROOT
ATOM      1  C   UNL     1      -0.013   4.704   1.466  1.00  0.00     0.188 C 
ENDROOT
BRANCH   1   2
ATOM      2  O   UNL     1       0.208   2.993   1.730  1.00  0.00    -0.376 OA
BRANCH   2   3
ATOM      3  C   UNL     1      -0.262   1.922   3.349  1.00  0.00     0.202 C 
BRANCH   3   4
ATOM      4  C   UNL     1      -0.729   2.998   4.918  1.00  0.00     0.261 C 
BRANCH   4   5
ATOM      5  O   UNL     1       0.275   4.399   5.449  1.00  0.00    -0.460 OA
BRANCH   5   6
ATOM      6  C   UNL     1       1.415   5.293   5.362  1.00  0.00     0.338 C 
ATOM      7  O   UNL     1       1.246   6.463   5.723  1.00  0.00    -0.246 OA
BRANCH   6   8
ATOM      8  C   UNL     1       2.883   5.022   4.793  1.00  0.00     0.060 A 
ATOM      9  C   UNL     1       3.142   4.636   3.504  1.00  0.00     0.016 A 
ATOM     10  C   UNL     1       4.107   5.390   5.354  1.00  0.00     0.016 A 
ATOM     11  C   UNL     1       4.318   4.009   3.049  1.00  0.00     0.010 A 
ATOM     12  C   UNL     1       5.377   4.828   4.867  1.00  0.00     0.010 A 
ATOM     13  C   UNL     1       5.420   3.893   3.814  1.00  0.00    -0.014 A 
BRANCH  13  14
ATOM     14  C   UNL     1       6.151   2.549   3.688  1.00  0.00     0.031 A 
ATOM     15  C   UNL     1       6.247   1.757   4.967  1.00  0.00     0.074 A 
ATOM     16  C   UNL     1       6.397   1.817   2.552  1.00  0.00     0.049 A 
ATOM     17  N   UNL     1       6.972   0.713   5.249  1.00  0.00    -0.248 NA
ATOM     18  C   UNL     1       5.398   2.201   6.085  1.00  0.00     0.031 C 
ATOM     19  C   UNL     1       6.098   2.209   1.170  1.00  0.00     0.029 A 
ATOM     20  N   UNL     1       6.876   0.518   2.378  1.00  0.00    -0.354 N 
ATOM     21  C   UNL     1       6.820   0.526   6.614  1.00  0.00     0.074 A 
ATOM     22  C   UNL     1       5.867   1.491   7.092  1.00  0.00     0.031 C 
ATOM     23  C   UNL     1       6.253   1.161   0.341  1.00  0.00     0.029 A 
ATOM     24  C   UNL     1       6.889   0.069   1.062  1.00  0.00     0.049 A 
ATOM     25  H   UNL     1       7.181  -0.039   3.131  1.00  0.00     0.167 HD
ATOM     26  C   UNL     1       7.464  -0.349   7.408  1.00  0.00     0.034 A 
ATOM     27  C   UNL     1       7.425  -1.036   0.476  1.00  0.00     0.034 A 
ATOM     28  C   UNL     1       8.303  -1.391   6.909  1.00  0.00     0.049 A 
ATOM     29  C   UNL     1       8.221  -1.976   1.353  1.00  0.00     0.074 A 
ATOM     30  C   UNL     1       9.097  -2.264   7.624  1.00  0.00     0.029 A 
ATOM     31  N   UNL     1       8.431  -1.719   5.571  1.00  0.00    -0.354 N 
ATOM     32  N   UNL     1       8.292  -2.008   2.661  1.00  0.00    -0.248 NA
ATOM     33  C   UNL     1       9.059  -2.990   0.687  1.00  0.00     0.031 C 
ATOM     34  C   UNL     1       9.746  -3.094   6.710  1.00  0.00     0.029 A 
ATOM     35  C   UNL     1       9.303  -2.778   5.435  1.00  0.00     0.049 A 
ATOM     36  H   UNL     1       7.969  -1.265   4.829  1.00  0.00     0.167 HD
ATOM     37  C   UNL     1       9.190  -3.023   2.972  1.00  0.00     0.074 A 
ATOM     38  C   UNL     1       9.600  -3.622   1.721  1.00  0.00     0.031 C 
ATOM     39  C   UNL     1       9.661  -3.396   4.186  1.00  0.00     0.034 A 
BRANCH  26  40
ATOM     40  C   UNL     1       7.407  -0.100   8.883  1.00  0.00     0.023 A 
ATOM     41  C   UNL     1       6.263  -0.390   9.646  1.00  0.00     0.012 A 
ATOM     42  C   UNL     1       8.552   0.432   9.508  1.00  0.00     0.148 A 
ATOM     43  C   UNL     1       6.259  -0.141  11.018  1.00  0.00     0.002 A 
ATOM     44  C   UNL     1       8.564   0.613  10.879  1.00  0.00     0.091 A 
ATOM     45  F   UNL     1       9.606   0.752   8.742  1.00  0.00    -0.205 F 
ATOM     46  C   UNL     1       7.414   0.341  11.636  1.00  0.00     0.022 A 
BRANCH  44  47
ATOM     47  S   UNL     1      10.033   1.137  11.764  1.00  0.00     0.127 S 
ATOM     48  O   UNL     1       9.584   2.392  12.366  1.00  0.00    -0.237 OA
ATOM     49  O   UNL     1      10.220   0.036  12.708  1.00  0.00    -0.237 OA
ATOM     50  O   UNL     1      11.083   1.277  10.765  1.00  0.00    -0.744 OA
ENDBRANCH  44  47
ENDBRANCH  26  40
BRANCH  27  51
ATOM     51  C   UNL     1       7.384  -1.267  -1.019  1.00  0.00     0.023 A 
ATOM     52  C   UNL     1       6.886  -2.475  -1.558  1.00  0.00     0.012 A 
ATOM     53  C   UNL     1       7.896  -0.310  -1.922  1.00  0.00     0.148 A 
ATOM     54  C   UNL     1       6.902  -2.717  -2.941  1.00  0.00     0.002 A 
ATOM     55  C   UNL     1       7.829  -0.517  -3.298  1.00  0.00     0.091 A 
ATOM     56  F   UNL     1       8.466   0.794  -1.419  1.00  0.00    -0.205 F 
ATOM     57  C   UNL     1       7.351  -1.729  -3.812  1.00  0.00     0.022 A 
BRANCH  55  58
ATOM     58  S   UNL     1       8.259   0.765  -4.483  1.00  0.00     0.127 S 
ATOM     59  O   UNL     1       9.453   0.207  -5.113  1.00  0.00    -0.237 OA
ATOM     60  O   UNL     1       7.072   0.799  -5.337  1.00  0.00    -0.237 OA
ATOM     61  O   UNL     1       8.468   1.974  -3.697  1.00  0.00    -0.744 OA
ENDBRANCH  55  58
ENDBRANCH  27  51
BRANCH  39  62
ATOM     62  C   UNL     1      10.651  -4.522   4.262  1.00  0.00     0.023 A 
ATOM     63  C   UNL     1      11.990  -4.306   3.885  1.00  0.00     0.012 A 
ATOM     64  C   UNL     1      10.286  -5.731   4.886  1.00  0.00     0.148 A 
ATOM     65  C   UNL     1      12.954  -5.283   4.127  1.00  0.00     0.002 A 
ATOM     66  C   UNL     1      11.261  -6.674   5.175  1.00  0.00     0.091 A 
ATOM     67  F   UNL     1       9.002  -5.908   5.229  1.00  0.00    -0.205 F 
ATOM     68  C   UNL     1      12.594  -6.457   4.789  1.00  0.00     0.022 A 
BRANCH  66  69
ATOM     69  S   UNL     1      10.912  -8.156   6.127  1.00  0.00     0.127 S 
ATOM     70  O   UNL     1      11.187  -9.207   5.149  1.00  0.00    -0.237 OA
ATOM     71  O   UNL     1      11.889  -8.060   7.212  1.00  0.00    -0.237 OA
ATOM     72  O   UNL     1       9.521  -8.052   6.546  1.00  0.00    -0.744 OA
ENDBRANCH  66  69
ENDBRANCH  39  62
ENDBRANCH  13  14
ENDBRANCH   6   8
ENDBRANCH   5   6
ENDBRANCH   4   5
ENDBRANCH   3   4
ENDBRANCH   2   3
ENDBRANCH   1   2
BRANCH   1  73
ATOM     73  C   UNL     1      -0.631   5.618   0.415  1.00  0.00     0.188 C 
BRANCH  73  74
ATOM     74  O   UNL     1      -1.977   5.522   0.082  1.00  0.00    -0.376 OA
BRANCH  74  75
ATOM     75  C   UNL     1      -2.344   4.678  -0.979  1.00  0.00     0.202 C 
BRANCH  75  76
ATOM     76  C   UNL     1      -1.349   4.018  -1.973  1.00  0.00     0.261 C 
BRANCH  76  77
ATOM     77  O   UNL     1       0.037   3.833  -1.580  1.00  0.00    -0.463 OA
BRANCH  77  78
ATOM     78  C   UNL     1       0.881   4.760  -2.106  1.00  0.00     0.309 C 
ATOM     79  O   UNL     1       0.448   5.714  -2.753  1.00  0.00    -0.252 OA
BRANCH  78  80
ATOM     80  C   UNL     1       2.385   4.538  -1.886  1.00  0.00     0.111 C 
ATOM     81  C   UNL     1       3.079   5.841  -2.367  1.00  0.00     0.016 C 
ATOM     82  C   UNL     1       3.036   4.097  -0.531  1.00  0.00     0.093 C 
ATOM     83  C   UNL     1       2.924   6.974  -1.355  1.00  0.00     0.001 C 
ATOM     84  C   UNL     1       3.425   5.274   0.405  1.00  0.00     0.014 C 
ATOM     85  C   UNL     1       3.779   6.645  -0.164  1.00  0.00     0.001 C 
BRANCH  82  86
ATOM     86  C   UNL     1       2.639   2.596  -0.160  1.00  0.00     0.226 C 
ATOM     87  O   UNL     1       2.937   1.735  -1.005  1.00  0.00    -0.275 OA
ATOM     88  N   UNL     1       1.816   2.182   0.854  1.00  0.00    -0.340 N 
ATOM     89  C   UNL     1       1.920   2.410   2.394  1.00  0.00     0.136 C 
ATOM     90  C   UNL     1       0.454   1.416   0.462  1.00  0.00     0.136 C 
ATOM     91  C   UNL     1       0.585   3.593   3.308  1.00  0.00     0.124 C 
ATOM     92  C   UNL     1      -1.175   2.164   0.895  1.00  0.00     0.124 C 
ATOM     93  N   UNL     1      -1.390   3.296   2.510  1.00  0.00    -0.194 NA
BRANCH  93  94
ATOM     94  S   UNL     1      -3.033   2.227   3.014  1.00  0.00     0.243 S 
ATOM     95  O   UNL     1      -2.747   0.803   3.030  1.00  0.00    -0.207 OA
ATOM     96  O   UNL     1      -3.633   2.844   4.176  1.00  0.00    -0.207 OA
BRANCH  94  97
ATOM     97  C   UNL     1      -4.309   2.305   1.639  1.00  0.00     0.082 A 
ATOM     98  C   UNL     1      -4.123   1.918   0.288  1.00  0.00     0.025 A 
ATOM     99  C   UNL     1      -5.639   2.396   2.071  1.00  0.00     0.025 A 
ATOM    100  C   UNL     1      -5.184   1.839  -0.629  1.00  0.00     0.040 A 
ATOM    101  C   UNL     1      -6.710   2.224   1.175  1.00  0.00     0.040 A 
ATOM    102  C   UNL     1      -6.475   1.996  -0.174  1.00  0.00     0.123 A 
ATOM    103  F   UNL     1      -7.497   1.861  -1.028  1.00  0.00    -0.207 F 
ENDBRANCH  94  97
ENDBRANCH  93  94
ENDBRANCH  82  86
ENDBRANCH  78  80
ENDBRANCH  77  78
ENDBRANCH  76  77
ENDBRANCH  75  76
ENDBRANCH  74  75
ENDBRANCH  73  74
ENDBRANCH   1  73
TORSDOF 23
