REMARK SMILES Cc1cscc1CNC(=O)N[C@@H](C)c1nc(C(=O)OCCOCCOCCOC(=O)c2ccc(-c3c4nc(c(-c5cccc(S(=O)(=O)[O-])c5F)c5ccc([nH]5)c(-c5cccc(S(=O)(=O)[O-])c5F)c5nc(c(-c6cccc(S(=O)(=O)[O-])c6F)c6ccc3[nH]6)C=C5)C=C4)cc2)cs1
REMARK SMILES IDX 23 1 22 2 21 3 20 4 19 5 17 6 18 7 16 8 14 9 15 10 95 11
REMARK SMILES IDX 94 12 12 13 13 14 11 15 8 16 9 17 10 19 7 21 6 22 1 23 2 24
REMARK SMILES IDX 3 25 4 26 5 27 24 28 25 29 26 30 27 31 28 32 29 33 30 34
REMARK SMILES IDX 31 35 32 36 93 37 33 38 92 39 34 40 35 41 36 42 86 43 37 44
REMARK SMILES IDX 91 45 85 46 87 47 38 48 90 49 84 50 83 51 39 53 71 54 51 55
REMARK SMILES IDX 70 56 52 57 55 58 69 59 88 60 53 61 54 62 68 64 89 65 56 66
REMARK SMILES IDX 40 67 41 68 49 69 42 70 44 71 50 72 43 73 45 74 46 75 47 76
REMARK SMILES IDX 48 77 72 78 73 79 81 80 74 81 76 82 82 83 75 84 77 85 78 86
REMARK SMILES IDX 79 87 80 88 57 89 58 90 66 91 59 92 61 93 67 94 60 95 62 96
REMARK SMILES IDX 63 97 64 98 65 99
REMARK H PARENT 8 18 11 20 87 52 55 63
REMARK Flexibility Score: inf
ROOT
ATOM      1  C   UNL     1      -5.464   5.730   3.648  1.00  0.00     0.188 C 
ENDROOT
BRANCH   1   2
ATOM      2  O   UNL     1      -6.044   6.642   4.574  1.00  0.00    -0.376 OA
BRANCH   2   3
ATOM      3  C   UNL     1      -5.394   7.870   4.868  1.00  0.00     0.202 C 
BRANCH   3   4
ATOM      4  C   UNL     1      -4.023   7.793   5.545  1.00  0.00     0.261 C 
BRANCH   4   5
ATOM      5  O   UNL     1      -3.055   7.064   4.773  1.00  0.00    -0.458 OA
BRANCH   5   6
ATOM      6  C   UNL     1      -2.563   5.938   5.374  1.00  0.00     0.357 C 
ATOM      7  O   UNL     1      -2.759   5.631   6.539  1.00  0.00    -0.244 OA
BRANCH   6   8
ATOM      8  C   UNL     1      -1.879   5.039   4.436  1.00  0.00     0.159 A 
ATOM      9  C   UNL     1      -0.494   4.403   2.812  1.00  0.00     0.116 A 
ATOM     10  N   UNL     1      -1.008   5.458   3.422  1.00  0.00    -0.232 NA
ATOM     11  S   UNL     1      -1.152   2.883   3.294  1.00  0.00    -0.124 S 
ATOM     12  C   UNL     1      -2.067   3.669   4.496  1.00  0.00     0.102 A 
BRANCH   9  13
ATOM     13  C   UNL     1       0.632   4.412   1.800  1.00  0.00     0.140 C 
ATOM     14  C   UNL     1       1.794   5.278   2.285  1.00  0.00     0.039 C 
BRANCH  13  15
ATOM     15  N   UNL     1       0.143   4.907   0.525  1.00  0.00    -0.329 N 
ATOM     16  N   UNL     1       1.050   3.516  -1.163  1.00  0.00    -0.334 N 
ATOM     17  C   UNL     1       0.365   4.585  -0.750  1.00  0.00     0.315 C 
ATOM     18  H   UNL     1       1.110   3.475  -2.145  1.00  0.00     0.165 HD
ATOM     19  O   UNL     1      -0.113   5.317  -1.620  1.00  0.00    -0.249 OA
ATOM     20  H   UNL     1      -0.497   5.649   0.624  1.00  0.00     0.166 HD
BRANCH  16  21
ATOM     21  C   UNL     1       1.728   2.402  -0.535  1.00  0.00     0.154 C 
BRANCH  21  22
ATOM     22  C   UNL     1       0.798   1.240  -0.308  1.00  0.00    -0.015 A 
ATOM     23  C   UNL     1       2.676  -0.560  -0.025  1.00  0.00     0.045 C 
ATOM     24  C   UNL     1       1.248  -0.124  -0.079  1.00  0.00    -0.035 A 
ATOM     25  C   UNL     1       0.182  -0.990   0.083  1.00  0.00     0.068 A 
ATOM     26  S   UNL     1      -1.329  -0.211  -0.014  1.00  0.00    -0.152 S 
ATOM     27  C   UNL     1      -0.587   1.299  -0.286  1.00  0.00     0.070 A 
ENDBRANCH  21  22
ENDBRANCH  16  21
ENDBRANCH  13  15
ENDBRANCH   9  13
ENDBRANCH   6   8
ENDBRANCH   5   6
ENDBRANCH   4   5
ENDBRANCH   3   4
ENDBRANCH   2   3
ENDBRANCH   1   2
BRANCH   1  28
ATOM     28  C   UNL     1      -4.781   6.257   2.369  1.00  0.00     0.188 C 
BRANCH  28  29
ATOM     29  O   UNL     1      -5.125   7.595   2.040  1.00  0.00    -0.376 OA
BRANCH  29  30
ATOM     30  C   UNL     1      -5.903   7.769   0.865  1.00  0.00     0.202 C 
BRANCH  30  31
ATOM     31  C   UNL     1      -7.379   7.386   1.024  1.00  0.00     0.261 C 
BRANCH  31  32
ATOM     32  O   UNL     1      -7.619   6.018   1.386  1.00  0.00    -0.460 OA
BRANCH  32  33
ATOM     33  C   UNL     1      -7.308   5.078   0.466  1.00  0.00     0.338 C 
ATOM     34  O   UNL     1      -6.824   5.266  -0.636  1.00  0.00    -0.246 OA
BRANCH  33  35
ATOM     35  C   UNL     1      -7.517   3.748   1.077  1.00  0.00     0.060 A 
ATOM     36  C   UNL     1      -6.473   2.816   1.049  1.00  0.00     0.016 A 
ATOM     37  C   UNL     1      -8.746   3.418   1.656  1.00  0.00     0.016 A 
ATOM     38  C   UNL     1      -6.673   1.533   1.565  1.00  0.00     0.010 A 
ATOM     39  C   UNL     1      -8.947   2.131   2.161  1.00  0.00     0.010 A 
ATOM     40  C   UNL     1      -7.924   1.171   2.086  1.00  0.00    -0.014 A 
BRANCH  40  41
ATOM     41  C   UNL     1      -8.226  -0.251   2.385  1.00  0.00     0.031 A 
ATOM     42  C   UNL     1      -8.908  -1.078   1.327  1.00  0.00     0.074 A 
ATOM     43  C   UNL     1      -7.929  -0.798   3.578  1.00  0.00     0.049 A 
ATOM     44  N   UNL     1      -9.277  -2.331   1.364  1.00  0.00    -0.248 NA
ATOM     45  C   UNL     1      -9.220  -0.396   0.059  1.00  0.00     0.031 C 
ATOM     46  C   UNL     1      -7.290  -0.103   4.693  1.00  0.00     0.029 A 
ATOM     47  N   UNL     1      -8.155  -2.066   4.055  1.00  0.00    -0.354 N 
ATOM     48  C   UNL     1      -9.878  -2.585   0.137  1.00  0.00     0.074 A 
ATOM     49  C   UNL     1      -9.840  -1.351  -0.618  1.00  0.00     0.031 C 
ATOM     50  C   UNL     1      -7.200  -0.946   5.737  1.00  0.00     0.029 A 
ATOM     51  C   UNL     1      -7.784  -2.236   5.368  1.00  0.00     0.049 A 
ATOM     52  H   UNL     1      -8.547  -2.785   3.509  1.00  0.00     0.167 HD
ATOM     53  C   UNL     1     -10.396  -3.744  -0.332  1.00  0.00     0.034 A 
ATOM     54  C   UNL     1      -7.910  -3.306   6.179  1.00  0.00     0.034 A 
ATOM     55  C   UNL     1     -10.423  -4.976   0.405  1.00  0.00     0.049 A 
ATOM     56  C   UNL     1      -8.503  -4.583   5.637  1.00  0.00     0.074 A 
ATOM     57  C   UNL     1     -10.882  -6.215  -0.006  1.00  0.00     0.029 A 
ATOM     58  N   UNL     1      -9.983  -5.124   1.710  1.00  0.00    -0.354 N 
ATOM     59  N   UNL     1      -8.928  -4.848   4.425  1.00  0.00    -0.248 NA
ATOM     60  C   UNL     1      -8.602  -5.720   6.566  1.00  0.00     0.031 C 
ATOM     61  C   UNL     1     -10.732  -7.111   1.058  1.00  0.00     0.029 A 
ATOM     62  C   UNL     1     -10.167  -6.431   2.126  1.00  0.00     0.049 A 
ATOM     63  H   UNL     1      -9.596  -4.406   2.261  1.00  0.00     0.167 HD
ATOM     64  C   UNL     1      -9.308  -6.187   4.436  1.00  0.00     0.074 A 
ATOM     65  C   UNL     1      -9.047  -6.684   5.770  1.00  0.00     0.031 C 
ATOM     66  C   UNL     1      -9.841  -6.932   3.436  1.00  0.00     0.034 A 
BRANCH  53  67
ATOM     67  C   UNL     1     -10.938  -3.742  -1.736  1.00  0.00     0.023 A 
ATOM     68  C   UNL     1     -10.039  -3.739  -2.821  1.00  0.00     0.012 A 
ATOM     69  C   UNL     1     -12.323  -3.789  -1.982  1.00  0.00     0.148 A 
ATOM     70  C   UNL     1     -10.510  -3.757  -4.133  1.00  0.00     0.002 A 
ATOM     71  C   UNL     1     -12.785  -3.843  -3.293  1.00  0.00     0.091 A 
ATOM     72  F   UNL     1     -13.162  -3.762  -0.937  1.00  0.00    -0.205 F 
ATOM     73  C   UNL     1     -11.881  -3.819  -4.368  1.00  0.00     0.022 A 
BRANCH  71  74
ATOM     74  S   UNL     1     -14.529  -3.991  -3.694  1.00  0.00     0.127 S 
ATOM     75  O   UNL     1     -14.842  -2.640  -4.157  1.00  0.00    -0.237 OA
ATOM     76  O   UNL     1     -14.521  -5.009  -4.746  1.00  0.00    -0.237 OA
ATOM     77  O   UNL     1     -15.188  -4.402  -2.462  1.00  0.00    -0.744 OA
ENDBRANCH  71  74
ENDBRANCH  53  67
BRANCH  54  78
ATOM     78  C   UNL     1      -7.418  -3.240   7.585  1.00  0.00     0.023 A 
ATOM     79  C   UNL     1      -6.277  -3.980   7.953  1.00  0.00     0.012 A 
ATOM     80  C   UNL     1      -8.064  -2.449   8.554  1.00  0.00     0.148 A 
ATOM     81  C   UNL     1      -5.806  -3.956   9.266  1.00  0.00     0.002 A 
ATOM     82  C   UNL     1      -7.560  -2.390   9.849  1.00  0.00     0.091 A 
ATOM     83  F   UNL     1      -9.163  -1.771   8.192  1.00  0.00    -0.205 F 
ATOM     84  C   UNL     1      -6.440  -3.154  10.211  1.00  0.00     0.022 A 
BRANCH  82  85
ATOM     85  S   UNL     1      -8.246  -1.294  11.097  1.00  0.00     0.127 S 
ATOM     86  O   UNL     1      -8.961  -2.232  11.957  1.00  0.00    -0.237 OA
ATOM     87  O   UNL     1      -7.040  -0.713  11.688  1.00  0.00    -0.237 OA
ATOM     88  O   UNL     1      -9.072  -0.343  10.366  1.00  0.00    -0.744 OA
ENDBRANCH  82  85
ENDBRANCH  54  78
BRANCH  66  89
ATOM     89  C   UNL     1     -10.154  -8.378   3.723  1.00  0.00     0.023 A 
ATOM     90  C   UNL     1     -11.278  -8.704   4.507  1.00  0.00     0.012 A 
ATOM     91  C   UNL     1      -9.393  -9.411   3.140  1.00  0.00     0.148 A 
ATOM     92  C   UNL     1     -11.625 -10.037   4.728  1.00  0.00     0.002 A 
ATOM     93  C   UNL     1      -9.771 -10.736   3.329  1.00  0.00     0.091 A 
ATOM     94  F   UNL     1      -8.316  -9.082   2.413  1.00  0.00    -0.205 F 
ATOM     95  C   UNL     1     -10.881 -11.051   4.129  1.00  0.00     0.022 A 
BRANCH  93  96
ATOM     96  S   UNL     1      -8.922 -12.097   2.519  1.00  0.00     0.127 S 
ATOM     97  O   UNL     1      -8.108 -12.633   3.608  1.00  0.00    -0.237 OA
ATOM     98  O   UNL     1     -10.030 -12.959   2.106  1.00  0.00    -0.237 OA
ATOM     99  O   UNL     1      -8.182 -11.501   1.414  1.00  0.00    -0.744 OA
ENDBRANCH  93  96
ENDBRANCH  66  89
ENDBRANCH  40  41
ENDBRANCH  33  35
ENDBRANCH  32  33
ENDBRANCH  31  32
ENDBRANCH  30  31
ENDBRANCH  29  30
ENDBRANCH  28  29
ENDBRANCH   1  28
TORSDOF 24
