REMARK SMILES Cc1nc2cc(SCC(=O)OCCOCCOCCOC(=O)c3ccc(-c4c5nc(c(-c6cccc(S(=O)(=O)[O-])c6F)c6ccc([nH]6)c(-c6cccc(S(=O)(=O)[O-])c6F)c6nc(c(-c7cccc(S(=O)(=O)[O-])c7F)c7ccc4[nH]7)C=C6)C=C5)cc3)ccc2s1
REMARK SMILES IDX 16 1 15 2 14 3 13 4 12 5 11 6 9 7 10 8 8 9 7 10 6 11 1 12
REMARK SMILES IDX 2 13 3 14 89 15 4 16 88 17 5 18 87 19 86 20 17 21 18 22
REMARK SMILES IDX 19 23 20 24 21 25 22 26 23 27 24 28 85 29 25 30 84 31 26 32
REMARK SMILES IDX 27 33 28 34 78 35 29 36 83 37 77 38 79 39 30 40 82 41 76 42
REMARK SMILES IDX 75 43 31 45 63 46 43 47 62 48 44 49 47 50 61 51 80 52 45 53
REMARK SMILES IDX 46 54 60 56 81 57 48 58 32 59 33 60 41 61 34 62 36 63 42 64
REMARK SMILES IDX 35 65 37 66 38 67 39 68 40 69 64 70 65 71 73 72 66 73 68 74
REMARK SMILES IDX 74 75 67 76 69 77 70 78 71 79 72 80 49 81 50 82 58 83 51 84
REMARK SMILES IDX 53 85 59 86 52 87 54 88 55 89 56 90 57 91
REMARK H PARENT 79 44 47 55
REMARK Flexibility Score: inf
ROOT
ATOM      1  C   UNL     1       3.431  -0.712   2.393  1.00  0.00     0.188 C 
ENDROOT
BRANCH   1   2
ATOM      2  C   UNL     1       4.366  -1.927   2.277  1.00  0.00     0.188 C 
BRANCH   2   3
ATOM      3  O   UNL     1       5.219  -2.211   3.386  1.00  0.00    -0.376 OA
BRANCH   3   4
ATOM      4  C   UNL     1       5.916  -1.129   4.002  1.00  0.00     0.202 C 
BRANCH   4   5
ATOM      5  C   UNL     1       6.876  -0.370   3.082  1.00  0.00     0.261 C 
BRANCH   5   6
ATOM      6  O   UNL     1       6.126   0.407   2.134  1.00  0.00    -0.463 OA
BRANCH   6   7
ATOM      7  C   UNL     1       6.782   0.805   1.014  1.00  0.00     0.316 C 
ATOM      8  O   UNL     1       7.999   0.767   0.881  1.00  0.00    -0.251 OA
BRANCH   7   9
ATOM      9  C   UNL     1       5.815   1.105  -0.117  1.00  0.00     0.197 C 
BRANCH   9  10
ATOM     10  S   UNL     1       4.591   2.404   0.291  1.00  0.00    -0.114 SA
BRANCH  10  11
ATOM     11  C   UNL     1       3.054   1.747  -0.379  1.00  0.00     0.010 A 
ATOM     12  C   UNL     1      -3.007   1.185   0.111  1.00  0.00     0.079 C 
ATOM     13  C   UNL     1      -1.560   1.165  -0.248  1.00  0.00     0.091 A 
ATOM     14  N   UNL     1      -0.629   1.850   0.383  1.00  0.00    -0.241 NA
ATOM     15  S   UNL     1      -1.012   0.204  -1.560  1.00  0.00    -0.119 S 
ATOM     16  C   UNL     1       0.614   1.589  -0.177  1.00  0.00     0.083 A 
ATOM     17  C   UNL     1       0.601   0.728  -1.272  1.00  0.00     0.055 A 
ATOM     18  C   UNL     1       1.855   2.106   0.263  1.00  0.00     0.045 A 
ATOM     19  C   UNL     1       1.776   0.394  -1.961  1.00  0.00     0.022 A 
ATOM     20  C   UNL     1       2.994   0.916  -1.500  1.00  0.00     0.016 A 
ENDBRANCH  10  11
ENDBRANCH   9  10
ENDBRANCH   7   9
ENDBRANCH   6   7
ENDBRANCH   5   6
ENDBRANCH   4   5
ENDBRANCH   3   4
ENDBRANCH   2   3
ENDBRANCH   1   2
BRANCH   1  21
ATOM     21  O   UNL     1       3.054  -0.441   3.735  1.00  0.00    -0.376 OA
BRANCH  21  22
ATOM     22  C   UNL     1       1.656  -0.473   3.978  1.00  0.00     0.202 C 
BRANCH  22  23
ATOM     23  C   UNL     1       1.092  -1.894   3.956  1.00  0.00     0.261 C 
BRANCH  23  24
ATOM     24  O   UNL     1       1.267  -2.548   2.685  1.00  0.00    -0.460 OA
BRANCH  24  25
ATOM     25  C   UNL     1       0.281  -2.384   1.778  1.00  0.00     0.338 C 
ATOM     26  O   UNL     1      -0.746  -1.747   1.912  1.00  0.00    -0.246 OA
BRANCH  25  27
ATOM     27  C   UNL     1       0.631  -3.157   0.569  1.00  0.00     0.060 A 
ATOM     28  C   UNL     1       1.605  -2.699  -0.325  1.00  0.00     0.016 A 
ATOM     29  C   UNL     1      -0.086  -4.318   0.291  1.00  0.00     0.016 A 
ATOM     30  C   UNL     1       1.819  -3.367  -1.534  1.00  0.00     0.010 A 
ATOM     31  C   UNL     1       0.159  -5.007  -0.898  1.00  0.00     0.010 A 
ATOM     32  C   UNL     1       1.083  -4.517  -1.840  1.00  0.00    -0.014 A 
BRANCH  32  33
ATOM     33  C   UNL     1       1.167  -5.170  -3.173  1.00  0.00     0.031 A 
ATOM     34  C   UNL     1      -0.052  -5.172  -4.054  1.00  0.00     0.074 A 
ATOM     35  C   UNL     1       2.286  -5.802  -3.576  1.00  0.00     0.049 A 
ATOM     36  N   UNL     1      -0.321  -5.909  -5.098  1.00  0.00    -0.248 NA
ATOM     37  C   UNL     1      -1.119  -4.221  -3.697  1.00  0.00     0.031 C 
ATOM     38  C   UNL     1       3.555  -5.823  -2.852  1.00  0.00     0.029 A 
ATOM     39  N   UNL     1       2.516  -6.586  -4.682  1.00  0.00    -0.354 N 
ATOM     40  C   UNL     1      -1.615  -5.570  -5.476  1.00  0.00     0.074 A 
ATOM     41  C   UNL     1      -2.068  -4.540  -4.566  1.00  0.00     0.031 C 
ATOM     42  C   UNL     1       4.423  -6.606  -3.514  1.00  0.00     0.029 A 
ATOM     43  C   UNL     1       3.747  -7.201  -4.664  1.00  0.00     0.049 A 
ATOM     44  H   UNL     1       1.866  -6.696  -5.413  1.00  0.00     0.167 HD
ATOM     45  C   UNL     1      -2.358  -6.077  -6.487  1.00  0.00     0.034 A 
ATOM     46  C   UNL     1       4.249  -8.181  -5.443  1.00  0.00     0.034 A 
ATOM     47  C   UNL     1      -1.878  -7.059  -7.421  1.00  0.00     0.049 A 
ATOM     48  C   UNL     1       3.397  -8.750  -6.547  1.00  0.00     0.074 A 
ATOM     49  C   UNL     1      -2.544  -7.625  -8.494  1.00  0.00     0.029 A 
ATOM     50  N   UNL     1      -0.608  -7.614  -7.398  1.00  0.00    -0.354 N 
ATOM     51  N   UNL     1       2.182  -8.415  -6.906  1.00  0.00    -0.248 NA
ATOM     52  C   UNL     1       3.987  -9.826  -7.358  1.00  0.00     0.031 C 
ATOM     53  C   UNL     1      -1.676  -8.528  -9.117  1.00  0.00     0.029 A 
ATOM     54  C   UNL     1      -0.467  -8.512  -8.441  1.00  0.00     0.049 A 
ATOM     55  H   UNL     1       0.090  -7.400  -6.738  1.00  0.00     0.167 HD
ATOM     56  C   UNL     1       1.871  -9.216  -7.999  1.00  0.00     0.074 A 
ATOM     57  C   UNL     1       3.033 -10.043  -8.255  1.00  0.00     0.031 C 
ATOM     58  C   UNL     1       0.722  -9.277  -8.716  1.00  0.00     0.034 A 
BRANCH  45  59
ATOM     59  C   UNL     1      -3.767  -5.573  -6.647  1.00  0.00     0.023 A 
ATOM     60  C   UNL     1      -3.997  -4.299  -7.202  1.00  0.00     0.012 A 
ATOM     61  C   UNL     1      -4.864  -6.388  -6.303  1.00  0.00     0.148 A 
ATOM     62  C   UNL     1      -5.298  -3.835  -7.392  1.00  0.00     0.002 A 
ATOM     63  C   UNL     1      -6.157  -5.933  -6.531  1.00  0.00     0.091 A 
ATOM     64  F   UNL     1      -4.623  -7.585  -5.749  1.00  0.00    -0.205 F 
ATOM     65  C   UNL     1      -6.377  -4.655  -7.068  1.00  0.00     0.022 A 
BRANCH  63  66
ATOM     66  S   UNL     1      -7.605  -6.949  -6.213  1.00  0.00     0.127 S 
ATOM     67  O   UNL     1      -8.130  -6.339  -4.992  1.00  0.00    -0.237 OA
ATOM     68  O   UNL     1      -8.417  -6.717  -7.408  1.00  0.00    -0.237 OA
ATOM     69  O   UNL     1      -7.112  -8.312  -6.072  1.00  0.00    -0.744 OA
ENDBRANCH  63  66
ENDBRANCH  45  59
BRANCH  46  70
ATOM     70  C   UNL     1       5.628  -8.690  -5.195  1.00  0.00     0.023 A 
ATOM     71  C   UNL     1       6.646  -8.420  -6.130  1.00  0.00     0.012 A 
ATOM     72  C   UNL     1       5.949  -9.393  -4.017  1.00  0.00     0.148 A 
ATOM     73  C   UNL     1       7.954  -8.851  -5.901  1.00  0.00     0.002 A 
ATOM     74  C   UNL     1       7.265  -9.764  -3.766  1.00  0.00     0.091 A 
ATOM     75  F   UNL     1       4.963  -9.671  -3.153  1.00  0.00    -0.205 F 
ATOM     76  C   UNL     1       8.267  -9.507  -4.713  1.00  0.00     0.022 A 
BRANCH  74  77
ATOM     77  S   UNL     1       7.771 -10.470  -2.193  1.00  0.00     0.127 S 
ATOM     78  O   UNL     1       7.934 -11.880  -2.536  1.00  0.00    -0.237 OA
ATOM     79  O   UNL     1       9.018  -9.754  -1.923  1.00  0.00    -0.237 OA
ATOM     80  O   UNL     1       6.692 -10.157  -1.266  1.00  0.00    -0.744 OA
ENDBRANCH  74  77
ENDBRANCH  46  70
BRANCH  58  81
ATOM     81  C   UNL     1       0.670 -10.233  -9.877  1.00  0.00     0.023 A 
ATOM     82  C   UNL     1       0.499 -11.610  -9.640  1.00  0.00     0.012 A 
ATOM     83  C   UNL     1       0.696  -9.753 -11.201  1.00  0.00     0.148 A 
ATOM     84  C   UNL     1       0.374 -12.500 -10.707  1.00  0.00     0.002 A 
ATOM     85  C   UNL     1       0.529 -10.640 -12.257  1.00  0.00     0.091 A 
ATOM     86  F   UNL     1       0.878  -8.439 -11.402  1.00  0.00    -0.205 F 
ATOM     87  C   UNL     1       0.376 -12.014 -12.013  1.00  0.00     0.022 A 
BRANCH  85  88
ATOM     88  S   UNL     1       0.431 -10.090 -13.965  1.00  0.00     0.127 S 
ATOM     89  O   UNL     1       1.732 -10.505 -14.486  1.00  0.00    -0.237 OA
ATOM     90  O   UNL     1      -0.705 -10.859 -14.476  1.00  0.00    -0.237 OA
ATOM     91  O   UNL     1       0.208  -8.652 -13.910  1.00  0.00    -0.744 OA
ENDBRANCH  85  88
ENDBRANCH  58  81
ENDBRANCH  32  33
ENDBRANCH  25  27
ENDBRANCH  24  25
ENDBRANCH  23  24
ENDBRANCH  22  23
ENDBRANCH  21  22
ENDBRANCH   1  21
TORSDOF 22
