REMARK SMILES O=C(OCCOCCOCCOC(=O)C(F)(F)[C@H](O)c1ccccc1C1CC1)c1ccc(-c2c3nc(c(-c4cccc(S(=O)(=O)[O-])c4F)c4ccc([nH]4)c(-c4cccc(S(=O)(=O)[O-])c4F)c4nc(c(-c5cccc(S(=O)(=O)[O-])c5F)c5ccc2[nH]5)C=C4)C=C3)cc1
REMARK SMILES IDX 7 1 6 2 5 3 4 4 3 5 2 6 1 7 29 8 30 9 91 10 31 11 90 12
REMARK SMILES IDX 32 13 33 14 34 15 84 16 35 17 89 18 83 19 85 20 36 21 88 22
REMARK SMILES IDX 82 23 81 24 37 26 69 27 49 28 68 29 50 30 53 31 67 32 86 33
REMARK SMILES IDX 51 34 52 35 66 37 87 38 54 39 38 40 39 41 47 42 40 43 42 44
REMARK SMILES IDX 48 45 41 46 43 47 44 48 45 49 46 50 70 51 71 52 79 53 72 54
REMARK SMILES IDX 74 55 80 56 73 57 75 58 76 59 77 60 78 61 55 62 56 63 64 64
REMARK SMILES IDX 57 65 59 66 65 67 58 68 60 69 61 70 62 71 63 72 8 73 9 74
REMARK SMILES IDX 10 75 11 76 12 77 13 78 14 79 15 80 16 81 17 82 18 83 20 84
REMARK SMILES IDX 21 85 25 86 22 87 24 88 23 89 26 90 27 91 28 92 19 93
REMARK H PARENT 85 25 53 36 19 94
REMARK Flexibility Score: inf
ROOT
ATOM      1  C   UNL     1      -3.538   1.180   3.829  1.00  0.00     0.188 C 
ENDROOT
BRANCH   1   2
ATOM      2  O   UNL     1      -3.609   2.444   4.475  1.00  0.00    -0.376 OA
BRANCH   2   3
ATOM      3  C   UNL     1      -4.456   3.453   3.922  1.00  0.00     0.202 C 
BRANCH   3   4
ATOM      4  C   UNL     1      -4.734   3.534   2.402  1.00  0.00     0.261 C 
BRANCH   4   5
ATOM      5  O   UNL     1      -4.139   2.518   1.569  1.00  0.00    -0.460 OA
BRANCH   5   6
ATOM      6  C   UNL     1      -3.055   2.627   0.762  1.00  0.00     0.338 C 
ATOM      7  O   UNL     1      -2.961   1.911  -0.231  1.00  0.00    -0.246 OA
BRANCH   6   8
ATOM      8  C   UNL     1      -1.935   3.545   1.101  1.00  0.00     0.060 A 
ATOM      9  C   UNL     1      -1.721   4.025   2.383  1.00  0.00     0.016 A 
ATOM     10  C   UNL     1      -0.977   3.848   0.125  1.00  0.00     0.016 A 
ATOM     11  C   UNL     1      -0.736   4.948   2.663  1.00  0.00     0.010 A 
ATOM     12  C   UNL     1       0.131   4.642   0.444  1.00  0.00     0.010 A 
ATOM     13  C   UNL     1       0.211   5.263   1.698  1.00  0.00    -0.014 A 
BRANCH  13  14
ATOM     14  C   UNL     1       1.157   6.358   2.003  1.00  0.00     0.031 A 
ATOM     15  C   UNL     1       1.085   7.604   1.168  1.00  0.00     0.074 A 
ATOM     16  C   UNL     1       1.935   6.295   3.105  1.00  0.00     0.049 A 
ATOM     17  N   UNL     1       1.798   8.692   1.248  1.00  0.00    -0.248 NA
ATOM     18  C   UNL     1       0.072   7.632   0.095  1.00  0.00     0.031 C 
ATOM     19  C   UNL     1       2.015   5.152   4.021  1.00  0.00     0.029 A 
ATOM     20  N   UNL     1       2.770   7.221   3.670  1.00  0.00    -0.354 N 
ATOM     21  C   UNL     1       1.365   9.499   0.204  1.00  0.00     0.074 A 
ATOM     22  C   UNL     1       0.341   8.776  -0.509  1.00  0.00     0.031 C 
ATOM     23  C   UNL     1       2.812   5.462   5.055  1.00  0.00     0.029 A 
ATOM     24  C   UNL     1       3.367   6.790   4.835  1.00  0.00     0.049 A 
ATOM     25  H   UNL     1       2.929   8.112   3.281  1.00  0.00     0.167 HD
ATOM     26  C   UNL     1       1.771  10.746  -0.119  1.00  0.00     0.034 A 
ATOM     27  C   UNL     1       4.285   7.394   5.614  1.00  0.00     0.034 A 
ATOM     28  C   UNL     1       2.756  11.466   0.633  1.00  0.00     0.049 A 
ATOM     29  C   UNL     1       4.740   8.770   5.210  1.00  0.00     0.074 A 
ATOM     30  C   UNL     1       3.287  12.716   0.386  1.00  0.00     0.029 A 
ATOM     31  N   UNL     1       3.350  10.992   1.795  1.00  0.00    -0.354 N 
ATOM     32  N   UNL     1       4.322   9.518   4.215  1.00  0.00    -0.248 NA
ATOM     33  C   UNL     1       5.780   9.394   6.037  1.00  0.00     0.031 C 
ATOM     34  C   UNL     1       4.220  12.991   1.392  1.00  0.00     0.029 A 
ATOM     35  C   UNL     1       4.242  11.926   2.282  1.00  0.00     0.049 A 
ATOM     36  H   UNL     1       3.162  10.120   2.210  1.00  0.00     0.167 HD
ATOM     37  C   UNL     1       5.036  10.705   4.305  1.00  0.00     0.074 A 
ATOM     38  C   UNL     1       5.880  10.592   5.479  1.00  0.00     0.031 C 
ATOM     39  C   UNL     1       5.024  11.784   3.483  1.00  0.00     0.034 A 
BRANCH  26  40
ATOM     40  C   UNL     1       1.154  11.375  -1.337  1.00  0.00     0.023 A 
ATOM     41  C   UNL     1      -0.186  11.813  -1.307  1.00  0.00     0.012 A 
ATOM     42  C   UNL     1       1.898  11.503  -2.525  1.00  0.00     0.148 A 
ATOM     43  C   UNL     1      -0.788  12.333  -2.453  1.00  0.00     0.002 A 
ATOM     44  C   UNL     1       1.306  12.064  -3.649  1.00  0.00     0.091 A 
ATOM     45  F   UNL     1       3.160  11.053  -2.539  1.00  0.00    -0.205 F 
ATOM     46  C   UNL     1      -0.041  12.465  -3.620  1.00  0.00     0.022 A 
BRANCH  44  47
ATOM     47  S   UNL     1       2.195  12.331  -5.186  1.00  0.00     0.127 S 
ATOM     48  O   UNL     1       1.460  11.468  -6.108  1.00  0.00    -0.237 OA
ATOM     49  O   UNL     1       2.001  13.763  -5.402  1.00  0.00    -0.237 OA
ATOM     50  O   UNL     1       3.574  11.929  -4.930  1.00  0.00    -0.744 OA
ENDBRANCH  44  47
ENDBRANCH  26  40
BRANCH  27  51
ATOM     51  C   UNL     1       4.852   6.706   6.812  1.00  0.00     0.023 A 
ATOM     52  C   UNL     1       4.664   7.247   8.099  1.00  0.00     0.012 A 
ATOM     53  C   UNL     1       5.604   5.522   6.677  1.00  0.00     0.148 A 
ATOM     54  C   UNL     1       5.248   6.647   9.219  1.00  0.00     0.002 A 
ATOM     55  C   UNL     1       6.133   4.897   7.801  1.00  0.00     0.091 A 
ATOM     56  F   UNL     1       5.797   5.028   5.446  1.00  0.00    -0.205 F 
ATOM     57  C   UNL     1       5.974   5.469   9.071  1.00  0.00     0.022 A 
BRANCH  55  58
ATOM     58  S   UNL     1       6.979   3.316   7.704  1.00  0.00     0.127 S 
ATOM     59  O   UNL     1       8.374   3.715   7.873  1.00  0.00    -0.237 OA
ATOM     60  O   UNL     1       6.404   2.592   8.838  1.00  0.00    -0.237 OA
ATOM     61  O   UNL     1       6.626   2.768   6.401  1.00  0.00    -0.744 OA
ENDBRANCH  55  58
ENDBRANCH  27  51
BRANCH  39  62
ATOM     62  C   UNL     1       5.923  12.929   3.852  1.00  0.00     0.023 A 
ATOM     63  C   UNL     1       7.317  12.806   3.689  1.00  0.00     0.012 A 
ATOM     64  C   UNL     1       5.375  14.147   4.294  1.00  0.00     0.148 A 
ATOM     65  C   UNL     1       8.158  13.872   4.000  1.00  0.00     0.002 A 
ATOM     66  C   UNL     1       6.215  15.222   4.547  1.00  0.00     0.091 A 
ATOM     67  F   UNL     1       4.047  14.230   4.460  1.00  0.00    -0.205 F 
ATOM     68  C   UNL     1       7.606  15.082   4.416  1.00  0.00     0.022 A 
BRANCH  66  69
ATOM     69  S   UNL     1       5.581  16.845   4.976  1.00  0.00     0.127 S 
ATOM     70  O   UNL     1       5.896  16.919   6.402  1.00  0.00    -0.237 OA
ATOM     71  O   UNL     1       6.382  17.726   4.126  1.00  0.00    -0.237 OA
ATOM     72  O   UNL     1       4.161  16.819   4.648  1.00  0.00    -0.744 OA
ENDBRANCH  66  69
ENDBRANCH  39  62
ENDBRANCH  13  14
ENDBRANCH   6   8
ENDBRANCH   5   6
ENDBRANCH   4   5
ENDBRANCH   3   4
ENDBRANCH   2   3
ENDBRANCH   1   2
BRANCH   1  73
ATOM     73  C   UNL     1      -3.139   0.023   4.752  1.00  0.00     0.188 C 
BRANCH  73  74
ATOM     74  O   UNL     1      -3.880  -0.134   5.958  1.00  0.00    -0.376 OA
BRANCH  74  75
ATOM     75  C   UNL     1      -3.901   0.973   6.859  1.00  0.00     0.202 C 
BRANCH  75  76
ATOM     76  C   UNL     1      -2.563   1.444   7.455  1.00  0.00     0.261 C 
BRANCH  76  77
ATOM     77  O   UNL     1      -1.545   1.764   6.489  1.00  0.00    -0.459 OA
BRANCH  77  78
ATOM     78  C   UNL     1      -0.408   0.993   6.512  1.00  0.00     0.380 C 
ATOM     79  O   UNL     1      -0.242   0.056   7.287  1.00  0.00    -0.245 OA
BRANCH  78  80
ATOM     80  C   UNL     1       0.613   1.460   5.460  1.00  0.00     0.372 C 
ATOM     81  F   UNL     1       0.058   2.349   4.584  1.00  0.00    -0.190 F 
ATOM     82  F   UNL     1       1.615   2.171   6.067  1.00  0.00    -0.190 F 
BRANCH  80  83
ATOM     83  C   UNL     1       1.252   0.234   4.708  1.00  0.00     0.227 C 
BRANCH  83  84
ATOM     84  C   UNL     1       0.749  -0.153   3.320  1.00  0.00    -0.009 A 
ATOM     85  C   UNL     1       0.598   0.886   2.370  1.00  0.00     0.007 A 
ATOM     86  C   UNL     1       0.557  -1.497   2.885  1.00  0.00    -0.039 A 
ATOM     87  C   UNL     1       0.156   0.645   1.072  1.00  0.00     0.000 A 
ATOM     88  C   UNL     1       0.033  -1.677   1.575  1.00  0.00     0.004 A 
ATOM     89  C   UNL     1      -0.177  -0.633   0.683  1.00  0.00     0.000 A 
BRANCH  86  90
ATOM     90  C   UNL     1       0.912  -2.807   3.586  1.00  0.00     0.019 C 
ATOM     91  C   UNL     1       1.834  -2.997   4.754  1.00  0.00     0.009 C 
ATOM     92  C   UNL     1       0.347  -3.167   4.930  1.00  0.00     0.009 C 
ENDBRANCH  86  90
ENDBRANCH  83  84
BRANCH  83  93
ATOM     93  O   UNL     1       2.679   0.336   4.562  1.00  0.00    -0.381 OA
ATOM     94  H   UNL     1       2.891   1.043   3.933  1.00  0.00     0.211 HD
ENDBRANCH  83  93
ENDBRANCH  80  83
ENDBRANCH  78  80
ENDBRANCH  77  78
ENDBRANCH  76  77
ENDBRANCH  75  76
ENDBRANCH  74  75
ENDBRANCH  73  74
ENDBRANCH   1  73
TORSDOF 24
