REMARK SMILES CC1=C[C@H](C)[C@H](CN2C[C@]34C=C[C@@H](O3)[C@H](C(=O)OCCOCCOCCOC(=O)c3ccc(-c5c6nc(c(-c7cccc(S(=O)(=O)[O-])c7F)c7ccc([nH]7)c(-c7cccc(S(=O)(=O)[O-])c7F)c7nc(c(-c8cccc(S(=O)(=O)[O-])c8F)c8ccc5[nH]8)C=C7)C=C6)cc3)[C@@H]4C2=O)[C@H](C)C1
REMARK SMILES IDX 23 1 22 2 21 3 20 4 19 5 18 6 16 7 17 8 15 9 8 10 9 11 94 12
REMARK SMILES IDX 10 13 93 14 95 15 11 16 14 17 12 18 13 19 7 20 6 21 1 22
REMARK SMILES IDX 2 23 3 24 98 25 4 26 96 27 5 28 97 29 24 30 25 31 26 32
REMARK SMILES IDX 27 33 28 34 29 35 30 36 31 37 92 38 32 39 91 40 33 41 34 42
REMARK SMILES IDX 35 43 85 44 36 45 90 46 84 47 86 48 37 49 89 50 83 51 82 52
REMARK SMILES IDX 38 54 70 55 50 56 69 57 51 58 54 59 68 60 87 61 52 62 53 63
REMARK SMILES IDX 67 65 88 66 55 67 39 68 40 69 48 70 41 71 43 72 49 73 42 74
REMARK SMILES IDX 44 75 45 76 46 77 47 78 71 79 72 80 80 81 73 82 75 83 81 84
REMARK SMILES IDX 74 85 76 86 77 87 78 88 79 89 56 90 57 91 65 92 58 93 60 94
REMARK SMILES IDX 66 95 59 96 61 97 62 98 63 99 64 100
REMARK H PARENT 86 53 54 64
REMARK Flexibility Score: inf
ROOT
ATOM      1  C   UNL     1      -3.735  -2.219  -5.814  1.00  0.00     0.188 C 
ENDROOT
BRANCH   1   2
ATOM      2  C   UNL     1      -4.288  -1.187  -4.814  1.00  0.00     0.188 C 
BRANCH   2   3
ATOM      3  O   UNL     1      -5.675  -0.942  -4.968  1.00  0.00    -0.376 OA
BRANCH   3   4
ATOM      4  C   UNL     1      -6.014   0.314  -5.521  1.00  0.00     0.202 C 
BRANCH   4   5
ATOM      5  C   UNL     1      -5.722   0.495  -7.016  1.00  0.00     0.261 C 
BRANCH   5   6
ATOM      6  O   UNL     1      -4.401   0.216  -7.524  1.00  0.00    -0.463 OA
BRANCH   6   7
ATOM      7  C   UNL     1      -3.358   0.984  -7.090  1.00  0.00     0.312 C 
ATOM      8  O   UNL     1      -3.422   1.695  -6.103  1.00  0.00    -0.252 OA
BRANCH   7   9
ATOM      9  C   UNL     1      -2.252   0.956  -8.132  1.00  0.00     0.148 C 
ATOM     10  N   UNL     1       0.145   2.030  -5.944  1.00  0.00    -0.339 N 
ATOM     11  C   UNL     1      -0.649   3.049  -6.541  1.00  0.00     0.160 C 
ATOM     12  C   UNL     1       0.074   0.910  -6.712  1.00  0.00     0.230 C 
ATOM     13  C   UNL     1      -0.649   2.889  -8.113  1.00  0.00     0.117 C 
ATOM     14  C   UNL     1      -0.760   1.278  -7.902  1.00  0.00     0.133 C 
ATOM     15  O   UNL     1       0.604  -0.177  -6.531  1.00  0.00    -0.274 OA
ATOM     16  C   UNL     1      -1.817   3.940  -8.087  1.00  0.00     0.009 C 
ATOM     17  O   UNL     1      -1.209   2.528  -9.419  1.00  0.00    -0.360 OA
ATOM     18  C   UNL     1      -2.958   3.402  -8.529  1.00  0.00     0.004 C 
ATOM     19  C   UNL     1      -2.561   2.099  -9.099  1.00  0.00     0.157 C 
BRANCH  10  20
ATOM     20  C   UNL     1       0.688   2.218  -4.593  1.00  0.00     0.124 C 
BRANCH  20  21
ATOM     21  C   UNL     1      -0.451   2.482  -3.555  1.00  0.00     0.018 C 
ATOM     22  C   UNL     1      -0.588   1.062   0.685  1.00  0.00     0.039 C 
ATOM     23  C   UNL     1      -0.686   1.574  -0.727  1.00  0.00    -0.077 C 
ATOM     24  C   UNL     1      -1.308   0.889  -1.691  1.00  0.00    -0.025 C 
ATOM     25  C   UNL     1       0.007   2.869  -0.996  1.00  0.00     0.034 C 
ATOM     26  C   UNL     1      -1.328   1.258  -3.146  1.00  0.00     0.014 C 
ATOM     27  C   UNL     1      -0.167   3.475  -2.392  1.00  0.00    -0.005 C 
ATOM     28  C   UNL     1      -1.117  -0.014  -3.968  1.00  0.00     0.012 C 
ATOM     29  C   UNL     1       0.938   4.493  -2.688  1.00  0.00     0.008 C 
ENDBRANCH  20  21
ENDBRANCH  10  20
ENDBRANCH   7   9
ENDBRANCH   6   7
ENDBRANCH   5   6
ENDBRANCH   4   5
ENDBRANCH   3   4
ENDBRANCH   2   3
ENDBRANCH   1   2
BRANCH   1  30
ATOM     30  O   UNL     1      -4.614  -3.174  -6.404  1.00  0.00    -0.376 OA
BRANCH  30  31
ATOM     31  C   UNL     1      -5.740  -3.618  -5.665  1.00  0.00     0.202 C 
BRANCH  31  32
ATOM     32  C   UNL     1      -5.521  -4.288  -4.294  1.00  0.00     0.261 C 
BRANCH  32  33
ATOM     33  O   UNL     1      -4.429  -3.789  -3.494  1.00  0.00    -0.460 OA
BRANCH  33  34
ATOM     34  C   UNL     1      -3.279  -4.514  -3.534  1.00  0.00     0.338 C 
ATOM     35  O   UNL     1      -3.123  -5.568  -4.131  1.00  0.00    -0.246 OA
BRANCH  34  36
ATOM     36  C   UNL     1      -2.145  -3.789  -2.880  1.00  0.00     0.060 A 
ATOM     37  C   UNL     1      -0.915  -3.728  -3.558  1.00  0.00     0.016 A 
ATOM     38  C   UNL     1      -2.238  -3.221  -1.610  1.00  0.00     0.016 A 
ATOM     39  C   UNL     1       0.221  -3.125  -2.974  1.00  0.00     0.010 A 
ATOM     40  C   UNL     1      -1.094  -2.638  -1.020  1.00  0.00     0.010 A 
ATOM     41  C   UNL     1       0.157  -2.584  -1.684  1.00  0.00    -0.014 A 
BRANCH  41  42
ATOM     42  C   UNL     1       1.382  -2.164  -0.916  1.00  0.00     0.031 A 
ATOM     43  C   UNL     1       1.944  -3.133   0.079  1.00  0.00     0.074 A 
ATOM     44  C   UNL     1       2.075  -1.010  -1.054  1.00  0.00     0.049 A 
ATOM     45  N   UNL     1       2.993  -2.984   0.843  1.00  0.00    -0.248 NA
ATOM     46  C   UNL     1       1.319  -4.463   0.153  1.00  0.00     0.031 C 
ATOM     47  C   UNL     1       1.944  -0.065  -2.139  1.00  0.00     0.029 A 
ATOM     48  N   UNL     1       3.014  -0.399  -0.236  1.00  0.00    -0.354 N 
ATOM     49  C   UNL     1       3.231  -4.229   1.388  1.00  0.00     0.074 A 
ATOM     50  C   UNL     1       2.134  -5.087   0.990  1.00  0.00     0.031 C 
ATOM     51  C   UNL     1       2.591   1.075  -1.836  1.00  0.00     0.029 A 
ATOM     52  C   UNL     1       3.199   0.943  -0.526  1.00  0.00     0.049 A 
ATOM     53  H   UNL     1       3.501  -0.872   0.477  1.00  0.00     0.167 HD
ATOM     54  C   UNL     1       4.327  -4.643   2.059  1.00  0.00     0.034 A 
ATOM     55  C   UNL     1       3.766   1.945   0.185  1.00  0.00     0.034 A 
ATOM     56  C   UNL     1       5.410  -3.795   2.473  1.00  0.00     0.049 A 
ATOM     57  C   UNL     1       4.737   1.542   1.245  1.00  0.00     0.074 A 
ATOM     58  C   UNL     1       6.575  -4.151   3.131  1.00  0.00     0.029 A 
ATOM     59  N   UNL     1       5.454  -2.421   2.306  1.00  0.00    -0.354 N 
ATOM     60  N   UNL     1       5.016   0.340   1.673  1.00  0.00    -0.248 NA
ATOM     61  C   UNL     1       5.615   2.599   1.765  1.00  0.00     0.031 C 
ATOM     62  C   UNL     1       7.298  -2.986   3.409  1.00  0.00     0.029 A 
ATOM     63  C   UNL     1       6.604  -1.908   2.888  1.00  0.00     0.049 A 
ATOM     64  H   UNL     1       4.770  -1.886   1.843  1.00  0.00     0.167 HD
ATOM     65  C   UNL     1       6.195   0.471   2.386  1.00  0.00     0.074 A 
ATOM     66  C   UNL     1       6.533   1.880   2.392  1.00  0.00     0.031 C 
ATOM     67  C   UNL     1       6.958  -0.513   2.914  1.00  0.00     0.034 A 
BRANCH  54  68
ATOM     68  C   UNL     1       4.424  -6.113   2.318  1.00  0.00     0.023 A 
ATOM     69  C   UNL     1       4.715  -6.984   1.246  1.00  0.00     0.012 A 
ATOM     70  C   UNL     1       4.258  -6.625   3.612  1.00  0.00     0.148 A 
ATOM     71  C   UNL     1       4.816  -8.355   1.459  1.00  0.00     0.002 A 
ATOM     72  C   UNL     1       4.402  -7.988   3.825  1.00  0.00     0.091 A 
ATOM     73  F   UNL     1       3.953  -5.773   4.601  1.00  0.00    -0.205 F 
ATOM     74  C   UNL     1       4.670  -8.855   2.751  1.00  0.00     0.022 A 
BRANCH  72  75
ATOM     75  S   UNL     1       4.295  -8.722   5.457  1.00  0.00     0.127 S 
ATOM     76  O   UNL     1       3.131  -9.596   5.311  1.00  0.00    -0.237 OA
ATOM     77  O   UNL     1       5.575  -9.420   5.558  1.00  0.00    -0.237 OA
ATOM     78  O   UNL     1       4.121  -7.616   6.388  1.00  0.00    -0.744 OA
ENDBRANCH  72  75
ENDBRANCH  54  68
BRANCH  55  79
ATOM     79  C   UNL     1       3.615   3.406  -0.116  1.00  0.00     0.023 A 
ATOM     80  C   UNL     1       4.508   4.055  -0.984  1.00  0.00     0.012 A 
ATOM     81  C   UNL     1       2.648   4.184   0.568  1.00  0.00     0.148 A 
ATOM     82  C   UNL     1       4.441   5.441  -1.171  1.00  0.00     0.002 A 
ATOM     83  C   UNL     1       2.542   5.554   0.325  1.00  0.00     0.091 A 
ATOM     84  F   UNL     1       1.847   3.571   1.452  1.00  0.00    -0.205 F 
ATOM     85  C   UNL     1       3.452   6.187  -0.532  1.00  0.00     0.022 A 
BRANCH  83  86
ATOM     86  S   UNL     1       1.161   6.546   0.933  1.00  0.00     0.127 S 
ATOM     87  O   UNL     1       1.778   7.296   2.023  1.00  0.00    -0.237 OA
ATOM     88  O   UNL     1       0.815   7.348  -0.243  1.00  0.00    -0.237 OA
ATOM     89  O   UNL     1       0.136   5.586   1.318  1.00  0.00    -0.744 OA
ENDBRANCH  83  86
ENDBRANCH  55  79
BRANCH  67  90
ATOM     90  C   UNL     1       8.276  -0.099   3.502  1.00  0.00     0.023 A 
ATOM     91  C   UNL     1       8.317   0.689   4.670  1.00  0.00     0.012 A 
ATOM     92  C   UNL     1       9.480  -0.471   2.873  1.00  0.00     0.148 A 
ATOM     93  C   UNL     1       9.533   1.153   5.166  1.00  0.00     0.002 A 
ATOM     94  C   UNL     1      10.691  -0.060   3.412  1.00  0.00     0.091 A 
ATOM     95  F   UNL     1       9.419  -1.194   1.746  1.00  0.00    -0.205 F 
ATOM     96  C   UNL     1      10.719   0.770   4.544  1.00  0.00     0.022 A 
BRANCH  94  97
ATOM     97  S   UNL     1      12.271  -0.586   2.743  1.00  0.00     0.127 S 
ATOM     98  O   UNL     1      12.787   0.660   2.179  1.00  0.00    -0.237 OA
ATOM     99  O   UNL     1      12.971  -1.049   3.942  1.00  0.00    -0.237 OA
ATOM    100  O   UNL     1      11.973  -1.633   1.775  1.00  0.00    -0.744 OA
ENDBRANCH  94  97
ENDBRANCH  67  90
ENDBRANCH  41  42
ENDBRANCH  34  36
ENDBRANCH  33  34
ENDBRANCH  32  33
ENDBRANCH  31  32
ENDBRANCH  30  31
ENDBRANCH   1  30
TORSDOF 22
