REMARK SMILES C[C@@H]1CCC[C@H](C)[N@H+]1Cc1cc2c(cc1Cl)C=C(C(=O)OCCOCCOCCOC(=O)c1ccc(-c3c4nc(c(-c5cccc(S(=O)(=O)[O-])c5F)c5ccc([nH]5)c(-c5cccc(S(=O)(=O)[O-])c5F)c5nc(c(-c6cccc(S(=O)(=O)[O-])c6F)c6ccc3[nH]6)C=C5)C=C4)cc1)[C@@H](C(F)(F)F)O2
REMARK SMILES IDX 26 1 25 2 24 3 23 4 22 5 21 6 19 7 20 8 18 9 10 10 11 11
REMARK SMILES IDX 15 12 12 13 14 14 16 15 13 16 101 17 17 18 96 19 9 20 8 21
REMARK SMILES IDX 7 22 6 23 5 24 4 25 2 26 3 28 1 29 97 30 98 31 99 32 100 33
REMARK SMILES IDX 27 34 28 35 29 36 30 37 31 38 32 39 33 40 34 41 95 42 35 43
REMARK SMILES IDX 94 44 36 45 37 46 38 47 88 48 39 49 93 50 87 51 89 52 40 53
REMARK SMILES IDX 92 54 86 55 85 56 41 58 73 59 53 60 72 61 54 62 57 63 71 64
REMARK SMILES IDX 90 65 55 66 56 67 70 69 91 70 58 71 42 72 43 73 51 74 44 75
REMARK SMILES IDX 46 76 52 77 45 78 47 79 48 80 49 81 50 82 74 83 75 84 83 85
REMARK SMILES IDX 76 86 78 87 84 88 77 89 79 90 80 91 81 92 82 93 59 94 60 95
REMARK SMILES IDX 68 96 61 97 63 98 69 99 62 100 64 101 65 102 66 103 67 104
REMARK H PARENT 8 27 89 57 57 68
REMARK Flexibility Score: inf
ROOT
ATOM      1  C   UNL     1      -3.904   7.195  -2.015  1.00  0.00     0.188 C 
ENDROOT
BRANCH   1   2
ATOM      2  C   UNL     1      -3.264   8.519  -2.483  1.00  0.00     0.188 C 
BRANCH   2   3
ATOM      3  O   UNL     1      -4.199   9.552  -2.689  1.00  0.00    -0.376 OA
BRANCH   3   4
ATOM      4  C   UNL     1      -4.671   9.829  -3.995  1.00  0.00     0.202 C 
BRANCH   4   5
ATOM      5  C   UNL     1      -4.819   8.777  -5.115  1.00  0.00     0.261 C 
BRANCH   5   6
ATOM      6  O   UNL     1      -4.232   7.487  -4.912  1.00  0.00    -0.460 OA
BRANCH   6   7
ATOM      7  C   UNL     1      -3.039   7.283  -5.512  1.00  0.00     0.338 C 
ATOM      8  O   UNL     1      -2.429   8.097  -6.192  1.00  0.00    -0.246 OA
BRANCH   7   9
ATOM      9  C   UNL     1      -2.497   5.963  -5.136  1.00  0.00     0.087 C 
ATOM     10  C   UNL     1       0.570   2.103  -4.069  1.00  0.00     0.029 A 
ATOM     11  C   UNL     1      -0.834   2.263  -4.112  1.00  0.00     0.058 A 
ATOM     12  C   UNL     1       1.361   3.190  -4.479  1.00  0.00     0.050 A 
ATOM     13  C   UNL     1      -1.413   3.497  -4.437  1.00  0.00     0.128 A 
ATOM     14  C   UNL     1       0.786   4.441  -4.718  1.00  0.00     0.033 A 
ATOM     15  Cl  UNL     1       3.062   3.069  -4.752  1.00  0.00    -0.084 Cl
ATOM     16  C   UNL     1      -0.597   4.600  -4.677  1.00  0.00     0.019 A 
ATOM     17  O   UNL     1      -2.780   3.568  -4.464  1.00  0.00    -0.475 OA
ATOM     18  C   UNL     1      -1.178   5.907  -4.918  1.00  0.00     0.027 C 
ATOM     19  C   UNL     1      -3.390   4.751  -5.070  1.00  0.00     0.316 C 
BRANCH  10  20
ATOM     20  C   UNL     1       1.171   0.800  -3.567  1.00  0.00     0.301 C 
BRANCH  20  21
ATOM     21  N   UNL     1       1.470   0.678  -2.121  1.00  0.00    -0.327 N 
ATOM     22  C   UNL     1       0.600  -0.436  -0.079  1.00  0.00     0.075 C 
ATOM     23  C   UNL     1       0.301   0.525  -1.245  1.00  0.00     0.181 C 
ATOM     24  C   UNL     1      -0.252   1.857  -0.715  1.00  0.00     0.065 C 
ATOM     25  C   UNL     1       0.823   2.776  -0.144  1.00  0.00     0.012 C 
ATOM     26  C   UNL     1       2.534   1.566  -1.619  1.00  0.00     0.181 C 
ATOM     27  H   UNL     1       1.907  -0.242  -2.059  1.00  0.00     0.348 HD
ATOM     28  C   UNL     1       2.018   2.911  -1.080  1.00  0.00     0.065 C 
ATOM     29  C   UNL     1       3.427   0.876  -0.576  1.00  0.00     0.075 C 
ENDBRANCH  20  21
ENDBRANCH  10  20
BRANCH  19  30
ATOM     30  C   UNL     1      -3.953   4.412  -6.457  1.00  0.00     0.430 C 
ATOM     31  F   UNL     1      -4.731   3.304  -6.424  1.00  0.00    -0.167 F 
ATOM     32  F   UNL     1      -4.733   5.416  -6.929  1.00  0.00    -0.167 F 
ATOM     33  F   UNL     1      -2.980   4.197  -7.370  1.00  0.00    -0.167 F 
ENDBRANCH  19  30
ENDBRANCH   7   9
ENDBRANCH   6   7
ENDBRANCH   5   6
ENDBRANCH   4   5
ENDBRANCH   3   4
ENDBRANCH   2   3
ENDBRANCH   1   2
BRANCH   1  34
ATOM     34  O   UNL     1      -5.319   7.070  -1.965  1.00  0.00    -0.376 OA
BRANCH  34  35
ATOM     35  C   UNL     1      -6.081   8.061  -1.284  1.00  0.00     0.202 C 
BRANCH  35  36
ATOM     36  C   UNL     1      -5.682   8.574   0.114  1.00  0.00     0.261 C 
BRANCH  36  37
ATOM     37  O   UNL     1      -4.294   8.873   0.308  1.00  0.00    -0.460 OA
BRANCH  37  38
ATOM     38  C   UNL     1      -3.609   8.009   1.105  1.00  0.00     0.338 C 
ATOM     39  O   UNL     1      -4.048   7.024   1.668  1.00  0.00    -0.246 OA
BRANCH  38  40
ATOM     40  C   UNL     1      -2.170   8.336   1.014  1.00  0.00     0.060 A 
ATOM     41  C   UNL     1      -1.702   9.591   1.403  1.00  0.00     0.016 A 
ATOM     42  C   UNL     1      -1.284   7.371   0.511  1.00  0.00     0.016 A 
ATOM     43  C   UNL     1      -0.339   9.874   1.299  1.00  0.00     0.010 A 
ATOM     44  C   UNL     1       0.075   7.664   0.389  1.00  0.00     0.010 A 
ATOM     45  C   UNL     1       0.561   8.913   0.800  1.00  0.00    -0.014 A 
BRANCH  45  46
ATOM     46  C   UNL     1       2.020   9.158   0.893  1.00  0.00     0.031 A 
ATOM     47  C   UNL     1       2.848   9.547  -0.294  1.00  0.00     0.074 A 
ATOM     48  C   UNL     1       2.603   9.011   2.098  1.00  0.00     0.049 A 
ATOM     49  N   UNL     1       4.107   9.899  -0.327  1.00  0.00    -0.248 NA
ATOM     50  C   UNL     1       2.190   9.538  -1.609  1.00  0.00     0.031 C 
ATOM     51  C   UNL     1       1.911   8.570   3.311  1.00  0.00     0.029 A 
ATOM     52  N   UNL     1       3.896   9.214   2.503  1.00  0.00    -0.354 N 
ATOM     53  C   UNL     1       4.399  10.159  -1.659  1.00  0.00     0.074 A 
ATOM     54  C   UNL     1       3.187   9.900  -2.410  1.00  0.00     0.031 C 
ATOM     55  C   UNL     1       2.783   8.555   4.329  1.00  0.00     0.029 A 
ATOM     56  C   UNL     1       4.095   8.972   3.840  1.00  0.00     0.049 A 
ATOM     57  H   UNL     1       4.613   9.506   1.894  1.00  0.00     0.167 HD
ATOM     58  C   UNL     1       5.563  10.599  -2.196  1.00  0.00     0.034 A 
ATOM     59  C   UNL     1       5.202   9.082   4.598  1.00  0.00     0.034 A 
ATOM     60  C   UNL     1       6.762  10.861  -1.443  1.00  0.00     0.049 A 
ATOM     61  C   UNL     1       6.475   9.580   3.982  1.00  0.00     0.074 A 
ATOM     62  C   UNL     1       7.966  11.370  -1.901  1.00  0.00     0.029 A 
ATOM     63  N   UNL     1       6.921  10.624  -0.087  1.00  0.00    -0.354 N 
ATOM     64  N   UNL     1       6.692   9.959   2.747  1.00  0.00    -0.248 NA
ATOM     65  C   UNL     1       7.645   9.697   4.864  1.00  0.00     0.031 C 
ATOM     66  C   UNL     1       8.859  11.421  -0.826  1.00  0.00     0.029 A 
ATOM     67  C   UNL     1       8.205  10.965   0.306  1.00  0.00     0.049 A 
ATOM     68  H   UNL     1       6.224  10.266   0.509  1.00  0.00     0.167 HD
ATOM     69  C   UNL     1       8.017  10.375   2.704  1.00  0.00     0.074 A 
ATOM     70  C   UNL     1       8.550  10.215   4.042  1.00  0.00     0.031 C 
ATOM     71  C   UNL     1       8.723  10.836   1.644  1.00  0.00     0.034 A 
BRANCH  58  72
ATOM     72  C   UNL     1       5.595  10.897  -3.671  1.00  0.00     0.023 A 
ATOM     73  C   UNL     1       5.012  12.092  -4.137  1.00  0.00     0.012 A 
ATOM     74  C   UNL     1       6.303  10.074  -4.568  1.00  0.00     0.148 A 
ATOM     75  C   UNL     1       5.123  12.460  -5.477  1.00  0.00     0.002 A 
ATOM     76  C   UNL     1       6.432  10.461  -5.898  1.00  0.00     0.091 A 
ATOM     77  F   UNL     1       6.845   8.940  -4.102  1.00  0.00    -0.205 F 
ATOM     78  C   UNL     1       5.841  11.651  -6.353  1.00  0.00     0.022 A 
BRANCH  76  79
ATOM     79  S   UNL     1       7.379   9.520  -7.100  1.00  0.00     0.127 S 
ATOM     80  O   UNL     1       6.329   9.074  -8.015  1.00  0.00    -0.237 OA
ATOM     81  O   UNL     1       8.275  10.538  -7.650  1.00  0.00    -0.237 OA
ATOM     82  O   UNL     1       8.041   8.460  -6.353  1.00  0.00    -0.744 OA
ENDBRANCH  76  79
ENDBRANCH  58  72
BRANCH  59  83
ATOM     83  C   UNL     1       5.105   8.776   6.049  1.00  0.00     0.023 A 
ATOM     84  C   UNL     1       5.033   9.834   6.973  1.00  0.00     0.012 A 
ATOM     85  C   UNL     1       4.971   7.448   6.498  1.00  0.00     0.148 A 
ATOM     86  C   UNL     1       4.829   9.574   8.328  1.00  0.00     0.002 A 
ATOM     87  C   UNL     1       4.730   7.199   7.842  1.00  0.00     0.091 A 
ATOM     88  F   UNL     1       5.037   6.465   5.590  1.00  0.00    -0.205 F 
ATOM     89  C   UNL     1       4.666   8.259   8.761  1.00  0.00     0.022 A 
BRANCH  87  90
ATOM     90  S   UNL     1       4.404   5.552   8.479  1.00  0.00     0.127 S 
ATOM     91  O   UNL     1       5.503   5.377   9.427  1.00  0.00    -0.237 OA
ATOM     92  O   UNL     1       3.086   5.725   9.088  1.00  0.00    -0.237 OA
ATOM     93  O   UNL     1       4.431   4.665   7.324  1.00  0.00    -0.744 OA
ENDBRANCH  87  90
ENDBRANCH  59  83
BRANCH  71  94
ATOM     94  C   UNL     1      10.163  11.215   1.862  1.00  0.00     0.023 A 
ATOM     95  C   UNL     1      11.140  10.203   1.940  1.00  0.00     0.012 A 
ATOM     96  C   UNL     1      10.561  12.566   1.859  1.00  0.00     0.148 A 
ATOM     97  C   UNL     1      12.493  10.532   2.016  1.00  0.00     0.002 A 
ATOM     98  C   UNL     1      11.913  12.886   1.902  1.00  0.00     0.091 A 
ATOM     99  F   UNL     1       9.611  13.510   1.791  1.00  0.00    -0.205 F 
ATOM    100  C   UNL     1      12.880  11.870   1.984  1.00  0.00     0.022 A 
BRANCH  98 101
ATOM    101  S   UNL     1      12.517  14.575   1.799  1.00  0.00     0.127 S 
ATOM    102  O   UNL     1      13.142  14.748   3.110  1.00  0.00    -0.237 OA
ATOM    103  O   UNL     1      13.456  14.498   0.680  1.00  0.00    -0.237 OA
ATOM    104  O   UNL     1      11.347  15.410   1.559  1.00  0.00    -0.744 OA
ENDBRANCH  98 101
ENDBRANCH  71  94
ENDBRANCH  45  46
ENDBRANCH  38  40
ENDBRANCH  37  38
ENDBRANCH  36  37
ENDBRANCH  35  36
ENDBRANCH  34  35
ENDBRANCH   1  34
TORSDOF 23
