REMARK SMILES Cc1ccc(S(=O)(=O)n2cc(C(=O)C(=O)NCC(=O)OCCOCCOCCOC(=O)c3ccc(-c4c5nc(c(-c6cccc(S(=O)(=O)[O-])c6F)c6ccc([nH]6)c(-c6cccc(S(=O)(=O)[O-])c6F)c6nc(c(-c7cccc(S(=O)(=O)[O-])c7F)c7ccc4[nH]7)C=C6)C=C5)cc3)c3ccccc32)cc1
REMARK SMILES IDX 24 1 23 2 22 3 21 4 20 5 18 6 19 7 17 8 16 9 14 10 15 11
REMARK SMILES IDX 12 13 13 14 11 15 9 16 10 17 100 18 95 19 99 20 96 21 98 22
REMARK SMILES IDX 97 23 6 24 7 25 8 26 5 27 1 28 2 29 3 30 102 31 4 32 101 33
REMARK SMILES IDX 25 34 26 35 27 36 28 37 29 38 30 39 31 40 32 41 33 42 94 43
REMARK SMILES IDX 34 44 93 45 35 46 36 47 37 48 87 49 38 50 92 51 86 52 88 53
REMARK SMILES IDX 39 54 91 55 85 56 84 57 40 59 72 60 52 61 71 62 53 63 56 64
REMARK SMILES IDX 70 65 89 66 54 67 55 68 69 70 90 71 57 72 41 73 42 74 50 75
REMARK SMILES IDX 43 76 45 77 51 78 44 79 46 80 47 81 48 82 49 83 73 84 74 85
REMARK SMILES IDX 82 86 75 87 77 88 83 89 76 90 78 91 79 92 80 93 81 94 58 95
REMARK SMILES IDX 59 96 67 97 60 98 62 99 68 100 61 101 63 102 64 103 65 104
REMARK SMILES IDX 66 105
REMARK H PARENT 16 12 88 58 56 69
REMARK Flexibility Score: inf
ROOT
ATOM      1  C   UNL     1     -12.140   2.874   3.634  1.00  0.00     0.188 C 
ENDROOT
BRANCH   1   2
ATOM      2  O   UNL     1     -12.521   2.972   2.261  1.00  0.00    -0.376 OA
BRANCH   2   3
ATOM      3  C   UNL     1     -11.568   3.845   1.584  1.00  0.00     0.202 C 
BRANCH   3   4
ATOM      4  C   UNL     1     -10.233   3.033   1.291  1.00  0.00     0.261 C 
BRANCH   4   5
ATOM      5  O   UNL     1      -8.738   3.422   1.553  1.00  0.00    -0.462 OA
BRANCH   5   6
ATOM      6  C   UNL     1      -7.940   4.524   1.736  1.00  0.00     0.325 C 
ATOM      7  O   UNL     1      -8.224   5.707   1.763  1.00  0.00    -0.250 OA
BRANCH   6   8
ATOM      8  C   UNL     1      -6.497   4.321   1.894  1.00  0.00     0.239 C 
BRANCH   8   9
ATOM      9  N   UNL     1      -6.109   3.381   2.899  1.00  0.00    -0.338 N 
ATOM     10  C   UNL     1      -4.777   3.073   3.017  1.00  0.00     0.292 C 
ATOM     11  O   UNL     1      -4.319   2.382   3.913  1.00  0.00    -0.265 OA
ATOM     12  H   UNL     1      -6.779   2.967   3.490  1.00  0.00     0.164 HD
BRANCH  10  13
ATOM     13  C   UNL     1      -3.908   3.601   1.849  1.00  0.00     0.252 C 
ATOM     14  O   UNL     1      -3.299   4.654   1.979  1.00  0.00    -0.283 OA
BRANCH  13  15
ATOM     15  C   UNL     1      -3.975   2.848   0.604  1.00  0.00     0.054 A 
ATOM     16  N   UNL     1      -3.960   1.058  -0.689  1.00  0.00    -0.240 N 
ATOM     17  C   UNL     1      -4.283   1.506   0.560  1.00  0.00     0.117 A 
ATOM     18  C   UNL     1      -3.713   2.115  -1.543  1.00  0.00     0.065 A 
ATOM     19  C   UNL     1      -3.788   3.275  -0.752  1.00  0.00     0.012 A 
ATOM     20  C   UNL     1      -3.383   2.169  -2.905  1.00  0.00     0.028 A 
ATOM     21  C   UNL     1      -3.629   4.531  -1.378  1.00  0.00     0.011 A 
ATOM     22  C   UNL     1      -3.211   3.424  -3.493  1.00  0.00     0.002 A 
ATOM     23  C   UNL     1      -3.357   4.589  -2.749  1.00  0.00     0.001 A 
BRANCH  16  24
ATOM     24  S   UNL     1      -3.276  -0.496  -0.865  1.00  0.00     0.268 S 
ATOM     25  O   UNL     1      -3.355  -0.880  -2.231  1.00  0.00    -0.201 OA
ATOM     26  O   UNL     1      -3.892  -1.301   0.208  1.00  0.00    -0.201 OA
BRANCH  24  27
ATOM     27  C   UNL     1      -1.559  -0.311  -0.422  1.00  0.00     0.088 A 
ATOM     28  C   UNL     1       2.687  -0.062   0.168  1.00  0.00     0.044 C 
ATOM     29  C   UNL     1       1.198  -0.152   0.031  1.00  0.00    -0.051 A 
ATOM     30  C   UNL     1       0.573  -1.397  -0.120  1.00  0.00     0.005 A 
ATOM     31  C   UNL     1       0.423   1.008   0.014  1.00  0.00     0.005 A 
ATOM     32  C   UNL     1      -0.801  -1.479  -0.344  1.00  0.00     0.022 A 
ATOM     33  C   UNL     1      -0.950   0.930  -0.210  1.00  0.00     0.022 A 
ENDBRANCH  24  27
ENDBRANCH  16  24
ENDBRANCH  13  15
ENDBRANCH  10  13
ENDBRANCH   8   9
ENDBRANCH   6   8
ENDBRANCH   5   6
ENDBRANCH   4   5
ENDBRANCH   3   4
ENDBRANCH   2   3
ENDBRANCH   1   2
BRANCH   1  34
ATOM     34  C   UNL     1     -12.742   1.719   4.423  1.00  0.00     0.188 C 
BRANCH  34  35
ATOM     35  O   UNL     1     -14.000   1.907   5.066  1.00  0.00    -0.376 OA
BRANCH  35  36
ATOM     36  C   UNL     1     -14.341   3.227   5.480  1.00  0.00     0.202 C 
BRANCH  36  37
ATOM     37  C   UNL     1     -13.548   3.840   6.661  1.00  0.00     0.261 C 
BRANCH  37  38
ATOM     38  O   UNL     1     -12.129   3.879   6.425  1.00  0.00    -0.460 OA
BRANCH  38  39
ATOM     39  C   UNL     1     -11.430   4.867   7.073  1.00  0.00     0.338 C 
ATOM     40  O   UNL     1     -11.756   5.392   8.121  1.00  0.00    -0.246 OA
BRANCH  39  41
ATOM     41  C   UNL     1     -10.447   5.390   6.076  1.00  0.00     0.060 A 
ATOM     42  C   UNL     1     -10.352   6.738   5.786  1.00  0.00     0.016 A 
ATOM     43  C   UNL     1      -9.905   4.545   5.156  1.00  0.00     0.016 A 
ATOM     44  C   UNL     1     -10.024   7.179   4.466  1.00  0.00     0.010 A 
ATOM     45  C   UNL     1      -9.810   5.023   3.832  1.00  0.00     0.010 A 
ATOM     46  C   UNL     1     -10.028   6.334   3.359  1.00  0.00    -0.014 A 
BRANCH  46  47
ATOM     47  C   UNL     1     -10.447   6.861   1.837  1.00  0.00     0.031 A 
ATOM     48  C   UNL     1      -9.781   6.680   0.313  1.00  0.00     0.074 A 
ATOM     49  C   UNL     1     -11.478   7.743   1.806  1.00  0.00     0.049 A 
ATOM     50  N   UNL     1      -9.339   7.625  -0.502  1.00  0.00    -0.248 NA
ATOM     51  C   UNL     1      -9.560   5.398  -0.385  1.00  0.00     0.031 C 
ATOM     52  C   UNL     1     -12.028   8.400   0.626  1.00  0.00     0.029 A 
ATOM     53  N   UNL     1     -12.055   8.463   2.858  1.00  0.00    -0.354 N 
ATOM     54  C   UNL     1      -8.849   7.004  -1.688  1.00  0.00     0.074 A 
ATOM     55  C   UNL     1      -8.749   5.631  -1.404  1.00  0.00     0.031 C 
ATOM     56  C   UNL     1     -12.468   9.611   1.013  1.00  0.00     0.029 A 
ATOM     57  C   UNL     1     -12.098   9.781   2.413  1.00  0.00     0.049 A 
ATOM     58  H   UNL     1     -12.364   8.113   3.725  1.00  0.00     0.167 HD
ATOM     59  C   UNL     1      -8.834   7.498  -2.966  1.00  0.00     0.034 A 
ATOM     60  C   UNL     1     -11.360  10.800   2.953  1.00  0.00     0.034 A 
ATOM     61  C   UNL     1      -9.459   8.787  -2.964  1.00  0.00     0.049 A 
ATOM     62  C   UNL     1     -10.614  11.612   1.906  1.00  0.00     0.074 A 
ATOM     63  C   UNL     1     -10.785   9.172  -3.048  1.00  0.00     0.029 A 
ATOM     64  N   UNL     1      -8.759   9.830  -2.413  1.00  0.00    -0.354 N 
ATOM     65  N   UNL     1     -10.486  11.278   0.650  1.00  0.00    -0.248 NA
ATOM     66  C   UNL     1      -9.917  12.859   2.217  1.00  0.00     0.031 C 
ATOM     67  C   UNL     1     -10.899  10.407  -2.358  1.00  0.00     0.029 A 
ATOM     68  C   UNL     1      -9.635  10.789  -1.943  1.00  0.00     0.049 A 
ATOM     69  H   UNL     1      -7.777   9.887  -2.360  1.00  0.00     0.167 HD
ATOM     70  C   UNL     1      -9.602  12.133   0.040  1.00  0.00     0.074 A 
ATOM     71  C   UNL     1      -9.341  13.149   1.040  1.00  0.00     0.031 C 
ATOM     72  C   UNL     1      -9.082  11.906  -1.203  1.00  0.00     0.034 A 
BRANCH  59  73
ATOM     73  C   UNL     1      -8.671   6.591  -4.209  1.00  0.00     0.023 A 
ATOM     74  C   UNL     1      -9.582   6.751  -5.275  1.00  0.00     0.012 A 
ATOM     75  C   UNL     1      -7.761   5.504  -4.335  1.00  0.00     0.148 A 
ATOM     76  C   UNL     1      -9.682   5.826  -6.328  1.00  0.00     0.002 A 
ATOM     77  C   UNL     1      -7.920   4.530  -5.340  1.00  0.00     0.091 A 
ATOM     78  F   UNL     1      -6.743   5.396  -3.466  1.00  0.00    -0.205 F 
ATOM     79  C   UNL     1      -8.885   4.690  -6.337  1.00  0.00     0.022 A 
BRANCH  77  80
ATOM     80  S   UNL     1      -7.082   2.926  -5.248  1.00  0.00     0.127 S 
ATOM     81  O   UNL     1      -8.041   2.017  -5.885  1.00  0.00    -0.237 OA
ATOM     82  O   UNL     1      -5.860   3.145  -6.016  1.00  0.00    -0.237 OA
ATOM     83  O   UNL     1      -6.923   2.683  -3.817  1.00  0.00    -0.744 OA
ENDBRANCH  77  80
ENDBRANCH  59  73
BRANCH  60  84
ATOM     84  C   UNL     1     -10.922  10.694   4.398  1.00  0.00     0.023 A 
ATOM     85  C   UNL     1     -11.910  10.412   5.376  1.00  0.00     0.012 A 
ATOM     86  C   UNL     1      -9.570  10.653   4.811  1.00  0.00     0.148 A 
ATOM     87  C   UNL     1     -11.572  10.055   6.688  1.00  0.00     0.002 A 
ATOM     88  C   UNL     1      -9.236  10.256   6.116  1.00  0.00     0.091 A 
ATOM     89  F   UNL     1      -8.610  10.907   3.913  1.00  0.00    -0.205 F 
ATOM     90  C   UNL     1     -10.235   9.970   7.056  1.00  0.00     0.022 A 
BRANCH  88  91
ATOM     91  S   UNL     1      -7.536   9.836   6.569  1.00  0.00     0.127 S 
ATOM     92  O   UNL     1      -7.724   8.773   7.559  1.00  0.00    -0.237 OA
ATOM     93  O   UNL     1      -6.929   9.386   5.325  1.00  0.00    -0.237 OA
ATOM     94  O   UNL     1      -7.055  11.101   7.113  1.00  0.00    -0.744 OA
ENDBRANCH  88  91
ENDBRANCH  60  84
BRANCH  72  95
ATOM     95  C   UNL     1      -7.909  12.647  -1.814  1.00  0.00     0.023 A 
ATOM     96  C   UNL     1      -6.888  13.204  -1.027  1.00  0.00     0.012 A 
ATOM     97  C   UNL     1      -7.685  12.592  -3.216  1.00  0.00     0.148 A 
ATOM     98  C   UNL     1      -5.728  13.736  -1.601  1.00  0.00     0.002 A 
ATOM     99  C   UNL     1      -6.472  12.996  -3.764  1.00  0.00     0.091 A 
ATOM    100  F   UNL     1      -8.643  12.121  -4.031  1.00  0.00    -0.205 F 
ATOM    101  C   UNL     1      -5.505  13.607  -2.966  1.00  0.00     0.022 A 
BRANCH  99 102
ATOM    102  S   UNL     1      -6.063  12.536  -5.455  1.00  0.00     0.127 S 
ATOM    103  O   UNL     1      -6.774  13.542  -6.238  1.00  0.00    -0.237 OA
ATOM    104  O   UNL     1      -4.605  12.663  -5.486  1.00  0.00    -0.237 OA
ATOM    105  O   UNL     1      -6.542  11.163  -5.569  1.00  0.00    -0.744 OA
ENDBRANCH  99 102
ENDBRANCH  72  95
ENDBRANCH  46  47
ENDBRANCH  39  41
ENDBRANCH  38  39
ENDBRANCH  37  38
ENDBRANCH  36  37
ENDBRANCH  35  36
ENDBRANCH  34  35
ENDBRANCH   1  34
TORSDOF 25
