REMARK SMILES CCCCCCNC(=O)Oc1cccc(-c2ccc([C@@H](C)C(=O)OCCOCCOCCOC(=O)c3ccc(-c4c5nc(c(-c6cccc(S(=O)(=O)[O-])c6F)c6ccc([nH]6)c(-c6cccc(S(=O)(=O)[O-])c6F)c6nc(c(-c7cccc(S(=O)(=O)[O-])c7F)c7ccc4[nH]7)C=C6)C=C5)cc3)cc2O)c1
REMARK SMILES IDX 25 1 24 2 22 3 23 4 20 5 21 6 19 7 16 8 17 9 100 10 18 11
REMARK SMILES IDX 99 12 15 13 11 14 12 15 102 16 13 17 14 18 10 19 8 20 7 21
REMARK SMILES IDX 9 23 6 24 5 25 4 26 3 27 2 28 1 29 101 30 26 32 27 33 28 34
REMARK SMILES IDX 29 35 30 36 31 37 32 38 33 39 34 40 35 41 36 42 37 43 98 44
REMARK SMILES IDX 38 45 97 46 39 47 40 48 41 49 91 50 42 51 96 52 90 53 92 54
REMARK SMILES IDX 43 55 95 56 89 57 88 58 44 60 76 61 56 62 75 63 57 64 60 65
REMARK SMILES IDX 74 66 93 67 58 68 59 69 73 71 94 72 61 73 45 74 46 75 54 76
REMARK SMILES IDX 47 77 49 78 55 79 48 80 50 81 51 82 52 83 53 84 77 85 78 86
REMARK SMILES IDX 86 87 79 88 81 89 87 90 80 91 82 92 83 93 84 94 85 95 62 96
REMARK SMILES IDX 63 97 71 98 64 99 66 100 72 101 65 102 67 103 68 104 69 105
REMARK SMILES IDX 70 106
REMARK H PARENT 7 22 101 31 92 59 60 70
REMARK Flexibility Score: inf
ROOT
ATOM      1  C   UNL     1      -2.831  -6.257  14.885  1.00  0.00     0.261 C 
ENDROOT
BRANCH   1   2
ATOM      2  O   UNL     1      -3.729  -5.633  13.939  1.00  0.00    -0.463 OA
BRANCH   2   3
ATOM      3  C   UNL     1      -4.530  -4.653  14.428  1.00  0.00     0.313 C 
ATOM      4  O   UNL     1      -4.580  -4.364  15.622  1.00  0.00    -0.252 OA
BRANCH   3   5
ATOM      5  C   UNL     1      -5.376  -3.888  13.405  1.00  0.00     0.126 C 
ATOM      6  C   UNL     1      -6.833  -3.920  13.871  1.00  0.00     0.025 C 
BRANCH   5   7
ATOM      7  C   UNL     1      -5.306  -4.196  11.909  1.00  0.00    -0.030 A 
ATOM      8  C   UNL     1      -5.200  -4.624   9.064  1.00  0.00     0.024 A 
ATOM      9  C   UNL     1      -5.397  -5.682   9.975  1.00  0.00     0.013 A 
ATOM     10  C   UNL     1      -5.051  -3.344   9.619  1.00  0.00     0.123 A 
ATOM     11  C   UNL     1      -5.462  -5.476  11.368  1.00  0.00     0.005 A 
ATOM     12  C   UNL     1      -5.107  -3.133  11.005  1.00  0.00     0.051 A 
BRANCH   8  13
ATOM     13  C   UNL     1      -5.243  -4.880   7.604  1.00  0.00    -0.011 A 
ATOM     14  C   UNL     1      -4.341  -4.693   5.350  1.00  0.00     0.133 A 
ATOM     15  C   UNL     1      -5.493  -5.260   4.808  1.00  0.00     0.047 A 
ATOM     16  C   UNL     1      -4.199  -4.511   6.732  1.00  0.00     0.056 A 
ATOM     17  C   UNL     1      -6.518  -5.660   5.657  1.00  0.00     0.004 A 
ATOM     18  C   UNL     1      -6.396  -5.463   7.036  1.00  0.00     0.009 A 
BRANCH  14  19
ATOM     19  O   UNL     1      -3.421  -4.160   4.426  1.00  0.00    -0.410 OA
BRANCH  19  20
ATOM     20  C   UNL     1      -2.089  -4.527   4.500  1.00  0.00     0.412 C 
ATOM     21  N   UNL     1      -1.301  -3.901   3.575  1.00  0.00    -0.321 N 
ATOM     22  H   UNL     1      -0.333  -4.070   3.637  1.00  0.00     0.167 HD
ATOM     23  O   UNL     1      -1.619  -5.355   5.283  1.00  0.00    -0.224 OA
BRANCH  21  24
ATOM     24  C   UNL     1      -1.736  -3.014   2.511  1.00  0.00     0.119 C 
BRANCH  24  25
ATOM     25  C   UNL     1      -1.116  -1.620   2.608  1.00  0.00     0.021 C 
BRANCH  25  26
ATOM     26  C   UNL     1       0.411  -1.575   2.475  1.00  0.00     0.002 C 
BRANCH  26  27
ATOM     27  C   UNL     1       0.984  -2.126   1.164  1.00  0.00    -0.000 C 
BRANCH  27  28
ATOM     28  C   UNL     1       0.510  -1.424  -0.112  1.00  0.00    -0.003 C 
ATOM     29  C   UNL     1       0.915   0.041  -0.183  1.00  0.00     0.004 C 
ENDBRANCH  27  28
ENDBRANCH  26  27
ENDBRANCH  25  26
ENDBRANCH  24  25
ENDBRANCH  21  24
ENDBRANCH  19  20
ENDBRANCH  14  19
ENDBRANCH   8  13
BRANCH  10  30
ATOM     30  O   UNL     1      -4.876  -2.211   8.868  1.00  0.00    -0.507 OA
ATOM     31  H   UNL     1      -4.829  -2.271   7.934  1.00  0.00     0.293 HD
ENDBRANCH  10  30
ENDBRANCH   5   7
ENDBRANCH   3   5
ENDBRANCH   2   3
ENDBRANCH   1   2
BRANCH   1  32
ATOM     32  C   UNL     1      -1.355  -6.286  14.462  1.00  0.00     0.202 C 
BRANCH  32  33
ATOM     33  O   UNL     1      -0.716  -5.051  14.169  1.00  0.00    -0.376 OA
BRANCH  33  34
ATOM     34  C   UNL     1      -1.287  -4.185  13.195  1.00  0.00     0.188 C 
BRANCH  34  35
ATOM     35  C   UNL     1      -1.905  -4.796  11.930  1.00  0.00     0.188 C 
BRANCH  35  36
ATOM     36  O   UNL     1      -1.633  -6.171  11.750  1.00  0.00    -0.376 OA
BRANCH  36  37
ATOM     37  C   UNL     1      -1.026  -6.537  10.526  1.00  0.00     0.202 C 
BRANCH  37  38
ATOM     38  C   UNL     1       0.415  -6.042  10.350  1.00  0.00     0.261 C 
BRANCH  38  39
ATOM     39  O   UNL     1       0.623  -4.631  10.548  1.00  0.00    -0.460 OA
BRANCH  39  40
ATOM     40  C   UNL     1       0.116  -3.794   9.617  1.00  0.00     0.338 C 
ATOM     41  O   UNL     1      -0.488  -4.108   8.599  1.00  0.00    -0.246 OA
BRANCH  40  42
ATOM     42  C   UNL     1       0.211  -2.414  10.139  1.00  0.00     0.060 A 
ATOM     43  C   UNL     1      -0.958  -1.649  10.269  1.00  0.00     0.016 A 
ATOM     44  C   UNL     1       1.447  -1.879  10.508  1.00  0.00     0.016 A 
ATOM     45  C   UNL     1      -0.887  -0.334  10.735  1.00  0.00     0.010 A 
ATOM     46  C   UNL     1       1.518  -0.557  10.954  1.00  0.00     0.010 A 
ATOM     47  C   UNL     1       0.357   0.234  11.037  1.00  0.00    -0.014 A 
BRANCH  47  48
ATOM     48  C   UNL     1       0.484   1.699  11.247  1.00  0.00     0.031 A 
ATOM     49  C   UNL     1       0.950   2.545  10.092  1.00  0.00     0.074 A 
ATOM     50  C   UNL     1       0.224   2.269  12.437  1.00  0.00     0.049 A 
ATOM     51  N   UNL     1       1.217   3.824  10.052  1.00  0.00    -0.248 NA
ATOM     52  C   UNL     1       1.150   1.849   8.809  1.00  0.00     0.031 C 
ATOM     53  C   UNL     1      -0.240   1.567  13.631  1.00  0.00     0.029 A 
ATOM     54  N   UNL     1       0.350   3.577  12.841  1.00  0.00    -0.354 N 
ATOM     55  C   UNL     1       1.650   4.080   8.757  1.00  0.00     0.074 A 
ATOM     56  C   UNL     1       1.619   2.822   8.043  1.00  0.00     0.031 C 
ATOM     57  C   UNL     1      -0.327   2.446  14.646  1.00  0.00     0.029 A 
ATOM     58  C   UNL     1       0.103   3.764  14.181  1.00  0.00     0.049 A 
ATOM     59  H   UNL     1       0.594   4.309  12.230  1.00  0.00     0.167 HD
ATOM     60  C   UNL     1       2.029   5.256   8.204  1.00  0.00     0.034 A 
ATOM     61  C   UNL     1       0.239   4.865  14.949  1.00  0.00     0.034 A 
ATOM     62  C   UNL     1       2.046   6.509   8.908  1.00  0.00     0.049 A 
ATOM     63  C   UNL     1       0.694   6.158  14.317  1.00  0.00     0.074 A 
ATOM     64  C   UNL     1       2.368   7.763   8.420  1.00  0.00     0.029 A 
ATOM     65  N   UNL     1       1.746   6.667  10.251  1.00  0.00    -0.354 N 
ATOM     66  N   UNL     1       0.988   6.410  13.064  1.00  0.00    -0.248 NA
ATOM     67  C   UNL     1       0.807   7.329  15.202  1.00  0.00     0.031 C 
ATOM     68  C   UNL     1       2.297   8.675   9.478  1.00  0.00     0.029 A 
ATOM     69  C   UNL     1       1.890   7.995  10.615  1.00  0.00     0.049 A 
ATOM     70  H   UNL     1       1.471   5.942  10.858  1.00  0.00     0.167 HD
ATOM     71  C   UNL     1       1.280   7.770  13.004  1.00  0.00     0.074 A 
ATOM     72  C   UNL     1       1.110   8.293  14.343  1.00  0.00     0.031 C 
ATOM     73  C   UNL     1       1.665   8.516  11.939  1.00  0.00     0.034 A 
BRANCH  60  74
ATOM     74  C   UNL     1       2.446   5.245   6.757  1.00  0.00     0.023 A 
ATOM     75  C   UNL     1       1.476   5.061   5.750  1.00  0.00     0.012 A 
ATOM     76  C   UNL     1       3.788   5.468   6.393  1.00  0.00     0.148 A 
ATOM     77  C   UNL     1       1.841   5.065   4.405  1.00  0.00     0.002 A 
ATOM     78  C   UNL     1       4.136   5.518   5.049  1.00  0.00     0.091 A 
ATOM     79  F   UNL     1       4.698   5.618   7.366  1.00  0.00    -0.205 F 
ATOM     80  C   UNL     1       3.167   5.304   4.054  1.00  0.00     0.022 A 
BRANCH  78  81
ATOM     81  S   UNL     1       5.801   5.897   4.492  1.00  0.00     0.127 S 
ATOM     82  O   UNL     1       6.223   4.614   3.930  1.00  0.00    -0.237 OA
ATOM     83  O   UNL     1       5.560   6.946   3.501  1.00  0.00    -0.237 OA
ATOM     84  O   UNL     1       6.532   6.331   5.673  1.00  0.00    -0.744 OA
ENDBRANCH  78  81
ENDBRANCH  60  74
BRANCH  61  85
ATOM     85  C   UNL     1      -0.079   4.809  16.405  1.00  0.00     0.023 A 
ATOM     86  C   UNL     1      -1.193   5.514  16.902  1.00  0.00     0.012 A 
ATOM     87  C   UNL     1       0.720   4.070  17.299  1.00  0.00     0.148 A 
ATOM     88  C   UNL     1      -1.485   5.512  18.267  1.00  0.00     0.002 A 
ATOM     89  C   UNL     1       0.391   4.028  18.649  1.00  0.00     0.091 A 
ATOM     90  F   UNL     1       1.786   3.421  16.811  1.00  0.00    -0.205 F 
ATOM     91  C   UNL     1      -0.700   4.763  19.138  1.00  0.00     0.022 A 
BRANCH  89  92
ATOM     92  S   UNL     1       1.275   3.001  19.828  1.00  0.00     0.127 S 
ATOM     93  O   UNL     1       1.929   4.002  20.666  1.00  0.00    -0.237 OA
ATOM     94  O   UNL     1       0.179   2.277  20.475  1.00  0.00    -0.237 OA
ATOM     95  O   UNL     1       2.164   2.164  19.035  1.00  0.00    -0.744 OA
ENDBRANCH  89  92
ENDBRANCH  61  85
BRANCH  73  96
ATOM     96  C   UNL     1       1.883   9.994  12.151  1.00  0.00     0.023 A 
ATOM     97  C   UNL     1       3.003  10.447  12.875  1.00  0.00     0.012 A 
ATOM     98  C   UNL     1       1.018  10.937  11.558  1.00  0.00     0.148 A 
ATOM     99  C   UNL     1       3.240  11.812  13.035  1.00  0.00     0.002 A 
ATOM    100  C   UNL     1       1.289  12.295  11.677  1.00  0.00     0.091 A 
ATOM    101  F   UNL     1      -0.051  10.488  10.884  1.00  0.00    -0.205 F 
ATOM    102  C   UNL     1       2.392  12.735  12.427  1.00  0.00     0.022 A 
BRANCH 100 103
ATOM    103  S   UNL     1       0.311  13.552  10.845  1.00  0.00     0.127 S 
ATOM    104  O   UNL     1      -0.377  14.185  11.969  1.00  0.00    -0.237 OA
ATOM    105  O   UNL     1       1.341  14.379  10.216  1.00  0.00    -0.237 OA
ATOM    106  O   UNL     1      -0.548  12.840   9.909  1.00  0.00    -0.744 OA
ENDBRANCH 100 103
ENDBRANCH  73  96
ENDBRANCH  47  48
ENDBRANCH  40  42
ENDBRANCH  39  40
ENDBRANCH  38  39
ENDBRANCH  37  38
ENDBRANCH  36  37
ENDBRANCH  35  36
ENDBRANCH  34  35
ENDBRANCH  33  34
ENDBRANCH  32  33
ENDBRANCH   1  32
TORSDOF 30
