REMARK SMILES C[C@@H](C(=O)OCCOCCOCCOC(=O)c1ccc(-c2c3nc(c(-c4cccc(S(=O)(=O)[O-])c4F)c4ccc([nH]4)c(-c4cccc(S(=O)(=O)[O-])c4F)c4nc(c(-c5cccc(S(=O)(=O)[O-])c5F)c5ccc2[nH]5)C=C4)C=C3)cc1)[C@H](C)[N@@H+](C)[C@@H](C)C1CC1
REMARK SMILES IDX 9 1 8 2 7 3 6 4 5 5 3 6 4 7 2 8 1 9 80 10 81 11 82 12 83 13
REMARK SMILES IDX 84 15 85 16 86 17 87 18 88 19 10 20 11 21 12 22 13 23 14 24
REMARK SMILES IDX 15 25 16 26 17 27 18 28 79 29 19 30 78 31 20 32 21 33 22 34
REMARK SMILES IDX 72 35 23 36 77 37 71 38 73 39 24 40 76 41 70 42 69 43 25 45
REMARK SMILES IDX 57 46 37 47 56 48 38 49 41 50 55 51 74 52 39 53 40 54 54 56
REMARK SMILES IDX 75 57 42 58 26 59 27 60 35 61 28 62 30 63 36 64 29 65 31 66
REMARK SMILES IDX 32 67 33 68 34 69 58 70 59 71 67 72 60 73 62 74 68 75 61 76
REMARK SMILES IDX 63 77 64 78 65 79 66 80 43 81 44 82 52 83 45 84 47 85 53 86
REMARK SMILES IDX 46 87 48 88 49 89 50 90 51 91
REMARK H PARENT 82 14 73 44 41 55
REMARK Flexibility Score: inf
ROOT
ATOM      1  C   UNL     1      -4.002  -4.361   0.045  1.00  0.00     0.188 C 
ENDROOT
BRANCH   1   2
ATOM      2  O   UNL     1      -5.302  -3.958  -0.369  1.00  0.00    -0.376 OA
BRANCH   2   3
ATOM      3  C   UNL     1      -5.394  -3.319  -1.636  1.00  0.00     0.202 C 
BRANCH   3   4
ATOM      4  C   UNL     1      -4.881  -1.877  -1.675  1.00  0.00     0.261 C 
BRANCH   4   5
ATOM      5  O   UNL     1      -3.451  -1.756  -1.514  1.00  0.00    -0.463 OA
BRANCH   5   6
ATOM      6  C   UNL     1      -3.037  -0.655  -0.818  1.00  0.00     0.314 C 
ATOM      7  O   UNL     1      -3.793   0.073  -0.182  1.00  0.00    -0.252 OA
BRANCH   6   8
ATOM      8  C   UNL     1      -1.554  -0.322  -0.981  1.00  0.00     0.154 C 
ATOM      9  C   UNL     1      -0.811  -1.038  -2.112  1.00  0.00     0.026 C 
BRANCH   8  10
ATOM     10  C   UNL     1      -0.805  -0.170   0.382  1.00  0.00     0.195 C 
ATOM     11  C   UNL     1       0.585   0.461   0.196  1.00  0.00     0.076 C 
BRANCH  10  12
ATOM     12  N   UNL     1      -0.738  -1.249   1.376  1.00  0.00    -0.332 N 
ATOM     13  C   UNL     1      -1.948  -1.357   2.195  1.00  0.00     0.333 C 
ATOM     14  H   UNL     1       0.053  -0.831   1.866  1.00  0.00     0.348 HD
BRANCH  12  15
ATOM     15  C   UNL     1      -0.032  -2.518   1.195  1.00  0.00     0.184 C 
ATOM     16  C   UNL     1      -0.399  -3.347  -0.027  1.00  0.00     0.075 C 
BRANCH  15  17
ATOM     17  C   UNL     1       1.446  -2.419   1.484  1.00  0.00     0.047 C 
ATOM     18  C   UNL     1       2.339  -3.623   1.246  1.00  0.00     0.010 C 
ATOM     19  C   UNL     1       2.549  -2.365   0.454  1.00  0.00     0.010 C 
ENDBRANCH  15  17
ENDBRANCH  12  15
ENDBRANCH  10  12
ENDBRANCH   8  10
ENDBRANCH   6   8
ENDBRANCH   5   6
ENDBRANCH   4   5
ENDBRANCH   3   4
ENDBRANCH   2   3
ENDBRANCH   1   2
BRANCH   1  20
ATOM     20  C   UNL     1      -3.173  -5.131  -0.996  1.00  0.00     0.188 C 
BRANCH  20  21
ATOM     21  O   UNL     1      -3.857  -6.175  -1.685  1.00  0.00    -0.376 OA
BRANCH  21  22
ATOM     22  C   UNL     1      -4.446  -7.185  -0.861  1.00  0.00     0.202 C 
BRANCH  22  23
ATOM     23  C   UNL     1      -3.434  -7.934   0.009  1.00  0.00     0.261 C 
BRANCH  23  24
ATOM     24  O   UNL     1      -3.222  -7.217   1.242  1.00  0.00    -0.460 OA
BRANCH  24  25
ATOM     25  C   UNL     1      -2.093  -7.566   1.901  1.00  0.00     0.338 C 
ATOM     26  O   UNL     1      -1.266  -8.385   1.545  1.00  0.00    -0.246 OA
BRANCH  25  27
ATOM     27  C   UNL     1      -1.960  -6.778   3.141  1.00  0.00     0.060 A 
ATOM     28  C   UNL     1      -1.559  -5.447   3.063  1.00  0.00     0.016 A 
ATOM     29  C   UNL     1      -2.047  -7.407   4.381  1.00  0.00     0.016 A 
ATOM     30  C   UNL     1      -1.141  -4.773   4.216  1.00  0.00     0.010 A 
ATOM     31  C   UNL     1      -1.696  -6.704   5.543  1.00  0.00     0.010 A 
ATOM     32  C   UNL     1      -1.186  -5.394   5.471  1.00  0.00    -0.014 A 
BRANCH  32  33
ATOM     33  C   UNL     1      -0.590  -4.740   6.677  1.00  0.00     0.031 A 
ATOM     34  C   UNL     1       0.555  -5.415   7.394  1.00  0.00     0.074 A 
ATOM     35  C   UNL     1      -1.021  -3.548   7.137  1.00  0.00     0.049 A 
ATOM     36  N   UNL     1       1.065  -5.161   8.572  1.00  0.00    -0.248 NA
ATOM     37  C   UNL     1       1.210  -6.527   6.686  1.00  0.00     0.031 C 
ATOM     38  C   UNL     1      -2.050  -2.716   6.516  1.00  0.00     0.029 A 
ATOM     39  N   UNL     1      -0.650  -2.834   8.255  1.00  0.00    -0.354 N 
ATOM     40  C   UNL     1       2.041  -6.129   8.781  1.00  0.00     0.074 A 
ATOM     41  C   UNL     1       2.070  -6.961   7.597  1.00  0.00     0.031 C 
ATOM     42  C   UNL     1      -2.227  -1.609   7.256  1.00  0.00     0.029 A 
ATOM     43  C   UNL     1      -1.391  -1.691   8.451  1.00  0.00     0.049 A 
ATOM     44  H   UNL     1       0.077  -3.115   8.857  1.00  0.00     0.167 HD
ATOM     45  C   UNL     1       2.841  -6.313   9.858  1.00  0.00     0.034 A 
ATOM     46  C   UNL     1      -1.441  -0.836   9.494  1.00  0.00     0.034 A 
ATOM     47  C   UNL     1       2.871  -5.451  11.009  1.00  0.00     0.049 A 
ATOM     48  C   UNL     1      -0.573  -1.082  10.702  1.00  0.00     0.074 A 
ATOM     49  C   UNL     1       3.640  -5.571  12.154  1.00  0.00     0.029 A 
ATOM     50  N   UNL     1       2.116  -4.299  11.154  1.00  0.00    -0.354 N 
ATOM     51  N   UNL     1       0.330  -2.012  10.897  1.00  0.00    -0.248 NA
ATOM     52  C   UNL     1      -0.732  -0.158  11.836  1.00  0.00     0.031 C 
ATOM     53  C   UNL     1       3.342  -4.494  12.997  1.00  0.00     0.029 A 
ATOM     54  C   UNL     1       2.400  -3.697  12.368  1.00  0.00     0.049 A 
ATOM     55  H   UNL     1       1.472  -3.959  10.492  1.00  0.00     0.167 HD
ATOM     56  C   UNL     1       0.858  -1.774  12.162  1.00  0.00     0.074 A 
ATOM     57  C   UNL     1       0.197  -0.593  12.677  1.00  0.00     0.031 C 
ATOM     58  C   UNL     1       1.786  -2.485  12.847  1.00  0.00     0.034 A 
BRANCH  45  59
ATOM     59  C   UNL     1       3.758  -7.507   9.846  1.00  0.00     0.023 A 
ATOM     60  C   UNL     1       4.932  -7.486   9.069  1.00  0.00     0.012 A 
ATOM     61  C   UNL     1       3.470  -8.637  10.638  1.00  0.00     0.148 A 
ATOM     62  C   UNL     1       5.792  -8.585   9.056  1.00  0.00     0.002 A 
ATOM     63  C   UNL     1       4.351  -9.712  10.650  1.00  0.00     0.091 A 
ATOM     64  F   UNL     1       2.335  -8.645  11.352  1.00  0.00    -0.205 F 
ATOM     65  C   UNL     1       5.506  -9.692   9.853  1.00  0.00     0.022 A 
BRANCH  63  66
ATOM     66  S   UNL     1       4.099 -11.151  11.695  1.00  0.00     0.127 S 
ATOM     67  O   UNL     1       3.672 -12.153  10.719  1.00  0.00    -0.237 OA
ATOM     68  O   UNL     1       5.436 -11.370  12.249  1.00  0.00    -0.237 OA
ATOM     69  O   UNL     1       3.095 -10.762  12.675  1.00  0.00    -0.744 OA
ENDBRANCH  63  66
ENDBRANCH  45  59
BRANCH  46  70
ATOM     70  C   UNL     1      -2.372   0.331   9.461  1.00  0.00     0.023 A 
ATOM     71  C   UNL     1      -1.850   1.639   9.426  1.00  0.00     0.012 A 
ATOM     72  C   UNL     1      -3.769   0.152   9.461  1.00  0.00     0.148 A 
ATOM     73  C   UNL     1      -2.701   2.745   9.413  1.00  0.00     0.002 A 
ATOM     74  C   UNL     1      -4.611   1.256   9.382  1.00  0.00     0.091 A 
ATOM     75  F   UNL     1      -4.252  -1.097   9.533  1.00  0.00    -0.205 F 
ATOM     76  C   UNL     1      -4.080   2.554   9.376  1.00  0.00     0.022 A 
BRANCH  74  77
ATOM     77  S   UNL     1      -6.389   1.086   9.188  1.00  0.00     0.127 S 
ATOM     78  O   UNL     1      -6.870   1.430  10.523  1.00  0.00    -0.237 OA
ATOM     79  O   UNL     1      -6.679   2.078   8.152  1.00  0.00    -0.237 OA
ATOM     80  O   UNL     1      -6.602  -0.293   8.768  1.00  0.00    -0.744 OA
ENDBRANCH  74  77
ENDBRANCH  46  70
BRANCH  58  81
ATOM     81  C   UNL     1       2.177  -1.999  14.219  1.00  0.00     0.023 A 
ATOM     82  C   UNL     1       1.295  -2.186  15.301  1.00  0.00     0.012 A 
ATOM     83  C   UNL     1       3.447  -1.435  14.452  1.00  0.00     0.148 A 
ATOM     84  C   UNL     1       1.660  -1.797  16.590  1.00  0.00     0.002 A 
ATOM     85  C   UNL     1       3.821  -1.089  15.746  1.00  0.00     0.091 A 
ATOM     86  F   UNL     1       4.265  -1.246  13.406  1.00  0.00    -0.205 F 
ATOM     87  C   UNL     1       2.925  -1.261  16.814  1.00  0.00     0.022 A 
BRANCH  85  88
ATOM     88  S   UNL     1       5.463  -0.475  16.140  1.00  0.00     0.127 S 
ATOM     89  O   UNL     1       5.206   0.947  16.357  1.00  0.00    -0.237 OA
ATOM     90  O   UNL     1       5.796  -1.226  17.351  1.00  0.00    -0.237 OA
ATOM     91  O   UNL     1       6.295  -0.794  14.987  1.00  0.00    -0.744 OA
ENDBRANCH  85  88
ENDBRANCH  58  81
ENDBRANCH  32  33
ENDBRANCH  25  27
ENDBRANCH  24  25
ENDBRANCH  23  24
ENDBRANCH  22  23
ENDBRANCH  21  22
ENDBRANCH  20  21
ENDBRANCH   1  20
TORSDOF 24
