REMARK SMILES CC(C)(C)c1ccc(NS(=O)(=O)c2cccc(C(=O)OCCOCCOCCOC(=O)c3ccc(-c4c5nc(c(-c6cccc(S(=O)(=O)[O-])c6F)c6ccc([nH]6)c(-c6cccc(S(=O)(=O)[O-])c6F)c6nc(c(-c7cccc(S(=O)(=O)[O-])c7F)c7ccc4[nH]7)C=C6)C=C5)cc3)c2)cc1
REMARK SMILES IDX 24 1 23 2 22 3 21 4 20 5 18 6 19 7 17 8 13 9 14 10 95 11
REMARK SMILES IDX 15 12 16 13 10 14 11 15 12 16 9 17 8 19 5 20 6 21 97 22 7 23
REMARK SMILES IDX 96 24 2 25 1 26 3 27 4 28 25 29 26 30 27 31 28 32 29 33
REMARK SMILES IDX 30 34 31 35 32 36 33 37 94 38 34 39 93 40 35 41 36 42 37 43
REMARK SMILES IDX 87 44 38 45 92 46 86 47 88 48 39 49 91 50 85 51 84 52 40 54
REMARK SMILES IDX 72 55 52 56 71 57 53 58 56 59 70 60 89 61 54 62 55 63 69 65
REMARK SMILES IDX 90 66 57 67 41 68 42 69 50 70 43 71 45 72 51 73 44 74 46 75
REMARK SMILES IDX 47 76 48 77 49 78 73 79 74 80 82 81 75 82 77 83 83 84 76 85
REMARK SMILES IDX 78 86 79 87 80 88 81 89 58 90 59 91 67 92 60 93 62 94 68 95
REMARK SMILES IDX 61 96 63 97 64 98 65 99 66 100
REMARK H PARENT 9 18 88 53 56 64
REMARK Flexibility Score: inf
ROOT
ATOM      1  C   UNL     1      -2.268  -9.282   4.597  1.00  0.00     0.188 C 
ENDROOT
BRANCH   1   2
ATOM      2  O   UNL     1      -2.738 -10.556   4.972  1.00  0.00    -0.376 OA
BRANCH   2   3
ATOM      3  C   UNL     1      -3.512 -11.310   4.056  1.00  0.00     0.202 C 
BRANCH   3   4
ATOM      4  C   UNL     1      -3.304 -11.288   2.527  1.00  0.00     0.261 C 
BRANCH   4   5
ATOM      5  O   UNL     1      -2.539 -10.212   1.968  1.00  0.00    -0.460 OA
BRANCH   5   6
ATOM      6  C   UNL     1      -3.248  -9.229   1.370  1.00  0.00     0.338 C 
ATOM      7  O   UNL     1      -4.466  -9.178   1.276  1.00  0.00    -0.246 OA
BRANCH   6   8
ATOM      8  C   UNL     1      -2.364  -8.125   0.913  1.00  0.00     0.061 A 
ATOM      9  C   UNL     1      -0.395  -7.238  -0.195  1.00  0.00     0.088 A 
ATOM     10  C   UNL     1      -0.991  -5.972  -0.212  1.00  0.00     0.022 A 
ATOM     11  C   UNL     1      -1.089  -8.331   0.356  1.00  0.00     0.038 A 
ATOM     12  C   UNL     1      -2.204  -5.755   0.437  1.00  0.00     0.002 A 
ATOM     13  C   UNL     1      -2.892  -6.829   0.992  1.00  0.00     0.016 A 
BRANCH   9  14
ATOM     14  S   UNL     1       1.147  -7.491  -1.055  1.00  0.00     0.261 S 
ATOM     15  O   UNL     1       0.945  -7.065  -2.425  1.00  0.00    -0.201 OA
ATOM     16  O   UNL     1       1.581  -8.848  -0.782  1.00  0.00    -0.201 OA
BRANCH  14  17
ATOM     17  N   UNL     1       2.374  -6.492  -0.407  1.00  0.00    -0.280 N 
ATOM     18  H   UNL     1       3.277  -6.857  -0.262  1.00  0.00     0.180 HD
BRANCH  17  19
ATOM     19  C   UNL     1       2.094  -5.127  -0.076  1.00  0.00     0.049 A 
ATOM     20  C   UNL     1       1.326  -2.481   0.595  1.00  0.00    -0.042 A 
ATOM     21  C   UNL     1       1.159  -3.550   1.496  1.00  0.00     0.006 A 
ATOM     22  C   UNL     1       1.931  -2.774  -0.641  1.00  0.00     0.006 A 
ATOM     23  C   UNL     1       1.559  -4.849   1.176  1.00  0.00     0.027 A 
ATOM     24  C   UNL     1       2.299  -4.088  -0.982  1.00  0.00     0.027 A 
BRANCH  20  25
ATOM     25  C   UNL     1       0.784  -1.082   0.956  1.00  0.00    -0.013 C 
ATOM     26  C   UNL     1       1.264   0.044   0.013  1.00  0.00     0.016 C 
ATOM     27  C   UNL     1       1.204  -0.672   2.387  1.00  0.00     0.016 C 
ATOM     28  C   UNL     1      -0.757  -1.130   0.880  1.00  0.00     0.016 C 
ENDBRANCH  20  25
ENDBRANCH  17  19
ENDBRANCH  14  17
ENDBRANCH   9  14
ENDBRANCH   6   8
ENDBRANCH   5   6
ENDBRANCH   4   5
ENDBRANCH   3   4
ENDBRANCH   2   3
ENDBRANCH   1   2
BRANCH   1  29
ATOM     29  C   UNL     1      -0.794  -9.287   4.140  1.00  0.00     0.188 C 
BRANCH  29  30
ATOM     30  O   UNL     1      -0.075 -10.510   4.035  1.00  0.00    -0.376 OA
BRANCH  30  31
ATOM     31  C   UNL     1      -0.134 -11.459   5.093  1.00  0.00     0.202 C 
BRANCH  31  32
ATOM     32  C   UNL     1       0.093 -11.047   6.559  1.00  0.00     0.261 C 
BRANCH  32  33
ATOM     33  O   UNL     1      -0.471  -9.793   6.962  1.00  0.00    -0.460 OA
BRANCH  33  34
ATOM     34  C   UNL     1       0.428  -8.803   7.184  1.00  0.00     0.338 C 
ATOM     35  O   UNL     1       1.642  -8.871   7.087  1.00  0.00    -0.246 OA
BRANCH  34  36
ATOM     36  C   UNL     1      -0.286  -7.531   7.402  1.00  0.00     0.060 A 
ATOM     37  C   UNL     1      -0.049  -6.483   6.503  1.00  0.00     0.016 A 
ATOM     38  C   UNL     1      -1.126  -7.349   8.502  1.00  0.00     0.016 A 
ATOM     39  C   UNL     1      -0.634  -5.237   6.716  1.00  0.00     0.010 A 
ATOM     40  C   UNL     1      -1.696  -6.090   8.725  1.00  0.00     0.010 A 
ATOM     41  C   UNL     1      -1.428  -5.023   7.850  1.00  0.00    -0.014 A 
BRANCH  41  42
ATOM     42  C   UNL     1      -1.853  -3.642   8.180  1.00  0.00     0.031 A 
ATOM     43  C   UNL     1      -1.045  -2.846   9.168  1.00  0.00     0.074 A 
ATOM     44  C   UNL     1      -2.928  -3.092   7.588  1.00  0.00     0.049 A 
ATOM     45  N   UNL     1      -1.199  -1.606   9.553  1.00  0.00    -0.248 NA
ATOM     46  C   UNL     1       0.088  -3.538   9.805  1.00  0.00     0.031 C 
ATOM     47  C   UNL     1      -3.799  -3.766   6.627  1.00  0.00     0.029 A 
ATOM     48  N   UNL     1      -3.477  -1.843   7.725  1.00  0.00    -0.354 N 
ATOM     49  C   UNL     1      -0.197  -1.371  10.486  1.00  0.00     0.074 A 
ATOM     50  C   UNL     1       0.550  -2.603  10.623  1.00  0.00     0.031 C 
ATOM     51  C   UNL     1      -4.790  -2.927   6.277  1.00  0.00     0.029 A 
ATOM     52  C   UNL     1      -4.628  -1.664   6.995  1.00  0.00     0.049 A 
ATOM     53  H   UNL     1      -3.084  -1.140   8.293  1.00  0.00     0.167 HD
ATOM     54  C   UNL     1       0.091  -0.229  11.153  1.00  0.00     0.034 A 
ATOM     55  C   UNL     1      -5.458  -0.604   6.923  1.00  0.00     0.034 A 
ATOM     56  C   UNL     1      -0.643   0.999  11.009  1.00  0.00     0.049 A 
ATOM     57  C   UNL     1      -5.123   0.650   7.687  1.00  0.00     0.074 A 
ATOM     58  C   UNL     1      -0.395   2.224  11.603  1.00  0.00     0.029 A 
ATOM     59  N   UNL     1      -1.779   1.156  10.231  1.00  0.00    -0.354 N 
ATOM     60  N   UNL     1      -4.085   0.904   8.447  1.00  0.00    -0.248 NA
ATOM     61  C   UNL     1      -6.056   1.780   7.552  1.00  0.00     0.031 C 
ATOM     62  C   UNL     1      -1.395   3.116  11.200  1.00  0.00     0.029 A 
ATOM     63  C   UNL     1      -2.252   2.453  10.337  1.00  0.00     0.049 A 
ATOM     64  H   UNL     1      -2.189   0.448   9.683  1.00  0.00     0.167 HD
ATOM     65  C   UNL     1      -4.221   2.228   8.851  1.00  0.00     0.074 A 
ATOM     66  C   UNL     1      -5.430   2.731   8.232  1.00  0.00     0.031 C 
ATOM     67  C   UNL     1      -3.426   2.958   9.674  1.00  0.00     0.034 A 
BRANCH  54  68
ATOM     68  C   UNL     1       1.279  -0.244  12.077  1.00  0.00     0.023 A 
ATOM     69  C   UNL     1       2.580  -0.244  11.533  1.00  0.00     0.012 A 
ATOM     70  C   UNL     1       1.113  -0.203  13.474  1.00  0.00     0.148 A 
ATOM     71  C   UNL     1       3.697  -0.231  12.366  1.00  0.00     0.002 A 
ATOM     72  C   UNL     1       2.232  -0.150  14.297  1.00  0.00     0.091 A 
ATOM     73  F   UNL     1      -0.132  -0.231  13.972  1.00  0.00    -0.205 F 
ATOM     74  C   UNL     1       3.524  -0.173  13.746  1.00  0.00     0.022 A 
BRANCH  72  75
ATOM     75  S   UNL     1       2.111  -0.001  16.083  1.00  0.00     0.127 S 
ATOM     76  O   UNL     1       2.514  -1.337  16.519  1.00  0.00    -0.237 OA
ATOM     77  O   UNL     1       3.084   1.054  16.372  1.00  0.00    -0.237 OA
ATOM     78  O   UNL     1       0.728   0.359  16.362  1.00  0.00    -0.744 OA
ENDBRANCH  72  75
ENDBRANCH  54  68
BRANCH  55  79
ATOM     79  C   UNL     1      -6.666  -0.664   6.053  1.00  0.00     0.023 A 
ATOM     80  C   UNL     1      -6.721   0.120   4.884  1.00  0.00     0.012 A 
ATOM     81  C   UNL     1      -7.752  -1.501   6.370  1.00  0.00     0.148 A 
ATOM     82  C   UNL     1      -7.849   0.094   4.063  1.00  0.00     0.002 A 
ATOM     83  C   UNL     1      -8.850  -1.563   5.520  1.00  0.00     0.091 A 
ATOM     84  F   UNL     1      -7.689  -2.224   7.498  1.00  0.00    -0.205 F 
ATOM     85  C   UNL     1      -8.908  -0.754   4.375  1.00  0.00     0.022 A 
BRANCH  83  86
ATOM     86  S   UNL     1     -10.201  -2.718   5.778  1.00  0.00     0.127 S 
ATOM     87  O   UNL     1     -11.277  -1.828   6.205  1.00  0.00    -0.237 OA
ATOM     88  O   UNL     1     -10.367  -3.291   4.442  1.00  0.00    -0.237 OA
ATOM     89  O   UNL     1      -9.722  -3.661   6.779  1.00  0.00    -0.744 OA
ENDBRANCH  83  86
ENDBRANCH  55  79
BRANCH  67  90
ATOM     90  C   UNL     1      -3.816   4.391   9.934  1.00  0.00     0.023 A 
ATOM     91  C   UNL     1      -4.926   4.677  10.753  1.00  0.00     0.012 A 
ATOM     92  C   UNL     1      -3.045   5.453   9.421  1.00  0.00     0.148 A 
ATOM     93  C   UNL     1      -5.283   5.996  11.030  1.00  0.00     0.002 A 
ATOM     94  C   UNL     1      -3.379   6.765   9.740  1.00  0.00     0.091 A 
ATOM     95  F   UNL     1      -2.004   5.165   8.626  1.00  0.00    -0.205 F 
ATOM     96  C   UNL     1      -4.504   7.039  10.534  1.00  0.00     0.022 A 
BRANCH  94  97
ATOM     97  S   UNL     1      -2.375   8.162   9.219  1.00  0.00     0.127 S 
ATOM     98  O   UNL     1      -3.165   8.702   8.114  1.00  0.00    -0.237 OA
ATOM     99  O   UNL     1      -2.353   8.998  10.420  1.00  0.00    -0.237 OA
ATOM    100  O   UNL     1      -1.079   7.604   8.853  1.00  0.00    -0.744 OA
ENDBRANCH  94  97
ENDBRANCH  67  90
ENDBRANCH  41  42
ENDBRANCH  34  36
ENDBRANCH  33  34
ENDBRANCH  32  33
ENDBRANCH  31  32
ENDBRANCH  30  31
ENDBRANCH  29  30
ENDBRANCH   1  29
TORSDOF 24
