REMARK SMILES Cc1ccccc1C(=O)Nc1cc(NC(=O)c2ccccc2C)cc(C(=O)OCCOCCOCCOC(=O)c2ccc(-c3c4nc(c(-c5cccc(S(=O)(=O)[O-])c5F)c5ccc([nH]5)c(-c5cccc(S(=O)(=O)[O-])c5F)c5nc(c(-c6cccc(S(=O)(=O)[O-])c6F)c6ccc3[nH]6)C=C5)C=C4)cc2)c1
REMARK SMILES IDX 33 1 32 2 31 3 30 4 29 5 28 6 26 7 27 8 25 9 11 10 12 11
REMARK SMILES IDX 103 12 13 13 24 14 10 15 8 16 9 17 7 19 1 20 2 21 3 22 4 23
REMARK SMILES IDX 6 24 5 25 14 26 15 27 16 29 17 30 18 31 22 32 19 33 21 34
REMARK SMILES IDX 23 35 20 36 34 37 35 38 36 39 37 40 38 41 39 42 40 43 41 44
REMARK SMILES IDX 102 45 42 46 101 47 43 48 44 49 45 50 95 51 46 52 100 53
REMARK SMILES IDX 94 54 96 55 47 56 99 57 93 58 92 59 48 61 80 62 60 63 79 64
REMARK SMILES IDX 61 65 64 66 78 67 97 68 62 69 63 70 77 72 98 73 65 74 49 75
REMARK SMILES IDX 50 76 58 77 51 78 53 79 59 80 52 81 54 82 55 83 56 84 57 85
REMARK SMILES IDX 81 86 82 87 90 88 83 89 85 90 91 91 84 92 86 93 87 94 88 95
REMARK SMILES IDX 89 96 66 97 67 98 75 99 68 100 70 101 76 102 69 103 71 104
REMARK SMILES IDX 72 105 73 106 74 107
REMARK H PARENT 10 18 14 28 96 60 64 71
REMARK Flexibility Score: inf
ROOT
ATOM      1  C   UNL     1      11.345   0.505   1.335  1.00  0.00     0.188 C 
ENDROOT
BRANCH   1   2
ATOM      2  C   UNL     1      10.376  -0.020   2.392  1.00  0.00     0.188 C 
BRANCH   2   3
ATOM      3  O   UNL     1       9.966  -1.400   2.515  1.00  0.00    -0.376 OA
BRANCH   3   4
ATOM      4  C   UNL     1       9.814  -2.353   1.438  1.00  0.00     0.202 C 
BRANCH   4   5
ATOM      5  C   UNL     1       8.367  -3.056   0.867  1.00  0.00     0.261 C 
BRANCH   5   6
ATOM      6  O   UNL     1       7.090  -2.406  -0.139  1.00  0.00    -0.460 OA
BRANCH   6   7
ATOM      7  C   UNL     1       5.842  -1.713   0.058  1.00  0.00     0.338 C 
ATOM      8  O   UNL     1       5.246  -1.486   1.113  1.00  0.00    -0.246 OA
BRANCH   7   9
ATOM      9  C   UNL     1       4.917  -1.109  -0.899  1.00  0.00     0.064 A 
ATOM     10  C   UNL     1       2.960   0.439  -0.794  1.00  0.00     0.044 A 
ATOM     11  C   UNL     1       2.304  -0.417  -1.669  1.00  0.00     0.052 A 
ATOM     12  C   UNL     1       4.297   0.138  -0.501  1.00  0.00     0.042 A 
ATOM     13  C   UNL     1       2.936  -1.597  -2.118  1.00  0.00     0.044 A 
ATOM     14  C   UNL     1       4.186  -1.999  -1.651  1.00  0.00     0.042 A 
BRANCH  10  15
ATOM     15  N   UNL     1       2.355   1.562  -0.168  1.00  0.00    -0.322 N 
ATOM     16  C   UNL     1       1.019   1.859   0.074  1.00  0.00     0.255 C 
ATOM     17  O   UNL     1       0.645   3.012   0.295  1.00  0.00    -0.269 OA
ATOM     18  H   UNL     1       2.989   2.246   0.148  1.00  0.00     0.170 HD
BRANCH  16  19
ATOM     19  C   UNL     1      -0.028   0.797   0.113  1.00  0.00     0.043 A 
ATOM     20  C   UNL     1       1.237  -0.692   1.776  1.00  0.00     0.045 C 
ATOM     21  C   UNL     1       0.098  -0.404   0.835  1.00  0.00    -0.038 A 
ATOM     22  C   UNL     1      -0.905  -1.381   0.700  1.00  0.00     0.004 A 
ATOM     23  C   UNL     1      -2.066  -1.127  -0.033  1.00  0.00     0.000 A 
ATOM     24  C   UNL     1      -1.237   1.075  -0.554  1.00  0.00     0.014 A 
ATOM     25  C   UNL     1      -2.253   0.119  -0.623  1.00  0.00     0.001 A 
ENDBRANCH  16  19
ENDBRANCH  10  15
BRANCH  13  26
ATOM     26  N   UNL     1       2.401  -2.408  -3.117  1.00  0.00    -0.322 N 
ATOM     27  C   UNL     1       1.898  -2.008  -4.330  1.00  0.00     0.255 C 
ATOM     28  H   UNL     1       2.381  -3.375  -2.932  1.00  0.00     0.170 HD
ATOM     29  O   UNL     1       1.514  -2.848  -5.144  1.00  0.00    -0.269 OA
BRANCH  27  30
ATOM     30  C   UNL     1       1.821  -0.572  -4.706  1.00  0.00     0.043 A 
ATOM     31  C   UNL     1       0.536  -0.150  -5.079  1.00  0.00     0.014 A 
ATOM     32  C   UNL     1       2.901   0.339  -4.731  1.00  0.00    -0.038 A 
ATOM     33  C   UNL     1       0.300   1.175  -5.433  1.00  0.00     0.001 A 
ATOM     34  C   UNL     1       2.630   1.680  -5.056  1.00  0.00     0.004 A 
ATOM     35  C   UNL     1       4.329   0.007  -4.398  1.00  0.00     0.045 C 
ATOM     36  C   UNL     1       1.344   2.092  -5.408  1.00  0.00     0.000 A 
ENDBRANCH  27  30
ENDBRANCH  13  26
ENDBRANCH   7   9
ENDBRANCH   6   7
ENDBRANCH   5   6
ENDBRANCH   4   5
ENDBRANCH   3   4
ENDBRANCH   2   3
ENDBRANCH   1   2
BRANCH   1  37
ATOM     37  O   UNL     1      11.170  -0.189   0.123  1.00  0.00    -0.376 OA
BRANCH  37  38
ATOM     38  C   UNL     1      12.081   0.118  -0.909  1.00  0.00     0.202 C 
BRANCH  38  39
ATOM     39  C   UNL     1      11.772   1.446  -1.623  1.00  0.00     0.261 C 
BRANCH  39  40
ATOM     40  O   UNL     1      10.383   1.526  -2.018  1.00  0.00    -0.460 OA
BRANCH  40  41
ATOM     41  C   UNL     1       9.592   2.457  -1.367  1.00  0.00     0.338 C 
ATOM     42  O   UNL     1       9.890   3.625  -1.249  1.00  0.00    -0.246 OA
BRANCH  41  43
ATOM     43  C   UNL     1       8.478   1.745  -0.635  1.00  0.00     0.060 A 
ATOM     44  C   UNL     1       7.745   2.197   0.476  1.00  0.00     0.016 A 
ATOM     45  C   UNL     1       8.435   0.416  -0.844  1.00  0.00     0.016 A 
ATOM     46  C   UNL     1       7.167   1.271   1.467  1.00  0.00     0.010 A 
ATOM     47  C   UNL     1       8.149  -0.358   0.274  1.00  0.00     0.010 A 
ATOM     48  C   UNL     1       7.423  -0.104   1.468  1.00  0.00    -0.014 A 
BRANCH  48  49
ATOM     49  C   UNL     1       7.082  -1.229   2.704  1.00  0.00     0.031 A 
ATOM     50  C   UNL     1       6.123  -2.690   2.792  1.00  0.00     0.074 A 
ATOM     51  C   UNL     1       7.500  -0.882   3.939  1.00  0.00     0.049 A 
ATOM     52  N   UNL     1       5.310  -2.997   3.792  1.00  0.00    -0.248 NA
ATOM     53  C   UNL     1       5.866  -3.764   1.723  1.00  0.00     0.031 C 
ATOM     54  C   UNL     1       7.492  -1.694   5.151  1.00  0.00     0.029 A 
ATOM     55  N   UNL     1       7.915   0.378   4.382  1.00  0.00    -0.354 N 
ATOM     56  C   UNL     1       4.660  -4.196   3.429  1.00  0.00     0.074 A 
ATOM     57  C   UNL     1       4.682  -4.249   2.037  1.00  0.00     0.031 C 
ATOM     58  C   UNL     1       7.558  -0.869   6.209  1.00  0.00     0.029 A 
ATOM     59  C   UNL     1       7.444   0.486   5.695  1.00  0.00     0.049 A 
ATOM     60  H   UNL     1       8.430   1.048   3.877  1.00  0.00     0.167 HD
ATOM     61  C   UNL     1       4.458  -5.265   4.248  1.00  0.00     0.034 A 
ATOM     62  C   UNL     1       6.515   1.424   6.027  1.00  0.00     0.034 A 
ATOM     63  C   UNL     1       4.536  -4.787   5.606  1.00  0.00     0.049 A 
ATOM     64  C   UNL     1       5.307   0.826   6.713  1.00  0.00     0.074 A 
ATOM     65  C   UNL     1       5.537  -4.767   6.554  1.00  0.00     0.029 A 
ATOM     66  N   UNL     1       3.598  -3.843   5.985  1.00  0.00    -0.354 N 
ATOM     67  N   UNL     1       5.085  -0.459   6.816  1.00  0.00    -0.248 NA
ATOM     68  C   UNL     1       4.264   1.612   7.364  1.00  0.00     0.031 C 
ATOM     69  C   UNL     1       5.279  -3.647   7.402  1.00  0.00     0.029 A 
ATOM     70  C   UNL     1       4.089  -3.054   7.009  1.00  0.00     0.049 A 
ATOM     71  H   UNL     1       2.705  -3.747   5.582  1.00  0.00     0.167 HD
ATOM     72  C   UNL     1       3.868  -0.680   7.397  1.00  0.00     0.074 A 
ATOM     73  C   UNL     1       3.433   0.647   7.797  1.00  0.00     0.031 C 
ATOM     74  C   UNL     1       3.284  -1.916   7.442  1.00  0.00     0.034 A 
BRANCH  61  75
ATOM     75  C   UNL     1       4.416  -6.766   3.810  1.00  0.00     0.023 A 
ATOM     76  C   UNL     1       4.346  -7.715   4.853  1.00  0.00     0.012 A 
ATOM     77  C   UNL     1       4.560  -7.348   2.502  1.00  0.00     0.148 A 
ATOM     78  C   UNL     1       4.461  -9.103   4.635  1.00  0.00     0.002 A 
ATOM     79  C   UNL     1       4.654  -8.733   2.282  1.00  0.00     0.091 A 
ATOM     80  F   UNL     1       4.660  -6.597   1.409  1.00  0.00    -0.205 F 
ATOM     81  C   UNL     1       4.621  -9.615   3.354  1.00  0.00     0.022 A 
BRANCH  79  82
ATOM     82  S   UNL     1       4.882  -9.456   0.630  1.00  0.00     0.127 S 
ATOM     83  O   UNL     1       6.178 -10.123   0.764  1.00  0.00    -0.237 OA
ATOM     84  O   UNL     1       3.740 -10.363   0.521  1.00  0.00    -0.237 OA
ATOM     85  O   UNL     1       4.871  -8.350  -0.321  1.00  0.00    -0.744 OA
ENDBRANCH  79  82
ENDBRANCH  61  75
BRANCH  62  86
ATOM     86  C   UNL     1       6.614   2.693   5.223  1.00  0.00     0.023 A 
ATOM     87  C   UNL     1       7.892   3.323   5.202  1.00  0.00     0.012 A 
ATOM     88  C   UNL     1       5.661   3.132   4.284  1.00  0.00     0.148 A 
ATOM     89  C   UNL     1       8.251   4.249   4.219  1.00  0.00     0.002 A 
ATOM     90  C   UNL     1       6.019   4.087   3.315  1.00  0.00     0.091 A 
ATOM     91  F   UNL     1       4.451   2.557   4.263  1.00  0.00    -0.205 F 
ATOM     92  C   UNL     1       7.317   4.622   3.264  1.00  0.00     0.022 A 
BRANCH  90  93
ATOM     93  S   UNL     1       4.834   4.605   2.053  1.00  0.00     0.127 S 
ATOM     94  O   UNL     1       5.564   5.650   1.331  1.00  0.00    -0.237 OA
ATOM     95  O   UNL     1       4.603   3.393   1.270  1.00  0.00    -0.237 OA
ATOM     96  O   UNL     1       3.722   5.097   2.856  1.00  0.00    -0.744 OA
ENDBRANCH  90  93
ENDBRANCH  62  86
BRANCH  74  97
ATOM     97  C   UNL     1       1.828  -2.170   7.784  1.00  0.00     0.023 A 
ATOM     98  C   UNL     1       0.829  -1.204   7.570  1.00  0.00     0.012 A 
ATOM     99  C   UNL     1       1.392  -3.484   8.095  1.00  0.00     0.148 A 
ATOM    100  C   UNL     1      -0.530  -1.511   7.696  1.00  0.00     0.002 A 
ATOM    101  C   UNL     1       0.042  -3.814   8.073  1.00  0.00     0.091 A 
ATOM    102  F   UNL     1       2.290  -4.438   8.389  1.00  0.00    -0.205 F 
ATOM    103  C   UNL     1      -0.927  -2.825   7.913  1.00  0.00     0.022 A 
BRANCH 101 104
ATOM    104  S   UNL     1      -0.440  -5.547   8.005  1.00  0.00     0.127 S 
ATOM    105  O   UNL     1      -0.361  -5.953   9.405  1.00  0.00    -0.237 OA
ATOM    106  O   UNL     1      -1.800  -5.487   7.466  1.00  0.00    -0.237 OA
ATOM    107  O   UNL     1       0.532  -6.143   7.096  1.00  0.00    -0.744 OA
ENDBRANCH 101 104
ENDBRANCH  74  97
ENDBRANCH  48  49
ENDBRANCH  41  43
ENDBRANCH  40  41
ENDBRANCH  39  40
ENDBRANCH  38  39
ENDBRANCH  37  38
ENDBRANCH   1  37
TORSDOF 24
