REMARK SMILES CC[C@]1(C(=O)OCCOCCOCCOC(=O)c2ccc(-c3c4nc(c(-c5cccc(S(=O)(=O)[O-])c5F)c5ccc([nH]5)c(-c5cccc(S(=O)(=O)[O-])c5F)c5nc(c(-c6cccc(S(=O)(=O)[O-])c6F)c6ccc3[nH]6)C=C5)C=C4)cc2)CCN(C(=O)N(C)CCc2cccs2)C1
REMARK SMILES IDX 10 1 9 2 8 3 7 4 6 5 4 6 5 7 3 8 81 9 95 10 82 11 83 12 2 13
REMARK SMILES IDX 1 14 84 15 85 16 86 17 87 18 88 19 89 20 90 21 91 22 94 23
REMARK SMILES IDX 92 24 93 25 11 26 12 27 13 28 14 29 15 30 16 31 17 32 18 33
REMARK SMILES IDX 19 34 80 35 20 36 79 37 21 38 22 39 23 40 73 41 24 42 78 43
REMARK SMILES IDX 72 44 74 45 25 46 77 47 71 48 70 49 26 51 58 52 38 53 57 54
REMARK SMILES IDX 39 55 42 56 56 57 75 58 40 59 41 60 55 62 76 63 43 64 27 65
REMARK SMILES IDX 28 66 36 67 29 68 31 69 37 70 30 71 32 72 33 73 34 74 35 75
REMARK SMILES IDX 59 76 60 77 68 78 61 79 63 80 69 81 62 82 64 83 65 84 66 85
REMARK SMILES IDX 67 86 44 87 45 88 53 89 46 90 48 91 54 92 47 93 49 94 50 95
REMARK SMILES IDX 51 96 52 97
REMARK H PARENT 74 50 42 61
REMARK Flexibility Score: inf
ROOT
ATOM      1  C   UNL     1       3.942  -0.418  -1.181  1.00  0.00     0.188 C 
ENDROOT
BRANCH   1   2
ATOM      2  O   UNL     1       4.304  -1.262  -2.259  1.00  0.00    -0.376 OA
BRANCH   2   3
ATOM      3  C   UNL     1       3.948  -0.864  -3.576  1.00  0.00     0.202 C 
BRANCH   3   4
ATOM      4  C   UNL     1       2.525  -0.353  -3.878  1.00  0.00     0.261 C 
BRANCH   4   5
ATOM      5  O   UNL     1       2.084   0.752  -3.058  1.00  0.00    -0.463 OA
BRANCH   5   6
ATOM      6  C   UNL     1       0.789   0.744  -2.635  1.00  0.00     0.314 C 
ATOM      7  O   UNL     1      -0.024  -0.111  -2.969  1.00  0.00    -0.252 OA
BRANCH   6   8
ATOM      8  C   UNL     1       0.421   1.923  -1.711  1.00  0.00     0.087 C 
ATOM      9  C   UNL     1       1.476   3.043  -1.576  1.00  0.00     0.042 C 
ATOM     10  C   UNL     1      -0.703   2.674  -2.457  1.00  0.00     0.140 C 
ATOM     11  C   UNL     1       0.706   4.346  -1.511  1.00  0.00     0.122 C 
ATOM     12  N   UNL     1      -0.511   4.104  -2.242  1.00  0.00    -0.323 N 
BRANCH   8  13
ATOM     13  C   UNL     1      -0.086   1.466  -0.311  1.00  0.00     0.017 C 
ATOM     14  C   UNL     1       0.451   0.150   0.236  1.00  0.00     0.005 C 
ENDBRANCH   8  13
BRANCH  12  15
ATOM     15  C   UNL     1      -1.374   4.963  -2.875  1.00  0.00     0.319 C 
ATOM     16  O   UNL     1      -2.379   4.513  -3.434  1.00  0.00    -0.248 OA
BRANCH  15  17
ATOM     17  N   UNL     1      -1.051   6.300  -2.997  1.00  0.00    -0.327 N 
ATOM     18  C   UNL     1      -0.265   7.101  -2.075  1.00  0.00     0.148 C 
BRANCH  17  19
ATOM     19  C   UNL     1      -1.578   6.998  -4.179  1.00  0.00     0.126 C 
BRANCH  19  20
ATOM     20  C   UNL     1      -0.727   6.788  -5.449  1.00  0.00     0.068 C 
BRANCH  20  21
ATOM     21  C   UNL     1      -0.880   5.422  -6.060  1.00  0.00     0.006 A 
ATOM     22  C   UNL     1      -0.099   4.299  -5.858  1.00  0.00     0.015 A 
ATOM     23  S   UNL     1      -2.174   5.095  -7.138  1.00  0.00    -0.149 S 
ATOM     24  C   UNL     1      -0.631   3.145  -6.503  1.00  0.00     0.012 A 
ATOM     25  C   UNL     1      -1.765   3.437  -7.226  1.00  0.00     0.065 A 
ENDBRANCH  20  21
ENDBRANCH  19  20
ENDBRANCH  17  19
ENDBRANCH  15  17
ENDBRANCH  12  15
ENDBRANCH   6   8
ENDBRANCH   5   6
ENDBRANCH   4   5
ENDBRANCH   3   4
ENDBRANCH   2   3
ENDBRANCH   1   2
BRANCH   1  26
ATOM     26  C   UNL     1       4.265   1.077  -1.278  1.00  0.00     0.188 C 
BRANCH  26  27
ATOM     27  O   UNL     1       5.035   1.551  -2.349  1.00  0.00    -0.376 OA
BRANCH  27  28
ATOM     28  C   UNL     1       6.442   1.423  -2.336  1.00  0.00     0.202 C 
BRANCH  28  29
ATOM     29  C   UNL     1       7.286   0.880  -1.164  1.00  0.00     0.261 C 
BRANCH  29  30
ATOM     30  O   UNL     1       6.622   0.439   0.023  1.00  0.00    -0.460 OA
BRANCH  30  31
ATOM     31  C   UNL     1       6.463   1.365   0.998  1.00  0.00     0.338 C 
ATOM     32  O   UNL     1       6.806   2.540   0.952  1.00  0.00    -0.246 OA
BRANCH  31  33
ATOM     33  C   UNL     1       5.595   0.802   2.055  1.00  0.00     0.060 A 
ATOM     34  C   UNL     1       4.384   1.448   2.349  1.00  0.00     0.016 A 
ATOM     35  C   UNL     1       5.979  -0.333   2.771  1.00  0.00     0.016 A 
ATOM     36  C   UNL     1       3.582   0.995   3.397  1.00  0.00     0.010 A 
ATOM     37  C   UNL     1       5.183  -0.773   3.835  1.00  0.00     0.010 A 
ATOM     38  C   UNL     1       4.006  -0.084   4.183  1.00  0.00    -0.014 A 
BRANCH  38  39
ATOM     39  C   UNL     1       3.339  -0.356   5.482  1.00  0.00     0.031 A 
ATOM     40  C   UNL     1       3.998   0.137   6.745  1.00  0.00     0.074 A 
ATOM     41  C   UNL     1       2.174  -1.026   5.556  1.00  0.00     0.049 A 
ATOM     42  N   UNL     1       3.628  -0.013   7.989  1.00  0.00    -0.248 NA
ATOM     43  C   UNL     1       5.248   0.897   6.577  1.00  0.00     0.031 C 
ATOM     44  C   UNL     1       1.427  -1.553   4.417  1.00  0.00     0.029 A 
ATOM     45  N   UNL     1       1.435  -1.402   6.651  1.00  0.00    -0.354 N 
ATOM     46  C   UNL     1       4.617   0.595   8.755  1.00  0.00     0.074 A 
ATOM     47  C   UNL     1       5.607   1.110   7.834  1.00  0.00     0.031 C 
ATOM     48  C   UNL     1       0.351  -2.218   4.875  1.00  0.00     0.029 A 
ATOM     49  C   UNL     1       0.348  -2.184   6.338  1.00  0.00     0.049 A 
ATOM     50  H   UNL     1       1.661  -1.137   7.572  1.00  0.00     0.167 HD
ATOM     51  C   UNL     1       4.693   0.725  10.100  1.00  0.00     0.034 A 
ATOM     52  C   UNL     1      -0.530  -2.823   7.138  1.00  0.00     0.034 A 
ATOM     53  C   UNL     1       3.704   0.229  11.019  1.00  0.00     0.049 A 
ATOM     54  C   UNL     1      -0.416  -2.680   8.636  1.00  0.00     0.074 A 
ATOM     55  C   UNL     1       3.665   0.367  12.395  1.00  0.00     0.029 A 
ATOM     56  N   UNL     1       2.594  -0.518  10.661  1.00  0.00    -0.354 N 
ATOM     57  N   UNL     1       0.456  -1.997   9.338  1.00  0.00    -0.248 NA
ATOM     58  C   UNL     1      -1.431  -3.367   9.449  1.00  0.00     0.031 C 
ATOM     59  C   UNL     1       2.554  -0.335  12.874  1.00  0.00     0.029 A 
ATOM     60  C   UNL     1       1.873  -0.866  11.791  1.00  0.00     0.049 A 
ATOM     61  H   UNL     1       2.353  -0.765   9.739  1.00  0.00     0.167 HD
ATOM     62  C   UNL     1       0.072  -2.140  10.669  1.00  0.00     0.074 A 
ATOM     63  C   UNL     1      -1.121  -2.960  10.673  1.00  0.00     0.031 C 
ATOM     64  C   UNL     1       0.659  -1.643  11.786  1.00  0.00     0.034 A 
BRANCH  51  65
ATOM     65  C   UNL     1       5.895   1.437  10.665  1.00  0.00     0.023 A 
ATOM     66  C   UNL     1       6.037   2.829  10.492  1.00  0.00     0.012 A 
ATOM     67  C   UNL     1       6.863   0.732  11.406  1.00  0.00     0.148 A 
ATOM     68  C   UNL     1       7.142   3.501  11.013  1.00  0.00     0.002 A 
ATOM     69  C   UNL     1       7.935   1.416  11.966  1.00  0.00     0.091 A 
ATOM     70  F   UNL     1       6.723  -0.595  11.541  1.00  0.00    -0.205 F 
ATOM     71  C   UNL     1       8.084   2.796  11.758  1.00  0.00     0.022 A 
BRANCH  69  72
ATOM     72  S   UNL     1       9.155   0.613  13.011  1.00  0.00     0.127 S 
ATOM     73  O   UNL     1      10.339   0.638  12.154  1.00  0.00    -0.237 OA
ATOM     74  O   UNL     1       9.215   1.517  14.161  1.00  0.00    -0.237 OA
ATOM     75  O   UNL     1       8.624  -0.710  13.306  1.00  0.00    -0.744 OA
ENDBRANCH  69  72
ENDBRANCH  51  65
BRANCH  52  76
ATOM     76  C   UNL     1      -1.616  -3.650   6.538  1.00  0.00     0.023 A 
ATOM     77  C   UNL     1      -2.955  -3.227   6.639  1.00  0.00     0.012 A 
ATOM     78  C   UNL     1      -1.323  -4.850   5.863  1.00  0.00     0.148 A 
ATOM     79  C   UNL     1      -3.986  -4.000   6.104  1.00  0.00     0.002 A 
ATOM     80  C   UNL     1      -2.348  -5.586   5.283  1.00  0.00     0.091 A 
ATOM     81  F   UNL     1      -0.043  -5.242   5.794  1.00  0.00    -0.205 F 
ATOM     82  C   UNL     1      -3.683  -5.173   5.417  1.00  0.00     0.022 A 
BRANCH  80  83
ATOM     83  S   UNL     1      -2.043  -7.042   4.277  1.00  0.00     0.127 S 
ATOM     84  O   UNL     1      -2.642  -8.098   5.090  1.00  0.00    -0.237 OA
ATOM     85  O   UNL     1      -2.773  -6.717   3.053  1.00  0.00    -0.237 OA
ATOM     86  O   UNL     1      -0.597  -7.116   4.117  1.00  0.00    -0.744 OA
ENDBRANCH  80  83
ENDBRANCH  52  76
BRANCH  64  87
ATOM     87  C   UNL     1      -0.000  -1.919  13.116  1.00  0.00     0.023 A 
ATOM     88  C   UNL     1       0.017  -3.218  13.662  1.00  0.00     0.012 A 
ATOM     89  C   UNL     1      -0.579  -0.869  13.857  1.00  0.00     0.148 A 
ATOM     90  C   UNL     1      -0.566  -3.474  14.903  1.00  0.00     0.002 A 
ATOM     91  C   UNL     1      -1.109  -1.121  15.117  1.00  0.00     0.091 A 
ATOM     92  F   UNL     1      -0.601   0.358  13.317  1.00  0.00    -0.205 F 
ATOM     93  C   UNL     1      -1.117  -2.425  15.635  1.00  0.00     0.022 A 
BRANCH  91  94
ATOM     94  S   UNL     1      -1.749   0.185  16.172  1.00  0.00     0.127 S 
ATOM     95  O   UNL     1      -3.188  -0.074  16.127  1.00  0.00    -0.237 OA
ATOM     96  O   UNL     1      -1.116  -0.116  17.456  1.00  0.00    -0.237 OA
ATOM     97  O   UNL     1      -1.321   1.438  15.566  1.00  0.00    -0.744 OA
ENDBRANCH  91  94
ENDBRANCH  64  87
ENDBRANCH  38  39
ENDBRANCH  31  33
ENDBRANCH  30  31
ENDBRANCH  29  30
ENDBRANCH  28  29
ENDBRANCH  27  28
ENDBRANCH  26  27
ENDBRANCH   1  26
TORSDOF 26
