REMARK SMILES Cn1cc(C(=O)OCCOCCOCCOC(=O)c2ccc(-c3c4nc(c(-c5cccc(S(=O)(=O)[O-])c5F)c5ccc([nH]5)c(-c5cccc(S(=O)(=O)[O-])c5F)c5nc(c(-c6cccc(S(=O)(=O)[O-])c6F)c6ccc3[nH]6)C=C5)C=C4)cc2)c(C(=O)Nc2ccc(-c3nc4cc(Cl)ccc4o3)cc2)n1
REMARK SMILES IDX 11 1 10 2 9 3 8 4 7 5 5 6 6 7 4 8 1 9 2 10 3 11 102 12 82 13
REMARK SMILES IDX 83 14 84 15 85 16 86 18 87 19 101 20 88 21 100 22 89 23
REMARK SMILES IDX 90 24 91 25 99 26 92 27 98 28 93 29 97 30 94 31 96 32 95 33
REMARK SMILES IDX 12 34 13 35 14 36 15 37 16 38 17 39 18 40 19 41 20 42 81 43
REMARK SMILES IDX 21 44 80 45 22 46 23 47 24 48 74 49 25 50 79 51 73 52 75 53
REMARK SMILES IDX 26 54 78 55 72 56 71 57 27 59 59 60 39 61 58 62 40 63 43 64
REMARK SMILES IDX 57 65 76 66 41 67 42 68 56 70 77 71 44 72 28 73 29 74 37 75
REMARK SMILES IDX 30 76 32 77 38 78 31 79 33 80 34 81 35 82 36 83 60 84 61 85
REMARK SMILES IDX 69 86 62 87 64 88 70 89 63 90 65 91 66 92 67 93 68 94 45 95
REMARK SMILES IDX 46 96 54 97 47 98 49 99 55 100 48 101 50 102 51 103 52 104
REMARK SMILES IDX 53 105
REMARK H PARENT 85 17 75 58 43 69
REMARK Flexibility Score: inf
ROOT
ATOM      1  C   UNL     1       3.640  -1.960  -2.726  1.00  0.00     0.188 C 
ENDROOT
BRANCH   1   2
ATOM      2  O   UNL     1       4.093  -3.313  -2.779  1.00  0.00    -0.376 OA
BRANCH   2   3
ATOM      3  C   UNL     1       3.828  -4.111  -1.630  1.00  0.00     0.202 C 
BRANCH   3   4
ATOM      4  C   UNL     1       2.404  -4.100  -1.084  1.00  0.00     0.261 C 
BRANCH   4   5
ATOM      5  O   UNL     1       2.133  -2.784  -0.566  1.00  0.00    -0.460 OA
BRANCH   5   6
ATOM      6  C   UNL     1       1.280  -2.682   0.468  1.00  0.00     0.342 C 
ATOM      7  O   UNL     1       0.861  -3.635   1.119  1.00  0.00    -0.246 OA
BRANCH   6   8
ATOM      8  C   UNL     1       0.756  -1.342   0.606  1.00  0.00     0.111 A 
ATOM      9  C   UNL     1      -2.073   0.829   0.133  1.00  0.00     0.173 C 
ATOM     10  N   UNL     1      -0.841   0.151   0.453  1.00  0.00    -0.274 N 
ATOM     11  C   UNL     1      -0.619  -1.176   0.483  1.00  0.00     0.125 A 
ATOM     12  N   UNL     1       0.249   0.863   0.691  1.00  0.00    -0.167 NA
ATOM     13  C   UNL     1       1.294  -0.007   0.758  1.00  0.00     0.165 A 
BRANCH  13  14
ATOM     14  C   UNL     1       2.611   0.690   0.912  1.00  0.00     0.277 C 
ATOM     15  O   UNL     1       2.670   1.906   0.655  1.00  0.00    -0.267 OA
ATOM     16  N   UNL     1       3.852   0.229   1.287  1.00  0.00    -0.321 N 
ATOM     17  H   UNL     1       4.499   0.971   1.304  1.00  0.00     0.170 HD
BRANCH  16  18
ATOM     18  C   UNL     1       4.472  -0.959   1.648  1.00  0.00     0.041 A 
ATOM     19  C   UNL     1       5.877  -1.005   1.569  1.00  0.00     0.027 A 
ATOM     20  C   UNL     1       3.793  -2.094   2.014  1.00  0.00     0.027 A 
ATOM     21  C   UNL     1       6.560  -2.229   1.588  1.00  0.00     0.016 A 
ATOM     22  C   UNL     1       4.454  -3.318   1.999  1.00  0.00     0.016 A 
ATOM     23  C   UNL     1       5.830  -3.407   1.715  1.00  0.00     0.037 A 
BRANCH  23  24
ATOM     24  C   UNL     1       6.354  -4.718   1.334  1.00  0.00     0.227 A 
ATOM     25  N   UNL     1       6.781  -5.066   0.128  1.00  0.00    -0.209 NA
ATOM     26  O   UNL     1       5.813  -5.756   2.055  1.00  0.00    -0.436 OA
ATOM     27  C   UNL     1       6.230  -6.312  -0.054  1.00  0.00     0.111 A 
ATOM     28  C   UNL     1       5.642  -6.733   1.126  1.00  0.00     0.155 A 
ATOM     29  C   UNL     1       6.075  -7.094  -1.206  1.00  0.00     0.053 A 
ATOM     30  C   UNL     1       4.891  -7.889   1.281  1.00  0.00     0.051 A 
ATOM     31  C   UNL     1       5.263  -8.233  -1.105  1.00  0.00     0.043 A 
ATOM     32  C   UNL     1       4.685  -8.625   0.111  1.00  0.00     0.024 A 
ATOM     33  Cl  UNL     1       4.906  -9.142  -2.526  1.00  0.00    -0.084 Cl
ENDBRANCH  23  24
ENDBRANCH  16  18
ENDBRANCH  13  14
ENDBRANCH   6   8
ENDBRANCH   5   6
ENDBRANCH   4   5
ENDBRANCH   3   4
ENDBRANCH   2   3
ENDBRANCH   1   2
BRANCH   1  34
ATOM     34  C   UNL     1       2.236  -1.819  -3.344  1.00  0.00     0.188 C 
BRANCH  34  35
ATOM     35  O   UNL     1       1.836  -2.991  -4.054  1.00  0.00    -0.376 OA
BRANCH  35  36
ATOM     36  C   UNL     1       2.124  -3.014  -5.452  1.00  0.00     0.202 C 
BRANCH  36  37
ATOM     37  C   UNL     1       3.585  -2.793  -5.884  1.00  0.00     0.261 C 
BRANCH  37  38
ATOM     38  O   UNL     1       4.112  -1.478  -5.625  1.00  0.00    -0.460 OA
BRANCH  38  39
ATOM     39  C   UNL     1       3.445  -0.422  -6.138  1.00  0.00     0.338 C 
ATOM     40  O   UNL     1       2.497  -0.452  -6.902  1.00  0.00    -0.246 OA
BRANCH  39  41
ATOM     41  C   UNL     1       3.920   0.796  -5.450  1.00  0.00     0.060 A 
ATOM     42  C   UNL     1       2.974   1.626  -4.833  1.00  0.00     0.016 A 
ATOM     43  C   UNL     1       5.275   1.135  -5.446  1.00  0.00     0.016 A 
ATOM     44  C   UNL     1       3.374   2.837  -4.269  1.00  0.00     0.010 A 
ATOM     45  C   UNL     1       5.672   2.360  -4.904  1.00  0.00     0.010 A 
ATOM     46  C   UNL     1       4.714   3.236  -4.364  1.00  0.00    -0.014 A 
BRANCH  46  47
ATOM     47  C   UNL     1       5.052   4.667  -4.176  1.00  0.00     0.031 A 
ATOM     48  C   UNL     1       4.949   5.568  -5.379  1.00  0.00     0.074 A 
ATOM     49  C   UNL     1       5.441   5.160  -2.989  1.00  0.00     0.049 A 
ATOM     50  N   UNL     1       5.157   6.854  -5.472  1.00  0.00    -0.248 NA
ATOM     51  C   UNL     1       4.552   4.929  -6.647  1.00  0.00     0.031 C 
ATOM     52  C   UNL     1       5.577   4.393  -1.753  1.00  0.00     0.029 A 
ATOM     53  N   UNL     1       5.812   6.435  -2.640  1.00  0.00    -0.354 N 
ATOM     54  C   UNL     1       4.919   7.177  -6.802  1.00  0.00     0.074 A 
ATOM     55  C   UNL     1       4.572   5.953  -7.487  1.00  0.00     0.031 C 
ATOM     56  C   UNL     1       6.033   5.210  -0.785  1.00  0.00     0.029 A 
ATOM     57  C   UNL     1       6.222   6.552  -1.334  1.00  0.00     0.049 A 
ATOM     58  H   UNL     1       5.786   7.194  -3.267  1.00  0.00     0.167 HD
ATOM     59  C   UNL     1       4.960   8.388  -7.401  1.00  0.00     0.034 A 
ATOM     60  C   UNL     1       6.698   7.623  -0.666  1.00  0.00     0.034 A 
ATOM     61  C   UNL     1       5.300   9.608  -6.728  1.00  0.00     0.049 A 
ATOM     62  C   UNL     1       6.776   8.956  -1.369  1.00  0.00     0.074 A 
ATOM     63  C   UNL     1       5.336  10.892  -7.240  1.00  0.00     0.029 A 
ATOM     64  N   UNL     1       5.680   9.692  -5.399  1.00  0.00    -0.354 N 
ATOM     65  N   UNL     1       6.402   9.275  -2.585  1.00  0.00    -0.248 NA
ATOM     66  C   UNL     1       7.312  10.087  -0.594  1.00  0.00     0.031 C 
ATOM     67  C   UNL     1       5.753  11.753  -6.219  1.00  0.00     0.029 A 
ATOM     68  C   UNL     1       5.968  11.004  -5.073  1.00  0.00     0.049 A 
ATOM     69  H   UNL     1       5.736   8.930  -4.778  1.00  0.00     0.167 HD
ATOM     70  C   UNL     1       6.625  10.643  -2.710  1.00  0.00     0.074 A 
ATOM     71  C   UNL     1       7.149  11.098  -1.439  1.00  0.00     0.031 C 
ATOM     72  C   UNL     1       6.431  11.448  -3.784  1.00  0.00     0.034 A 
BRANCH  59  73
ATOM     73  C   UNL     1       4.580   8.448  -8.853  1.00  0.00     0.023 A 
ATOM     74  C   UNL     1       3.217   8.384  -9.208  1.00  0.00     0.012 A 
ATOM     75  C   UNL     1       5.555   8.587  -9.857  1.00  0.00     0.148 A 
ATOM     76  C   UNL     1       2.830   8.436 -10.545  1.00  0.00     0.002 A 
ATOM     77  C   UNL     1       5.159   8.670 -11.187  1.00  0.00     0.091 A 
ATOM     78  F   UNL     1       6.846   8.608  -9.499  1.00  0.00    -0.205 F 
ATOM     79  C   UNL     1       3.800   8.588 -11.533  1.00  0.00     0.022 A 
BRANCH  77  80
ATOM     80  S   UNL     1       6.332   8.917 -12.524  1.00  0.00     0.127 S 
ATOM     81  O   UNL     1       6.397   7.580 -13.112  1.00  0.00    -0.237 OA
ATOM     82  O   UNL     1       5.654   9.915 -13.353  1.00  0.00    -0.237 OA
ATOM     83  O   UNL     1       7.558   9.389 -11.895  1.00  0.00    -0.744 OA
ENDBRANCH  77  80
ENDBRANCH  59  73
BRANCH  60  84
ATOM     84  C   UNL     1       7.091   7.496   0.766  1.00  0.00     0.023 A 
ATOM     85  C   UNL     1       6.309   8.121   1.756  1.00  0.00     0.012 A 
ATOM     86  C   UNL     1       8.227   6.760   1.153  1.00  0.00     0.148 A 
ATOM     87  C   UNL     1       6.667   8.040   3.103  1.00  0.00     0.002 A 
ATOM     88  C   UNL     1       8.550   6.641   2.501  1.00  0.00     0.091 A 
ATOM     89  F   UNL     1       8.976   6.194   0.197  1.00  0.00    -0.205 F 
ATOM     90  C   UNL     1       7.780   7.292   3.476  1.00  0.00     0.022 A 
BRANCH  88  91
ATOM     91  S   UNL     1       9.895   5.593   3.069  1.00  0.00     0.127 S 
ATOM     92  O   UNL     1      10.941   6.573   3.351  1.00  0.00    -0.237 OA
ATOM     93  O   UNL     1       9.314   4.955   4.251  1.00  0.00    -0.237 OA
ATOM     94  O   UNL     1      10.158   4.674   1.969  1.00  0.00    -0.744 OA
ENDBRANCH  88  91
ENDBRANCH  60  84
BRANCH  72  95
ATOM     95  C   UNL     1       6.772  12.908  -3.642  1.00  0.00     0.023 A 
ATOM     96  C   UNL     1       8.123  13.305  -3.658  1.00  0.00     0.012 A 
ATOM     97  C   UNL     1       5.762  13.889  -3.603  1.00  0.00     0.148 A 
ATOM     98  C   UNL     1       8.465  14.656  -3.617  1.00  0.00     0.002 A 
ATOM     99  C   UNL     1       6.109  15.235  -3.604  1.00  0.00     0.091 A 
ATOM    100  F   UNL     1       4.481  13.490  -3.570  1.00  0.00    -0.205 F 
ATOM    101  C   UNL     1       7.459  15.620  -3.603  1.00  0.00     0.022 A 
BRANCH  99 102
ATOM    102  S   UNL     1       4.874  16.539  -3.683  1.00  0.00     0.127 S 
ATOM    103  O   UNL     1       4.812  16.978  -2.291  1.00  0.00    -0.237 OA
ATOM    104  O   UNL     1       5.489  17.501  -4.599  1.00  0.00    -0.237 OA
ATOM    105  O   UNL     1       3.667  15.908  -4.200  1.00  0.00    -0.744 OA
ENDBRANCH  99 102
ENDBRANCH  72  95
ENDBRANCH  46  47
ENDBRANCH  39  41
ENDBRANCH  38  39
ENDBRANCH  37  38
ENDBRANCH  36  37
ENDBRANCH  35  36
ENDBRANCH  34  35
ENDBRANCH   1  34
TORSDOF 23
