REMARK SMILES Cc1ccc(C)c(S(=O)(=O)N[C@@H](CC2=c3ccccc3=NC2)C(=O)OCCOCCOCCOC(=O)c2ccc(-c3c4nc(c(-c5cccc(S(=O)(=O)[O-])c5F)c5ccc([nH]5)c(-c5cccc(S(=O)(=O)[O-])c5F)c5nc(c(-c6cccc(S(=O)(=O)[O-])c6F)c6ccc3[nH]6)C=C5)C=C4)cc2)c1
REMARK SMILES IDX 29 1 28 2 27 3 26 4 25 5 23 6 24 7 12 8 11 9 8 11 9 12 10 13
REMARK SMILES IDX 7 14 1 15 2 16 3 17 100 18 4 19 5 20 6 21 13 22 14 23 15 24
REMARK SMILES IDX 22 25 16 26 20 27 21 28 17 29 19 30 18 31 30 32 31 33 32 34
REMARK SMILES IDX 33 35 34 36 35 37 36 38 37 39 38 40 99 41 39 42 98 43 40 44
REMARK SMILES IDX 41 45 42 46 92 47 43 48 97 49 91 50 93 51 44 52 96 53 90 54
REMARK SMILES IDX 89 55 45 57 77 58 57 59 76 60 58 61 61 62 75 63 94 64 59 65
REMARK SMILES IDX 60 66 74 68 95 69 62 70 46 71 47 72 55 73 48 74 50 75 56 76
REMARK SMILES IDX 49 77 51 78 52 79 53 80 54 81 78 82 79 83 87 84 80 85 82 86
REMARK SMILES IDX 88 87 81 88 83 89 84 90 85 91 86 92 63 93 64 94 72 95 65 96
REMARK SMILES IDX 67 97 73 98 66 99 68 100 69 101 70 102 71 103
REMARK H PARENT 11 10 93 56 61 67
REMARK Flexibility Score: inf
ROOT
ATOM      1  C   UNL     1       5.361   6.869   0.736  1.00  0.00     0.188 C 
ENDROOT
BRANCH   1   2
ATOM      2  O   UNL     1       5.301   6.183  -0.540  1.00  0.00    -0.376 OA
BRANCH   2   3
ATOM      3  C   UNL     1       4.763   6.810  -1.711  1.00  0.00     0.202 C 
BRANCH   3   4
ATOM      4  C   UNL     1       4.064   5.802  -2.769  1.00  0.00     0.261 C 
BRANCH   4   5
ATOM      5  O   UNL     1       3.114   4.597  -2.292  1.00  0.00    -0.462 OA
BRANCH   5   6
ATOM      6  C   UNL     1       2.106   3.780  -1.877  1.00  0.00     0.324 C 
ATOM      7  O   UNL     1       2.456   2.592  -1.737  1.00  0.00    -0.250 OA
BRANCH   6   8
ATOM      8  C   UNL     1       0.455   4.096  -1.520  1.00  0.00     0.183 C 
BRANCH   8   9
ATOM      9  N   UNL     1      -0.436   3.990  -2.749  1.00  0.00    -0.197 NA
ATOM     10  H   UNL     1      -1.398   3.983  -2.411  1.00  0.00     0.142 HD
BRANCH   9  11
ATOM     11  S   UNL     1      -0.291   2.677  -3.828  1.00  0.00     0.241 S 
ATOM     12  O   UNL     1       1.034   2.716  -4.345  1.00  0.00    -0.207 OA
ATOM     13  O   UNL     1      -1.454   2.789  -4.716  1.00  0.00    -0.207 OA
BRANCH  11  14
ATOM     14  C   UNL     1      -0.541   1.115  -2.954  1.00  0.00     0.085 A 
ATOM     15  C   UNL     1      -1.735  -0.009   0.501  1.00  0.00     0.044 C 
ATOM     16  C   UNL     1      -1.206  -0.050  -0.902  1.00  0.00    -0.050 A 
ATOM     17  C   UNL     1      -0.750  -1.252  -1.437  1.00  0.00     0.004 A 
ATOM     18  C   UNL     1      -1.157   1.107  -1.695  1.00  0.00     0.025 A 
ATOM     19  C   UNL     1      -0.232  -1.285  -2.731  1.00  0.00     0.005 A 
ATOM     20  C   UNL     1      -0.108  -0.110  -3.505  1.00  0.00    -0.031 A 
ATOM     21  C   UNL     1       0.429  -0.293  -4.898  1.00  0.00     0.046 C 
ENDBRANCH  11  14
ENDBRANCH   9  11
ENDBRANCH   8   9
BRANCH   8  22
ATOM     22  C   UNL     1      -0.712   4.172  -0.177  1.00  0.00     0.065 C 
BRANCH  22  23
ATOM     23  C   UNL     1      -1.244   5.055   0.996  1.00  0.00    -0.037 C 
ATOM     24  C   UNL     1      -1.069   4.900   2.323  1.00  0.00     0.001 A 
ATOM     25  C   UNL     1      -2.322   6.129   0.857  1.00  0.00     0.174 C 
ATOM     26  C   UNL     1      -0.366   3.979   3.160  1.00  0.00     0.010 A 
ATOM     27  C   UNL     1      -1.570   6.176   2.901  1.00  0.00     0.065 A 
ATOM     28  N   UNL     1      -2.303   6.918   2.133  1.00  0.00    -0.280 NA
ATOM     29  C   UNL     1       0.092   4.399   4.353  1.00  0.00     0.001 A 
ATOM     30  C   UNL     1      -0.970   6.603   4.206  1.00  0.00     0.028 A 
ATOM     31  C   UNL     1      -0.107   5.765   4.809  1.00  0.00     0.002 A 
ENDBRANCH  22  23
ENDBRANCH   8  22
ENDBRANCH   6   8
ENDBRANCH   5   6
ENDBRANCH   4   5
ENDBRANCH   3   4
ENDBRANCH   2   3
ENDBRANCH   1   2
BRANCH   1  32
ATOM     32  C   UNL     1       4.399   8.019   1.080  1.00  0.00     0.188 C 
BRANCH  32  33
ATOM     33  O   UNL     1       4.633   8.657   2.335  1.00  0.00    -0.376 OA
BRANCH  33  34
ATOM     34  C   UNL     1       3.596   8.417   3.308  1.00  0.00     0.202 C 
BRANCH  34  35
ATOM     35  C   UNL     1       3.790   7.047   3.975  1.00  0.00     0.261 C 
BRANCH  35  36
ATOM     36  O   UNL     1       2.842   5.975   3.679  1.00  0.00    -0.460 OA
BRANCH  36  37
ATOM     37  C   UNL     1       2.812   5.204   2.561  1.00  0.00     0.338 C 
ATOM     38  O   UNL     1       3.087   4.014   2.534  1.00  0.00    -0.246 OA
BRANCH  37  39
ATOM     39  C   UNL     1       2.114   5.879   1.445  1.00  0.00     0.060 A 
ATOM     40  C   UNL     1       1.133   6.835   1.658  1.00  0.00     0.016 A 
ATOM     41  C   UNL     1       2.492   5.702   0.150  1.00  0.00     0.016 A 
ATOM     42  C   UNL     1       0.626   7.699   0.671  1.00  0.00     0.010 A 
ATOM     43  C   UNL     1       1.989   6.601  -0.824  1.00  0.00     0.010 A 
ATOM     44  C   UNL     1       1.207   7.705  -0.561  1.00  0.00    -0.014 A 
BRANCH  44  45
ATOM     45  C   UNL     1       0.945   8.596  -1.705  1.00  0.00     0.031 A 
ATOM     46  C   UNL     1      -0.218   8.147  -2.491  1.00  0.00     0.074 A 
ATOM     47  C   UNL     1       1.791   9.565  -2.155  1.00  0.00     0.049 A 
ATOM     48  N   UNL     1      -0.217   7.309  -3.480  1.00  0.00    -0.248 NA
ATOM     49  C   UNL     1      -1.550   8.494  -1.987  1.00  0.00     0.031 C 
ATOM     50  C   UNL     1       2.835  10.225  -1.369  1.00  0.00     0.029 A 
ATOM     51  N   UNL     1       1.885  10.229  -3.366  1.00  0.00    -0.354 N 
ATOM     52  C   UNL     1      -1.527   7.358  -3.944  1.00  0.00     0.074 A 
ATOM     53  C   UNL     1      -2.331   7.842  -2.851  1.00  0.00     0.031 C 
ATOM     54  C   UNL     1       3.377  11.250  -2.057  1.00  0.00     0.029 A 
ATOM     55  C   UNL     1       2.737  11.348  -3.348  1.00  0.00     0.049 A 
ATOM     56  H   UNL     1       1.397   9.943  -4.172  1.00  0.00     0.167 HD
ATOM     57  C   UNL     1      -1.791   7.428  -5.277  1.00  0.00     0.034 A 
ATOM     58  C   UNL     1       2.877  12.339  -4.272  1.00  0.00     0.034 A 
ATOM     59  C   UNL     1      -0.654   7.095  -6.080  1.00  0.00     0.049 A 
ATOM     60  C   UNL     1       2.499  11.774  -5.578  1.00  0.00     0.074 A 
ATOM     61  C   UNL     1       0.052   5.961  -6.410  1.00  0.00     0.029 A 
ATOM     62  N   UNL     1       0.124   8.174  -6.394  1.00  0.00    -0.354 N 
ATOM     63  N   UNL     1       3.217  10.884  -6.202  1.00  0.00    -0.248 NA
ATOM     64  C   UNL     1       1.140  11.961  -6.072  1.00  0.00     0.031 C 
ATOM     65  C   UNL     1       1.344   6.399  -6.816  1.00  0.00     0.029 A 
ATOM     66  C   UNL     1       1.373   7.790  -6.792  1.00  0.00     0.049 A 
ATOM     67  H   UNL     1      -0.177   9.110  -6.340  1.00  0.00     0.167 HD
ATOM     68  C   UNL     1       2.269  10.093  -6.817  1.00  0.00     0.074 A 
ATOM     69  C   UNL     1       1.049  10.887  -6.857  1.00  0.00     0.031 C 
ATOM     70  C   UNL     1       2.447   8.748  -6.893  1.00  0.00     0.034 A 
BRANCH  57  71
ATOM     71  C   UNL     1      -2.897   8.297  -5.820  1.00  0.00     0.023 A 
ATOM     72  C   UNL     1      -3.445   8.024  -7.084  1.00  0.00     0.012 A 
ATOM     73  C   UNL     1      -3.252   9.525  -5.215  1.00  0.00     0.148 A 
ATOM     74  C   UNL     1      -4.372   8.897  -7.672  1.00  0.00     0.002 A 
ATOM     75  C   UNL     1      -4.250  10.329  -5.743  1.00  0.00     0.091 A 
ATOM     76  F   UNL     1      -2.515   9.992  -4.199  1.00  0.00    -0.205 F 
ATOM     77  C   UNL     1      -4.808  10.028  -6.983  1.00  0.00     0.022 A 
BRANCH  75  78
ATOM     78  S   UNL     1      -4.873  11.739  -4.825  1.00  0.00     0.127 S 
ATOM     79  O   UNL     1      -4.260  12.851  -5.543  1.00  0.00    -0.237 OA
ATOM     80  O   UNL     1      -6.319  11.600  -5.005  1.00  0.00    -0.237 OA
ATOM     81  O   UNL     1      -4.422  11.524  -3.455  1.00  0.00    -0.744 OA
ENDBRANCH  75  78
ENDBRANCH  57  71
BRANCH  58  82
ATOM     82  C   UNL     1       3.122  13.809  -4.111  1.00  0.00     0.023 A 
ATOM     83  C   UNL     1       3.244  14.627  -5.262  1.00  0.00     0.012 A 
ATOM     84  C   UNL     1       2.919  14.466  -2.879  1.00  0.00     0.148 A 
ATOM     85  C   UNL     1       3.055  16.016  -5.200  1.00  0.00     0.002 A 
ATOM     86  C   UNL     1       2.736  15.846  -2.820  1.00  0.00     0.091 A 
ATOM     87  F   UNL     1       2.809  13.744  -1.761  1.00  0.00    -0.205 F 
ATOM     88  C   UNL     1       2.775  16.623  -3.981  1.00  0.00     0.022 A 
BRANCH  86  89
ATOM     89  S   UNL     1       2.353  16.669  -1.267  1.00  0.00     0.127 S 
ATOM     90  O   UNL     1       3.147  17.894  -1.361  1.00  0.00    -0.237 OA
ATOM     91  O   UNL     1       0.910  16.863  -1.377  1.00  0.00    -0.237 OA
ATOM     92  O   UNL     1       2.794  15.755  -0.219  1.00  0.00    -0.744 OA
ENDBRANCH  86  89
ENDBRANCH  58  82
BRANCH  70  93
ATOM     93  C   UNL     1       3.845   8.227  -6.961  1.00  0.00     0.023 A 
ATOM     94  C   UNL     1       4.713   8.173  -5.856  1.00  0.00     0.012 A 
ATOM     95  C   UNL     1       4.233   7.652  -8.182  1.00  0.00     0.148 A 
ATOM     96  C   UNL     1       5.944   7.518  -5.968  1.00  0.00     0.002 A 
ATOM     97  C   UNL     1       5.441   6.985  -8.282  1.00  0.00     0.091 A 
ATOM     98  F   UNL     1       3.384   7.744  -9.217  1.00  0.00    -0.205 F 
ATOM     99  C   UNL     1       6.299   6.909  -7.173  1.00  0.00     0.022 A 
BRANCH  97 100
ATOM    100  S   UNL     1       5.929   6.147  -9.789  1.00  0.00     0.127 S 
ATOM    101  O   UNL     1       7.115   6.906 -10.185  1.00  0.00    -0.237 OA
ATOM    102  O   UNL     1       6.199   4.791  -9.313  1.00  0.00    -0.237 OA
ATOM    103  O   UNL     1       4.797   6.255 -10.701  1.00  0.00    -0.744 OA
ENDBRANCH  97 100
ENDBRANCH  70  93
ENDBRANCH  44  45
ENDBRANCH  37  39
ENDBRANCH  36  37
ENDBRANCH  35  36
ENDBRANCH  34  35
ENDBRANCH  33  34
ENDBRANCH  32  33
ENDBRANCH   1  32
TORSDOF 25
