REMARK SMILES C[C@H]([NH2+]CCc1ccco1)[C@@H](C)C(=O)OCCOCCOCCOC(=O)c1ccc(-c2c3nc(c(-c4cccc(S(=O)(=O)[O-])c4F)c4ccc([nH]4)c(-c4cccc(S(=O)(=O)[O-])c4F)c4nc(c(-c5cccc(S(=O)(=O)[O-])c5F)c5ccc2[nH]5)C=C4)C=C3)cc1
REMARK SMILES IDX 19 1 18 2 17 3 16 4 15 5 13 6 14 7 11 8 12 9 2 10 1 11 3 12
REMARK SMILES IDX 4 15 5 16 6 17 7 18 10 19 8 20 9 21 20 22 21 23 22 24 23 25
REMARK SMILES IDX 24 26 25 27 26 28 27 29 28 30 89 31 29 32 88 33 30 34 31 35
REMARK SMILES IDX 32 36 82 37 33 38 87 39 81 40 83 41 34 42 86 43 80 44 79 45
REMARK SMILES IDX 35 47 67 48 47 49 66 50 48 51 51 52 65 53 84 54 49 55 50 56
REMARK SMILES IDX 64 58 85 59 52 60 36 61 37 62 45 63 38 64 40 65 46 66 39 67
REMARK SMILES IDX 41 68 42 69 43 70 44 71 68 72 69 73 77 74 70 75 72 76 78 77
REMARK SMILES IDX 71 78 73 79 74 80 75 81 76 82 53 83 54 84 62 85 55 86 57 87
REMARK SMILES IDX 63 88 56 89 58 90 59 91 60 92 61 93
REMARK H PARENT 3 13 3 14 83 46 51 57
REMARK Flexibility Score: inf
ROOT
ATOM      1  C   UNL     1      -1.986  -1.336  -4.980  1.00  0.00     0.188 C 
ENDROOT
BRANCH   1   2
ATOM      2  O   UNL     1      -2.682  -0.448  -5.841  1.00  0.00    -0.376 OA
BRANCH   2   3
ATOM      3  C   UNL     1      -2.360   0.937  -5.838  1.00  0.00     0.202 C 
BRANCH   3   4
ATOM      4  C   UNL     1      -2.458   1.736  -4.520  1.00  0.00     0.261 C 
BRANCH   4   5
ATOM      5  O   UNL     1      -1.506   1.452  -3.450  1.00  0.00    -0.463 OA
BRANCH   5   6
ATOM      6  C   UNL     1      -2.029   0.838  -2.353  1.00  0.00     0.314 C 
ATOM      7  O   UNL     1      -3.204   0.476  -2.297  1.00  0.00    -0.252 OA
BRANCH   6   8
ATOM      8  C   UNL     1      -1.122   0.675  -1.119  1.00  0.00     0.154 C 
ATOM      9  C   UNL     1      -1.633   1.731  -0.122  1.00  0.00     0.026 C 
BRANCH   8  10
ATOM     10  C   UNL     1       0.447   0.653  -1.178  1.00  0.00     0.193 C 
ATOM     11  C   UNL     1       1.013  -0.628  -1.818  1.00  0.00     0.076 C 
BRANCH  10  12
ATOM     12  N   UNL     1       0.961   0.677   0.218  1.00  0.00    -0.343 N 
ATOM     13  H   UNL     1       0.789  -0.238   0.634  1.00  0.00     0.346 HD
ATOM     14  H   UNL     1       0.469   1.435   0.691  1.00  0.00     0.346 HD
BRANCH  12  15
ATOM     15  C   UNL     1       2.395   0.974   0.346  1.00  0.00     0.268 C 
BRANCH  15  16
ATOM     16  C   UNL     1       2.934   0.628   1.748  1.00  0.00     0.136 C 
BRANCH  16  17
ATOM     17  C   UNL     1       2.844  -0.817   2.121  1.00  0.00     0.109 A 
ATOM     18  C   UNL     1       2.653  -1.458   3.329  1.00  0.00     0.046 A 
ATOM     19  O   UNL     1       2.987  -1.741   1.127  1.00  0.00    -0.469 OA
ATOM     20  C   UNL     1       2.666  -2.847   3.055  1.00  0.00     0.042 A 
ATOM     21  C   UNL     1       2.868  -2.967   1.701  1.00  0.00     0.195 A 
ENDBRANCH  16  17
ENDBRANCH  15  16
ENDBRANCH  12  15
ENDBRANCH  10  12
ENDBRANCH   8  10
ENDBRANCH   6   8
ENDBRANCH   5   6
ENDBRANCH   4   5
ENDBRANCH   3   4
ENDBRANCH   2   3
ENDBRANCH   1   2
BRANCH   1  22
ATOM     22  C   UNL     1      -0.540  -1.016  -4.622  1.00  0.00     0.188 C 
BRANCH  22  23
ATOM     23  O   UNL     1       0.083  -0.069  -5.463  1.00  0.00    -0.376 OA
BRANCH  23  24
ATOM     24  C   UNL     1       1.359  -0.364  -5.995  1.00  0.00     0.202 C 
BRANCH  24  25
ATOM     25  C   UNL     1       1.368  -1.539  -6.980  1.00  0.00     0.261 C 
BRANCH  25  26
ATOM     26  O   UNL     1       0.956  -2.800  -6.422  1.00  0.00    -0.460 OA
BRANCH  26  27
ATOM     27  C   UNL     1       1.718  -3.289  -5.417  1.00  0.00     0.338 C 
ATOM     28  O   UNL     1       2.766  -2.814  -4.998  1.00  0.00    -0.246 OA
BRANCH  27  29
ATOM     29  C   UNL     1       0.952  -4.348  -4.725  1.00  0.00     0.060 A 
ATOM     30  C   UNL     1       0.797  -4.258  -3.334  1.00  0.00     0.016 A 
ATOM     31  C   UNL     1       0.388  -5.412  -5.430  1.00  0.00     0.016 A 
ATOM     32  C   UNL     1       0.131  -5.262  -2.636  1.00  0.00     0.010 A 
ATOM     33  C   UNL     1      -0.261  -6.431  -4.727  1.00  0.00     0.010 A 
ATOM     34  C   UNL     1      -0.345  -6.386  -3.322  1.00  0.00    -0.014 A 
BRANCH  34  35
ATOM     35  C   UNL     1      -0.685  -7.609  -2.554  1.00  0.00     0.031 A 
ATOM     36  C   UNL     1       0.337  -8.715  -2.500  1.00  0.00     0.074 A 
ATOM     37  C   UNL     1      -1.845  -7.729  -1.883  1.00  0.00     0.049 A 
ATOM     38  N   UNL     1       0.265  -9.889  -1.931  1.00  0.00    -0.248 NA
ATOM     39  C   UNL     1       1.617  -8.458  -3.185  1.00  0.00     0.031 C 
ATOM     40  C   UNL     1      -2.900  -6.721  -1.824  1.00  0.00     0.029 A 
ATOM     41  N   UNL     1      -2.330  -8.771  -1.131  1.00  0.00    -0.354 N 
ATOM     42  C   UNL     1       1.466 -10.525  -2.225  1.00  0.00     0.074 A 
ATOM     43  C   UNL     1       2.244  -9.613  -3.032  1.00  0.00     0.031 C 
ATOM     44  C   UNL     1      -3.922  -7.203  -1.094  1.00  0.00     0.029 A 
ATOM     45  C   UNL     1      -3.606  -8.564  -0.663  1.00  0.00     0.049 A 
ATOM     46  H   UNL     1      -1.814  -9.589  -0.946  1.00  0.00     0.167 HD
ATOM     47  C   UNL     1       1.893 -11.753  -1.847  1.00  0.00     0.034 A 
ATOM     48  C   UNL     1      -4.430  -9.390   0.013  1.00  0.00     0.034 A 
ATOM     49  C   UNL     1       1.130 -12.650  -1.023  1.00  0.00     0.049 A 
ATOM     50  C   UNL     1      -3.944 -10.766   0.395  1.00  0.00     0.074 A 
ATOM     51  C   UNL     1       1.486 -13.904  -0.559  1.00  0.00     0.029 A 
ATOM     52  N   UNL     1      -0.147 -12.396  -0.549  1.00  0.00    -0.354 N 
ATOM     53  N   UNL     1      -2.776 -11.323   0.180  1.00  0.00    -0.248 NA
ATOM     54  C   UNL     1      -4.882 -11.616   1.143  1.00  0.00     0.031 C 
ATOM     55  C   UNL     1       0.409 -14.422   0.167  1.00  0.00     0.029 A 
ATOM     56  C   UNL     1      -0.599 -13.472   0.195  1.00  0.00     0.049 A 
ATOM     57  H   UNL     1      -0.657 -11.571  -0.717  1.00  0.00     0.167 HD
ATOM     58  C   UNL     1      -2.825 -12.568   0.800  1.00  0.00     0.074 A 
ATOM     59  C   UNL     1      -4.130 -12.672   1.420  1.00  0.00     0.031 C 
ATOM     60  C   UNL     1      -1.882 -13.543   0.846  1.00  0.00     0.034 A 
BRANCH  47  61
ATOM     61  C   UNL     1       3.252 -12.194  -2.324  1.00  0.00     0.023 A 
ATOM     62  C   UNL     1       4.415 -11.594  -1.799  1.00  0.00     0.012 A 
ATOM     63  C   UNL     1       3.376 -13.230  -3.271  1.00  0.00     0.148 A 
ATOM     64  C   UNL     1       5.678 -11.990  -2.238  1.00  0.00     0.002 A 
ATOM     65  C   UNL     1       4.639 -13.655  -3.664  1.00  0.00     0.091 A 
ATOM     66  F   UNL     1       2.259 -13.771  -3.776  1.00  0.00    -0.205 F 
ATOM     67  C   UNL     1       5.790 -13.027  -3.161  1.00  0.00     0.022 A 
BRANCH  65  68
ATOM     68  S   UNL     1       4.891 -15.034  -4.785  1.00  0.00     0.127 S 
ATOM     69  O   UNL     1       5.433 -14.361  -5.965  1.00  0.00    -0.237 OA
ATOM     70  O   UNL     1       5.859 -15.850  -4.051  1.00  0.00    -0.237 OA
ATOM     71  O   UNL     1       3.586 -15.652  -4.965  1.00  0.00    -0.744 OA
ENDBRANCH  65  68
ENDBRANCH  47  61
BRANCH  48  72
ATOM     72  C   UNL     1      -5.801  -8.941   0.392  1.00  0.00     0.023 A 
ATOM     73  C   UNL     1      -6.128  -8.758   1.750  1.00  0.00     0.012 A 
ATOM     74  C   UNL     1      -6.787  -8.711  -0.587  1.00  0.00     0.148 A 
ATOM     75  C   UNL     1      -7.420  -8.391   2.128  1.00  0.00     0.002 A 
ATOM     76  C   UNL     1      -8.056  -8.290  -0.207  1.00  0.00     0.091 A 
ATOM     77  F   UNL     1      -6.463  -8.909  -1.873  1.00  0.00    -0.205 F 
ATOM     78  C   UNL     1      -8.381  -8.149   1.151  1.00  0.00     0.022 A 
BRANCH  76  79
ATOM     79  S   UNL     1      -9.323  -7.843  -1.400  1.00  0.00     0.127 S 
ATOM     80  O   UNL     1     -10.309  -8.902  -1.199  1.00  0.00    -0.237 OA
ATOM     81  O   UNL     1      -9.730  -6.522  -0.921  1.00  0.00    -0.237 OA
ATOM     82  O   UNL     1      -8.660  -7.838  -2.696  1.00  0.00    -0.744 OA
ENDBRANCH  76  79
ENDBRANCH  48  72
BRANCH  60  83
ATOM     83  C   UNL     1      -2.201 -14.788   1.636  1.00  0.00     0.023 A 
ATOM     84  C   UNL     1      -3.177 -15.693   1.172  1.00  0.00     0.012 A 
ATOM     85  C   UNL     1      -1.496 -15.083   2.820  1.00  0.00     0.148 A 
ATOM     86  C   UNL     1      -3.481 -16.843   1.901  1.00  0.00     0.002 A 
ATOM     87  C   UNL     1      -1.764 -16.259   3.510  1.00  0.00     0.091 A 
ATOM     88  F   UNL     1      -0.581 -14.205   3.256  1.00  0.00    -0.205 F 
ATOM     89  C   UNL     1      -2.768 -17.131   3.062  1.00  0.00     0.022 A 
BRANCH  87  90
ATOM     90  S   UNL     1      -0.824 -16.760   4.957  1.00  0.00     0.127 S 
ATOM     91  O   UNL     1      -1.785 -16.522   6.033  1.00  0.00    -0.237 OA
ATOM     92  O   UNL     1      -0.555 -18.171   4.679  1.00  0.00    -0.237 OA
ATOM     93  O   UNL     1       0.361 -15.913   4.978  1.00  0.00    -0.744 OA
ENDBRANCH  87  90
ENDBRANCH  60  83
ENDBRANCH  34  35
ENDBRANCH  27  29
ENDBRANCH  26  27
ENDBRANCH  25  26
ENDBRANCH  24  25
ENDBRANCH  23  24
ENDBRANCH  22  23
ENDBRANCH   1  22
TORSDOF 25
