REMARK SMILES CC1CCN(C(=O)N[C@@H]2C=C[C@H](C(=O)OCCOCCOCCOC(=O)c3ccc(-c4c5nc(c(-c6cccc(S(=O)(=O)[O-])c6F)c6ccc([nH]6)c(-c6cccc(S(=O)(=O)[O-])c6F)c6nc(c(-c7cccc(S(=O)(=O)[O-])c7F)c7ccc4[nH]7)C=C6)C=C5)cc3)C2)CC1
REMARK SMILES IDX 20 1 19 2 18 3 17 4 16 5 15 6 13 7 14 8 12 9 9 10 10 11
REMARK SMILES IDX 90 12 11 13 8 14 1 15 2 16 3 17 92 18 4 19 91 20 5 21 6 22
REMARK SMILES IDX 7 23 21 25 22 26 23 27 24 28 25 29 26 30 27 31 28 32 89 33
REMARK SMILES IDX 29 34 88 35 30 36 31 37 32 38 82 39 33 40 87 41 81 42 83 43
REMARK SMILES IDX 34 44 86 45 80 46 79 47 35 49 67 50 47 51 66 52 48 53 51 54
REMARK SMILES IDX 65 55 84 56 49 57 50 58 64 60 85 61 52 62 36 63 37 64 45 65
REMARK SMILES IDX 38 66 40 67 46 68 39 69 41 70 42 71 43 72 44 73 68 74 69 75
REMARK SMILES IDX 77 76 70 77 72 78 78 79 71 80 73 81 74 82 75 83 76 84 53 85
REMARK SMILES IDX 54 86 62 87 55 88 57 89 63 90 56 91 58 92 59 93 60 94 61 95
REMARK H PARENT 8 24 83 48 51 59
REMARK Flexibility Score: inf
ROOT
ATOM      1  C   UNL     1       2.357  -7.841   3.597  1.00  0.00     0.188 C 
ENDROOT
BRANCH   1   2
ATOM      2  C   UNL     1       0.833  -7.729   3.439  1.00  0.00     0.188 C 
BRANCH   2   3
ATOM      3  O   UNL     1       0.436  -7.130   2.204  1.00  0.00    -0.376 OA
BRANCH   3   4
ATOM      4  C   UNL     1      -0.098  -7.958   1.175  1.00  0.00     0.202 C 
BRANCH   4   5
ATOM      5  C   UNL     1      -0.574  -7.090  -0.038  1.00  0.00     0.261 C 
BRANCH   5   6
ATOM      6  O   UNL     1       0.491  -6.579  -0.903  1.00  0.00    -0.463 OA
BRANCH   6   7
ATOM      7  C   UNL     1       0.119  -5.565  -1.775  1.00  0.00     0.312 C 
ATOM      8  O   UNL     1      -1.028  -5.171  -1.889  1.00  0.00    -0.252 OA
BRANCH   7   9
ATOM      9  C   UNL     1       1.300  -5.086  -2.676  1.00  0.00     0.124 C 
ATOM     10  C   UNL     1       2.326  -2.814  -2.331  1.00  0.00     0.107 C 
ATOM     11  C   UNL     1       1.505  -2.898  -3.583  1.00  0.00    -0.006 C 
ATOM     12  C   UNL     1       2.430  -4.301  -2.000  1.00  0.00     0.048 C 
ATOM     13  C   UNL     1       0.922  -4.096  -3.747  1.00  0.00    -0.014 C 
BRANCH  10  14
ATOM     14  N   UNL     1       1.597  -1.944  -1.431  1.00  0.00    -0.332 N 
ATOM     15  C   UNL     1       3.062  -6.464   0.575  1.00  0.00     0.008 C 
ATOM     16  C   UNL     1       2.863  -5.163   1.390  1.00  0.00    -0.011 C 
ATOM     17  C   UNL     1       1.438  -4.552   1.392  1.00  0.00     0.025 C 
ATOM     18  C   UNL     1       3.997  -4.193   0.977  1.00  0.00     0.025 C 
ATOM     19  C   UNL     1       1.470  -3.106   1.828  1.00  0.00     0.121 C 
ATOM     20  C   UNL     1       3.645  -2.711   0.815  1.00  0.00     0.121 C 
ATOM     21  N   UNL     1       2.222  -2.450   0.788  1.00  0.00    -0.325 N 
ATOM     22  C   UNL     1       1.506  -1.728  -0.108  1.00  0.00     0.317 C 
ATOM     23  O   UNL     1       0.610  -0.960   0.247  1.00  0.00    -0.249 OA
ATOM     24  H   UNL     1       0.999  -1.342  -1.930  1.00  0.00     0.165 HD
ENDBRANCH  10  14
ENDBRANCH   7   9
ENDBRANCH   6   7
ENDBRANCH   5   6
ENDBRANCH   4   5
ENDBRANCH   3   4
ENDBRANCH   2   3
ENDBRANCH   1   2
BRANCH   1  25
ATOM     25  O   UNL     1       2.827  -9.178   3.740  1.00  0.00    -0.376 OA
BRANCH  25  26
ATOM     26  C   UNL     1       2.925  -9.620   5.093  1.00  0.00     0.202 C 
BRANCH  26  27
ATOM     27  C   UNL     1       4.188  -9.141   5.829  1.00  0.00     0.261 C 
BRANCH  27  28
ATOM     28  O   UNL     1       4.161  -7.720   6.086  1.00  0.00    -0.460 OA
BRANCH  28  29
ATOM     29  C   UNL     1       5.175  -7.002   5.546  1.00  0.00     0.338 C 
ATOM     30  O   UNL     1       6.146  -7.464   4.947  1.00  0.00    -0.246 OA
BRANCH  29  31
ATOM     31  C   UNL     1       4.954  -5.538   5.668  1.00  0.00     0.060 A 
ATOM     32  C   UNL     1       5.527  -4.710   4.690  1.00  0.00     0.016 A 
ATOM     33  C   UNL     1       4.277  -4.959   6.747  1.00  0.00     0.016 A 
ATOM     34  C   UNL     1       5.486  -3.317   4.816  1.00  0.00     0.010 A 
ATOM     35  C   UNL     1       4.243  -3.561   6.878  1.00  0.00     0.010 A 
ATOM     36  C   UNL     1       4.890  -2.734   5.940  1.00  0.00    -0.014 A 
BRANCH  36  37
ATOM     37  C   UNL     1       5.175  -1.311   6.277  1.00  0.00     0.031 A 
ATOM     38  C   UNL     1       6.336  -1.024   7.196  1.00  0.00     0.074 A 
ATOM     39  C   UNL     1       4.434  -0.290   5.810  1.00  0.00     0.049 A 
ATOM     40  N   UNL     1       6.742   0.114   7.698  1.00  0.00    -0.248 NA
ATOM     41  C   UNL     1       7.146  -2.184   7.605  1.00  0.00     0.031 C 
ATOM     42  C   UNL     1       3.295  -0.408   4.904  1.00  0.00     0.029 A 
ATOM     43  N   UNL     1       4.519   1.059   6.071  1.00  0.00    -0.354 N 
ATOM     44  C   UNL     1       7.836  -0.195   8.498  1.00  0.00     0.074 A 
ATOM     45  C   UNL     1       8.024  -1.627   8.425  1.00  0.00     0.031 C 
ATOM     46  C   UNL     1       2.756   0.812   4.721  1.00  0.00     0.029 A 
ATOM     47  C   UNL     1       3.500   1.794   5.511  1.00  0.00     0.049 A 
ATOM     48  H   UNL     1       5.241   1.459   6.608  1.00  0.00     0.167 HD
ATOM     49  C   UNL     1       8.629   0.631   9.220  1.00  0.00     0.034 A 
ATOM     50  C   UNL     1       3.189   3.101   5.643  1.00  0.00     0.034 A 
ATOM     51  C   UNL     1       8.460   2.055   9.302  1.00  0.00     0.049 A 
ATOM     52  C   UNL     1       4.066   4.003   6.479  1.00  0.00     0.074 A 
ATOM     53  C   UNL     1       9.223   2.973  10.002  1.00  0.00     0.029 A 
ATOM     54  N   UNL     1       7.454   2.768   8.671  1.00  0.00    -0.354 N 
ATOM     55  N   UNL     1       5.160   3.713   7.143  1.00  0.00    -0.248 NA
ATOM     56  C   UNL     1       3.683   5.423   6.557  1.00  0.00     0.031 C 
ATOM     57  C   UNL     1       8.669   4.243   9.802  1.00  0.00     0.029 A 
ATOM     58  C   UNL     1       7.572   4.115   8.965  1.00  0.00     0.049 A 
ATOM     59  H   UNL     1       6.757   2.374   8.098  1.00  0.00     0.167 HD
ATOM     60  C   UNL     1       5.609   4.913   7.688  1.00  0.00     0.074 A 
ATOM     61  C   UNL     1       4.682   5.939   7.261  1.00  0.00     0.031 C 
ATOM     62  C   UNL     1       6.684   5.141   8.484  1.00  0.00     0.034 A 
BRANCH  49  63
ATOM     63  C   UNL     1       9.778   0.001   9.959  1.00  0.00     0.023 A 
ATOM     64  C   UNL     1      10.908  -0.432   9.235  1.00  0.00     0.012 A 
ATOM     65  C   UNL     1       9.748  -0.155  11.357  1.00  0.00     0.148 A 
ATOM     66  C   UNL     1      11.976  -1.044   9.888  1.00  0.00     0.002 A 
ATOM     67  C   UNL     1      10.834  -0.732  12.006  1.00  0.00     0.091 A 
ATOM     68  F   UNL     1       8.652   0.235  12.024  1.00  0.00    -0.205 F 
ATOM     69  C   UNL     1      11.943  -1.187  11.272  1.00  0.00     0.022 A 
BRANCH  67  70
ATOM     70  S   UNL     1      10.906  -0.900  13.792  1.00  0.00     0.127 S 
ATOM     71  O   UNL     1      10.608  -2.321  13.967  1.00  0.00    -0.237 OA
ATOM     72  O   UNL     1      12.291  -0.528  14.085  1.00  0.00    -0.237 OA
ATOM     73  O   UNL     1       9.910   0.024  14.317  1.00  0.00    -0.744 OA
ENDBRANCH  67  70
ENDBRANCH  49  63
BRANCH  50  74
ATOM     74  C   UNL     1       1.991   3.654   4.947  1.00  0.00     0.023 A 
ATOM     75  C   UNL     1       2.162   4.526   3.855  1.00  0.00     0.012 A 
ATOM     76  C   UNL     1       0.687   3.324   5.366  1.00  0.00     0.148 A 
ATOM     77  C   UNL     1       1.056   5.077   3.206  1.00  0.00     0.002 A 
ATOM     78  C   UNL     1      -0.411   3.842   4.688  1.00  0.00     0.091 A 
ATOM     79  F   UNL     1       0.546   2.518   6.428  1.00  0.00    -0.205 F 
ATOM     80  C   UNL     1      -0.229   4.728   3.614  1.00  0.00     0.022 A 
BRANCH  78  81
ATOM     81  S   UNL     1      -2.099   3.378   5.095  1.00  0.00     0.127 S 
ATOM     82  O   UNL     1      -2.587   4.584   5.761  1.00  0.00    -0.237 OA
ATOM     83  O   UNL     1      -2.678   3.131   3.775  1.00  0.00    -0.237 OA
ATOM     84  O   UNL     1      -1.987   2.193   5.935  1.00  0.00    -0.744 OA
ENDBRANCH  78  81
ENDBRANCH  50  74
BRANCH  62  85
ATOM     85  C   UNL     1       6.953   6.556   8.931  1.00  0.00     0.023 A 
ATOM     86  C   UNL     1       6.147   7.138   9.930  1.00  0.00     0.012 A 
ATOM     87  C   UNL     1       8.064   7.271   8.438  1.00  0.00     0.148 A 
ATOM     88  C   UNL     1       6.428   8.416  10.414  1.00  0.00     0.002 A 
ATOM     89  C   UNL     1       8.363   8.527   8.956  1.00  0.00     0.091 A 
ATOM     90  F   UNL     1       8.810   6.710   7.475  1.00  0.00    -0.205 F 
ATOM     91  C   UNL     1       7.542   9.104   9.937  1.00  0.00     0.022 A 
BRANCH  89  92
ATOM     92  S   UNL     1       9.832   9.440   8.466  1.00  0.00     0.127 S 
ATOM     93  O   UNL     1       9.273  10.441   7.559  1.00  0.00    -0.237 OA
ATOM     94  O   UNL     1      10.311   9.974   9.742  1.00  0.00    -0.237 OA
ATOM     95  O   UNL     1      10.721   8.462   7.853  1.00  0.00    -0.744 OA
ENDBRANCH  89  92
ENDBRANCH  62  85
ENDBRANCH  36  37
ENDBRANCH  29  31
ENDBRANCH  28  29
ENDBRANCH  27  28
ENDBRANCH  26  27
ENDBRANCH  25  26
ENDBRANCH   1  25
TORSDOF 21
