REMARK SMILES Cc1cccc(N2C(=O)/C(=C/c3ccc(C(=O)OCCOCCOCCOC(=O)c4ccc(-c5c6nc(c(-c7cccc(S(=O)(=O)[O-])c7F)c7ccc([nH]7)c(-c7cccc(S(=O)(=O)[O-])c7F)c7nc(c(-c8cccc(S(=O)(=O)[O-])c8F)c8ccc5[nH]8)C=C7)C=C6)cc4)cc3)c3ccccc3C2=O)c1
REMARK SMILES IDX 23 1 22 2 21 3 20 4 19 5 18 6 16 7 17 8 15 9 12 10 13 11
REMARK SMILES IDX 94 12 14 13 93 14 11 15 7 16 8 17 101 18 9 19 10 20 100 21
REMARK SMILES IDX 102 22 95 23 99 24 96 25 98 26 97 27 6 28 1 29 2 30 3 31
REMARK SMILES IDX 103 32 4 33 5 34 24 35 25 36 26 37 27 38 28 39 29 40 30 41
REMARK SMILES IDX 31 42 92 43 32 44 91 45 33 46 34 47 35 48 85 49 36 50 90 51
REMARK SMILES IDX 84 52 86 53 37 54 89 55 83 56 82 57 38 59 70 60 50 61 69 62
REMARK SMILES IDX 51 63 54 64 68 65 87 66 52 67 53 68 67 70 88 71 55 72 39 73
REMARK SMILES IDX 40 74 48 75 41 76 43 77 49 78 42 79 44 80 45 81 46 82 47 83
REMARK SMILES IDX 71 84 72 85 80 86 73 87 75 88 81 89 74 90 76 91 77 92 78 93
REMARK SMILES IDX 79 94 56 95 57 96 65 97 58 98 60 99 66 100 59 101 61 102
REMARK SMILES IDX 62 103 63 104 64 105
REMARK H PARENT 86 58 54 69
REMARK Flexibility Score: inf
ROOT
ATOM      1  C   UNL     1      -3.513  15.446   2.029  1.00  0.00     0.188 C 
ENDROOT
BRANCH   1   2
ATOM      2  C   UNL     1      -4.288  15.072   0.767  1.00  0.00     0.188 C 
BRANCH   2   3
ATOM      3  O   UNL     1      -5.505  14.300   0.830  1.00  0.00    -0.376 OA
BRANCH   3   4
ATOM      4  C   UNL     1      -5.862  13.431   1.921  1.00  0.00     0.202 C 
BRANCH   4   5
ATOM      5  C   UNL     1      -6.319  11.876   1.726  1.00  0.00     0.261 C 
BRANCH   5   6
ATOM      6  O   UNL     1      -5.437  10.406   1.472  1.00  0.00    -0.460 OA
BRANCH   6   7
ATOM      7  C   UNL     1      -4.954   9.642   0.372  1.00  0.00     0.338 C 
ATOM      8  O   UNL     1      -5.074   9.836  -0.837  1.00  0.00    -0.246 OA
BRANCH   7   9
ATOM      9  C   UNL     1      -4.075   8.482   0.353  1.00  0.00     0.060 A 
ATOM     10  C   UNL     1      -2.514   6.414  -0.708  1.00  0.00    -0.025 A 
ATOM     11  C   UNL     1      -1.960   7.681  -0.600  1.00  0.00     0.009 A 
ATOM     12  C   UNL     1      -3.898   6.235  -0.565  1.00  0.00     0.009 A 
ATOM     13  C   UNL     1      -2.745   8.707  -0.084  1.00  0.00     0.016 A 
ATOM     14  C   UNL     1      -4.674   7.267  -0.025  1.00  0.00     0.016 A 
BRANCH  10  15
ATOM     15  C   UNL     1      -1.594   5.287  -0.568  1.00  0.00     0.022 C 
ATOM     16  N   UNL     1      -1.500   2.241   0.799  1.00  0.00    -0.242 N 
ATOM     17  C   UNL     1      -0.727   3.410   0.645  1.00  0.00     0.265 C 
ATOM     18  C   UNL     1      -2.840   2.314   1.295  1.00  0.00     0.265 C 
ATOM     19  O   UNL     1       0.489   3.555   0.574  1.00  0.00    -0.268 OA
ATOM     20  C   UNL     1      -1.558   4.618   0.606  1.00  0.00     0.049 C 
ATOM     21  C   UNL     1      -3.302   3.612   1.882  1.00  0.00     0.048 A 
ATOM     22  O   UNL     1      -3.652   1.393   1.366  1.00  0.00    -0.268 OA
ATOM     23  C   UNL     1      -2.532   4.750   1.685  1.00  0.00    -0.000 A 
ATOM     24  C   UNL     1      -4.501   3.716   2.599  1.00  0.00     0.014 A 
ATOM     25  C   UNL     1      -2.842   5.944   2.348  1.00  0.00     0.010 A 
ATOM     26  C   UNL     1      -4.881   4.941   3.158  1.00  0.00     0.001 A 
ATOM     27  C   UNL     1      -4.035   6.045   3.063  1.00  0.00     0.001 A 
BRANCH  16  28
ATOM     28  C   UNL     1      -0.900   0.952   0.468  1.00  0.00     0.053 A 
ATOM     29  C   UNL     1       2.590  -0.516  -0.146  1.00  0.00     0.044 C 
ATOM     30  C   UNL     1       1.098  -0.430  -0.013  1.00  0.00    -0.049 A 
ATOM     31  C   UNL     1       0.302  -1.561  -0.154  1.00  0.00     0.003 A 
ATOM     32  C   UNL     1       0.491   0.797   0.300  1.00  0.00     0.030 A 
ATOM     33  C   UNL     1      -1.075  -1.448  -0.016  1.00  0.00     0.002 A 
ATOM     34  C   UNL     1      -1.663  -0.211   0.280  1.00  0.00     0.027 A 
ENDBRANCH  16  28
ENDBRANCH  10  15
ENDBRANCH   7   9
ENDBRANCH   6   7
ENDBRANCH   5   6
ENDBRANCH   4   5
ENDBRANCH   3   4
ENDBRANCH   2   3
ENDBRANCH   1   2
BRANCH   1  35
ATOM     35  O   UNL     1      -3.366  14.288   2.817  1.00  0.00    -0.376 OA
BRANCH  35  36
ATOM     36  C   UNL     1      -2.847  14.443   4.116  1.00  0.00     0.202 C 
BRANCH  36  37
ATOM     37  C   UNL     1      -1.323  14.290   4.103  1.00  0.00     0.261 C 
BRANCH  37  38
ATOM     38  O   UNL     1      -0.943  13.091   3.381  1.00  0.00    -0.460 OA
BRANCH  38  39
ATOM     39  C   UNL     1      -0.463  13.263   2.099  1.00  0.00     0.338 C 
ATOM     40  O   UNL     1       0.405  14.078   1.813  1.00  0.00    -0.246 OA
BRANCH  39  41
ATOM     41  C   UNL     1      -1.335  12.528   1.109  1.00  0.00     0.060 A 
ATOM     42  C   UNL     1      -1.440  12.777  -0.268  1.00  0.00     0.016 A 
ATOM     43  C   UNL     1      -2.366  11.836   1.641  1.00  0.00     0.016 A 
ATOM     44  C   UNL     1      -2.667  12.499  -1.031  1.00  0.00     0.010 A 
ATOM     45  C   UNL     1      -3.574  11.898   0.937  1.00  0.00     0.010 A 
ATOM     46  C   UNL     1      -3.886  12.143  -0.426  1.00  0.00    -0.014 A 
BRANCH  46  47
ATOM     47  C   UNL     1      -5.436  12.241  -1.135  1.00  0.00     0.031 A 
ATOM     48  C   UNL     1      -6.806  11.160  -1.247  1.00  0.00     0.074 A 
ATOM     49  C   UNL     1      -5.629  13.271  -1.986  1.00  0.00     0.049 A 
ATOM     50  N   UNL     1      -7.381  10.779  -2.380  1.00  0.00    -0.248 NA
ATOM     51  C   UNL     1      -7.491  10.362  -0.161  1.00  0.00     0.031 C 
ATOM     52  C   UNL     1      -6.871  13.639  -2.653  1.00  0.00     0.029 A 
ATOM     53  N   UNL     1      -4.674  14.115  -2.550  1.00  0.00    -0.354 N 
ATOM     54  C   UNL     1      -8.386   9.822  -2.088  1.00  0.00     0.074 A 
ATOM     55  C   UNL     1      -8.258   9.469  -0.738  1.00  0.00     0.031 C 
ATOM     56  C   UNL     1      -6.575  14.415  -3.706  1.00  0.00     0.029 A 
ATOM     57  C   UNL     1      -5.129  14.465  -3.821  1.00  0.00     0.049 A 
ATOM     58  H   UNL     1      -3.833  14.409  -2.130  1.00  0.00     0.167 HD
ATOM     59  C   UNL     1      -9.481   9.515  -2.836  1.00  0.00     0.034 A 
ATOM     60  C   UNL     1      -4.389  14.226  -4.940  1.00  0.00     0.034 A 
ATOM     61  C   UNL     1      -9.519  10.397  -3.965  1.00  0.00     0.049 A 
ATOM     62  C   UNL     1      -5.135  13.454  -6.006  1.00  0.00     0.074 A 
ATOM     63  C   UNL     1     -10.019  11.678  -4.107  1.00  0.00     0.029 A 
ATOM     64  N   UNL     1      -8.638  10.176  -4.996  1.00  0.00    -0.354 N 
ATOM     65  N   UNL     1      -6.299  12.890  -5.830  1.00  0.00    -0.248 NA
ATOM     66  C   UNL     1      -4.636  13.260  -7.364  1.00  0.00     0.031 C 
ATOM     67  C   UNL     1      -9.373  12.261  -5.224  1.00  0.00     0.029 A 
ATOM     68  C   UNL     1      -8.532  11.311  -5.775  1.00  0.00     0.049 A 
ATOM     69  H   UNL     1      -8.155   9.333  -5.156  1.00  0.00     0.167 HD
ATOM     70  C   UNL     1      -6.629  12.151  -6.938  1.00  0.00     0.074 A 
ATOM     71  C   UNL     1      -5.602  12.494  -7.902  1.00  0.00     0.031 C 
ATOM     72  C   UNL     1      -7.674  11.268  -6.942  1.00  0.00     0.034 A 
BRANCH  59  73
ATOM     73  C   UNL     1     -10.696   8.779  -2.236  1.00  0.00     0.023 A 
ATOM     74  C   UNL     1     -11.975   9.267  -2.563  1.00  0.00     0.012 A 
ATOM     75  C   UNL     1     -10.662   7.747  -1.255  1.00  0.00     0.148 A 
ATOM     76  C   UNL     1     -13.125   8.886  -1.857  1.00  0.00     0.002 A 
ATOM     77  C   UNL     1     -11.786   7.458  -0.467  1.00  0.00     0.091 A 
ATOM     78  F   UNL     1      -9.533   7.042  -1.073  1.00  0.00    -0.205 F 
ATOM     79  C   UNL     1     -13.022   8.030  -0.768  1.00  0.00     0.022 A 
BRANCH  77  80
ATOM     80  S   UNL     1     -11.659   6.558   1.099  1.00  0.00     0.127 S 
ATOM     81  O   UNL     1     -12.553   7.316   1.980  1.00  0.00    -0.237 OA
ATOM     82  O   UNL     1     -12.144   5.225   0.753  1.00  0.00    -0.237 OA
ATOM     83  O   UNL     1     -10.254   6.650   1.485  1.00  0.00    -0.744 OA
ENDBRANCH  77  80
ENDBRANCH  59  73
BRANCH  60  84
ATOM     84  C   UNL     1      -2.905  14.295  -4.730  1.00  0.00     0.023 A 
ATOM     85  C   UNL     1      -2.402  15.525  -4.227  1.00  0.00     0.012 A 
ATOM     86  C   UNL     1      -2.047  13.177  -4.724  1.00  0.00     0.148 A 
ATOM     87  C   UNL     1      -1.140  15.621  -3.639  1.00  0.00     0.002 A 
ATOM     88  C   UNL     1      -0.774  13.283  -4.146  1.00  0.00     0.091 A 
ATOM     89  F   UNL     1      -2.504  12.017  -5.213  1.00  0.00    -0.205 F 
ATOM     90  C   UNL     1      -0.335  14.494  -3.581  1.00  0.00     0.022 A 
BRANCH  88  91
ATOM     91  S   UNL     1       0.369  11.898  -3.976  1.00  0.00     0.127 S 
ATOM     92  O   UNL     1       1.490  12.347  -4.800  1.00  0.00    -0.237 OA
ATOM     93  O   UNL     1       0.641  11.894  -2.538  1.00  0.00    -0.237 OA
ATOM     94  O   UNL     1      -0.340  10.730  -4.474  1.00  0.00    -0.744 OA
ENDBRANCH  88  91
ENDBRANCH  60  84
BRANCH  72  95
ATOM     95  C   UNL     1      -7.966  10.197  -7.982  1.00  0.00     0.023 A 
ATOM     96  C   UNL     1      -6.981   9.713  -8.857  1.00  0.00     0.012 A 
ATOM     97  C   UNL     1      -9.200   9.484  -7.958  1.00  0.00     0.148 A 
ATOM     98  C   UNL     1      -7.208   8.604  -9.681  1.00  0.00     0.002 A 
ATOM     99  C   UNL     1      -9.370   8.306  -8.680  1.00  0.00     0.091 A 
ATOM    100  F   UNL     1     -10.230   9.937  -7.227  1.00  0.00    -0.205 F 
ATOM    101  C   UNL     1      -8.387   7.878  -9.569  1.00  0.00     0.022 A 
BRANCH  99 102
ATOM    102  S   UNL     1     -10.765   7.229  -8.315  1.00  0.00     0.127 S 
ATOM    103  O   UNL     1     -11.856   7.862  -9.050  1.00  0.00    -0.237 OA
ATOM    104  O   UNL     1     -10.335   5.940  -8.864  1.00  0.00    -0.237 OA
ATOM    105  O   UNL     1     -10.857   7.253  -6.861  1.00  0.00    -0.744 OA
ENDBRANCH  99 102
ENDBRANCH  72  95
ENDBRANCH  46  47
ENDBRANCH  39  41
ENDBRANCH  38  39
ENDBRANCH  37  38
ENDBRANCH  36  37
ENDBRANCH  35  36
ENDBRANCH   1  35
TORSDOF 22
