REMARK SMILES Cc1nc(-c2ccc(S(=O)(=O)N3CC[NH2+][C@H](C(=O)OCCOCCOCCOC(=O)c4ccc(-c5c6nc(c(-c7cccc(S(=O)(=O)[O-])c7F)c7ccc([nH]7)c(-c7cccc(S(=O)(=O)[O-])c7F)c7nc(c(-c8cccc(S(=O)(=O)[O-])c8F)c8ccc5[nH]8)C=C7)C=C6)cc4)C3)s2)cs1
REMARK SMILES IDX 23 1 22 2 21 3 20 4 19 5 17 6 18 7 16 8 12 9 13 10 94 11
REMARK SMILES IDX 14 12 15 13 9 16 10 17 11 18 8 19 5 20 6 21 95 22 7 23 4 24
REMARK SMILES IDX 1 25 2 26 3 27 97 28 96 29 24 30 25 31 26 32 27 33 28 34
REMARK SMILES IDX 29 35 30 36 31 37 32 38 93 39 33 40 92 41 34 42 35 43 36 44
REMARK SMILES IDX 86 45 37 46 91 47 85 48 87 49 38 50 90 51 84 52 83 53 39 55
REMARK SMILES IDX 71 56 51 57 70 58 52 59 55 60 69 61 88 62 53 63 54 64 68 66
REMARK SMILES IDX 89 67 56 68 40 69 41 70 49 71 42 72 44 73 50 74 43 75 45 76
REMARK SMILES IDX 46 77 47 78 48 79 72 80 73 81 81 82 74 83 76 84 82 85 75 86
REMARK SMILES IDX 77 87 78 88 79 89 80 90 57 91 58 92 66 93 59 94 61 95 67 96
REMARK SMILES IDX 60 97 62 98 63 99 64 100 65 101
REMARK H PARENT 15 14 15 15 87 54 55 65
REMARK Flexibility Score: inf
ROOT
ATOM      1  C   UNL     1       4.665  -5.961  -5.783  1.00  0.00     0.188 C 
ENDROOT
BRANCH   1   2
ATOM      2  O   UNL     1       5.359  -4.965  -6.529  1.00  0.00    -0.376 OA
BRANCH   2   3
ATOM      3  C   UNL     1       6.607  -4.502  -6.032  1.00  0.00     0.202 C 
BRANCH   3   4
ATOM      4  C   UNL     1       6.531  -3.676  -4.751  1.00  0.00     0.261 C 
BRANCH   4   5
ATOM      5  O   UNL     1       6.135  -4.487  -3.627  1.00  0.00    -0.459 OA
BRANCH   5   6
ATOM      6  C   UNL     1       5.040  -4.046  -2.955  1.00  0.00     0.366 C 
ATOM      7  O   UNL     1       4.443  -3.005  -3.204  1.00  0.00    -0.245 OA
BRANCH   6   8
ATOM      8  C   UNL     1       4.615  -4.978  -1.830  1.00  0.00     0.308 C 
ATOM      9  N   UNL     1       5.172  -5.859   0.376  1.00  0.00    -0.185 NA
ATOM     10  C   UNL     1       4.390  -7.101   0.131  1.00  0.00     0.164 C 
ATOM     11  C   UNL     1       5.757  -5.298  -0.870  1.00  0.00     0.180 C 
ATOM     12  C   UNL     1       3.481  -7.036  -1.125  1.00  0.00     0.278 C 
ATOM     13  N   UNL     1       3.930  -6.225  -2.280  1.00  0.00    -0.332 N 
ATOM     14  H   UNL     1       3.119  -5.974  -2.845  1.00  0.00     0.347 HD
ATOM     15  H   UNL     1       4.591  -6.778  -2.825  1.00  0.00     0.347 HD
BRANCH   9  16
ATOM     16  S   UNL     1       4.693  -4.764   1.589  1.00  0.00     0.253 S 
ATOM     17  O   UNL     1       5.791  -3.820   1.733  1.00  0.00    -0.206 OA
ATOM     18  O   UNL     1       4.208  -5.527   2.710  1.00  0.00    -0.206 OA
BRANCH  16  19
ATOM     19  C   UNL     1       3.281  -3.789   1.066  1.00  0.00     0.135 A 
ATOM     20  C   UNL     1       1.769  -1.859   0.707  1.00  0.00     0.055 A 
ATOM     21  C   UNL     1       1.281  -3.015   0.143  1.00  0.00     0.023 A 
ATOM     22  S   UNL     1       3.293  -2.102   1.429  1.00  0.00    -0.121 S 
ATOM     23  C   UNL     1       2.107  -4.129   0.420  1.00  0.00     0.034 A 
BRANCH  20  24
ATOM     24  C   UNL     1       0.956  -0.603   0.669  1.00  0.00     0.091 A 
ATOM     25  C   UNL     1      -2.374   0.713  -0.019  1.00  0.00     0.079 C 
ATOM     26  C   UNL     1      -0.944   0.488   0.324  1.00  0.00     0.090 A 
ATOM     27  N   UNL     1      -0.360  -0.683   0.246  1.00  0.00    -0.241 NA
ATOM     28  S   UNL     1       0.062   1.767   0.874  1.00  0.00    -0.127 S 
ATOM     29  C   UNL     1       1.366   0.655   1.053  1.00  0.00     0.096 A 
ENDBRANCH  20  24
ENDBRANCH  16  19
ENDBRANCH   9  16
ENDBRANCH   6   8
ENDBRANCH   5   6
ENDBRANCH   4   5
ENDBRANCH   3   4
ENDBRANCH   2   3
ENDBRANCH   1   2
BRANCH   1  30
ATOM     30  C   UNL     1       5.504  -7.098  -5.169  1.00  0.00     0.188 C 
BRANCH  30  31
ATOM     31  O   UNL     1       6.555  -7.664  -5.941  1.00  0.00    -0.376 OA
BRANCH  31  32
ATOM     32  C   UNL     1       6.292  -7.930  -7.313  1.00  0.00     0.202 C 
BRANCH  32  33
ATOM     33  C   UNL     1       5.371  -9.123  -7.561  1.00  0.00     0.261 C 
BRANCH  33  34
ATOM     34  O   UNL     1       3.993  -8.773  -7.341  1.00  0.00    -0.460 OA
BRANCH  34  35
ATOM     35  C   UNL     1       3.383  -9.366  -6.288  1.00  0.00     0.338 C 
ATOM     36  O   UNL     1       3.873 -10.169  -5.512  1.00  0.00    -0.246 OA
BRANCH  35  37
ATOM     37  C   UNL     1       2.041  -8.777  -6.097  1.00  0.00     0.060 A 
ATOM     38  C   UNL     1       1.621  -8.493  -4.790  1.00  0.00     0.016 A 
ATOM     39  C   UNL     1       1.183  -8.563  -7.178  1.00  0.00     0.016 A 
ATOM     40  C   UNL     1       0.321  -8.043  -4.554  1.00  0.00     0.010 A 
ATOM     41  C   UNL     1      -0.121  -8.125  -6.939  1.00  0.00     0.010 A 
ATOM     42  C   UNL     1      -0.569  -7.900  -5.626  1.00  0.00    -0.014 A 
BRANCH  42  43
ATOM     43  C   UNL     1      -2.016  -7.687  -5.393  1.00  0.00     0.031 A 
ATOM     44  C   UNL     1      -2.924  -8.885  -5.397  1.00  0.00     0.074 A 
ATOM     45  C   UNL     1      -2.523  -6.449  -5.259  1.00  0.00     0.049 A 
ATOM     46  N   UNL     1      -4.229  -8.936  -5.385  1.00  0.00    -0.248 NA
ATOM     47  C   UNL     1      -2.269 -10.205  -5.427  1.00  0.00     0.031 C 
ATOM     48  C   UNL     1      -1.743  -5.215  -5.217  1.00  0.00     0.029 A 
ATOM     49  N   UNL     1      -3.828  -6.030  -5.179  1.00  0.00    -0.354 N 
ATOM     50  C   UNL     1      -4.554 -10.285  -5.444  1.00  0.00     0.074 A 
ATOM     51  C   UNL     1      -3.310 -11.022  -5.482  1.00  0.00     0.031 C 
ATOM     52  C   UNL     1      -2.587  -4.170  -5.167  1.00  0.00     0.029 A 
ATOM     53  C   UNL     1      -3.963  -4.662  -5.209  1.00  0.00     0.049 A 
ATOM     54  H   UNL     1      -4.591  -6.647  -5.108  1.00  0.00     0.167 HD
ATOM     55  C   UNL     1      -5.779 -10.860  -5.460  1.00  0.00     0.034 A 
ATOM     56  C   UNL     1      -5.071  -3.898  -5.300  1.00  0.00     0.034 A 
ATOM     57  C   UNL     1      -7.013 -10.128  -5.408  1.00  0.00     0.049 A 
ATOM     58  C   UNL     1      -6.424  -4.562  -5.358  1.00  0.00     0.074 A 
ATOM     59  C   UNL     1      -8.305 -10.622  -5.389  1.00  0.00     0.029 A 
ATOM     60  N   UNL     1      -7.109  -8.746  -5.376  1.00  0.00    -0.354 N 
ATOM     61  N   UNL     1      -6.721  -5.839  -5.309  1.00  0.00    -0.248 NA
ATOM     62  C   UNL     1      -7.598  -3.681  -5.466  1.00  0.00     0.031 C 
ATOM     63  C   UNL     1      -9.185  -9.536  -5.358  1.00  0.00     0.029 A 
ATOM     64  C   UNL     1      -8.439  -8.368  -5.344  1.00  0.00     0.049 A 
ATOM     65  H   UNL     1      -6.345  -8.126  -5.375  1.00  0.00     0.167 HD
ATOM     66  C   UNL     1      -8.110  -5.911  -5.339  1.00  0.00     0.074 A 
ATOM     67  C   UNL     1      -8.599  -4.550  -5.402  1.00  0.00     0.031 C 
ATOM     68  C   UNL     1      -8.909  -7.006  -5.331  1.00  0.00     0.034 A 
BRANCH  55  69
ATOM     69  C   UNL     1      -5.842 -12.360  -5.512  1.00  0.00     0.023 A 
ATOM     70  C   UNL     1      -5.580 -13.104  -4.345  1.00  0.00     0.012 A 
ATOM     71  C   UNL     1      -6.208 -13.029  -6.695  1.00  0.00     0.148 A 
ATOM     72  C   UNL     1      -5.661 -14.495  -4.359  1.00  0.00     0.002 A 
ATOM     73  C   UNL     1      -6.320 -14.415  -6.693  1.00  0.00     0.091 A 
ATOM     74  F   UNL     1      -6.423 -12.303  -7.802  1.00  0.00    -0.205 F 
ATOM     75  C   UNL     1      -6.040 -15.149  -5.529  1.00  0.00     0.022 A 
BRANCH  73  76
ATOM     76  S   UNL     1      -6.862 -15.336  -8.136  1.00  0.00     0.127 S 
ATOM     77  O   UNL     1      -5.601 -15.897  -8.619  1.00  0.00    -0.237 OA
ATOM     78  O   UNL     1      -7.781 -16.315  -7.554  1.00  0.00    -0.237 OA
ATOM     79  O   UNL     1      -7.496 -14.362  -9.014  1.00  0.00    -0.744 OA
ENDBRANCH  73  76
ENDBRANCH  55  69
BRANCH  56  80
ATOM     80  C   UNL     1      -4.953  -2.413  -5.318  1.00  0.00     0.023 A 
ATOM     81  C   UNL     1      -5.394  -1.674  -4.203  1.00  0.00     0.012 A 
ATOM     82  C   UNL     1      -4.396  -1.732  -6.418  1.00  0.00     0.148 A 
ATOM     83  C   UNL     1      -5.304  -0.281  -4.193  1.00  0.00     0.002 A 
ATOM     84  C   UNL     1      -4.264  -0.348  -6.380  1.00  0.00     0.091 A 
ATOM     85  F   UNL     1      -4.006  -2.450  -7.481  1.00  0.00    -0.205 F 
ATOM     86  C   UNL     1      -4.730   0.380  -5.275  1.00  0.00     0.022 A 
BRANCH  84  87
ATOM     87  S   UNL     1      -3.433   0.571  -7.681  1.00  0.00     0.127 S 
ATOM     88  O   UNL     1      -4.559   1.188  -8.378  1.00  0.00    -0.237 OA
ATOM     89  O   UNL     1      -2.601   1.500  -6.915  1.00  0.00    -0.237 OA
ATOM     90  O   UNL     1      -2.682  -0.420  -8.439  1.00  0.00    -0.744 OA
ENDBRANCH  84  87
ENDBRANCH  56  80
BRANCH  68  91
ATOM     91  C   UNL     1     -10.400  -6.800  -5.344  1.00  0.00     0.023 A 
ATOM     92  C   UNL     1     -11.045  -6.456  -6.547  1.00  0.00     0.012 A 
ATOM     93  C   UNL     1     -11.171  -7.074  -4.196  1.00  0.00     0.148 A 
ATOM     94  C   UNL     1     -12.436  -6.375  -6.605  1.00  0.00     0.002 A 
ATOM     95  C   UNL     1     -12.558  -7.032  -4.272  1.00  0.00     0.091 A 
ATOM     96  F   UNL     1     -10.533  -7.385  -3.058  1.00  0.00    -0.205 F 
ATOM     97  C   UNL     1     -13.192  -6.676  -5.473  1.00  0.00     0.022 A 
BRANCH  95  98
ATOM     98  S   UNL     1     -13.613  -7.495  -2.894  1.00  0.00     0.127 S 
ATOM     99  O   UNL     1     -14.155  -6.201  -2.484  1.00  0.00    -0.237 OA
ATOM    100  O   UNL     1     -14.582  -8.388  -3.531  1.00  0.00    -0.237 OA
ATOM    101  O   UNL     1     -12.743  -8.144  -1.922  1.00  0.00    -0.744 OA
ENDBRANCH  95  98
ENDBRANCH  68  91
ENDBRANCH  42  43
ENDBRANCH  35  37
ENDBRANCH  34  35
ENDBRANCH  33  34
ENDBRANCH  32  33
ENDBRANCH  31  32
ENDBRANCH  30  31
ENDBRANCH   1  30
TORSDOF 23
