REMARK SMILES Cc1nc(C[NH2+][C@@H](C(=O)OCCOCCOCCOC(=O)c2ccc(-c3c4nc(c(-c5cccc(S(=O)(=O)[O-])c5F)c5ccc([nH]5)c(-c5cccc(S(=O)(=O)[O-])c5F)c5nc(c(-c6cccc(S(=O)(=O)[O-])c6F)c6ccc3[nH]6)C=C5)C=C4)cc2)c2ccccc2)sc1C
REMARK SMILES IDX 14 1 13 2 12 3 11 4 10 5 8 6 9 7 7 8 6 9 5 12 4 13 1 14 2 15
REMARK SMILES IDX 3 16 92 17 91 18 93 19 85 20 86 21 90 22 87 23 89 24 88 25
REMARK SMILES IDX 15 26 16 27 17 28 18 29 19 30 20 31 21 32 22 33 23 34 84 35
REMARK SMILES IDX 24 36 83 37 25 38 26 39 27 40 77 41 28 42 82 43 76 44 78 45
REMARK SMILES IDX 29 46 81 47 75 48 74 49 30 51 62 52 42 53 61 54 43 55 46 56
REMARK SMILES IDX 60 57 79 58 44 59 45 60 59 62 80 63 47 64 31 65 32 66 40 67
REMARK SMILES IDX 33 68 35 69 41 70 34 71 36 72 37 73 38 74 39 75 63 76 64 77
REMARK SMILES IDX 72 78 65 79 67 80 73 81 66 82 68 83 69 84 70 85 71 86 48 87
REMARK SMILES IDX 49 88 57 89 50 90 52 91 58 92 51 93 53 94 54 95 55 96 56 97
REMARK H PARENT 6 10 6 11 78 50 46 61
REMARK Flexibility Score: inf
ROOT
ATOM      1  C   UNL     1      -4.976   2.910   3.049  1.00  0.00     0.188 C 
ENDROOT
BRANCH   1   2
ATOM      2  O   UNL     1      -6.334   2.820   2.632  1.00  0.00    -0.376 OA
BRANCH   2   3
ATOM      3  C   UNL     1      -6.603   2.682   1.240  1.00  0.00     0.202 C 
BRANCH   3   4
ATOM      4  C   UNL     1      -5.891   3.622   0.251  1.00  0.00     0.261 C 
BRANCH   4   5
ATOM      5  O   UNL     1      -4.455   3.679   0.402  1.00  0.00    -0.459 OA
BRANCH   5   6
ATOM      6  C   UNL     1      -3.876   4.897   0.223  1.00  0.00     0.369 C 
ATOM      7  O   UNL     1      -4.505   5.880  -0.166  1.00  0.00    -0.245 OA
BRANCH   6   8
ATOM      8  C   UNL     1      -2.361   4.985   0.584  1.00  0.00     0.325 C 
BRANCH   8   9
ATOM      9  N   UNL     1      -1.533   3.760   0.582  1.00  0.00    -0.325 N 
ATOM     10  H   UNL     1      -0.557   4.056   0.590  1.00  0.00     0.347 HD
ATOM     11  H   UNL     1      -1.852   3.242   1.401  1.00  0.00     0.347 HD
BRANCH   9  12
ATOM     12  C   UNL     1      -1.688   2.816  -0.520  1.00  0.00     0.330 C 
BRANCH  12  13
ATOM     13  C   UNL     1      -0.743   1.631  -0.369  1.00  0.00     0.148 A 
ATOM     14  C   UNL     1       2.604   0.353   0.046  1.00  0.00     0.068 C 
ATOM     15  C   UNL     1       1.127   0.448  -0.109  1.00  0.00     0.052 A 
ATOM     16  N   UNL     1       0.568   1.710  -0.252  1.00  0.00    -0.240 NA
ATOM     17  C   UNL     1       0.219  -0.597  -0.134  1.00  0.00     0.025 A 
ATOM     18  S   UNL     1      -1.365   0.024  -0.345  1.00  0.00    -0.118 S 
ATOM     19  C   UNL     1       0.464  -2.061  -0.013  1.00  0.00     0.058 C 
ENDBRANCH  12  13
ENDBRANCH   9  12
ENDBRANCH   8   9
BRANCH   8  20
ATOM     20  C   UNL     1      -2.198   5.779   1.890  1.00  0.00     0.021 A 
ATOM     21  C   UNL     1      -2.142   5.173   3.159  1.00  0.00     0.010 A 
ATOM     22  C   UNL     1      -2.203   7.185   1.841  1.00  0.00     0.010 A 
ATOM     23  C   UNL     1      -2.118   5.942   4.327  1.00  0.00     0.001 A 
ATOM     24  C   UNL     1      -2.175   7.951   3.011  1.00  0.00     0.001 A 
ATOM     25  C   UNL     1      -2.143   7.329   4.254  1.00  0.00     0.000 A 
ENDBRANCH   8  20
ENDBRANCH   6   8
ENDBRANCH   5   6
ENDBRANCH   4   5
ENDBRANCH   3   4
ENDBRANCH   2   3
ENDBRANCH   1   2
BRANCH   1  26
ATOM     26  C   UNL     1      -3.974   1.882   2.490  1.00  0.00     0.188 C 
BRANCH  26  27
ATOM     27  O   UNL     1      -4.540   0.943   1.600  1.00  0.00    -0.376 OA
BRANCH  27  28
ATOM     28  C   UNL     1      -4.527  -0.416   1.996  1.00  0.00     0.202 C 
BRANCH  28  29
ATOM     29  C   UNL     1      -5.185  -0.796   3.334  1.00  0.00     0.261 C 
BRANCH  29  30
ATOM     30  O   UNL     1      -4.864   0.029   4.467  1.00  0.00    -0.460 OA
BRANCH  30  31
ATOM     31  C   UNL     1      -3.639  -0.142   5.022  1.00  0.00     0.338 C 
ATOM     32  O   UNL     1      -2.785  -0.927   4.661  1.00  0.00    -0.246 OA
BRANCH  31  33
ATOM     33  C   UNL     1      -3.418   0.958   5.994  1.00  0.00     0.060 A 
ATOM     34  C   UNL     1      -2.312   1.799   5.810  1.00  0.00     0.016 A 
ATOM     35  C   UNL     1      -4.278   1.157   7.078  1.00  0.00     0.016 A 
ATOM     36  C   UNL     1      -2.042   2.813   6.732  1.00  0.00     0.010 A 
ATOM     37  C   UNL     1      -3.995   2.164   8.011  1.00  0.00     0.010 A 
ATOM     38  C   UNL     1      -2.857   2.976   7.861  1.00  0.00    -0.014 A 
BRANCH  38  39
ATOM     39  C   UNL     1      -2.373   3.827   8.979  1.00  0.00     0.031 A 
ATOM     40  C   UNL     1      -1.581   3.169  10.078  1.00  0.00     0.074 A 
ATOM     41  C   UNL     1      -2.574   5.157   9.006  1.00  0.00     0.049 A 
ATOM     42  N   UNL     1      -1.002   3.701  11.121  1.00  0.00    -0.248 NA
ATOM     43  C   UNL     1      -1.427   1.708   9.982  1.00  0.00     0.031 C 
ATOM     44  C   UNL     1      -3.315   5.923   8.008  1.00  0.00     0.029 A 
ATOM     45  N   UNL     1      -2.164   6.101   9.917  1.00  0.00    -0.354 N 
ATOM     46  C   UNL     1      -0.434   2.641  11.819  1.00  0.00     0.074 A 
ATOM     47  C   UNL     1      -0.754   1.435  11.087  1.00  0.00     0.031 C 
ATOM     48  C   UNL     1      -3.288   7.225   8.348  1.00  0.00     0.029 A 
ATOM     49  C   UNL     1      -2.560   7.381   9.607  1.00  0.00     0.049 A 
ATOM     50  H   UNL     1      -1.634   5.881  10.718  1.00  0.00     0.167 HD
ATOM     51  C   UNL     1       0.295   2.662  12.960  1.00  0.00     0.034 A 
ATOM     52  C   UNL     1      -2.363   8.540  10.269  1.00  0.00     0.034 A 
ATOM     53  C   UNL     1       0.602   3.855  13.701  1.00  0.00     0.049 A 
ATOM     54  C   UNL     1      -1.583   8.533  11.562  1.00  0.00     0.074 A 
ATOM     55  C   UNL     1       1.331   3.979  14.871  1.00  0.00     0.029 A 
ATOM     56  N   UNL     1       0.181   5.130  13.357  1.00  0.00    -0.354 N 
ATOM     57  N   UNL     1      -0.981   7.535  12.165  1.00  0.00    -0.248 NA
ATOM     58  C   UNL     1      -1.437   9.823  12.255  1.00  0.00     0.031 C 
ATOM     59  C   UNL     1       1.321   5.326  15.252  1.00  0.00     0.029 A 
ATOM     60  C   UNL     1       0.628   6.048  14.293  1.00  0.00     0.049 A 
ATOM     61  H   UNL     1      -0.357   5.351  12.563  1.00  0.00     0.167 HD
ATOM     62  C   UNL     1      -0.347   8.084  13.277  1.00  0.00     0.074 A 
ATOM     63  C   UNL     1      -0.625   9.505  13.254  1.00  0.00     0.031 C 
ATOM     64  C   UNL     1       0.391   7.468  14.234  1.00  0.00     0.034 A 
BRANCH  51  65
ATOM     65  C   UNL     1       0.797   1.337  13.473  1.00  0.00     0.023 A 
ATOM     66  C   UNL     1       1.806   0.647  12.768  1.00  0.00     0.012 A 
ATOM     67  C   UNL     1       0.266   0.771  14.648  1.00  0.00     0.148 A 
ATOM     68  C   UNL     1       2.237  -0.609  13.193  1.00  0.00     0.002 A 
ATOM     69  C   UNL     1       0.738  -0.458  15.093  1.00  0.00     0.091 A 
ATOM     70  F   UNL     1      -0.708   1.429  15.292  1.00  0.00    -0.205 F 
ATOM     71  C   UNL     1       1.709  -1.157  14.358  1.00  0.00     0.022 A 
BRANCH  69  72
ATOM     72  S   UNL     1       0.176  -1.210  16.624  1.00  0.00     0.127 S 
ATOM     73  O   UNL     1      -0.637  -2.319  16.126  1.00  0.00    -0.237 OA
ATOM     74  O   UNL     1       1.436  -1.611  17.249  1.00  0.00    -0.237 OA
ATOM     75  O   UNL     1      -0.552  -0.170  17.338  1.00  0.00    -0.744 OA
ENDBRANCH  69  72
ENDBRANCH  51  65
BRANCH  52  76
ATOM     76  C   UNL     1      -2.867   9.829   9.709  1.00  0.00     0.023 A 
ATOM     77  C   UNL     1      -1.946  10.809   9.287  1.00  0.00     0.012 A 
ATOM     78  C   UNL     1      -4.245  10.100   9.614  1.00  0.00     0.148 A 
ATOM     79  C   UNL     1      -2.386  12.047   8.816  1.00  0.00     0.002 A 
ATOM     80  C   UNL     1      -4.678  11.313   9.091  1.00  0.00     0.091 A 
ATOM     81  F   UNL     1      -5.106   9.164  10.037  1.00  0.00    -0.205 F 
ATOM     82  C   UNL     1      -3.751  12.296   8.710  1.00  0.00     0.022 A 
BRANCH  80  83
ATOM     83  S   UNL     1      -6.414  11.682   8.810  1.00  0.00     0.127 S 
ATOM     84  O   UNL     1      -6.644  12.775   9.752  1.00  0.00    -0.237 OA
ATOM     85  O   UNL     1      -6.410  12.073   7.401  1.00  0.00    -0.237 OA
ATOM     86  O   UNL     1      -7.131  10.447   9.094  1.00  0.00    -0.744 OA
ENDBRANCH  80  83
ENDBRANCH  52  76
BRANCH  64  87
ATOM     87  C   UNL     1       1.014   8.330  15.306  1.00  0.00     0.023 A 
ATOM     88  C   UNL     1       0.208   8.954  16.280  1.00  0.00     0.012 A 
ATOM     89  C   UNL     1       2.414   8.477  15.377  1.00  0.00     0.148 A 
ATOM     90  C   UNL     1       0.782   9.749  17.273  1.00  0.00     0.002 A 
ATOM     91  C   UNL     1       2.982   9.223  16.403  1.00  0.00     0.091 A 
ATOM     92  F   UNL     1       3.168   7.891  14.435  1.00  0.00    -0.205 F 
ATOM     93  C   UNL     1       2.167   9.875  17.341  1.00  0.00     0.022 A 
BRANCH  91  94
ATOM     94  S   UNL     1       4.760   9.351  16.627  1.00  0.00     0.127 S 
ATOM     95  O   UNL     1       5.021  10.715  16.170  1.00  0.00    -0.237 OA
ATOM     96  O   UNL     1       4.907   9.153  18.069  1.00  0.00    -0.237 OA
ATOM     97  O   UNL     1       5.343   8.294  15.812  1.00  0.00    -0.744 OA
ENDBRANCH  91  94
ENDBRANCH  64  87
ENDBRANCH  38  39
ENDBRANCH  31  33
ENDBRANCH  30  31
ENDBRANCH  29  30
ENDBRANCH  28  29
ENDBRANCH  27  28
ENDBRANCH  26  27
ENDBRANCH   1  26
TORSDOF 24
