REMARK SMILES CCC1(C(=O)N[C@H]2C=C[C@H](C(=O)OCCOCCOCCOC(=O)c3ccc(-c4c5nc(c(-c6cccc(S(=O)(=O)[O-])c6F)c6ccc([nH]6)c(-c6cccc(S(=O)(=O)[O-])c6F)c6nc(c(-c7cccc(S(=O)(=O)[O-])c7F)c7ccc4[nH]7)C=C6)C=C5)cc3)C2)CC[NH2+]CC1
REMARK SMILES IDX 17 1 16 2 15 3 14 4 13 5 11 6 12 7 10 8 7 9 8 10 88 11 9 12
REMARK SMILES IDX 6 13 4 14 5 15 3 17 89 18 93 19 90 20 92 21 91 22 2 25 1 26
REMARK SMILES IDX 18 27 19 28 20 29 21 30 22 31 23 32 24 33 25 34 26 35 87 36
REMARK SMILES IDX 27 37 86 38 28 39 29 40 30 41 80 42 31 43 85 44 79 45 81 46
REMARK SMILES IDX 32 47 84 48 78 49 77 50 33 52 65 53 45 54 64 55 46 56 49 57
REMARK SMILES IDX 63 58 82 59 47 60 48 61 62 63 83 64 50 65 34 66 35 67 43 68
REMARK SMILES IDX 36 69 38 70 44 71 37 72 39 73 40 74 41 75 42 76 66 77 67 78
REMARK SMILES IDX 75 79 68 80 70 81 76 82 69 83 71 84 72 85 73 86 74 87 51 88
REMARK SMILES IDX 52 89 60 90 53 91 55 92 61 93 54 94 56 95 57 96 58 97 59 98
REMARK H PARENT 6 16 91 23 91 24 81 51 49 62
REMARK Flexibility Score: inf
ROOT
ATOM      1  C   UNL     1      -0.396   2.319  -8.168  1.00  0.00     0.188 C 
ENDROOT
BRANCH   1   2
ATOM      2  O   UNL     1      -1.250   2.007  -9.256  1.00  0.00    -0.376 OA
BRANCH   2   3
ATOM      3  C   UNL     1      -1.173   0.675  -9.739  1.00  0.00     0.202 C 
BRANCH   3   4
ATOM      4  C   UNL     1      -1.647  -0.397  -8.754  1.00  0.00     0.261 C 
BRANCH   4   5
ATOM      5  O   UNL     1      -0.944  -0.418  -7.497  1.00  0.00    -0.463 OA
BRANCH   5   6
ATOM      6  C   UNL     1       0.283  -1.008  -7.421  1.00  0.00     0.312 C 
ATOM      7  O   UNL     1       0.864  -1.522  -8.366  1.00  0.00    -0.252 OA
BRANCH   6   8
ATOM      8  C   UNL     1       0.775  -0.922  -5.971  1.00  0.00     0.124 C 
ATOM      9  C   UNL     1       2.691   0.217  -4.889  1.00  0.00     0.106 C 
ATOM     10  C   UNL     1       2.862  -1.262  -4.918  1.00  0.00    -0.006 C 
ATOM     11  C   UNL     1       1.362   0.452  -5.600  1.00  0.00     0.048 C 
ATOM     12  C   UNL     1       1.864  -1.873  -5.573  1.00  0.00    -0.014 C 
BRANCH   9  13
ATOM     13  N   UNL     1       2.958   0.807  -3.578  1.00  0.00    -0.349 N 
ATOM     14  C   UNL     1       2.390   1.066  -2.375  1.00  0.00     0.227 C 
ATOM     15  O   UNL     1       3.167   1.581  -1.557  1.00  0.00    -0.274 OA
ATOM     16  H   UNL     1       3.886   1.136  -3.564  1.00  0.00     0.164 HD
BRANCH  14  17
ATOM     17  C   UNL     1       0.907   0.865  -1.982  1.00  0.00     0.060 C 
ATOM     18  C   UNL     1       0.076   1.996  -2.654  1.00  0.00     0.078 C 
ATOM     19  C   UNL     1       0.432  -0.545  -2.361  1.00  0.00     0.078 C 
ATOM     20  C   UNL     1      -1.405   1.661  -2.835  1.00  0.00     0.261 C 
ATOM     21  C   UNL     1      -1.078  -0.685  -2.449  1.00  0.00     0.261 C 
ATOM     22  N   UNL     1      -1.613   0.316  -3.366  1.00  0.00    -0.346 N 
ATOM     23  H   UNL     1      -1.139   0.234  -4.266  1.00  0.00     0.346 HD
ATOM     24  H   UNL     1      -2.614   0.158  -3.479  1.00  0.00     0.346 HD
BRANCH  17  25
ATOM     25  C   UNL     1       0.723   1.087  -0.434  1.00  0.00     0.014 C 
ATOM     26  C   UNL     1       1.306   0.022   0.488  1.00  0.00     0.005 C 
ENDBRANCH  17  25
ENDBRANCH  14  17
ENDBRANCH   9  13
ENDBRANCH   6   8
ENDBRANCH   5   6
ENDBRANCH   4   5
ENDBRANCH   3   4
ENDBRANCH   2   3
ENDBRANCH   1   2
BRANCH   1  27
ATOM     27  C   UNL     1      -1.153   2.522  -6.836  1.00  0.00     0.188 C 
BRANCH  27  28
ATOM     28  O   UNL     1      -2.508   2.959  -6.820  1.00  0.00    -0.376 OA
BRANCH  28  29
ATOM     29  C   UNL     1      -3.000   3.745  -7.891  1.00  0.00     0.202 C 
BRANCH  29  30
ATOM     30  C   UNL     1      -2.397   5.140  -8.102  1.00  0.00     0.261 C 
BRANCH  30  31
ATOM     31  O   UNL     1      -0.961   5.213  -8.092  1.00  0.00    -0.460 OA
BRANCH  31  32
ATOM     32  C   UNL     1      -0.401   5.702  -6.957  1.00  0.00     0.338 C 
ATOM     33  O   UNL     1      -0.986   6.094  -5.963  1.00  0.00    -0.246 OA
BRANCH  32  34
ATOM     34  C   UNL     1       1.074   5.559  -7.013  1.00  0.00     0.060 A 
ATOM     35  C   UNL     1       1.715   4.848  -5.989  1.00  0.00     0.016 A 
ATOM     36  C   UNL     1       1.829   6.178  -8.012  1.00  0.00     0.016 A 
ATOM     37  C   UNL     1       3.110   4.777  -5.942  1.00  0.00     0.010 A 
ATOM     38  C   UNL     1       3.229   6.122  -7.952  1.00  0.00     0.010 A 
ATOM     39  C   UNL     1       3.879   5.448  -6.902  1.00  0.00    -0.014 A 
BRANCH  39  40
ATOM     40  C   UNL     1       5.351   5.575  -6.729  1.00  0.00     0.031 A 
ATOM     41  C   UNL     1       5.914   6.860  -6.176  1.00  0.00     0.074 A 
ATOM     42  C   UNL     1       6.186   4.575  -7.067  1.00  0.00     0.049 A 
ATOM     43  N   UNL     1       7.161   7.217  -6.011  1.00  0.00    -0.248 NA
ATOM     44  C   UNL     1       4.936   7.877  -5.758  1.00  0.00     0.031 C 
ATOM     45  C   UNL     1       5.778   3.274  -7.594  1.00  0.00     0.029 A 
ATOM     46  N   UNL     1       7.559   4.513  -7.043  1.00  0.00    -0.354 N 
ATOM     47  C   UNL     1       7.121   8.509  -5.497  1.00  0.00     0.074 A 
ATOM     48  C   UNL     1       5.725   8.875  -5.388  1.00  0.00     0.031 C 
ATOM     49  C   UNL     1       6.878   2.553  -7.873  1.00  0.00     0.029 A 
ATOM     50  C   UNL     1       8.067   3.350  -7.576  1.00  0.00     0.049 A 
ATOM     51  H   UNL     1       8.125   5.231  -6.680  1.00  0.00     0.167 HD
ATOM     52  C   UNL     1       8.149   9.315  -5.137  1.00  0.00     0.034 A 
ATOM     53  C   UNL     1       9.342   2.985  -7.823  1.00  0.00     0.034 A 
ATOM     54  C   UNL     1       9.538   8.952  -5.234  1.00  0.00     0.049 A 
ATOM     55  C   UNL     1      10.469   3.921  -7.461  1.00  0.00     0.074 A 
ATOM     56  C   UNL     1      10.647   9.692  -4.864  1.00  0.00     0.029 A 
ATOM     57  N   UNL     1      10.010   7.756  -5.750  1.00  0.00    -0.354 N 
ATOM     58  N   UNL     1      10.416   5.098  -6.887  1.00  0.00    -0.248 NA
ATOM     59  C   UNL     1      11.837   3.464  -7.758  1.00  0.00     0.031 C 
ATOM     60  C   UNL     1      11.792   8.957  -5.189  1.00  0.00     0.029 A 
ATOM     61  C   UNL     1      11.395   7.742  -5.723  1.00  0.00     0.049 A 
ATOM     62  H   UNL     1       9.445   7.024  -6.087  1.00  0.00     0.167 HD
ATOM     63  C   UNL     1      11.738   5.502  -6.716  1.00  0.00     0.074 A 
ATOM     64  C   UNL     1      12.570   4.436  -7.233  1.00  0.00     0.031 C 
ATOM     65  C   UNL     1      12.218   6.655  -6.187  1.00  0.00     0.034 A 
BRANCH  52  66
ATOM     66  C   UNL     1       7.809  10.677  -4.588  1.00  0.00     0.023 A 
ATOM     67  C   UNL     1       7.250  10.791  -3.299  1.00  0.00     0.012 A 
ATOM     68  C   UNL     1       8.094  11.844  -5.323  1.00  0.00     0.148 A 
ATOM     69  C   UNL     1       6.947  12.043  -2.765  1.00  0.00     0.002 A 
ATOM     70  C   UNL     1       7.832  13.090  -4.766  1.00  0.00     0.091 A 
ATOM     71  F   UNL     1       8.609  11.714  -6.554  1.00  0.00    -0.205 F 
ATOM     72  C   UNL     1       7.247  13.191  -3.493  1.00  0.00     0.022 A 
BRANCH  70  73
ATOM     73  S   UNL     1       8.252  14.629  -5.591  1.00  0.00     0.127 S 
ATOM     74  O   UNL     1       6.929  15.162  -5.914  1.00  0.00    -0.237 OA
ATOM     75  O   UNL     1       8.962  15.357  -4.539  1.00  0.00    -0.237 OA
ATOM     76  O   UNL     1       9.072  14.262  -6.736  1.00  0.00    -0.744 OA
ENDBRANCH  70  73
ENDBRANCH  52  66
BRANCH  53  77
ATOM     77  C   UNL     1       9.636   1.654  -8.430  1.00  0.00     0.023 A 
ATOM     78  C   UNL     1      10.296   0.672  -7.665  1.00  0.00     0.012 A 
ATOM     79  C   UNL     1       9.275   1.360  -9.759  1.00  0.00     0.148 A 
ATOM     80  C   UNL     1      10.620  -0.566  -8.223  1.00  0.00     0.002 A 
ATOM     81  C   UNL     1       9.551   0.106 -10.291  1.00  0.00     0.091 A 
ATOM     82  F   UNL     1       8.665   2.314 -10.476  1.00  0.00    -0.205 F 
ATOM     83  C   UNL     1      10.239  -0.852  -9.531  1.00  0.00     0.022 A 
BRANCH  81  84
ATOM     84  S   UNL     1       8.996  -0.395 -11.924  1.00  0.00     0.127 S 
ATOM     85  O   UNL     1      10.261  -0.521 -12.644  1.00  0.00    -0.237 OA
ATOM     86  O   UNL     1       8.322  -1.661 -11.635  1.00  0.00    -0.237 OA
ATOM     87  O   UNL     1       8.112   0.667 -12.384  1.00  0.00    -0.744 OA
ENDBRANCH  81  84
ENDBRANCH  53  77
BRANCH  65  88
ATOM     88  C   UNL     1      13.714   6.820  -6.086  1.00  0.00     0.023 A 
ATOM     89  C   UNL     1      14.483   7.034  -7.247  1.00  0.00     0.012 A 
ATOM     90  C   UNL     1      14.348   6.844  -4.826  1.00  0.00     0.148 A 
ATOM     91  C   UNL     1      15.861   7.238  -7.159  1.00  0.00     0.002 A 
ATOM     92  C   UNL     1      15.712   7.099  -4.743  1.00  0.00     0.091 A 
ATOM     93  F   UNL     1      13.604   6.623  -3.733  1.00  0.00    -0.205 F 
ATOM     94  C   UNL     1      16.472   7.282  -5.909  1.00  0.00     0.022 A 
BRANCH  92  95
ATOM     95  S   UNL     1      16.569   7.272  -3.173  1.00  0.00     0.127 S 
ATOM     96  O   UNL     1      17.391   6.063  -3.147  1.00  0.00    -0.237 OA
ATOM     97  O   UNL     1      17.319   8.514  -3.365  1.00  0.00    -0.237 OA
ATOM     98  O   UNL     1      15.532   7.343  -2.152  1.00  0.00    -0.744 OA
ENDBRANCH  92  95
ENDBRANCH  65  88
ENDBRANCH  39  40
ENDBRANCH  32  34
ENDBRANCH  31  32
ENDBRANCH  30  31
ENDBRANCH  29  30
ENDBRANCH  28  29
ENDBRANCH  27  28
ENDBRANCH   1  27
TORSDOF 23
