REMARK SMILES C[C@@H](Sc1nnc(Cc2cccc3ccccc23)n1-c1ccccc1)C(=O)OCCOCCOCCOC(=O)c1ccc(-c2c3nc(c(-c4cccc(S(=O)(=O)[O-])c4F)c4ccc([nH]4)c(-c4cccc(S(=O)(=O)[O-])c4F)c4nc(c(-c5cccc(S(=O)(=O)[O-])c5F)c5ccc2[nH]5)C=C4)C=C3)cc1
REMARK SMILES IDX 32 1 31 2 30 3 29 4 28 5 26 6 27 7 2 8 1 9 3 10 4 11 5 12
REMARK SMILES IDX 19 13 6 14 7 15 20 16 21 17 25 18 22 19 24 20 23 21 8 22
REMARK SMILES IDX 9 23 10 24 18 25 11 26 13 27 17 28 12 29 14 30 16 31 15 32
REMARK SMILES IDX 33 33 34 34 35 35 36 36 37 37 38 38 39 39 40 40 41 41 102 42
REMARK SMILES IDX 42 43 101 44 43 45 44 46 45 47 95 48 46 49 100 50 94 51
REMARK SMILES IDX 96 52 47 53 99 54 93 55 92 56 48 58 80 59 60 60 79 61 61 62
REMARK SMILES IDX 64 63 78 64 97 65 62 66 63 67 77 69 98 70 65 71 49 72 50 73
REMARK SMILES IDX 58 74 51 75 53 76 59 77 52 78 54 79 55 80 56 81 57 82 81 83
REMARK SMILES IDX 82 84 90 85 83 86 85 87 91 88 84 89 86 90 87 91 88 92 89 93
REMARK SMILES IDX 66 94 67 95 75 96 68 97 70 98 76 99 69 100 71 101 72 102
REMARK SMILES IDX 73 103 74 104
REMARK H PARENT 96 57 64 68
REMARK Flexibility Score: inf
ROOT
ATOM      1  C   UNL     1      -2.036   2.043   0.012  1.00  0.00     0.188 C 
ENDROOT
BRANCH   1   2
ATOM      2  O   UNL     1      -3.371   1.902  -0.467  1.00  0.00    -0.376 OA
BRANCH   2   3
ATOM      3  C   UNL     1      -3.773   0.629  -0.967  1.00  0.00     0.202 C 
BRANCH   3   4
ATOM      4  C   UNL     1      -2.951   0.006  -2.113  1.00  0.00     0.261 C 
BRANCH   4   5
ATOM      5  O   UNL     1      -1.539  -0.156  -1.857  1.00  0.00    -0.462 OA
BRANCH   5   6
ATOM      6  C   UNL     1      -0.683   0.601  -2.595  1.00  0.00     0.319 C 
ATOM      7  O   UNL     1      -1.047   1.376  -3.475  1.00  0.00    -0.251 OA
BRANCH   6   8
ATOM      8  C   UNL     1       0.794   0.417  -2.206  1.00  0.00     0.161 C 
ATOM      9  C   UNL     1       1.062  -0.553  -1.054  1.00  0.00     0.032 C 
BRANCH   8  10
ATOM     10  S   UNL     1       1.648  -0.107  -3.741  1.00  0.00    -0.071 SA
BRANCH  10  11
ATOM     11  C   UNL     1       3.299  -0.174  -3.233  1.00  0.00     0.196 A 
ATOM     12  N   UNL     1       4.022   0.872  -2.906  1.00  0.00    -0.123 NA
ATOM     13  N   UNL     1       4.003  -1.338  -2.980  1.00  0.00    -0.274 N 
ATOM     14  N   UNL     1       5.263   0.421  -2.540  1.00  0.00    -0.134 NA
ATOM     15  C   UNL     1       5.276  -0.895  -2.655  1.00  0.00     0.142 A 
BRANCH  13  16
ATOM     16  C   UNL     1       3.520  -2.670  -2.945  1.00  0.00     0.049 A 
ATOM     17  C   UNL     1       3.824  -3.481  -1.842  1.00  0.00     0.027 A 
ATOM     18  C   UNL     1       2.707  -3.164  -3.970  1.00  0.00     0.027 A 
ATOM     19  C   UNL     1       3.328  -4.783  -1.779  1.00  0.00     0.002 A 
ATOM     20  C   UNL     1       2.210  -4.465  -3.896  1.00  0.00     0.002 A 
ATOM     21  C   UNL     1       2.523  -5.274  -2.805  1.00  0.00     0.000 A 
ENDBRANCH  13  16
BRANCH  15  22
ATOM     22  C   UNL     1       6.506  -1.744  -2.617  1.00  0.00     0.114 C 
BRANCH  22  23
ATOM     23  C   UNL     1       7.249  -1.742  -3.946  1.00  0.00    -0.033 A 
ATOM     24  C   UNL     1       7.982  -0.579  -4.258  1.00  0.00     0.005 A 
ATOM     25  C   UNL     1       7.218  -2.824  -4.877  1.00  0.00    -0.015 A 
ATOM     26  C   UNL     1       8.693  -0.474  -5.445  1.00  0.00     0.001 A 
ATOM     27  C   UNL     1       7.960  -2.701  -6.082  1.00  0.00    -0.018 A 
ATOM     28  C   UNL     1       6.495  -4.027  -4.691  1.00  0.00     0.009 A 
ATOM     29  C   UNL     1       8.687  -1.532  -6.347  1.00  0.00     0.009 A 
ATOM     30  C   UNL     1       7.971  -3.747  -7.021  1.00  0.00     0.009 A 
ATOM     31  C   UNL     1       6.507  -5.055  -5.640  1.00  0.00     0.001 A 
ATOM     32  C   UNL     1       7.250  -4.917  -6.802  1.00  0.00     0.001 A 
ENDBRANCH  22  23
ENDBRANCH  15  22
ENDBRANCH  10  11
ENDBRANCH   8  10
ENDBRANCH   6   8
ENDBRANCH   5   6
ENDBRANCH   4   5
ENDBRANCH   3   4
ENDBRANCH   2   3
ENDBRANCH   1   2
BRANCH   1  33
ATOM     33  C   UNL     1      -1.549   1.020   1.050  1.00  0.00     0.188 C 
BRANCH  33  34
ATOM     34  O   UNL     1      -1.939  -0.309   0.735  1.00  0.00    -0.376 OA
BRANCH  34  35
ATOM     35  C   UNL     1      -2.207  -1.253   1.766  1.00  0.00     0.202 C 
BRANCH  35  36
ATOM     36  C   UNL     1      -3.345  -0.932   2.743  1.00  0.00     0.261 C 
BRANCH  36  37
ATOM     37  O   UNL     1      -3.199   0.293   3.442  1.00  0.00    -0.460 OA
BRANCH  37  38
ATOM     38  C   UNL     1      -2.054   0.497   4.108  1.00  0.00     0.338 C 
ATOM     39  O   UNL     1      -1.108  -0.289   4.231  1.00  0.00    -0.246 OA
BRANCH  38  40
ATOM     40  C   UNL     1      -2.074   1.860   4.630  1.00  0.00     0.060 A 
ATOM     41  C   UNL     1      -0.910   2.347   5.232  1.00  0.00     0.016 A 
ATOM     42  C   UNL     1      -3.287   2.567   4.665  1.00  0.00     0.016 A 
ATOM     43  C   UNL     1      -1.022   3.417   6.085  1.00  0.00     0.010 A 
ATOM     44  C   UNL     1      -3.404   3.616   5.533  1.00  0.00     0.010 A 
ATOM     45  C   UNL     1      -2.292   3.953   6.301  1.00  0.00    -0.014 A 
BRANCH  45  46
ATOM     46  C   UNL     1      -2.478   4.835   7.426  1.00  0.00     0.031 A 
ATOM     47  C   UNL     1      -2.179   6.245   7.133  1.00  0.00     0.074 A 
ATOM     48  C   UNL     1      -3.013   4.356   8.565  1.00  0.00     0.049 A 
ATOM     49  N   UNL     1      -1.216   6.962   7.608  1.00  0.00    -0.248 NA
ATOM     50  C   UNL     1      -2.930   6.884   6.042  1.00  0.00     0.031 C 
ATOM     51  C   UNL     1      -3.606   3.026   8.763  1.00  0.00     0.029 A 
ATOM     52  N   UNL     1      -3.299   5.003   9.727  1.00  0.00    -0.354 N 
ATOM     53  C   UNL     1      -1.436   8.229   7.077  1.00  0.00     0.074 A 
ATOM     54  C   UNL     1      -2.288   8.047   5.937  1.00  0.00     0.031 C 
ATOM     55  C   UNL     1      -4.398   3.059   9.855  1.00  0.00     0.029 A 
ATOM     56  C   UNL     1      -4.279   4.364  10.480  1.00  0.00     0.049 A 
ATOM     57  H   UNL     1      -2.858   5.837  10.007  1.00  0.00     0.167 HD
ATOM     58  C   UNL     1      -1.223   9.335   7.839  1.00  0.00     0.034 A 
ATOM     59  C   UNL     1      -5.017   4.916  11.472  1.00  0.00     0.034 A 
ATOM     60  C   UNL     1      -0.358   9.037   8.960  1.00  0.00     0.049 A 
ATOM     61  C   UNL     1      -4.313   6.141  11.919  1.00  0.00     0.074 A 
ATOM     62  C   UNL     1       0.896   8.480   9.114  1.00  0.00     0.029 A 
ATOM     63  N   UNL     1      -0.950   9.001  10.199  1.00  0.00    -0.354 N 
ATOM     64  N   UNL     1      -3.176   6.139  12.558  1.00  0.00    -0.248 NA
ATOM     65  C   UNL     1      -4.691   7.413  11.325  1.00  0.00     0.031 C 
ATOM     66  C   UNL     1       0.852   7.781  10.355  1.00  0.00     0.029 A 
ATOM     67  C   UNL     1      -0.410   7.973  10.921  1.00  0.00     0.049 A 
ATOM     68  H   UNL     1      -1.649   9.616  10.517  1.00  0.00     0.167 HD
ATOM     69  C   UNL     1      -2.501   7.247  12.064  1.00  0.00     0.074 A 
ATOM     70  C   UNL     1      -3.533   8.068  11.440  1.00  0.00     0.031 C 
ATOM     71  C   UNL     1      -1.140   7.237  11.934  1.00  0.00     0.034 A 
BRANCH  58  72
ATOM     72  C   UNL     1      -2.154  10.541   7.864  1.00  0.00     0.023 A 
ATOM     73  C   UNL     1      -1.762  11.616   8.692  1.00  0.00     0.012 A 
ATOM     74  C   UNL     1      -3.495  10.554   7.405  1.00  0.00     0.148 A 
ATOM     75  C   UNL     1      -2.679  12.573   9.140  1.00  0.00     0.002 A 
ATOM     76  C   UNL     1      -4.388  11.542   7.802  1.00  0.00     0.091 A 
ATOM     77  F   UNL     1      -3.977   9.555   6.667  1.00  0.00    -0.205 F 
ATOM     78  C   UNL     1      -3.996  12.530   8.703  1.00  0.00     0.022 A 
BRANCH  76  79
ATOM     79  S   UNL     1      -6.099  11.545   7.244  1.00  0.00     0.127 S 
ATOM     80  O   UNL     1      -6.800  11.164   8.466  1.00  0.00    -0.237 OA
ATOM     81  O   UNL     1      -6.272  12.938   6.833  1.00  0.00    -0.237 OA
ATOM     82  O   UNL     1      -6.164  10.587   6.147  1.00  0.00    -0.744 OA
ENDBRANCH  76  79
ENDBRANCH  58  72
BRANCH  59  83
ATOM     83  C   UNL     1      -6.394   4.595  11.917  1.00  0.00     0.023 A 
ATOM     84  C   UNL     1      -6.823   5.030  13.187  1.00  0.00     0.012 A 
ATOM     85  C   UNL     1      -7.367   4.083  11.028  1.00  0.00     0.148 A 
ATOM     86  C   UNL     1      -8.175   4.990  13.546  1.00  0.00     0.002 A 
ATOM     87  C   UNL     1      -8.707   4.020  11.400  1.00  0.00     0.091 A 
ATOM     88  F   UNL     1      -7.003   3.747   9.785  1.00  0.00    -0.205 F 
ATOM     89  C   UNL     1      -9.117   4.487  12.654  1.00  0.00     0.022 A 
BRANCH  87  90
ATOM     90  S   UNL     1      -9.970   3.365  10.300  1.00  0.00     0.127 S 
ATOM     91  O   UNL     1     -10.770   2.540  11.207  1.00  0.00    -0.237 OA
ATOM     92  O   UNL     1     -10.632   4.580   9.836  1.00  0.00    -0.237 OA
ATOM     93  O   UNL     1      -9.251   2.603   9.286  1.00  0.00    -0.744 OA
ENDBRANCH  87  90
ENDBRANCH  59  83
BRANCH  71  94
ATOM     94  C   UNL     1      -0.360   6.194  12.694  1.00  0.00     0.023 A 
ATOM     95  C   UNL     1      -0.532   4.813  12.475  1.00  0.00     0.012 A 
ATOM     96  C   UNL     1       0.677   6.623  13.542  1.00  0.00     0.148 A 
ATOM     97  C   UNL     1       0.286   3.879  13.115  1.00  0.00     0.002 A 
ATOM     98  C   UNL     1       1.521   5.694  14.138  1.00  0.00     0.091 A 
ATOM     99  F   UNL     1       0.834   7.941  13.742  1.00  0.00    -0.205 F 
ATOM    100  C   UNL     1       1.321   4.320  13.937  1.00  0.00     0.022 A 
BRANCH  98 101
ATOM    101  S   UNL     1       2.947   6.213  15.096  1.00  0.00     0.127 S 
ATOM    102  O   UNL     1       2.454   6.100  16.467  1.00  0.00    -0.237 OA
ATOM    103  O   UNL     1       3.959   5.220  14.727  1.00  0.00    -0.237 OA
ATOM    104  O   UNL     1       3.254   7.564  14.642  1.00  0.00    -0.744 OA
ENDBRANCH  98 101
ENDBRANCH  71  94
ENDBRANCH  45  46
ENDBRANCH  38  40
ENDBRANCH  37  38
ENDBRANCH  36  37
ENDBRANCH  35  36
ENDBRANCH  34  35
ENDBRANCH  33  34
ENDBRANCH   1  33
TORSDOF 25
