REMARK SMILES O=C(OCCOCCOCCOC(=O)[C@@H](c1cccc(O)c1)[NH+]1CC[NH+](C2CCCC2)CC1)c1ccc(-c2c3nc(c(-c4cccc(S(=O)(=O)[O-])c4F)c4ccc([nH]4)c(-c4cccc(S(=O)(=O)[O-])c4F)c4nc(c(-c5cccc(S(=O)(=O)[O-])c5F)c5ccc2[nH]5)C=C4)C=C3)cc1
REMARK SMILES IDX 7 1 6 2 5 3 4 4 3 5 2 6 1 7 34 8 35 9 96 10 36 11 95 12
REMARK SMILES IDX 37 13 38 14 39 15 89 16 40 17 94 18 88 19 90 20 41 21 93 22
REMARK SMILES IDX 87 23 86 24 42 26 74 27 54 28 73 29 55 30 58 31 72 32 91 33
REMARK SMILES IDX 56 34 57 35 71 37 92 38 59 39 43 40 44 41 52 42 45 43 47 44
REMARK SMILES IDX 53 45 46 46 48 47 49 48 50 49 51 50 75 51 76 52 84 53 77 54
REMARK SMILES IDX 79 55 85 56 78 57 80 58 81 59 82 60 83 61 60 62 61 63 69 64
REMARK SMILES IDX 62 65 64 66 70 67 63 68 65 69 66 70 67 71 68 72 8 73 9 74
REMARK SMILES IDX 10 75 11 76 12 77 13 78 14 79 15 80 16 81 17 82 22 83 18 84
REMARK SMILES IDX 20 85 19 86 21 87 23 89 24 90 33 91 25 93 32 94 26 95 27 97
REMARK SMILES IDX 28 98 31 99 29 100 30 101
REMARK H PARENT 90 25 58 36 21 88 23 92 26 96
REMARK Flexibility Score: inf
ROOT
ATOM      1  C   UNL     1       2.640   1.408  -0.060  1.00  0.00     0.188 C 
ENDROOT
BRANCH   1   2
ATOM      2  O   UNL     1       4.023   1.300   0.199  1.00  0.00    -0.376 OA
BRANCH   2   3
ATOM      3  C   UNL     1       4.910   1.038  -0.874  1.00  0.00     0.202 C 
BRANCH   3   4
ATOM      4  C   UNL     1       4.576   0.039  -1.994  1.00  0.00     0.261 C 
BRANCH   4   5
ATOM      5  O   UNL     1       3.402  -0.786  -1.910  1.00  0.00    -0.460 OA
BRANCH   5   6
ATOM      6  C   UNL     1       2.988  -1.795  -1.120  1.00  0.00     0.338 C 
ATOM      7  O   UNL     1       1.840  -2.209  -1.290  1.00  0.00    -0.246 OA
BRANCH   6   8
ATOM      8  C   UNL     1       3.809  -2.423  -0.045  1.00  0.00     0.060 A 
ATOM      9  C   UNL     1       5.160  -2.185   0.187  1.00  0.00     0.016 A 
ATOM     10  C   UNL     1       3.154  -3.337   0.805  1.00  0.00     0.016 A 
ATOM     11  C   UNL     1       5.786  -2.693   1.339  1.00  0.00     0.010 A 
ATOM     12  C   UNL     1       3.791  -3.873   1.939  1.00  0.00     0.010 A 
ATOM     13  C   UNL     1       5.078  -3.446   2.294  1.00  0.00    -0.014 A 
BRANCH  13  14
ATOM     14  C   UNL     1       5.831  -3.969   3.480  1.00  0.00     0.031 A 
ATOM     15  C   UNL     1       6.543  -5.240   3.173  1.00  0.00     0.074 A 
ATOM     16  C   UNL     1       6.020  -3.364   4.686  1.00  0.00     0.049 A 
ATOM     17  N   UNL     1       7.457  -5.855   3.858  1.00  0.00    -0.248 NA
ATOM     18  C   UNL     1       6.153  -5.911   1.916  1.00  0.00     0.031 C 
ATOM     19  C   UNL     1       5.280  -2.244   5.239  1.00  0.00     0.029 A 
ATOM     20  N   UNL     1       6.940  -3.590   5.695  1.00  0.00    -0.354 N 
ATOM     21  C   UNL     1       7.753  -6.981   3.114  1.00  0.00     0.074 A 
ATOM     22  C   UNL     1       6.914  -6.984   1.942  1.00  0.00     0.031 C 
ATOM     23  C   UNL     1       5.852  -1.750   6.342  1.00  0.00     0.029 A 
ATOM     24  C   UNL     1       6.908  -2.654   6.724  1.00  0.00     0.049 A 
ATOM     25  H   UNL     1       7.564  -4.351   5.686  1.00  0.00     0.167 HD
ATOM     26  C   UNL     1       8.652  -7.943   3.387  1.00  0.00     0.034 A 
ATOM     27  C   UNL     1       7.574  -2.559   7.893  1.00  0.00     0.034 A 
ATOM     28  C   UNL     1       9.385  -7.996   4.610  1.00  0.00     0.049 A 
ATOM     29  C   UNL     1       8.520  -3.674   8.199  1.00  0.00     0.074 A 
ATOM     30  C   UNL     1      10.246  -8.976   5.051  1.00  0.00     0.029 A 
ATOM     31  N   UNL     1       9.296  -7.041   5.615  1.00  0.00    -0.354 N 
ATOM     32  N   UNL     1       8.823  -4.705   7.449  1.00  0.00    -0.248 NA
ATOM     33  C   UNL     1       9.196  -3.641   9.500  1.00  0.00     0.031 C 
ATOM     34  C   UNL     1      10.657  -8.630   6.342  1.00  0.00     0.029 A 
ATOM     35  C   UNL     1      10.095  -7.406   6.679  1.00  0.00     0.049 A 
ATOM     36  H   UNL     1       8.745  -6.226   5.574  1.00  0.00     0.167 HD
ATOM     37  C   UNL     1       9.725  -5.449   8.184  1.00  0.00     0.074 A 
ATOM     38  C   UNL     1       9.954  -4.725   9.421  1.00  0.00     0.031 C 
ATOM     39  C   UNL     1      10.297  -6.636   7.877  1.00  0.00     0.034 A 
BRANCH  26  40
ATOM     40  C   UNL     1       8.781  -9.006   2.344  1.00  0.00     0.023 A 
ATOM     41  C   UNL     1       9.378  -8.693   1.102  1.00  0.00     0.012 A 
ATOM     42  C   UNL     1       8.170 -10.255   2.532  1.00  0.00     0.148 A 
ATOM     43  C   UNL     1       9.321  -9.598   0.046  1.00  0.00     0.002 A 
ATOM     44  C   UNL     1       8.162 -11.170   1.492  1.00  0.00     0.091 A 
ATOM     45  F   UNL     1       7.560 -10.497   3.701  1.00  0.00    -0.205 F 
ATOM     46  C   UNL     1       8.718 -10.838   0.243  1.00  0.00     0.022 A 
BRANCH  44  47
ATOM     47  S   UNL     1       7.443 -12.804   1.649  1.00  0.00     0.127 S 
ATOM     48  O   UNL     1       6.431 -12.789   0.596  1.00  0.00    -0.237 OA
ATOM     49  O   UNL     1       8.595 -13.661   1.385  1.00  0.00    -0.237 OA
ATOM     50  O   UNL     1       6.912 -12.883   3.008  1.00  0.00    -0.744 OA
ENDBRANCH  44  47
ENDBRANCH  26  40
BRANCH  27  51
ATOM     51  C   UNL     1       7.323  -1.455   8.884  1.00  0.00     0.023 A 
ATOM     52  C   UNL     1       8.356  -0.560   9.235  1.00  0.00     0.012 A 
ATOM     53  C   UNL     1       6.066  -1.294   9.506  1.00  0.00     0.148 A 
ATOM     54  C   UNL     1       8.151   0.442  10.192  1.00  0.00     0.002 A 
ATOM     55  C   UNL     1       5.849  -0.254  10.408  1.00  0.00     0.091 A 
ATOM     56  F   UNL     1       5.092  -2.168   9.212  1.00  0.00    -0.205 F 
ATOM     57  C   UNL     1       6.895   0.604  10.768  1.00  0.00     0.022 A 
BRANCH  55  58
ATOM     58  S   UNL     1       4.213   0.090  11.072  1.00  0.00     0.127 S 
ATOM     59  O   UNL     1       4.262  -0.588  12.364  1.00  0.00    -0.237 OA
ATOM     60  O   UNL     1       4.206   1.552  11.146  1.00  0.00    -0.237 OA
ATOM     61  O   UNL     1       3.284  -0.456  10.091  1.00  0.00    -0.744 OA
ENDBRANCH  55  58
ENDBRANCH  27  51
BRANCH  39  62
ATOM     62  C   UNL     1      11.272  -7.171   8.874  1.00  0.00     0.023 A 
ATOM     63  C   UNL     1      10.825  -7.716  10.092  1.00  0.00     0.012 A 
ATOM     64  C   UNL     1      12.642  -7.160   8.563  1.00  0.00     0.148 A 
ATOM     65  C   UNL     1      11.745  -8.213  11.010  1.00  0.00     0.002 A 
ATOM     66  C   UNL     1      13.543  -7.715   9.453  1.00  0.00     0.091 A 
ATOM     67  F   UNL     1      13.031  -6.602   7.408  1.00  0.00    -0.205 F 
ATOM     68  C   UNL     1      13.101  -8.226  10.684  1.00  0.00     0.022 A 
BRANCH  66  69
ATOM     69  S   UNL     1      15.283  -7.870   9.055  1.00  0.00     0.127 S 
ATOM     70  O   UNL     1      15.877  -6.856   9.925  1.00  0.00    -0.237 OA
ATOM     71  O   UNL     1      15.563  -9.252   9.443  1.00  0.00    -0.237 OA
ATOM     72  O   UNL     1      15.394  -7.611   7.626  1.00  0.00    -0.744 OA
ENDBRANCH  66  69
ENDBRANCH  39  62
ENDBRANCH  13  14
ENDBRANCH   6   8
ENDBRANCH   5   6
ENDBRANCH   4   5
ENDBRANCH   3   4
ENDBRANCH   2   3
ENDBRANCH   1   2
BRANCH   1  73
ATOM     73  C   UNL     1       1.983   2.795  -0.034  1.00  0.00     0.188 C 
BRANCH  73  74
ATOM     74  O   UNL     1       2.683   3.969  -0.415  1.00  0.00    -0.376 OA
BRANCH  74  75
ATOM     75  C   UNL     1       3.925   4.281   0.192  1.00  0.00     0.202 C 
BRANCH  75  76
ATOM     76  C   UNL     1       4.031   4.499   1.700  1.00  0.00     0.261 C 
BRANCH  76  77
ATOM     77  O   UNL     1       3.467   3.467   2.495  1.00  0.00    -0.459 OA
BRANCH  77  78
ATOM     78  C   UNL     1       2.248   3.693   3.054  1.00  0.00     0.369 C 
ATOM     79  O   UNL     1       1.546   4.661   2.772  1.00  0.00    -0.245 OA
BRANCH  78  80
ATOM     80  C   UNL     1       1.859   2.651   4.122  1.00  0.00     0.326 C 
BRANCH  80  81
ATOM     81  C   UNL     1       2.083   1.224   3.713  1.00  0.00     0.025 A 
ATOM     82  C   UNL     1       1.113   0.236   3.953  1.00  0.00     0.011 A 
ATOM     83  C   UNL     1       3.377   0.870   3.346  1.00  0.00     0.056 A 
ATOM     84  C   UNL     1       1.454  -1.093   3.835  1.00  0.00     0.004 A 
ATOM     85  C   UNL     1       3.683  -0.428   3.139  1.00  0.00     0.116 A 
ATOM     86  C   UNL     1       2.735  -1.405   3.420  1.00  0.00     0.046 A 
BRANCH  85  87
ATOM     87  O   UNL     1       4.966  -0.649   2.773  1.00  0.00    -0.508 OA
ATOM     88  H   UNL     1       5.263  -1.522   2.609  1.00  0.00     0.293 HD
ENDBRANCH  85  87
ENDBRANCH  80  81
BRANCH  80  89
ATOM     89  N   UNL     1       2.565   2.765   5.422  1.00  0.00    -0.310 N 
ATOM     90  C   UNL     1       3.395   3.945   5.630  1.00  0.00     0.325 C 
ATOM     91  C   UNL     1       1.616   2.598   6.534  1.00  0.00     0.325 C 
ATOM     92  H   UNL     1       3.243   2.003   5.394  1.00  0.00     0.349 HD
ATOM     93  C   UNL     1       2.578   5.230   5.862  1.00  0.00     0.324 C 
ATOM     94  C   UNL     1       0.735   3.849   6.677  1.00  0.00     0.324 C 
ATOM     95  N   UNL     1       1.476   5.112   6.836  1.00  0.00    -0.323 N 
ATOM     96  H   UNL     1       0.783   5.831   6.628  1.00  0.00     0.348 HD
BRANCH  95  97
ATOM     97  C   UNL     1       1.908   5.427   8.194  1.00  0.00     0.184 C 
ATOM     98  C   UNL     1       0.881   5.173   9.296  1.00  0.00     0.065 C 
ATOM     99  C   UNL     1       3.184   4.797   8.766  1.00  0.00     0.065 C 
ATOM    100  C   UNL     1       1.670   5.528  10.542  1.00  0.00     0.006 C 
ATOM    101  C   UNL     1       3.065   4.965  10.280  1.00  0.00     0.006 C 
ENDBRANCH  95  97
ENDBRANCH  80  89
ENDBRANCH  78  80
ENDBRANCH  77  78
ENDBRANCH  76  77
ENDBRANCH  75  76
ENDBRANCH  74  75
ENDBRANCH  73  74
ENDBRANCH   1  73
TORSDOF 24
