REMARK SMILES O=C(OCCOCCOCCOC(=O)[C@H]1Sc2[nH]c(=O)sc2[C@H]2c3cc(Br)cc(Br)c3OC(=O)[C@H]21)c1ccc(-c2c3nc(c(-c4cccc(S(=O)(=O)[O-])c4F)c4ccc([nH]4)c(-c4cccc(S(=O)(=O)[O-])c4F)c4nc(c(-c5cccc(S(=O)(=O)[O-])c5F)c5ccc2[nH]5)C=C4)C=C3)cc1
REMARK SMILES IDX 6 1 5 2 4 3 3 4 2 5 1 6 36 7 37 8 98 9 38 10 97 11 39 12
REMARK SMILES IDX 40 13 41 14 91 15 42 16 96 17 90 18 92 19 43 20 95 21 89 22
REMARK SMILES IDX 88 23 44 25 76 26 56 27 75 28 57 29 60 30 74 31 93 32 58 33
REMARK SMILES IDX 59 34 73 36 94 37 61 38 45 39 46 40 54 41 47 42 49 43 55 44
REMARK SMILES IDX 48 45 50 46 51 47 52 48 53 49 77 50 78 51 86 52 79 53 81 54
REMARK SMILES IDX 87 55 80 56 82 57 83 58 84 59 85 60 62 61 63 62 71 63 64 64
REMARK SMILES IDX 66 65 72 66 65 67 67 68 68 69 69 70 70 71 7 72 8 73 9 74
REMARK SMILES IDX 10 75 11 76 12 77 13 78 14 79 15 80 16 81 35 82 17 83 23 84
REMARK SMILES IDX 33 85 18 86 22 87 24 88 32 89 34 90 19 91 21 93 25 94 31 95
REMARK SMILES IDX 20 96 26 97 29 98 27 99 28 100 30 101
REMARK H PARENT 92 24 60 35 18 92
REMARK Flexibility Score: inf
ROOT
ATOM      1  O   UNL     1       4.858  -0.812  -1.278  1.00  0.00    -0.376 OA
ENDROOT
BRANCH   1   2
ATOM      2  C   UNL     1       5.470  -0.394  -0.072  1.00  0.00     0.202 C 
BRANCH   2   3
ATOM      3  C   UNL     1       4.798  -0.742   1.263  1.00  0.00     0.261 C 
BRANCH   3   4
ATOM      4  O   UNL     1       3.367  -0.866   1.270  1.00  0.00    -0.460 OA
BRANCH   4   5
ATOM      5  C   UNL     1       2.355  -0.002   1.462  1.00  0.00     0.338 C 
ATOM      6  O   UNL     1       1.224  -0.456   1.637  1.00  0.00    -0.246 OA
BRANCH   5   7
ATOM      7  C   UNL     1       2.482   1.473   1.343  1.00  0.00     0.060 A 
ATOM      8  C   UNL     1       3.643   2.208   1.574  1.00  0.00     0.016 A 
ATOM      9  C   UNL     1       1.283   2.158   1.044  1.00  0.00     0.016 A 
ATOM     10  C   UNL     1       3.571   3.590   1.671  1.00  0.00     0.010 A 
ATOM     11  C   UNL     1       1.208   3.537   1.134  1.00  0.00     0.010 A 
ATOM     12  C   UNL     1       2.340   4.236   1.528  1.00  0.00    -0.014 A 
BRANCH  12  13
ATOM     13  C   UNL     1       2.295   5.670   1.758  1.00  0.00     0.031 A 
ATOM     14  C   UNL     1       3.030   6.472   0.747  1.00  0.00     0.074 A 
ATOM     15  C   UNL     1       1.585   6.223   2.762  1.00  0.00     0.049 A 
ATOM     16  N   UNL     1       4.128   7.139   0.894  1.00  0.00    -0.248 NA
ATOM     17  C   UNL     1       2.570   6.378  -0.642  1.00  0.00     0.031 C 
ATOM     18  C   UNL     1       0.598   5.584   3.636  1.00  0.00     0.029 A 
ATOM     19  N   UNL     1       1.518   7.530   3.132  1.00  0.00    -0.354 N 
ATOM     20  C   UNL     1       4.360   7.750  -0.341  1.00  0.00     0.074 A 
ATOM     21  C   UNL     1       3.504   7.082  -1.282  1.00  0.00     0.031 C 
ATOM     22  C   UNL     1      -0.136   6.540   4.252  1.00  0.00     0.029 A 
ATOM     23  C   UNL     1       0.422   7.841   3.932  1.00  0.00     0.049 A 
ATOM     24  H   UNL     1       2.186   8.199   2.859  1.00  0.00     0.167 HD
ATOM     25  C   UNL     1       5.044   8.924  -0.431  1.00  0.00     0.034 A 
ATOM     26  C   UNL     1      -0.024   9.088   4.232  1.00  0.00     0.034 A 
ATOM     27  C   UNL     1       5.824   9.161   0.759  1.00  0.00     0.049 A 
ATOM     28  C   UNL     1       1.104  10.020   3.998  1.00  0.00     0.074 A 
ATOM     29  C   UNL     1       6.827   8.480   1.420  1.00  0.00     0.029 A 
ATOM     30  N   UNL     1       5.330  10.069   1.664  1.00  0.00    -0.354 N 
ATOM     31  N   UNL     1       2.199  10.017   4.705  1.00  0.00    -0.248 NA
ATOM     32  C   UNL     1       1.195  10.657   2.695  1.00  0.00     0.031 C 
ATOM     33  C   UNL     1       6.533   8.659   2.803  1.00  0.00     0.029 A 
ATOM     34  C   UNL     1       5.420   9.496   2.902  1.00  0.00     0.049 A 
ATOM     35  H   UNL     1       4.977  10.965   1.459  1.00  0.00     0.167 HD
ATOM     36  C   UNL     1       3.208  10.229   3.776  1.00  0.00     0.074 A 
ATOM     37  C   UNL     1       2.524  10.712   2.575  1.00  0.00     0.031 C 
ATOM     38  C   UNL     1       4.461   9.721   3.961  1.00  0.00     0.034 A 
BRANCH  25  39
ATOM     39  C   UNL     1       4.720  10.051  -1.398  1.00  0.00     0.023 A 
ATOM     40  C   UNL     1       5.540  11.204  -1.329  1.00  0.00     0.012 A 
ATOM     41  C   UNL     1       3.524  10.173  -2.144  1.00  0.00     0.148 A 
ATOM     42  C   UNL     1       5.144  12.429  -1.877  1.00  0.00     0.002 A 
ATOM     43  C   UNL     1       3.168  11.374  -2.749  1.00  0.00     0.091 A 
ATOM     44  F   UNL     1       2.648   9.170  -2.188  1.00  0.00    -0.205 F 
ATOM     45  C   UNL     1       3.954  12.515  -2.585  1.00  0.00     0.022 A 
BRANCH  43  46
ATOM     46  S   UNL     1       1.668  11.538  -3.728  1.00  0.00     0.127 S 
ATOM     47  O   UNL     1       0.835  12.353  -2.848  1.00  0.00    -0.237 OA
ATOM     48  O   UNL     1       2.166  12.225  -4.920  1.00  0.00    -0.237 OA
ATOM     49  O   UNL     1       1.204  10.180  -3.974  1.00  0.00    -0.744 OA
ENDBRANCH  43  46
ENDBRANCH  25  39
BRANCH  26  50
ATOM     50  C   UNL     1      -1.413   9.584   4.395  1.00  0.00     0.023 A 
ATOM     51  C   UNL     1      -1.636  10.832   5.016  1.00  0.00     0.012 A 
ATOM     52  C   UNL     1      -2.479   9.000   3.675  1.00  0.00     0.148 A 
ATOM     53  C   UNL     1      -2.864  11.494   4.887  1.00  0.00     0.002 A 
ATOM     54  C   UNL     1      -3.697   9.663   3.550  1.00  0.00     0.091 A 
ATOM     55  F   UNL     1      -2.268   7.843   3.037  1.00  0.00    -0.205 F 
ATOM     56  C   UNL     1      -3.889  10.917   4.144  1.00  0.00     0.022 A 
BRANCH  54  57
ATOM     57  S   UNL     1      -5.052   9.004   2.568  1.00  0.00     0.127 S 
ATOM     58  O   UNL     1      -6.174   9.097   3.503  1.00  0.00    -0.237 OA
ATOM     59  O   UNL     1      -5.105   9.948   1.455  1.00  0.00    -0.237 OA
ATOM     60  O   UNL     1      -4.670   7.641   2.223  1.00  0.00    -0.744 OA
ENDBRANCH  54  57
ENDBRANCH  26  50
BRANCH  38  61
ATOM     61  C   UNL     1       4.799   9.094   5.292  1.00  0.00     0.023 A 
ATOM     62  C   UNL     1       4.154   7.931   5.763  1.00  0.00     0.012 A 
ATOM     63  C   UNL     1       5.948   9.550   5.959  1.00  0.00     0.148 A 
ATOM     64  C   UNL     1       4.646   7.240   6.875  1.00  0.00     0.002 A 
ATOM     65  C   UNL     1       6.468   8.828   7.025  1.00  0.00     0.091 A 
ATOM     66  F   UNL     1       6.547  10.660   5.500  1.00  0.00    -0.205 F 
ATOM     67  C   UNL     1       5.815   7.677   7.494  1.00  0.00     0.022 A 
BRANCH  65  68
ATOM     68  S   UNL     1       8.056   9.244   7.750  1.00  0.00     0.127 S 
ATOM     69  O   UNL     1       7.665   9.812   9.038  1.00  0.00    -0.237 OA
ATOM     70  O   UNL     1       8.715   7.939   7.830  1.00  0.00    -0.237 OA
ATOM     71  O   UNL     1       8.691  10.173   6.822  1.00  0.00    -0.744 OA
ENDBRANCH  65  68
ENDBRANCH  38  61
ENDBRANCH  12  13
ENDBRANCH   5   7
ENDBRANCH   4   5
ENDBRANCH   3   4
ENDBRANCH   2   3
ENDBRANCH   1   2
BRANCH   1  72
ATOM     72  C   UNL     1       3.534  -0.377  -1.522  1.00  0.00     0.188 C 
BRANCH  72  73
ATOM     73  C   UNL     1       2.476  -1.510  -1.512  1.00  0.00     0.188 C 
BRANCH  73  74
ATOM     74  O   UNL     1       2.879  -2.846  -1.237  1.00  0.00    -0.376 OA
BRANCH  74  75
ATOM     75  C   UNL     1       4.064  -3.336  -1.843  1.00  0.00     0.202 C 
BRANCH  75  76
ATOM     76  C   UNL     1       4.271  -3.152  -3.359  1.00  0.00     0.261 C 
BRANCH  76  77
ATOM     77  O   UNL     1       3.954  -1.852  -3.905  1.00  0.00    -0.462 OA
BRANCH  77  78
ATOM     78  C   UNL     1       2.983  -1.828  -4.860  1.00  0.00     0.320 C 
ATOM     79  O   UNL     1       2.333  -2.809  -5.213  1.00  0.00    -0.251 OA
BRANCH  78  80
ATOM     80  C   UNL     1       2.705  -0.425  -5.425  1.00  0.00     0.178 C 
ATOM     81  S   UNL     1       1.463   0.408  -4.370  1.00  0.00    -0.091 SA
ATOM     82  C   UNL     1       3.847   0.390  -6.071  1.00  0.00     0.137 C 
ATOM     83  C   UNL     1       1.992   2.010  -4.292  1.00  0.00     0.091 A 
ATOM     84  C   UNL     1       4.201   1.803  -5.534  1.00  0.00     0.082 C 
ATOM     85  C   UNL     1       5.101  -0.430  -6.361  1.00  0.00     0.317 C 
ATOM     86  N   UNL     1       1.185   2.925  -3.687  1.00  0.00    -0.307 N 
ATOM     87  C   UNL     1       3.121   2.518  -4.788  1.00  0.00     0.049 A 
ATOM     88  C   UNL     1       5.590   1.804  -4.917  1.00  0.00     0.007 A 
ATOM     89  O   UNL     1       6.179   0.342  -6.732  1.00  0.00    -0.425 OA
ATOM     90  O   UNL     1       5.129  -1.649  -6.466  1.00  0.00    -0.251 OA
ATOM     91  C   UNL     1       1.591   4.228  -3.736  1.00  0.00     0.305 A 
ATOM     92  H   UNL     1       0.351   2.660  -3.236  1.00  0.00     0.171 HD
ATOM     93  S   UNL     1       3.122   4.273  -4.605  1.00  0.00    -0.078 S 
ATOM     94  C   UNL     1       5.999   2.505  -3.777  1.00  0.00     0.024 A 
ATOM     95  C   UNL     1       6.568   1.100  -5.634  1.00  0.00     0.148 A 
ATOM     96  O   UNL     1       1.006   5.191  -3.271  1.00  0.00    -0.257 OA
ATOM     97  C   UNL     1       7.349   2.510  -3.400  1.00  0.00     0.019 A 
ATOM     98  C   UNL     1       7.920   1.139  -5.285  1.00  0.00     0.062 A 
ATOM     99  Br  UNL     1       7.875   3.430  -1.833  1.00  0.00    -0.051 Br
ATOM    100  C   UNL     1       8.314   1.847  -4.157  1.00  0.00     0.035 A 
ATOM    101  Br  UNL     1       9.230   0.228  -6.306  1.00  0.00    -0.047 Br
ENDBRANCH  78  80
ENDBRANCH  77  78
ENDBRANCH  76  77
ENDBRANCH  75  76
ENDBRANCH  74  75
ENDBRANCH  73  74
ENDBRANCH  72  73
ENDBRANCH   1  72
TORSDOF 20
