REMARK SMILES [NH3+][C@@H]1C=C[C@H](C(=O)NC[C@H](O)C(=O)OCCOCCOCCOC(=O)c2ccc(-c3c4nc(c(-c5cccc(S(=O)(=O)[O-])c5F)c5ccc([nH]5)c(-c5cccc(S(=O)(=O)[O-])c5F)c5nc(c(-c6cccc(S(=O)(=O)[O-])c6F)c6ccc3[nH]6)C=C5)C=C4)cc2)C1
REMARK SMILES IDX 18 1 17 2 16 3 15 4 14 5 12 6 13 7 10 8 9 9 8 10 6 11 7 12
REMARK SMILES IDX 5 14 2 15 3 16 89 17 4 18 1 19 11 23 19 25 20 26 21 27 22 28
REMARK SMILES IDX 23 29 24 30 25 31 26 32 27 33 88 34 28 35 87 36 29 37 30 38
REMARK SMILES IDX 31 39 81 40 32 41 86 42 80 43 82 44 33 45 85 46 79 47 78 48
REMARK SMILES IDX 34 50 66 51 46 52 65 53 47 54 50 55 64 56 83 57 48 58 49 59
REMARK SMILES IDX 63 61 84 62 51 63 35 64 36 65 44 66 37 67 39 68 45 69 38 70
REMARK SMILES IDX 40 71 41 72 42 73 43 74 67 75 68 76 76 77 69 78 71 79 77 80
REMARK SMILES IDX 70 81 72 82 73 83 74 84 75 85 52 86 53 87 61 88 54 89 56 90
REMARK SMILES IDX 62 91 55 92 57 93 58 94 59 95 60 96
REMARK H PARENT 8 13 1 20 1 21 1 22 11 24 82 49 50 60
REMARK Flexibility Score: inf
ROOT
ATOM      1  C   UNL     1      11.250  -0.756   3.758  1.00  0.00     0.188 C 
ENDROOT
BRANCH   1   2
ATOM      2  O   UNL     1      10.284  -1.641   4.313  1.00  0.00    -0.376 OA
BRANCH   2   3
ATOM      3  C   UNL     1       9.187  -2.017   3.483  1.00  0.00     0.202 C 
BRANCH   3   4
ATOM      4  C   UNL     1       8.527  -0.885   2.689  1.00  0.00     0.261 C 
BRANCH   4   5
ATOM      5  O   UNL     1       9.347  -0.469   1.571  1.00  0.00    -0.461 OA
BRANCH   5   6
ATOM      6  C   UNL     1       9.331   0.849   1.242  1.00  0.00     0.336 C 
ATOM      7  O   UNL     1       8.616   1.684   1.785  1.00  0.00    -0.249 OA
BRANCH   6   8
ATOM      8  C   UNL     1      10.319   1.220   0.106  1.00  0.00     0.243 C 
BRANCH   8   9
ATOM      9  C   UNL     1       9.550   2.037  -0.952  1.00  0.00     0.159 C 
BRANCH   9  10
ATOM     10  N   UNL     1       9.804   1.681  -2.342  1.00  0.00    -0.352 N 
ATOM     11  C   UNL     1       9.220   0.780  -3.172  1.00  0.00     0.227 C 
ATOM     12  O   UNL     1       9.696   0.691  -4.312  1.00  0.00    -0.274 OA
ATOM     13  H   UNL     1      10.538   2.190  -2.757  1.00  0.00     0.163 HD
BRANCH  11  14
ATOM     14  C   UNL     1       8.061  -0.139  -2.771  1.00  0.00     0.107 C 
ATOM     15  C   UNL     1       6.452  -0.366  -0.921  1.00  0.00     0.205 C 
ATOM     16  C   UNL     1       7.608  -1.294  -0.782  1.00  0.00     0.033 C 
ATOM     17  C   UNL     1       6.806   0.487  -2.153  1.00  0.00     0.087 C 
ATOM     18  C   UNL     1       8.482  -1.177  -1.785  1.00  0.00    -0.012 C 
BRANCH  15  19
ATOM     19  N   UNL     1       6.196   0.440   0.254  1.00  0.00    -0.352 N 
ATOM     20  H   UNL     1       5.966  -0.169   1.040  1.00  0.00     0.345 HD
ATOM     21  H   UNL     1       5.414   1.068   0.071  1.00  0.00     0.345 HD
ATOM     22  H   UNL     1       7.027   0.987   0.478  1.00  0.00     0.345 HD
ENDBRANCH  15  19
ENDBRANCH  11  14
ENDBRANCH   9  10
ENDBRANCH   8   9
BRANCH   8  23
ATOM     23  O   UNL     1      11.100   0.216  -0.526  1.00  0.00    -0.380 OA
ATOM     24  H   UNL     1      10.521  -0.365  -1.045  1.00  0.00     0.211 HD
ENDBRANCH   8  23
ENDBRANCH   6   8
ENDBRANCH   5   6
ENDBRANCH   4   5
ENDBRANCH   3   4
ENDBRANCH   2   3
ENDBRANCH   1   2
BRANCH   1  25
ATOM     25  C   UNL     1      11.930  -1.206   2.454  1.00  0.00     0.188 C 
BRANCH  25  26
ATOM     26  O   UNL     1      11.556  -2.502   2.030  1.00  0.00    -0.376 OA
BRANCH  26  27
ATOM     27  C   UNL     1      12.562  -3.500   2.105  1.00  0.00     0.202 C 
BRANCH  27  28
ATOM     28  C   UNL     1      13.166  -3.794   3.489  1.00  0.00     0.261 C 
BRANCH  28  29
ATOM     29  O   UNL     1      13.617  -2.658   4.250  1.00  0.00    -0.460 OA
BRANCH  29  30
ATOM     30  C   UNL     1      14.701  -1.977   3.814  1.00  0.00     0.338 C 
ATOM     31  O   UNL     1      15.390  -2.248   2.846  1.00  0.00    -0.246 OA
BRANCH  30  32
ATOM     32  C   UNL     1      14.724  -0.679   4.544  1.00  0.00     0.060 A 
ATOM     33  C   UNL     1      14.754   0.516   3.807  1.00  0.00     0.016 A 
ATOM     34  C   UNL     1      14.615  -0.636   5.936  1.00  0.00     0.016 A 
ATOM     35  C   UNL     1      14.697   1.751   4.461  1.00  0.00     0.010 A 
ATOM     36  C   UNL     1      14.585   0.600   6.591  1.00  0.00     0.010 A 
ATOM     37  C   UNL     1      14.659   1.799   5.861  1.00  0.00    -0.014 A 
BRANCH  37  38
ATOM     38  C   UNL     1      14.968   3.067   6.571  1.00  0.00     0.031 A 
ATOM     39  C   UNL     1      16.403   3.302   6.968  1.00  0.00     0.074 A 
ATOM     40  C   UNL     1      14.027   3.977   6.883  1.00  0.00     0.049 A 
ATOM     41  N   UNL     1      16.928   4.284   7.651  1.00  0.00    -0.248 NA
ATOM     42  C   UNL     1      17.375   2.281   6.535  1.00  0.00     0.031 C 
ATOM     43  C   UNL     1      12.608   3.885   6.549  1.00  0.00     0.029 A 
ATOM     44  N   UNL     1      14.131   5.155   7.584  1.00  0.00    -0.354 N 
ATOM     45  C   UNL     1      18.283   3.988   7.752  1.00  0.00     0.074 A 
ATOM     46  C   UNL     1      18.498   2.730   7.072  1.00  0.00     0.031 C 
ATOM     47  C   UNL     1      11.967   4.947   7.072  1.00  0.00     0.029 A 
ATOM     48  C   UNL     1      12.924   5.780   7.800  1.00  0.00     0.049 A 
ATOM     49  H   UNL     1      14.990   5.518   7.902  1.00  0.00     0.167 HD
ATOM     50  C   UNL     1      19.268   4.703   8.342  1.00  0.00     0.034 A 
ATOM     51  C   UNL     1      12.629   6.883   8.521  1.00  0.00     0.034 A 
ATOM     52  C   UNL     1      19.064   5.954   9.015  1.00  0.00     0.049 A 
ATOM     53  C   UNL     1      13.741   7.637   9.213  1.00  0.00     0.074 A 
ATOM     54  C   UNL     1      20.005   6.763   9.626  1.00  0.00     0.029 A 
ATOM     55  N   UNL     1      17.835   6.571   9.178  1.00  0.00    -0.354 N 
ATOM     56  N   UNL     1      15.031   7.404   9.205  1.00  0.00    -0.248 NA
ATOM     57  C   UNL     1      13.356   8.827   9.991  1.00  0.00     0.031 C 
ATOM     58  C   UNL     1      19.340   7.862  10.179  1.00  0.00     0.029 A 
ATOM     59  C   UNL     1      17.990   7.750   9.885  1.00  0.00     0.049 A 
ATOM     60  H   UNL     1      16.979   6.222   8.841  1.00  0.00     0.167 HD
ATOM     61  C   UNL     1      15.613   8.439   9.934  1.00  0.00     0.074 A 
ATOM     62  C   UNL     1      14.536   9.309  10.356  1.00  0.00     0.031 C 
ATOM     63  C   UNL     1      16.919   8.644  10.239  1.00  0.00     0.034 A 
BRANCH  50  64
ATOM     64  C   UNL     1      20.665   4.152   8.260  1.00  0.00     0.023 A 
ATOM     65  C   UNL     1      21.359   4.197   7.033  1.00  0.00     0.012 A 
ATOM     66  C   UNL     1      21.305   3.630   9.400  1.00  0.00     0.148 A 
ATOM     67  C   UNL     1      22.658   3.704   6.935  1.00  0.00     0.002 A 
ATOM     68  C   UNL     1      22.616   3.182   9.305  1.00  0.00     0.091 A 
ATOM     69  F   UNL     1      20.617   3.571  10.549  1.00  0.00    -0.205 F 
ATOM     70  C   UNL     1      23.290   3.207   8.072  1.00  0.00     0.022 A 
BRANCH  68  71
ATOM     71  S   UNL     1      23.543   2.593  10.725  1.00  0.00     0.127 S 
ATOM     72  O   UNL     1      23.665   1.166  10.427  1.00  0.00    -0.237 OA
ATOM     73  O   UNL     1      24.791   3.348  10.611  1.00  0.00    -0.237 OA
ATOM     74  O   UNL     1      22.739   2.919  11.894  1.00  0.00    -0.744 OA
ENDBRANCH  68  71
ENDBRANCH  50  64
BRANCH  51  75
ATOM     75  C   UNL     1      11.223   7.375   8.615  1.00  0.00     0.023 A 
ATOM     76  C   UNL     1      10.876   8.604   8.020  1.00  0.00     0.012 A 
ATOM     77  C   UNL     1      10.236   6.651   9.313  1.00  0.00     0.148 A 
ATOM     78  C   UNL     1       9.586   9.122   8.150  1.00  0.00     0.002 A 
ATOM     79  C   UNL     1       8.939   7.147   9.393  1.00  0.00     0.091 A 
ATOM     80  F   UNL     1      10.588   5.496   9.895  1.00  0.00    -0.205 F 
ATOM     81  C   UNL     1       8.616   8.391   8.829  1.00  0.00     0.022 A 
BRANCH  79  82
ATOM     82  S   UNL     1       7.598   6.221  10.149  1.00  0.00     0.127 S 
ATOM     83  O   UNL     1       7.353   6.987  11.367  1.00  0.00    -0.237 OA
ATOM     84  O   UNL     1       6.550   6.326   9.133  1.00  0.00    -0.237 OA
ATOM     85  O   UNL     1       8.114   4.872  10.341  1.00  0.00    -0.744 OA
ENDBRANCH  79  82
ENDBRANCH  51  75
BRANCH  63  86
ATOM     86  C   UNL     1      17.280   9.883  11.018  1.00  0.00     0.023 A 
ATOM     87  C   UNL     1      16.965   9.972  12.388  1.00  0.00     0.012 A 
ATOM     88  C   UNL     1      18.015  10.921  10.410  1.00  0.00     0.148 A 
ATOM     89  C   UNL     1      17.347  11.087  13.133  1.00  0.00     0.002 A 
ATOM     90  C   UNL     1      18.436  12.006  11.170  1.00  0.00     0.091 A 
ATOM     91  F   UNL     1      18.294  10.826   9.102  1.00  0.00    -0.205 F 
ATOM     92  C   UNL     1      18.092  12.097  12.528  1.00  0.00     0.022 A 
BRANCH  90  93
ATOM     93  S   UNL     1      19.484  13.303  10.499  1.00  0.00     0.127 S 
ATOM     94  O   UNL     1      18.549  14.423  10.406  1.00  0.00    -0.237 OA
ATOM     95  O   UNL     1      20.505  13.445  11.538  1.00  0.00    -0.237 OA
ATOM     96  O   UNL     1      19.983  12.798   9.228  1.00  0.00    -0.744 OA
ENDBRANCH  90  93
ENDBRANCH  63  86
ENDBRANCH  37  38
ENDBRANCH  30  32
ENDBRANCH  29  30
ENDBRANCH  28  29
ENDBRANCH  27  28
ENDBRANCH  26  27
ENDBRANCH  25  26
ENDBRANCH   1  25
TORSDOF 25
