REMARK SMILES C[NH+](C)[C@@H]1CC[N@@H+](Cc2ccc(C(=O)OCCOCCOCCOC(=O)c3ccc(-c4c5nc(c(-c6cccc(S(=O)(=O)[O-])c6F)c6ccc([nH]6)c(-c6cccc(S(=O)(=O)[O-])c6F)c6nc(c(-c7cccc(S(=O)(=O)[O-])c7F)c7ccc4[nH]7)C=C6)C=C5)cc3)cn2)C1
REMARK SMILES IDX 19 1 18 2 17 3 16 4 15 5 13 6 14 7 12 8 9 9 10 10 91 11
REMARK SMILES IDX 11 12 90 13 8 14 7 15 4 16 5 17 92 18 6 19 2 21 1 22 3 23
REMARK SMILES IDX 20 25 21 26 22 27 23 28 24 29 25 30 26 31 27 32 28 33 89 34
REMARK SMILES IDX 29 35 88 36 30 37 31 38 32 39 82 40 33 41 87 42 81 43 83 44
REMARK SMILES IDX 34 45 86 46 80 47 79 48 35 50 67 51 47 52 66 53 48 54 51 55
REMARK SMILES IDX 65 56 84 57 49 58 50 59 64 61 85 62 52 63 36 64 37 65 45 66
REMARK SMILES IDX 38 67 40 68 46 69 39 70 41 71 42 72 43 73 44 74 68 75 69 76
REMARK SMILES IDX 77 77 70 78 72 79 78 80 71 81 73 82 74 83 75 84 76 85 53 86
REMARK SMILES IDX 54 87 62 88 55 89 57 90 63 91 56 92 58 93 59 94 60 95 61 96
REMARK H PARENT 7 20 2 24 83 49 51 60
REMARK Flexibility Score: inf
ROOT
ATOM      1  C   UNL     1       4.252  -3.780  -6.652  1.00  0.00     0.188 C 
ENDROOT
BRANCH   1   2
ATOM      2  O   UNL     1       4.559  -2.778  -7.603  1.00  0.00    -0.376 OA
BRANCH   2   3
ATOM      3  C   UNL     1       4.558  -1.404  -7.240  1.00  0.00     0.202 C 
BRANCH   3   4
ATOM      4  C   UNL     1       3.511  -0.838  -6.283  1.00  0.00     0.261 C 
BRANCH   4   5
ATOM      5  O   UNL     1       3.469  -1.545  -5.038  1.00  0.00    -0.460 OA
BRANCH   5   6
ATOM      6  C   UNL     1       2.230  -1.946  -4.672  1.00  0.00     0.339 C 
ATOM      7  O   UNL     1       1.171  -1.624  -5.186  1.00  0.00    -0.246 OA
BRANCH   6   8
ATOM      8  C   UNL     1       2.315  -2.965  -3.623  1.00  0.00     0.078 A 
ATOM      9  C   UNL     1       2.041  -4.760  -1.585  1.00  0.00     0.095 A 
ATOM     10  C   UNL     1       3.082  -3.834  -1.522  1.00  0.00     0.031 A 
ATOM     11  N   UNL     1       1.280  -4.925  -2.698  1.00  0.00    -0.254 NA
ATOM     12  C   UNL     1       3.208  -2.904  -2.553  1.00  0.00     0.019 A 
ATOM     13  C   UNL     1       1.425  -4.023  -3.690  1.00  0.00     0.127 A 
BRANCH   9  14
ATOM     14  C   UNL     1       1.523  -5.417  -0.317  1.00  0.00     0.319 C 
BRANCH  14  15
ATOM     15  N   UNL     1       0.484  -4.671   0.437  1.00  0.00    -0.325 N 
ATOM     16  C   UNL     1       0.591  -2.262   0.101  1.00  0.00     0.245 C 
ATOM     17  C   UNL     1      -0.480  -2.844  -0.831  1.00  0.00     0.132 C 
ATOM     18  C   UNL     1       0.925  -3.420   1.069  1.00  0.00     0.328 C 
ATOM     19  C   UNL     1      -0.682  -4.288  -0.373  1.00  0.00     0.269 C 
ATOM     20  H   UNL     1       0.249  -5.362   1.149  1.00  0.00     0.348 HD
BRANCH  16  21
ATOM     21  N   UNL     1       0.331  -0.980   0.786  1.00  0.00    -0.333 N 
ATOM     22  C   UNL     1       0.784   0.155  -0.020  1.00  0.00     0.332 C 
ATOM     23  C   UNL     1      -1.065  -0.793   1.177  1.00  0.00     0.332 C 
ATOM     24  H   UNL     1       0.873  -1.020   1.649  1.00  0.00     0.348 HD
ENDBRANCH  16  21
ENDBRANCH  14  15
ENDBRANCH   9  14
ENDBRANCH   6   8
ENDBRANCH   5   6
ENDBRANCH   4   5
ENDBRANCH   3   4
ENDBRANCH   2   3
ENDBRANCH   1   2
BRANCH   1  25
ATOM     25  C   UNL     1       5.172  -4.003  -5.434  1.00  0.00     0.188 C 
BRANCH  25  26
ATOM     26  O   UNL     1       6.305  -3.189  -5.207  1.00  0.00    -0.376 OA
BRANCH  26  27
ATOM     27  C   UNL     1       7.317  -3.127  -6.200  1.00  0.00     0.202 C 
BRANCH  27  28
ATOM     28  C   UNL     1       7.861  -4.388  -6.883  1.00  0.00     0.261 C 
BRANCH  28  29
ATOM     29  O   UNL     1       6.869  -5.313  -7.340  1.00  0.00    -0.460 OA
BRANCH  29  30
ATOM     30  C   UNL     1       6.862  -6.505  -6.690  1.00  0.00     0.338 C 
ATOM     31  O   UNL     1       7.604  -6.857  -5.789  1.00  0.00    -0.246 OA
BRANCH  30  32
ATOM     32  C   UNL     1       5.676  -7.280  -7.097  1.00  0.00     0.060 A 
ATOM     33  C   UNL     1       4.751  -7.650  -6.110  1.00  0.00     0.016 A 
ATOM     34  C   UNL     1       5.511  -7.692  -8.419  1.00  0.00     0.016 A 
ATOM     35  C   UNL     1       3.673  -8.470  -6.436  1.00  0.00     0.010 A 
ATOM     36  C   UNL     1       4.444  -8.534  -8.739  1.00  0.00     0.010 A 
ATOM     37  C   UNL     1       3.544  -8.955  -7.742  1.00  0.00    -0.014 A 
BRANCH  37  38
ATOM     38  C   UNL     1       2.601 -10.060  -8.033  1.00  0.00     0.031 A 
ATOM     39  C   UNL     1       3.134 -11.467  -8.030  1.00  0.00     0.074 A 
ATOM     40  C   UNL     1       1.312  -9.820  -8.329  1.00  0.00     0.049 A 
ATOM     41  N   UNL     1       2.530 -12.582  -8.344  1.00  0.00    -0.248 NA
ATOM     42  C   UNL     1       4.541 -11.635  -7.626  1.00  0.00     0.031 C 
ATOM     43  C   UNL     1       0.679  -8.504  -8.349  1.00  0.00     0.029 A 
ATOM     44  N   UNL     1       0.313 -10.683  -8.703  1.00  0.00    -0.354 N 
ATOM     45  C   UNL     1       3.488 -13.579  -8.207  1.00  0.00     0.074 A 
ATOM     46  C   UNL     1       4.715 -12.938  -7.788  1.00  0.00     0.031 C 
ATOM     47  C   UNL     1      -0.595  -8.641  -8.757  1.00  0.00     0.029 A 
ATOM     48  C   UNL     1      -0.857 -10.050  -9.048  1.00  0.00     0.049 A 
ATOM     49  H   UNL     1       0.424 -11.662  -8.722  1.00  0.00     0.167 HD
ATOM     50  C   UNL     1       3.357 -14.912  -8.402  1.00  0.00     0.034 A 
ATOM     51  C   UNL     1      -1.997 -10.551  -9.566  1.00  0.00     0.034 A 
ATOM     52  C   UNL     1       2.134 -15.550  -8.804  1.00  0.00     0.049 A 
ATOM     53  C   UNL     1      -2.110 -12.037  -9.800  1.00  0.00     0.074 A 
ATOM     54  C   UNL     1       1.889 -16.898  -8.994  1.00  0.00     0.029 A 
ATOM     55  N   UNL     1       0.953 -14.883  -9.088  1.00  0.00    -0.354 N 
ATOM     56  N   UNL     1      -1.232 -12.982  -9.560  1.00  0.00    -0.248 NA
ATOM     57  C   UNL     1      -3.383 -12.531 -10.347  1.00  0.00     0.031 C 
ATOM     58  C   UNL     1       0.563 -17.044  -9.414  1.00  0.00     0.029 A 
ATOM     59  C   UNL     1      -0.024 -15.789  -9.459  1.00  0.00     0.049 A 
ATOM     60  H   UNL     1       0.828 -13.908  -9.034  1.00  0.00     0.167 HD
ATOM     61  C   UNL     1      -1.861 -14.181  -9.883  1.00  0.00     0.074 A 
ATOM     62  C   UNL     1      -3.198 -13.844 -10.326  1.00  0.00     0.031 C 
ATOM     63  C   UNL     1      -1.372 -15.444  -9.830  1.00  0.00     0.034 A 
BRANCH  50  64
ATOM     64  C   UNL     1       4.567 -15.773  -8.158  1.00  0.00     0.023 A 
ATOM     65  C   UNL     1       4.994 -16.014  -6.836  1.00  0.00     0.012 A 
ATOM     66  C   UNL     1       5.252 -16.377  -9.229  1.00  0.00     0.148 A 
ATOM     67  C   UNL     1       6.104 -16.819  -6.585  1.00  0.00     0.002 A 
ATOM     68  C   UNL     1       6.332 -17.213  -8.969  1.00  0.00     0.091 A 
ATOM     69  F   UNL     1       4.847 -16.113 -10.479  1.00  0.00    -0.205 F 
ATOM     70  C   UNL     1       6.766 -17.426  -7.650  1.00  0.00     0.022 A 
BRANCH  68  71
ATOM     71  S   UNL     1       7.202 -18.098 -10.267  1.00  0.00     0.127 S 
ATOM     72  O   UNL     1       8.469 -17.369 -10.323  1.00  0.00    -0.237 OA
ATOM     73  O   UNL     1       7.300 -19.447  -9.708  1.00  0.00    -0.237 OA
ATOM     74  O   UNL     1       6.366 -17.993 -11.454  1.00  0.00    -0.744 OA
ENDBRANCH  68  71
ENDBRANCH  50  64
BRANCH  51  75
ATOM     75  C   UNL     1      -3.142  -9.646  -9.867  1.00  0.00     0.023 A 
ATOM     76  C   UNL     1      -4.311  -9.726  -9.086  1.00  0.00     0.012 A 
ATOM     77  C   UNL     1      -3.078  -8.705 -10.913  1.00  0.00     0.148 A 
ATOM     78  C   UNL     1      -5.408  -8.909  -9.361  1.00  0.00     0.002 A 
ATOM     79  C   UNL     1      -4.155  -7.857 -11.149  1.00  0.00     0.091 A 
ATOM     80  F   UNL     1      -1.964  -8.656 -11.657  1.00  0.00    -0.205 F 
ATOM     81  C   UNL     1      -5.327  -7.969 -10.385  1.00  0.00     0.022 A 
BRANCH  79  82
ATOM     82  S   UNL     1      -4.096  -6.539 -12.368  1.00  0.00     0.127 S 
ATOM     83  O   UNL     1      -5.005  -7.041 -13.395  1.00  0.00    -0.237 OA
ATOM     84  O   UNL     1      -4.600  -5.398 -11.604  1.00  0.00    -0.237 OA
ATOM     85  O   UNL     1      -2.697  -6.428 -12.759  1.00  0.00    -0.744 OA
ENDBRANCH  79  82
ENDBRANCH  51  75
BRANCH  63  86
ATOM     86  C   UNL     1      -2.293 -16.576 -10.205  1.00  0.00     0.023 A 
ATOM     87  C   UNL     1      -2.617 -16.800 -11.557  1.00  0.00     0.012 A 
ATOM     88  C   UNL     1      -2.754 -17.478  -9.224  1.00  0.00     0.148 A 
ATOM     89  C   UNL     1      -3.407 -17.890 -11.925  1.00  0.00     0.002 A 
ATOM     90  C   UNL     1      -3.501 -18.587  -9.603  1.00  0.00     0.091 A 
ATOM     91  F   UNL     1      -2.449 -17.237  -7.941  1.00  0.00    -0.205 F 
ATOM     92  C   UNL     1      -3.837 -18.789 -10.951  1.00  0.00     0.022 A 
BRANCH  90  93
ATOM     93  S   UNL     1      -4.011 -19.850  -8.431  1.00  0.00     0.127 S 
ATOM     94  O   UNL     1      -5.445 -19.588  -8.317  1.00  0.00    -0.237 OA
ATOM     95  O   UNL     1      -3.671 -21.086  -9.136  1.00  0.00    -0.237 OA
ATOM     96  O   UNL     1      -3.234 -19.613  -7.222  1.00  0.00    -0.744 OA
ENDBRANCH  90  93
ENDBRANCH  63  86
ENDBRANCH  37  38
ENDBRANCH  30  32
ENDBRANCH  29  30
ENDBRANCH  28  29
ENDBRANCH  27  28
ENDBRANCH  26  27
ENDBRANCH  25  26
ENDBRANCH   1  25
TORSDOF 23
