REMARK SMILES Cc1cccc(OC2(C(=O)OCCOCCOCCOC(=O)c3ccc(-c4c5nc(c(-c6cccc(S(=O)(=O)[O-])c6F)c6ccc([nH]6)c(-c6cccc(S(=O)(=O)[O-])c6F)c6nc(c(-c7cccc(S(=O)(=O)[O-])c7F)c7ccc4[nH]7)C=C6)C=C5)cc3)CCN(C(=O)c3cnc[nH]c3=O)CC2)c1
REMARK SMILES IDX 16 1 15 2 14 3 13 4 12 5 11 6 9 7 10 8 8 9 86 10 99 11 87 12
REMARK SMILES IDX 98 13 88 14 89 15 90 16 7 17 6 18 1 19 2 20 3 21 100 22 4 23
REMARK SMILES IDX 5 24 91 25 92 26 96 27 93 28 95 29 97 30 94 31 17 33 18 34
REMARK SMILES IDX 19 35 20 36 21 37 22 38 23 39 24 40 85 41 25 42 84 43 26 44
REMARK SMILES IDX 27 45 28 46 78 47 29 48 83 49 77 50 79 51 30 52 82 53 76 54
REMARK SMILES IDX 75 55 31 57 63 58 43 59 62 60 44 61 47 62 61 63 80 64 45 65
REMARK SMILES IDX 46 66 60 68 81 69 48 70 32 71 33 72 41 73 34 74 36 75 42 76
REMARK SMILES IDX 35 77 37 78 38 79 39 80 40 81 64 82 65 83 73 84 66 85 68 86
REMARK SMILES IDX 74 87 67 88 69 89 70 90 71 91 72 92 49 93 50 94 58 95 51 96
REMARK SMILES IDX 53 97 59 98 52 99 54 100 55 101 56 102 57 103
REMARK H PARENT 95 32 79 56 47 67
REMARK Flexibility Score: inf
ROOT
ATOM      1  C   UNL     1       1.865   2.274  -5.434  1.00  0.00     0.188 C 
ENDROOT
BRANCH   1   2
ATOM      2  C   UNL     1       0.439   2.786  -5.285  1.00  0.00     0.188 C 
BRANCH   2   3
ATOM      3  O   UNL     1       0.055   4.175  -5.189  1.00  0.00    -0.376 OA
BRANCH   3   4
ATOM      4  C   UNL     1       0.763   5.239  -4.506  1.00  0.00     0.202 C 
BRANCH   4   5
ATOM      5  C   UNL     1       0.415   6.048  -2.997  1.00  0.00     0.261 C 
BRANCH   5   6
ATOM      6  O   UNL     1       0.408   5.418  -1.289  1.00  0.00    -0.460 OA
BRANCH   6   7
ATOM      7  C   UNL     1      -0.481   4.814  -0.227  1.00  0.00     0.350 C 
ATOM      8  O   UNL     1      -1.716   4.728  -0.224  1.00  0.00    -0.247 OA
BRANCH   7   9
ATOM      9  C   UNL     1       0.098   4.088   0.984  1.00  0.00     0.209 C 
ATOM     10  C   UNL     1       1.585   4.330   0.972  1.00  0.00     0.082 C 
ATOM     11  C   UNL     1      -0.695   4.646   2.205  1.00  0.00     0.082 C 
ATOM     12  C   UNL     1       2.208   4.251   2.335  1.00  0.00     0.124 C 
ATOM     13  C   UNL     1       0.055   4.388   3.488  1.00  0.00     0.124 C 
ATOM     14  N   UNL     1       1.393   4.940   3.306  1.00  0.00    -0.338 N 
ATOM     15  C   UNL     1       1.738   6.216   3.721  1.00  0.00     0.261 C 
ATOM     16  O   UNL     1       2.507   6.958   3.122  1.00  0.00    -0.269 OA
BRANCH   9  17
ATOM     17  O   UNL     1      -0.432   2.750   0.779  1.00  0.00    -0.475 OA
BRANCH  17  18
ATOM     18  C   UNL     1      -0.175   1.592   1.445  1.00  0.00     0.121 A 
ATOM     19  C   UNL     1       2.531  -1.017   1.129  1.00  0.00     0.044 C 
ATOM     20  C   UNL     1       1.246  -0.373   1.553  1.00  0.00    -0.047 A 
ATOM     21  C   UNL     1       0.150  -1.168   1.905  1.00  0.00     0.003 A 
ATOM     22  C   UNL     1       1.082   1.012   1.379  1.00  0.00     0.050 A 
ATOM     23  C   UNL     1      -1.105  -0.583   2.056  1.00  0.00     0.004 A 
ATOM     24  C   UNL     1      -1.269   0.787   1.799  1.00  0.00     0.046 A 
ENDBRANCH  17  18
ENDBRANCH   9  17
BRANCH  15  25
ATOM     25  C   UNL     1       1.201   6.550   5.047  1.00  0.00     0.123 A 
ATOM     26  C   UNL     1       0.333   7.553   5.240  1.00  0.00     0.132 A 
ATOM     27  C   UNL     1       1.496   5.667   6.191  1.00  0.00     0.263 A 
ATOM     28  N   UNL     1      -0.318   7.794   6.431  1.00  0.00    -0.246 NA
ATOM     29  N   UNL     1       0.748   5.898   7.305  1.00  0.00    -0.312 N 
ATOM     30  O   UNL     1       2.342   4.779   6.172  1.00  0.00    -0.269 OA
ATOM     31  C   UNL     1      -0.107   6.955   7.386  1.00  0.00     0.199 A 
ATOM     32  H   UNL     1       0.827   5.286   8.072  1.00  0.00     0.171 HD
ENDBRANCH  15  25
ENDBRANCH   7   9
ENDBRANCH   6   7
ENDBRANCH   5   6
ENDBRANCH   4   5
ENDBRANCH   3   4
ENDBRANCH   2   3
ENDBRANCH   1   2
BRANCH   1  33
ATOM     33  O   UNL     1       2.794   3.212  -4.953  1.00  0.00    -0.376 OA
BRANCH  33  34
ATOM     34  C   UNL     1       4.155   2.873  -5.109  1.00  0.00     0.202 C 
BRANCH  34  35
ATOM     35  C   UNL     1       4.611   1.607  -4.356  1.00  0.00     0.261 C 
BRANCH  35  36
ATOM     36  O   UNL     1       4.418   1.688  -2.924  1.00  0.00    -0.460 OA
BRANCH  36  37
ATOM     37  C   UNL     1       3.481   0.835  -2.370  1.00  0.00     0.338 C 
ATOM     38  O   UNL     1       3.701  -0.351  -2.174  1.00  0.00    -0.246 OA
BRANCH  37  39
ATOM     39  C   UNL     1       2.202   1.562  -2.093  1.00  0.00     0.060 A 
ATOM     40  C   UNL     1       0.881   1.088  -1.942  1.00  0.00     0.016 A 
ATOM     41  C   UNL     1       2.319   2.897  -2.159  1.00  0.00     0.016 A 
ATOM     42  C   UNL     1      -0.329   1.952  -2.039  1.00  0.00     0.010 A 
ATOM     43  C   UNL     1       1.167   3.623  -2.399  1.00  0.00     0.010 A 
ATOM     44  C   UNL     1      -0.257   3.312  -2.359  1.00  0.00    -0.014 A 
BRANCH  44  45
ATOM     45  C   UNL     1      -1.585   4.431  -2.685  1.00  0.00     0.031 A 
ATOM     46  C   UNL     1      -2.092   6.020  -1.978  1.00  0.00     0.074 A 
ATOM     47  C   UNL     1      -2.366   4.161  -3.750  1.00  0.00     0.049 A 
ATOM     48  N   UNL     1      -3.335   6.420  -1.788  1.00  0.00    -0.248 NA
ATOM     49  C   UNL     1      -1.222   7.113  -1.300  1.00  0.00     0.031 C 
ATOM     50  C   UNL     1      -3.158   5.132  -4.501  1.00  0.00     0.029 A 
ATOM     51  N   UNL     1      -2.522   2.979  -4.470  1.00  0.00    -0.354 N 
ATOM     52  C   UNL     1      -3.291   7.695  -1.154  1.00  0.00     0.074 A 
ATOM     53  C   UNL     1      -2.025   7.849  -0.569  1.00  0.00     0.031 C 
ATOM     54  C   UNL     1      -3.878   4.480  -5.427  1.00  0.00     0.029 A 
ATOM     55  C   UNL     1      -3.741   3.065  -5.152  1.00  0.00     0.049 A 
ATOM     56  H   UNL     1      -1.892   2.223  -4.494  1.00  0.00     0.167 HD
ATOM     57  C   UNL     1      -4.092   8.750  -1.478  1.00  0.00     0.034 A 
ATOM     58  C   UNL     1      -4.736   2.175  -4.891  1.00  0.00     0.034 A 
ATOM     59  C   UNL     1      -5.036   8.287  -2.467  1.00  0.00     0.049 A 
ATOM     60  C   UNL     1      -5.978   2.857  -4.361  1.00  0.00     0.074 A 
ATOM     61  C   UNL     1      -5.026   8.292  -3.849  1.00  0.00     0.029 A 
ATOM     62  N   UNL     1      -5.942   7.330  -2.071  1.00  0.00    -0.354 N 
ATOM     63  N   UNL     1      -6.098   4.147  -4.194  1.00  0.00    -0.248 NA
ATOM     64  C   UNL     1      -7.192   2.148  -3.973  1.00  0.00     0.031 C 
ATOM     65  C   UNL     1      -5.923   7.276  -4.282  1.00  0.00     0.029 A 
ATOM     66  C   UNL     1      -6.489   6.685  -3.164  1.00  0.00     0.049 A 
ATOM     67  H   UNL     1      -6.170   7.130  -1.134  1.00  0.00     0.167 HD
ATOM     68  C   UNL     1      -7.243   4.424  -3.499  1.00  0.00     0.074 A 
ATOM     69  C   UNL     1      -7.949   3.155  -3.500  1.00  0.00     0.031 C 
ATOM     70  C   UNL     1      -7.471   5.639  -2.910  1.00  0.00     0.034 A 
BRANCH  57  71
ATOM     71  C   UNL     1      -3.716  10.238  -1.244  1.00  0.00     0.023 A 
ATOM     72  C   UNL     1      -4.215  11.156  -2.192  1.00  0.00     0.012 A 
ATOM     73  C   UNL     1      -2.873  10.810  -0.242  1.00  0.00     0.148 A 
ATOM     74  C   UNL     1      -3.824  12.502  -2.234  1.00  0.00     0.002 A 
ATOM     75  C   UNL     1      -2.408  12.136  -0.338  1.00  0.00     0.091 A 
ATOM     76  F   UNL     1      -2.574  10.117   0.866  1.00  0.00    -0.205 F 
ATOM     77  C   UNL     1      -2.885  12.983  -1.337  1.00  0.00     0.022 A 
BRANCH  75  78
ATOM     78  S   UNL     1      -1.088  12.799   0.711  1.00  0.00     0.127 S 
ATOM     79  O   UNL     1      -0.283  13.573  -0.240  1.00  0.00    -0.237 OA
ATOM     80  O   UNL     1      -1.820  13.614   1.677  1.00  0.00    -0.237 OA
ATOM     81  O   UNL     1      -0.395  11.633   1.248  1.00  0.00    -0.744 OA
ENDBRANCH  75  78
ENDBRANCH  57  71
BRANCH  58  82
ATOM     82  C   UNL     1      -4.197   0.814  -4.549  1.00  0.00     0.023 A 
ATOM     83  C   UNL     1      -3.439   0.163  -5.563  1.00  0.00     0.012 A 
ATOM     84  C   UNL     1      -4.065   0.359  -3.224  1.00  0.00     0.148 A 
ATOM     85  C   UNL     1      -2.484  -0.808  -5.253  1.00  0.00     0.002 A 
ATOM     86  C   UNL     1      -3.126  -0.633  -2.927  1.00  0.00     0.091 A 
ATOM     87  F   UNL     1      -4.806   0.941  -2.273  1.00  0.00    -0.205 F 
ATOM     88  C   UNL     1      -2.306  -1.181  -3.930  1.00  0.00     0.022 A 
BRANCH  86  89
ATOM     89  S   UNL     1      -2.791  -1.211  -1.259  1.00  0.00     0.127 S 
ATOM     90  O   UNL     1      -3.261  -2.595  -1.324  1.00  0.00    -0.237 OA
ATOM     91  O   UNL     1      -1.338  -1.083  -1.190  1.00  0.00    -0.237 OA
ATOM     92  O   UNL     1      -3.549  -0.341  -0.375  1.00  0.00    -0.744 OA
ENDBRANCH  86  89
ENDBRANCH  58  82
BRANCH  70  93
ATOM     93  C   UNL     1      -8.598   5.961  -1.938  1.00  0.00     0.023 A 
ATOM     94  C   UNL     1      -9.271   4.967  -1.209  1.00  0.00     0.012 A 
ATOM     95  C   UNL     1      -8.896   7.309  -1.590  1.00  0.00     0.148 A 
ATOM     96  C   UNL     1     -10.241   5.283  -0.252  1.00  0.00     0.002 A 
ATOM     97  C   UNL     1      -9.739   7.613  -0.527  1.00  0.00     0.091 A 
ATOM     98  F   UNL     1      -8.365   8.324  -2.291  1.00  0.00    -0.205 F 
ATOM     99  C   UNL     1     -10.455   6.605   0.112  1.00  0.00     0.022 A 
BRANCH  97 100
ATOM    100  S   UNL     1      -9.756   9.273   0.167  1.00  0.00     0.127 S 
ATOM    101  O   UNL     1     -10.729   9.956  -0.681  1.00  0.00    -0.237 OA
ATOM    102  O   UNL     1     -10.204   9.043   1.542  1.00  0.00    -0.237 OA
ATOM    103  O   UNL     1      -8.372   9.719   0.061  1.00  0.00    -0.744 OA
ENDBRANCH  97 100
ENDBRANCH  70  93
ENDBRANCH  44  45
ENDBRANCH  37  39
ENDBRANCH  36  37
ENDBRANCH  35  36
ENDBRANCH  34  35
ENDBRANCH  33  34
ENDBRANCH   1  33
TORSDOF 23
