REMARK SMILES COCCn1nnc(C(=O)OCCOCCOCCOC(=O)c2ccc(-c3c4nc(c(-c5cccc(S(=O)(=O)[O-])c5F)c5ccc([nH]5)c(-c5cccc(S(=O)(=O)[O-])c5F)c5nc(c(-c6cccc(S(=O)(=O)[O-])c6F)c6ccc3[nH]6)C=C5)C=C4)cc2)c1C(F)(F)F
REMARK SMILES IDX 15 1 14 2 13 3 12 4 11 5 9 6 10 7 8 8 5 9 6 10 86 11 7 12
REMARK SMILES IDX 4 13 3 14 2 15 1 16 87 17 88 18 89 19 90 20 16 21 17 22
REMARK SMILES IDX 18 23 19 24 20 25 21 26 22 27 23 28 24 29 85 30 25 31 84 32
REMARK SMILES IDX 26 33 27 34 28 35 78 36 29 37 83 38 77 39 79 40 30 41 82 42
REMARK SMILES IDX 76 43 75 44 31 46 63 47 43 48 62 49 44 50 47 51 61 52 80 53
REMARK SMILES IDX 45 54 46 55 60 57 81 58 48 59 32 60 33 61 41 62 34 63 36 64
REMARK SMILES IDX 42 65 35 66 37 67 38 68 39 69 40 70 64 71 65 72 73 73 66 74
REMARK SMILES IDX 68 75 74 76 67 77 69 78 70 79 71 80 72 81 49 82 50 83 58 84
REMARK SMILES IDX 51 85 53 86 59 87 52 88 54 89 55 90 56 91 57 92
REMARK H PARENT 79 45 47 56
REMARK Flexibility Score: inf
ROOT
ATOM      1  C   UNL     1       0.431  -5.272  -3.334  1.00  0.00     0.188 C 
ENDROOT
BRANCH   1   2
ATOM      2  O   UNL     1       0.644  -6.589  -3.827  1.00  0.00    -0.376 OA
BRANCH   2   3
ATOM      3  C   UNL     1       0.791  -7.676  -2.921  1.00  0.00     0.202 C 
BRANCH   3   4
ATOM      4  C   UNL     1       1.822  -7.583  -1.778  1.00  0.00     0.261 C 
BRANCH   4   5
ATOM      5  O   UNL     1       1.654  -6.460  -0.890  1.00  0.00    -0.458 OA
BRANCH   5   6
ATOM      6  C   UNL     1       2.651  -5.530  -0.884  1.00  0.00     0.361 C 
ATOM      7  O   UNL     1       3.724  -5.670  -1.453  1.00  0.00    -0.244 OA
BRANCH   6   8
ATOM      8  C   UNL     1       2.268  -4.282  -0.225  1.00  0.00     0.203 A 
ATOM      9  N   UNL     1       1.375  -2.659   0.924  1.00  0.00    -0.237 N 
ATOM     10  N   UNL     1       2.241  -2.112   0.056  1.00  0.00    -0.066 NA
ATOM     11  C   UNL     1       1.370  -4.029   0.802  1.00  0.00     0.177 A 
ATOM     12  N   UNL     1       2.797  -3.085  -0.642  1.00  0.00    -0.122 NA
BRANCH   9  13
ATOM     13  C   UNL     1       0.634  -1.808   1.842  1.00  0.00     0.175 C 
BRANCH  13  14
ATOM     14  C   UNL     1       1.121  -0.356   1.972  1.00  0.00     0.183 C 
BRANCH  14  15
ATOM     15  O   UNL     1       0.337   0.578   1.227  1.00  0.00    -0.383 OA
ATOM     16  C   UNL     1       0.674   0.634  -0.154  1.00  0.00     0.194 C 
ENDBRANCH  14  15
ENDBRANCH  13  14
ENDBRANCH   9  13
BRANCH  11  17
ATOM     17  C   UNL     1       0.566  -4.933   1.629  1.00  0.00     0.435 C 
ATOM     18  F   UNL     1      -0.654  -5.176   1.106  1.00  0.00    -0.164 F 
ATOM     19  F   UNL     1       1.182  -6.124   1.827  1.00  0.00    -0.164 F 
ATOM     20  F   UNL     1       0.347  -4.423   2.870  1.00  0.00    -0.164 F 
ENDBRANCH  11  17
ENDBRANCH   6   8
ENDBRANCH   5   6
ENDBRANCH   4   5
ENDBRANCH   3   4
ENDBRANCH   2   3
ENDBRANCH   1   2
BRANCH   1  21
ATOM     21  C   UNL     1      -0.593  -5.021  -2.207  1.00  0.00     0.188 C 
BRANCH  21  22
ATOM     22  O   UNL     1      -0.902  -6.172  -1.440  1.00  0.00    -0.376 OA
BRANCH  22  23
ATOM     23  C   UNL     1      -2.247  -6.633  -1.400  1.00  0.00     0.202 C 
BRANCH  23  24
ATOM     24  C   UNL     1      -2.914  -7.053  -2.708  1.00  0.00     0.261 C 
BRANCH  24  25
ATOM     25  O   UNL     1      -2.583  -6.243  -3.820  1.00  0.00    -0.460 OA
BRANCH  25  26
ATOM     26  C   UNL     1      -3.224  -5.059  -3.876  1.00  0.00     0.338 C 
ATOM     27  O   UNL     1      -3.819  -4.499  -2.975  1.00  0.00    -0.246 OA
BRANCH  26  28
ATOM     28  C   UNL     1      -3.147  -4.585  -5.258  1.00  0.00     0.060 A 
ATOM     29  C   UNL     1      -3.514  -3.260  -5.505  1.00  0.00     0.016 A 
ATOM     30  C   UNL     1      -3.048  -5.546  -6.273  1.00  0.00     0.016 A 
ATOM     31  C   UNL     1      -4.014  -2.953  -6.749  1.00  0.00     0.010 A 
ATOM     32  C   UNL     1      -3.586  -5.252  -7.494  1.00  0.00     0.010 A 
ATOM     33  C   UNL     1      -4.137  -3.986  -7.680  1.00  0.00    -0.014 A 
BRANCH  33  34
ATOM     34  C   UNL     1      -4.899  -3.749  -8.879  1.00  0.00     0.031 A 
ATOM     35  C   UNL     1      -4.117  -3.160  -9.979  1.00  0.00     0.074 A 
ATOM     36  C   UNL     1      -6.162  -4.199  -8.992  1.00  0.00     0.049 A 
ATOM     37  N   UNL     1      -4.256  -1.984 -10.491  1.00  0.00    -0.248 NA
ATOM     38  C   UNL     1      -2.941  -3.899 -10.458  1.00  0.00     0.031 C 
ATOM     39  C   UNL     1      -6.888  -5.067  -8.058  1.00  0.00     0.029 A 
ATOM     40  N   UNL     1      -7.002  -4.110 -10.055  1.00  0.00    -0.354 N 
ATOM     41  C   UNL     1      -3.333  -1.939 -11.527  1.00  0.00     0.074 A 
ATOM     42  C   UNL     1      -2.411  -3.021 -11.308  1.00  0.00     0.031 C 
ATOM     43  C   UNL     1      -7.938  -5.622  -8.705  1.00  0.00     0.029 A 
ATOM     44  C   UNL     1      -8.011  -5.065 -10.045  1.00  0.00     0.049 A 
ATOM     45  H   UNL     1      -6.905  -3.434 -10.765  1.00  0.00     0.167 HD
ATOM     46  C   UNL     1      -3.567  -1.207 -12.647  1.00  0.00     0.034 A 
ATOM     47  C   UNL     1      -8.777  -5.430 -11.101  1.00  0.00     0.034 A 
ATOM     48  C   UNL     1      -4.639  -0.265 -12.460  1.00  0.00     0.049 A 
ATOM     49  C   UNL     1      -8.672  -4.356 -12.119  1.00  0.00     0.074 A 
ATOM     50  C   UNL     1      -4.889   0.766 -11.577  1.00  0.00     0.029 A 
ATOM     51  N   UNL     1      -5.845  -0.571 -13.044  1.00  0.00    -0.354 N 
ATOM     52  N   UNL     1      -9.188  -3.168 -11.971  1.00  0.00    -0.248 NA
ATOM     53  C   UNL     1      -7.638  -4.462 -13.138  1.00  0.00     0.031 C 
ATOM     54  C   UNL     1      -6.295   0.726 -11.349  1.00  0.00     0.029 A 
ATOM     55  C   UNL     1      -6.830  -0.298 -12.133  1.00  0.00     0.049 A 
ATOM     56  H   UNL     1      -5.977  -0.922 -13.954  1.00  0.00     0.167 HD
ATOM     57  C   UNL     1      -8.246  -2.309 -12.525  1.00  0.00     0.074 A 
ATOM     58  C   UNL     1      -7.391  -3.165 -13.345  1.00  0.00     0.031 C 
ATOM     59  C   UNL     1      -8.063  -1.049 -12.027  1.00  0.00     0.034 A 
BRANCH  46  60
ATOM     60  C   UNL     1      -3.082  -1.594 -14.019  1.00  0.00     0.023 A 
ATOM     61  C   UNL     1      -3.181  -0.622 -15.036  1.00  0.00     0.012 A 
ATOM     62  C   UNL     1      -2.782  -2.917 -14.420  1.00  0.00     0.148 A 
ATOM     63  C   UNL     1      -3.024  -0.958 -16.384  1.00  0.00     0.002 A 
ATOM     64  C   UNL     1      -2.530  -3.225 -15.749  1.00  0.00     0.091 A 
ATOM     65  F   UNL     1      -2.881  -3.926 -13.547  1.00  0.00    -0.205 F 
ATOM     66  C   UNL     1      -2.682  -2.256 -16.741  1.00  0.00     0.022 A 
BRANCH  64  67
ATOM     67  S   UNL     1      -2.012  -4.876 -16.233  1.00  0.00     0.127 S 
ATOM     68  O   UNL     1      -3.264  -5.447 -16.718  1.00  0.00    -0.237 OA
ATOM     69  O   UNL     1      -1.016  -4.591 -17.267  1.00  0.00    -0.237 OA
ATOM     70  O   UNL     1      -1.455  -5.469 -15.023  1.00  0.00    -0.744 OA
ENDBRANCH  64  67
ENDBRANCH  46  60
BRANCH  47  71
ATOM     71  C   UNL     1      -9.437  -6.723 -11.390  1.00  0.00     0.023 A 
ATOM     72  C   UNL     1     -10.504  -6.763 -12.308  1.00  0.00     0.012 A 
ATOM     73  C   UNL     1      -8.879  -7.949 -10.965  1.00  0.00     0.148 A 
ATOM     74  C   UNL     1     -10.980  -7.980 -12.809  1.00  0.00     0.002 A 
ATOM     75  C   UNL     1      -9.366  -9.158 -11.453  1.00  0.00     0.091 A 
ATOM     76  F   UNL     1      -7.811  -7.932 -10.157  1.00  0.00    -0.205 F 
ATOM     77  C   UNL     1     -10.409  -9.177 -12.386  1.00  0.00     0.022 A 
BRANCH  75  78
ATOM     78  S   UNL     1      -8.667 -10.739 -10.954  1.00  0.00     0.127 S 
ATOM     79  O   UNL     1      -9.865 -11.546 -10.725  1.00  0.00    -0.237 OA
ATOM     80  O   UNL     1      -7.892 -11.113 -12.134  1.00  0.00    -0.237 OA
ATOM     81  O   UNL     1      -7.895 -10.465  -9.748  1.00  0.00    -0.744 OA
ENDBRANCH  75  78
ENDBRANCH  47  71
BRANCH  59  82
ATOM     82  C   UNL     1      -9.084  -0.521 -11.046  1.00  0.00     0.023 A 
ATOM     83  C   UNL     1      -9.331  -1.159  -9.811  1.00  0.00     0.012 A 
ATOM     84  C   UNL     1      -9.679   0.729 -11.289  1.00  0.00     0.148 A 
ATOM     85  C   UNL     1     -10.178  -0.587  -8.861  1.00  0.00     0.002 A 
ATOM     86  C   UNL     1     -10.482   1.320 -10.319  1.00  0.00     0.091 A 
ATOM     87  F   UNL     1      -9.432   1.335 -12.460  1.00  0.00    -0.205 F 
ATOM     88  C   UNL     1     -10.744   0.659  -9.109  1.00  0.00     0.022 A 
BRANCH  86  89
ATOM     89  S   UNL     1     -11.122   2.984 -10.526  1.00  0.00     0.127 S 
ATOM     90  O   UNL     1     -12.491   2.733 -10.970  1.00  0.00    -0.237 OA
ATOM     91  O   UNL     1     -11.010   3.540  -9.176  1.00  0.00    -0.237 OA
ATOM     92  O   UNL     1     -10.246   3.623 -11.501  1.00  0.00    -0.744 OA
ENDBRANCH  86  89
ENDBRANCH  59  82
ENDBRANCH  33  34
ENDBRANCH  26  28
ENDBRANCH  25  26
ENDBRANCH  24  25
ENDBRANCH  23  24
ENDBRANCH  22  23
ENDBRANCH  21  22
ENDBRANCH   1  21
TORSDOF 24
