REMARK SMILES Cc1ccc(Cl)c(Nc2ccccc2C(=O)N[C@@H](C)C(=O)OCCOCCOCCOC(=O)c2ccc(-c3c4nc(c(-c5cccc(S(=O)(=O)[O-])c5F)c5ccc([nH]5)c(-c5cccc(S(=O)(=O)[O-])c5F)c5nc(c(-c6cccc(S(=O)(=O)[O-])c6F)c6ccc3[nH]6)C=C5)C=C4)cc2)c1Cl
REMARK SMILES IDX 26 1 25 2 24 3 23 4 22 5 20 6 21 7 18 8 19 9 17 10 15 11
REMARK SMILES IDX 16 12 14 14 9 15 10 16 11 17 13 18 12 19 8 20 7 22 1 23 2 24
REMARK SMILES IDX 3 25 97 26 4 27 98 28 5 29 6 30 27 31 28 32 29 33 30 34
REMARK SMILES IDX 31 35 32 36 33 37 34 38 35 39 96 40 36 41 95 42 37 43 38 44
REMARK SMILES IDX 39 45 89 46 40 47 94 48 88 49 90 50 41 51 93 52 87 53 86 54
REMARK SMILES IDX 42 56 74 57 54 58 73 59 55 60 58 61 72 62 91 63 56 64 57 65
REMARK SMILES IDX 71 67 92 68 59 69 43 70 44 71 52 72 45 73 47 74 53 75 46 76
REMARK SMILES IDX 48 77 49 78 50 79 51 80 75 81 76 82 84 83 77 84 79 85 85 86
REMARK SMILES IDX 78 87 80 88 81 89 82 90 83 91 60 92 61 93 69 94 62 95 64 96
REMARK SMILES IDX 70 97 63 98 65 99 66 100 67 101 68 102
REMARK H PARENT 17 13 8 21 90 55 58 66
REMARK Flexibility Score: inf
ROOT
ATOM      1  C   UNL     1       2.054   2.432  -1.433  1.00  0.00     0.188 C 
ENDROOT
BRANCH   1   2
ATOM      2  O   UNL     1       0.619   2.635  -1.224  1.00  0.00    -0.376 OA
BRANCH   2   3
ATOM      3  C   UNL     1       0.075   3.604  -0.301  1.00  0.00     0.202 C 
BRANCH   3   4
ATOM      4  C   UNL     1      -1.337   3.288   0.561  1.00  0.00     0.261 C 
BRANCH   4   5
ATOM      5  O   UNL     1      -1.395   2.170   1.573  1.00  0.00    -0.462 OA
BRANCH   5   6
ATOM      6  C   UNL     1      -2.403   1.207   1.637  1.00  0.00     0.328 C 
ATOM      7  O   UNL     1      -3.550   1.468   1.269  1.00  0.00    -0.250 OA
BRANCH   6   8
ATOM      8  C   UNL     1      -1.968  -0.397   2.034  1.00  0.00     0.189 C 
ATOM      9  C   UNL     1      -3.106  -1.093   2.781  1.00  0.00     0.043 C 
BRANCH   8  10
ATOM     10  N   UNL     1      -0.699  -0.918   2.638  1.00  0.00    -0.339 N 
ATOM     11  C   UNL     1       0.098  -2.070   2.587  1.00  0.00     0.254 C 
ATOM     12  O   UNL     1       0.888  -2.078   3.552  1.00  0.00    -0.269 OA
ATOM     13  H   UNL     1      -0.310  -0.254   3.252  1.00  0.00     0.164 HD
BRANCH  11  14
ATOM     14  C   UNL     1       0.262  -3.262   1.597  1.00  0.00     0.063 A 
ATOM     15  C   UNL     1      -0.462  -3.720   0.464  1.00  0.00     0.051 A 
ATOM     16  C   UNL     1       0.071  -4.763  -0.372  1.00  0.00     0.027 A 
ATOM     17  C   UNL     1       1.287  -5.379  -0.131  1.00  0.00     0.002 A 
ATOM     18  C   UNL     1       1.473  -3.999   1.841  1.00  0.00     0.016 A 
ATOM     19  C   UNL     1       1.980  -5.014   1.001  1.00  0.00     0.001 A 
BRANCH  15  20
ATOM     20  N   UNL     1      -1.556  -3.083  -0.160  1.00  0.00    -0.352 N 
ATOM     21  H   UNL     1      -2.463  -3.424   0.014  1.00  0.00     0.167 HD
BRANCH  20  22
ATOM     22  C   UNL     1      -1.401  -1.965  -1.034  1.00  0.00     0.077 A 
ATOM     23  C   UNL     1       0.425   0.589   0.517  1.00  0.00     0.046 C 
ATOM     24  C   UNL     1      -0.437   0.112  -0.617  1.00  0.00    -0.030 A 
ATOM     25  C   UNL     1      -1.488   0.739  -1.298  1.00  0.00     0.006 A 
ATOM     26  C   UNL     1      -0.256  -1.196  -0.942  1.00  0.00     0.069 A 
ATOM     27  C   UNL     1      -2.516  -0.012  -1.868  1.00  0.00     0.023 A 
ATOM     28  Cl  UNL     1       1.343  -1.803  -1.061  1.00  0.00    -0.082 Cl
ATOM     29  C   UNL     1      -2.530  -1.369  -1.607  1.00  0.00     0.066 A 
ATOM     30  Cl  UNL     1      -3.969  -2.274  -1.875  1.00  0.00    -0.082 Cl
ENDBRANCH  20  22
ENDBRANCH  15  20
ENDBRANCH  11  14
ENDBRANCH   8  10
ENDBRANCH   6   8
ENDBRANCH   5   6
ENDBRANCH   4   5
ENDBRANCH   3   4
ENDBRANCH   2   3
ENDBRANCH   1   2
BRANCH   1  31
ATOM     31  C   UNL     1       2.949   1.592  -0.444  1.00  0.00     0.188 C 
BRANCH  31  32
ATOM     32  O   UNL     1       3.336   2.188   0.787  1.00  0.00    -0.376 OA
BRANCH  32  33
ATOM     33  C   UNL     1       4.173   3.319   0.632  1.00  0.00     0.202 C 
BRANCH  33  34
ATOM     34  C   UNL     1       5.568   3.090  -0.009  1.00  0.00     0.261 C 
BRANCH  34  35
ATOM     35  O   UNL     1       5.643   2.145  -1.109  1.00  0.00    -0.460 OA
BRANCH  35  36
ATOM     36  C   UNL     1       6.136   0.908  -0.814  1.00  0.00     0.338 C 
ATOM     37  O   UNL     1       6.708   0.599   0.238  1.00  0.00    -0.246 OA
BRANCH  36  38
ATOM     38  C   UNL     1       5.709  -0.123  -1.803  1.00  0.00     0.060 A 
ATOM     39  C   UNL     1       4.809  -1.118  -1.384  1.00  0.00     0.016 A 
ATOM     40  C   UNL     1       6.216  -0.175  -3.103  1.00  0.00     0.016 A 
ATOM     41  C   UNL     1       4.403  -2.140  -2.251  1.00  0.00     0.010 A 
ATOM     42  C   UNL     1       5.835  -1.229  -3.960  1.00  0.00     0.010 A 
ATOM     43  C   UNL     1       4.927  -2.222  -3.540  1.00  0.00    -0.014 A 
BRANCH  43  44
ATOM     44  C   UNL     1       4.745  -3.479  -4.319  1.00  0.00     0.031 A 
ATOM     45  C   UNL     1       5.852  -4.492  -4.248  1.00  0.00     0.074 A 
ATOM     46  C   UNL     1       3.628  -3.778  -5.011  1.00  0.00     0.049 A 
ATOM     47  N   UNL     1       6.088  -5.530  -5.003  1.00  0.00    -0.248 NA
ATOM     48  C   UNL     1       6.822  -4.304  -3.156  1.00  0.00     0.031 C 
ATOM     49  C   UNL     1       2.394  -2.997  -5.020  1.00  0.00     0.029 A 
ATOM     50  N   UNL     1       3.366  -4.826  -5.867  1.00  0.00    -0.354 N 
ATOM     51  C   UNL     1       7.281  -6.066  -4.533  1.00  0.00     0.074 A 
ATOM     52  C   UNL     1       7.691  -5.272  -3.397  1.00  0.00     0.031 C 
ATOM     53  C   UNL     1       1.525  -3.562  -5.878  1.00  0.00     0.029 A 
ATOM     54  C   UNL     1       2.171  -4.696  -6.539  1.00  0.00     0.049 A 
ATOM     55  H   UNL     1       3.974  -5.592  -5.986  1.00  0.00     0.167 HD
ATOM     56  C   UNL     1       7.985  -7.111  -5.025  1.00  0.00     0.034 A 
ATOM     57  C   UNL     1       1.696  -5.364  -7.613  1.00  0.00     0.034 A 
ATOM     58  C   UNL     1       7.549  -7.909  -6.136  1.00  0.00     0.049 A 
ATOM     59  C   UNL     1       2.546  -6.452  -8.230  1.00  0.00     0.074 A 
ATOM     60  C   UNL     1       8.193  -8.973  -6.740  1.00  0.00     0.029 A 
ATOM     61  N   UNL     1       6.356  -7.721  -6.816  1.00  0.00    -0.354 N 
ATOM     62  N   UNL     1       3.695  -6.937  -7.821  1.00  0.00    -0.248 NA
ATOM     63  C   UNL     1       2.041  -7.079  -9.462  1.00  0.00     0.031 C 
ATOM     64  C   UNL     1       7.405  -9.402  -7.812  1.00  0.00     0.029 A 
ATOM     65  C   UNL     1       6.251  -8.635  -7.848  1.00  0.00     0.049 A 
ATOM     66  H   UNL     1       5.682  -7.037  -6.596  1.00  0.00     0.167 HD
ATOM     67  C   UNL     1       4.036  -7.938  -8.726  1.00  0.00     0.074 A 
ATOM     68  C   UNL     1       2.959  -8.008  -9.693  1.00  0.00     0.031 C 
ATOM     69  C   UNL     1       5.146  -8.717  -8.768  1.00  0.00     0.034 A 
BRANCH  56  70
ATOM     70  C   UNL     1       9.327  -7.391  -4.407  1.00  0.00     0.023 A 
ATOM     71  C   UNL     1       9.425  -7.953  -3.119  1.00  0.00     0.012 A 
ATOM     72  C   UNL     1      10.503  -7.087  -5.121  1.00  0.00     0.148 A 
ATOM     73  C   UNL     1      10.674  -8.169  -2.536  1.00  0.00     0.002 A 
ATOM     74  C   UNL     1      11.742  -7.351  -4.555  1.00  0.00     0.091 A 
ATOM     75  F   UNL     1      10.386  -6.526  -6.333  1.00  0.00    -0.205 F 
ATOM     76  C   UNL     1      11.831  -7.878  -3.256  1.00  0.00     0.022 A 
BRANCH  74  77
ATOM     77  S   UNL     1      13.285  -7.078  -5.432  1.00  0.00     0.127 S 
ATOM     78  O   UNL     1      13.875  -5.986  -4.660  1.00  0.00    -0.237 OA
ATOM     79  O   UNL     1      13.956  -8.368  -5.275  1.00  0.00    -0.237 OA
ATOM     80  O   UNL     1      12.918  -6.744  -6.801  1.00  0.00    -0.744 OA
ENDBRANCH  74  77
ENDBRANCH  56  70
BRANCH  57  81
ATOM     81  C   UNL     1       0.388  -4.986  -8.233  1.00  0.00     0.023 A 
ATOM     82  C   UNL     1      -0.676  -5.910  -8.255  1.00  0.00     0.012 A 
ATOM     83  C   UNL     1       0.201  -3.720  -8.828  1.00  0.00     0.148 A 
ATOM     84  C   UNL     1      -1.886  -5.592  -8.877  1.00  0.00     0.002 A 
ATOM     85  C   UNL     1      -1.026  -3.388  -9.391  1.00  0.00     0.091 A 
ATOM     86  F   UNL     1       1.231  -2.863  -8.832  1.00  0.00    -0.205 F 
ATOM     87  C   UNL     1      -2.066  -4.328  -9.434  1.00  0.00     0.022 A 
BRANCH  85  88
ATOM     88  S   UNL     1      -1.385  -1.746 -10.028  1.00  0.00     0.127 S 
ATOM     89  O   UNL     1      -1.549  -2.007 -11.456  1.00  0.00    -0.237 OA
ATOM     90  O   UNL     1      -2.620  -1.414  -9.316  1.00  0.00    -0.237 OA
ATOM     91  O   UNL     1      -0.241  -0.921  -9.666  1.00  0.00    -0.744 OA
ENDBRANCH  85  88
ENDBRANCH  57  81
BRANCH  69  92
ATOM     92  C   UNL     1       5.246  -9.743  -9.868  1.00  0.00     0.023 A 
ATOM     93  C   UNL     1       5.509  -9.334 -11.190  1.00  0.00     0.012 A 
ATOM     94  C   UNL     1       5.184 -11.118  -9.568  1.00  0.00     0.148 A 
ATOM     95  C   UNL     1       5.682 -10.278 -12.201  1.00  0.00     0.002 A 
ATOM     96  C   UNL     1       5.410 -12.053 -10.569  1.00  0.00     0.091 A 
ATOM     97  F   UNL     1       4.921 -11.484  -8.305  1.00  0.00    -0.205 F 
ATOM     98  C   UNL     1       5.647 -11.636 -11.889  1.00  0.00     0.022 A 
BRANCH  96  99
ATOM     99  S   UNL     1       5.487 -13.818 -10.245  1.00  0.00     0.127 S 
ATOM    100  O   UNL     1       4.300 -14.302 -10.948  1.00  0.00    -0.237 OA
ATOM    101  O   UNL     1       6.759 -14.190 -10.865  1.00  0.00    -0.237 OA
ATOM    102  O   UNL     1       5.452 -13.966  -8.796  1.00  0.00    -0.744 OA
ENDBRANCH  96  99
ENDBRANCH  69  92
ENDBRANCH  43  44
ENDBRANCH  36  38
ENDBRANCH  35  36
ENDBRANCH  34  35
ENDBRANCH  33  34
ENDBRANCH  32  33
ENDBRANCH  31  32
ENDBRANCH   1  31
TORSDOF 24
