REMARK SMILES Cc1cc(F)cc(N[C@H](C(=O)OCCOCCOCCOC(=O)c2ccc(-c3c4nc(c(-c5cccc(S(=O)(=O)[O-])c5F)c5ccc([nH]5)c(-c5cccc(S(=O)(=O)[O-])c5F)c5nc(c(-c6cccc(S(=O)(=O)[O-])c6F)c6ccc3[nH]6)C=C5)C=C4)cc2)c2cc(C)cc(C)c2)c1
REMARK SMILES IDX 17 1 16 2 15 3 14 4 13 5 12 6 10 7 11 8 9 9 8 10 7 12 1 13
REMARK SMILES IDX 2 14 3 15 95 16 4 17 5 18 6 19 87 20 88 21 94 22 89 23 92 24
REMARK SMILES IDX 90 25 91 26 93 27 18 28 19 29 20 30 21 31 22 32 23 33 24 34
REMARK SMILES IDX 25 35 86 36 26 37 85 38 27 39 28 40 29 41 79 42 30 43 84 44
REMARK SMILES IDX 78 45 80 46 31 47 83 48 77 49 76 50 32 52 64 53 44 54 63 55
REMARK SMILES IDX 45 56 48 57 62 58 81 59 46 60 47 61 61 63 82 64 49 65 33 66
REMARK SMILES IDX 34 67 42 68 35 69 37 70 43 71 36 72 38 73 39 74 40 75 41 76
REMARK SMILES IDX 65 77 66 78 74 79 67 80 69 81 75 82 68 83 70 84 71 85 72 86
REMARK SMILES IDX 73 87 50 88 51 89 59 90 52 91 54 92 60 93 53 94 55 95 56 96
REMARK SMILES IDX 57 97 58 98
REMARK H PARENT 8 11 80 51 48 62
REMARK Flexibility Score: inf
ROOT
ATOM      1  C   UNL     1      -0.063  -1.320  -1.326  1.00  0.00     0.188 C 
ENDROOT
BRANCH   1   2
ATOM      2  C   UNL     1       0.929  -1.060  -0.169  1.00  0.00     0.188 C 
BRANCH   2   3
ATOM      3  O   UNL     1       2.284  -0.922  -0.564  1.00  0.00    -0.376 OA
BRANCH   3   4
ATOM      4  C   UNL     1       3.135  -2.022  -0.262  1.00  0.00     0.202 C 
BRANCH   4   5
ATOM      5  C   UNL     1       2.845  -3.282  -1.087  1.00  0.00     0.261 C 
BRANCH   5   6
ATOM      6  O   UNL     1       1.542  -3.844  -0.859  1.00  0.00    -0.461 OA
BRANCH   6   7
ATOM      7  C   UNL     1       1.312  -4.341   0.396  1.00  0.00     0.333 C 
ATOM      8  O   UNL     1       2.156  -4.324   1.281  1.00  0.00    -0.249 OA
BRANCH   7   9
ATOM      9  C   UNL     1      -0.162  -4.800   0.520  1.00  0.00     0.221 C 
BRANCH   9  10
ATOM     10  N   UNL     1      -0.576  -5.630  -0.639  1.00  0.00    -0.369 N 
ATOM     11  H   UNL     1      -1.331  -5.295  -1.172  1.00  0.00     0.161 HD
BRANCH  10  12
ATOM     12  C   UNL     1      -0.013  -6.827  -1.050  1.00  0.00     0.038 A 
ATOM     13  C   UNL     1      -0.301  -9.204  -4.050  1.00  0.00     0.044 C 
ATOM     14  C   UNL     1       0.101  -8.627  -2.728  1.00  0.00    -0.046 A 
ATOM     15  C   UNL     1       0.978  -9.345  -1.914  1.00  0.00     0.042 A 
ATOM     16  C   UNL     1      -0.407  -7.391  -2.276  1.00  0.00     0.029 A 
ATOM     17  C   UNL     1       1.369  -8.803  -0.707  1.00  0.00     0.125 A 
ATOM     18  F   UNL     1       2.216  -9.479   0.082  1.00  0.00    -0.207 F 
ATOM     19  C   UNL     1       0.902  -7.561  -0.297  1.00  0.00     0.065 A 
ENDBRANCH  10  12
ENDBRANCH   9  10
BRANCH   9  20
ATOM     20  C   UNL     1      -0.582  -5.418   1.850  1.00  0.00    -0.014 A 
ATOM     21  C   UNL     1       0.312  -6.168   2.623  1.00  0.00     0.010 A 
ATOM     22  C   UNL     1      -1.908  -5.315   2.307  1.00  0.00     0.010 A 
ATOM     23  C   UNL     1      -0.108  -6.944   3.700  1.00  0.00    -0.051 A 
ATOM     24  C   UNL     1      -2.321  -5.982   3.473  1.00  0.00    -0.051 A 
ATOM     25  C   UNL     1       0.844  -7.956   4.261  1.00  0.00     0.044 C 
ATOM     26  C   UNL     1      -1.428  -6.840   4.128  1.00  0.00     0.006 A 
ATOM     27  C   UNL     1      -3.715  -5.830   4.009  1.00  0.00     0.044 C 
ENDBRANCH   9  20
ENDBRANCH   7   9
ENDBRANCH   6   7
ENDBRANCH   5   6
ENDBRANCH   4   5
ENDBRANCH   3   4
ENDBRANCH   2   3
ENDBRANCH   1   2
BRANCH   1  28
ATOM     28  O   UNL     1       0.349  -1.252  -2.685  1.00  0.00    -0.376 OA
BRANCH  28  29
ATOM     29  C   UNL     1       1.299  -0.277  -3.085  1.00  0.00     0.202 C 
BRANCH  29  30
ATOM     30  C   UNL     1       1.000   1.211  -2.846  1.00  0.00     0.261 C 
BRANCH  30  31
ATOM     31  O   UNL     1       0.551   1.550  -1.525  1.00  0.00    -0.460 OA
BRANCH  31  32
ATOM     32  C   UNL     1      -0.761   1.878  -1.424  1.00  0.00     0.338 C 
ATOM     33  O   UNL     1      -1.577   1.925  -2.328  1.00  0.00    -0.246 OA
BRANCH  32  34
ATOM     34  C   UNL     1      -1.144   2.009  -0.001  1.00  0.00     0.060 A 
ATOM     35  C   UNL     1      -2.191   1.206   0.472  1.00  0.00     0.016 A 
ATOM     36  C   UNL     1      -0.539   2.946   0.839  1.00  0.00     0.016 A 
ATOM     37  C   UNL     1      -2.663   1.362   1.775  1.00  0.00     0.010 A 
ATOM     38  C   UNL     1      -1.031   3.117   2.140  1.00  0.00     0.010 A 
ATOM     39  C   UNL     1      -2.118   2.352   2.601  1.00  0.00    -0.014 A 
BRANCH  39  40
ATOM     40  C   UNL     1      -2.808   2.707   3.866  1.00  0.00     0.031 A 
ATOM     41  C   UNL     1      -3.758   3.876   3.866  1.00  0.00     0.074 A 
ATOM     42  C   UNL     1      -2.611   2.001   4.994  1.00  0.00     0.049 A 
ATOM     43  N   UNL     1      -4.462   4.373   4.849  1.00  0.00    -0.248 NA
ATOM     44  C   UNL     1      -3.935   4.579   2.584  1.00  0.00     0.031 C 
ATOM     45  C   UNL     1      -1.727   0.845   5.125  1.00  0.00     0.029 A 
ATOM     46  N   UNL     1      -3.130   2.174   6.254  1.00  0.00    -0.354 N 
ATOM     47  C   UNL     1      -5.144   5.460   4.315  1.00  0.00     0.074 A 
ATOM     48  C   UNL     1      -4.761   5.558   2.924  1.00  0.00     0.031 C 
ATOM     49  C   UNL     1      -1.740   0.430   6.405  1.00  0.00     0.029 A 
ATOM     50  C   UNL     1      -2.618   1.302   7.185  1.00  0.00     0.049 A 
ATOM     51  H   UNL     1      -3.805   2.858   6.470  1.00  0.00     0.167 HD
ATOM     52  C   UNL     1      -6.021   6.294   4.921  1.00  0.00     0.034 A 
ATOM     53  C   UNL     1      -2.821   1.228   8.517  1.00  0.00     0.034 A 
ATOM     54  C   UNL     1      -6.415   6.190   6.300  1.00  0.00     0.049 A 
ATOM     55  C   UNL     1      -3.786   2.183   9.173  1.00  0.00     0.074 A 
ATOM     56  C   UNL     1      -7.329   6.964   6.993  1.00  0.00     0.029 A 
ATOM     57  N   UNL     1      -5.910   5.265   7.199  1.00  0.00    -0.354 N 
ATOM     58  N   UNL     1      -4.515   3.127   8.629  1.00  0.00    -0.248 NA
ATOM     59  C   UNL     1      -3.985   2.038  10.624  1.00  0.00     0.031 C 
ATOM     60  C   UNL     1      -7.358   6.522   8.320  1.00  0.00     0.029 A 
ATOM     61  C   UNL     1      -6.486   5.453   8.444  1.00  0.00     0.049 A 
ATOM     62  H   UNL     1      -5.241   4.576   6.985  1.00  0.00     0.167 HD
ATOM     63  C   UNL     1      -5.288   3.657   9.658  1.00  0.00     0.074 A 
ATOM     64  C   UNL     1      -4.949   2.918  10.856  1.00  0.00     0.031 C 
ATOM     65  C   UNL     1      -6.189   4.670   9.617  1.00  0.00     0.034 A 
BRANCH  52  66
ATOM     66  C   UNL     1      -6.637   7.384   4.085  1.00  0.00     0.023 A 
ATOM     67  C   UNL     1      -7.613   7.057   3.122  1.00  0.00     0.012 A 
ATOM     68  C   UNL     1      -6.290   8.734   4.287  1.00  0.00     0.148 A 
ATOM     69  C   UNL     1      -8.211   8.053   2.351  1.00  0.00     0.002 A 
ATOM     70  C   UNL     1      -6.922   9.725   3.545  1.00  0.00     0.091 A 
ATOM     71  F   UNL     1      -5.343   9.022   5.191  1.00  0.00    -0.205 F 
ATOM     72  C   UNL     1      -7.874   9.386   2.570  1.00  0.00     0.022 A 
BRANCH  70  73
ATOM     73  S   UNL     1      -6.612  11.475   3.807  1.00  0.00     0.127 S 
ATOM     74  O   UNL     1      -5.864  11.825   2.601  1.00  0.00    -0.237 OA
ATOM     75  O   UNL     1      -7.968  12.022   3.864  1.00  0.00    -0.237 OA
ATOM     76  O   UNL     1      -5.867  11.568   5.055  1.00  0.00    -0.744 OA
ENDBRANCH  70  73
ENDBRANCH  52  66
BRANCH  53  77
ATOM     77  C   UNL     1      -2.123   0.185   9.322  1.00  0.00     0.023 A 
ATOM     78  C   UNL     1      -2.865  -0.872   9.884  1.00  0.00     0.012 A 
ATOM     79  C   UNL     1      -0.731   0.233   9.531  1.00  0.00     0.148 A 
ATOM     80  C   UNL     1      -2.240  -1.844  10.666  1.00  0.00     0.002 A 
ATOM     81  C   UNL     1      -0.106  -0.767  10.267  1.00  0.00     0.091 A 
ATOM     82  F   UNL     1      -0.045   1.258   9.004  1.00  0.00    -0.205 F 
ATOM     83  C   UNL     1      -0.860  -1.797  10.849  1.00  0.00     0.022 A 
BRANCH  81  84
ATOM     84  S   UNL     1       1.678  -0.851  10.458  1.00  0.00     0.127 S 
ATOM     85  O   UNL     1       1.844  -0.511  11.868  1.00  0.00    -0.237 OA
ATOM     86  O   UNL     1       1.952  -2.249  10.124  1.00  0.00    -0.237 OA
ATOM     87  O   UNL     1       2.220   0.111   9.507  1.00  0.00    -0.744 OA
ENDBRANCH  81  84
ENDBRANCH  53  77
BRANCH  65  88
ATOM     88  C   UNL     1      -6.921   5.017  10.888  1.00  0.00     0.023 A 
ATOM     89  C   UNL     1      -6.247   5.678  11.932  1.00  0.00     0.012 A 
ATOM     90  C   UNL     1      -8.302   4.761  11.010  1.00  0.00     0.148 A 
ATOM     91  C   UNL     1      -6.927   6.051  13.092  1.00  0.00     0.002 A 
ATOM     92  C   UNL     1      -8.984   5.179  12.147  1.00  0.00     0.091 A 
ATOM     93  F   UNL     1      -8.924   4.114  10.014  1.00  0.00    -0.205 F 
ATOM     94  C   UNL     1      -8.296   5.813  13.194  1.00  0.00     0.022 A 
BRANCH  92  95
ATOM     95  S   UNL     1     -10.764   5.002  12.320  1.00  0.00     0.127 S 
ATOM     96  O   UNL     1     -10.863   3.909  13.287  1.00  0.00    -0.237 OA
ATOM     97  O   UNL     1     -11.159   6.312  12.839  1.00  0.00    -0.237 OA
ATOM     98  O   UNL     1     -11.268   4.706  10.986  1.00  0.00    -0.744 OA
ENDBRANCH  92  95
ENDBRANCH  65  88
ENDBRANCH  39  40
ENDBRANCH  32  34
ENDBRANCH  31  32
ENDBRANCH  30  31
ENDBRANCH  29  30
ENDBRANCH  28  29
ENDBRANCH   1  28
TORSDOF 23
